REMARK SMILES C[C@H]1c2ccc(O)cc2OC(=O)[C@@H]1CC(=O)N[C@@H](CC1=c2ccccc2=NC1)C(=O)NCCCCNC(=O)c1ccc(-c2c3nc(c(-c4cccc(S(=O)(=O)[O-])c4F)c4ccc([nH]4)c(-c4cccc(S(=O)(=O)[O-])c4F)c4nc(c(-c5cccc(S(=O)(=O)[O-])c5F)c5ccc2[nH]5)C=C4)C=C3)cc1
REMARK SMILES IDX 33 1 32 2 31 3 29 4 30 5 18 7 17 8 15 9 16 10 14 12 13 13
REMARK SMILES IDX 1 14 2 15 3 16 4 17 9 18 11 19 5 20 8 21 10 22 12 23 6 24
REMARK SMILES IDX 7 25 19 27 20 28 21 29 28 30 22 31 26 32 27 33 23 34 25 35
REMARK SMILES IDX 24 36 34 37 35 38 36 39 37 40 38 42 39 43 40 44 101 45 41 46
REMARK SMILES IDX 100 47 42 48 43 49 44 50 94 51 45 52 99 53 93 54 95 55 46 56
REMARK SMILES IDX 98 57 92 58 91 59 47 61 79 62 59 63 78 64 60 65 63 66 77 67
REMARK SMILES IDX 96 68 61 69 62 70 76 72 97 73 64 74 48 75 49 76 57 77 50 78
REMARK SMILES IDX 52 79 58 80 51 81 53 82 54 83 55 84 56 85 80 86 81 87 89 88
REMARK SMILES IDX 82 89 84 90 90 91 83 92 85 93 86 94 87 95 88 96 65 97 66 98
REMARK SMILES IDX 74 99 67 100 69 101 75 102 68 103 70 104 71 105 72 106
REMARK SMILES IDX 73 107
REMARK H PARENT 31 6 17 11 7 26 36 41 95 60 63 71
REMARK Flexibility Score: inf
ROOT
ATOM      1  C   UNL     1      -1.456  -9.669   1.499  1.00  0.00     0.023 C 
ENDROOT
BRANCH   1   2
ATOM      2  C   UNL     1      -0.506  -8.616   0.947  1.00  0.00     0.116 C 
BRANCH   2   3
ATOM      3  N   UNL     1      -0.940  -7.928  -0.236  1.00  0.00    -0.354 N 
ATOM      4  C   UNL     1      -0.386  -6.800  -0.772  1.00  0.00     0.242 C 
ATOM      5  O   UNL     1      -0.741  -6.479  -1.911  1.00  0.00    -0.273 OA
ATOM      6  H   UNL     1      -1.715  -8.308  -0.709  1.00  0.00     0.163 HD
BRANCH   4   7
ATOM      7  C   UNL     1       0.726  -5.986  -0.043  1.00  0.00     0.175 C 
BRANCH   7   8
ATOM      8  N   UNL     1       0.339  -5.505   1.297  1.00  0.00    -0.344 N 
ATOM      9  C   UNL     1      -0.227  -4.341   1.713  1.00  0.00     0.221 C 
ATOM     10  O   UNL     1      -0.458  -4.196   2.915  1.00  0.00    -0.275 OA
ATOM     11  H   UNL     1       0.526  -6.143   2.023  1.00  0.00     0.164 HD
BRANCH   9  12
ATOM     12  C   UNL     1      -0.547  -3.227   0.738  1.00  0.00     0.116 C 
BRANCH  12  13
ATOM     13  C   UNL     1       0.586  -2.183   0.682  1.00  0.00     0.116 C 
ATOM     14  C   UNL     1       1.261   0.229   0.205  1.00  0.00     0.014 C 
ATOM     15  C   UNL     1       0.174  -0.843   0.043  1.00  0.00     0.034 C 
ATOM     16  C   UNL     1      -0.129  -1.071  -1.414  1.00  0.00    -0.001 A 
ATOM     17  C   UNL     1      -1.075  -0.309  -2.104  1.00  0.00     0.011 A 
ATOM     18  C   UNL     1       0.524  -2.103  -2.093  1.00  0.00     0.138 A 
ATOM     19  C   UNL     1       1.745  -2.727  -0.110  1.00  0.00     0.315 C 
ATOM     20  C   UNL     1      -1.391  -0.619  -3.430  1.00  0.00     0.047 A 
ATOM     21  C   UNL     1       0.209  -2.435  -3.404  1.00  0.00     0.093 A 
ATOM     22  O   UNL     1       1.549  -2.838  -1.476  1.00  0.00    -0.426 OA
ATOM     23  O   UNL     1       2.786  -3.099   0.414  1.00  0.00    -0.251 OA
ATOM     24  C   UNL     1      -0.762  -1.692  -4.060  1.00  0.00     0.119 A 
BRANCH  24  25
ATOM     25  O   UNL     1      -1.072  -2.044  -5.339  1.00  0.00    -0.508 OA
ATOM     26  H   UNL     1      -1.723  -1.565  -5.812  1.00  0.00     0.293 HD
ENDBRANCH  24  25
ENDBRANCH  12  13
ENDBRANCH   9  12
ENDBRANCH   7   8
BRANCH   7  27
ATOM     27  C   UNL     1       2.136  -6.684  -0.114  1.00  0.00     0.068 C 
BRANCH  27  28
ATOM     28  C   UNL     1       2.902  -6.806   1.181  1.00  0.00    -0.037 C 
ATOM     29  C   UNL     1       2.756  -7.608   2.234  1.00  0.00     0.001 A 
ATOM     30  C   UNL     1       4.025  -5.859   1.507  1.00  0.00     0.174 C 
ATOM     31  C   UNL     1       2.147  -8.850   2.565  1.00  0.00     0.010 A 
ATOM     32  C   UNL     1       3.216  -6.702   3.308  1.00  0.00     0.065 A 
ATOM     33  N   UNL     1       3.976  -5.706   2.975  1.00  0.00    -0.280 NA
ATOM     34  C   UNL     1       1.785  -9.088   3.836  1.00  0.00     0.001 A 
ATOM     35  C   UNL     1       2.619  -6.934   4.643  1.00  0.00     0.028 A 
ATOM     36  C   UNL     1       1.901  -8.051   4.845  1.00  0.00     0.002 A 
ENDBRANCH  27  28
ENDBRANCH   7  27
ENDBRANCH   4   7
ENDBRANCH   2   3
ENDBRANCH   1   2
BRANCH   1  37
ATOM     37  C   UNL     1      -1.543 -10.962   0.697  1.00  0.00     0.023 C 
BRANCH  37  38
ATOM     38  C   UNL     1      -0.215 -11.640   0.372  1.00  0.00     0.116 C 
BRANCH  38  39
ATOM     39  N   UNL     1       0.569 -12.029   1.539  1.00  0.00    -0.352 N 
ATOM     40  C   UNL     1       1.109 -13.262   1.857  1.00  0.00     0.251 C 
ATOM     41  H   UNL     1       0.739 -11.313   2.193  1.00  0.00     0.163 HD
ATOM     42  O   UNL     1       1.781 -13.410   2.875  1.00  0.00    -0.269 OA
BRANCH  40  43
ATOM     43  C   UNL     1       0.766 -14.402   0.992  1.00  0.00     0.039 A 
ATOM     44  C   UNL     1       1.038 -14.329  -0.373  1.00  0.00     0.014 A 
ATOM     45  C   UNL     1      -0.080 -15.383   1.511  1.00  0.00     0.014 A 
ATOM     46  C   UNL     1       0.237 -15.059  -1.244  1.00  0.00     0.010 A 
ATOM     47  C   UNL     1      -0.801 -16.190   0.631  1.00  0.00     0.010 A 
ATOM     48  C   UNL     1      -0.727 -15.958  -0.751  1.00  0.00    -0.014 A 
BRANCH  48  49
ATOM     49  C   UNL     1      -1.710 -16.576  -1.681  1.00  0.00     0.031 A 
ATOM     50  C   UNL     1      -3.193 -16.333  -1.514  1.00  0.00     0.074 A 
ATOM     51  C   UNL     1      -1.267 -17.319  -2.712  1.00  0.00     0.049 A 
ATOM     52  N   UNL     1      -4.190 -16.845  -2.191  1.00  0.00    -0.248 NA
ATOM     53  C   UNL     1      -3.619 -15.403  -0.452  1.00  0.00     0.031 C 
ATOM     54  C   UNL     1       0.138 -17.620  -2.989  1.00  0.00     0.029 A 
ATOM     55  N   UNL     1      -1.950 -17.948  -3.721  1.00  0.00    -0.354 N 
ATOM     56  C   UNL     1      -5.351 -16.358  -1.599  1.00  0.00     0.074 A 
ATOM     57  C   UNL     1      -4.941 -15.495  -0.515  1.00  0.00     0.031 C 
ATOM     58  C   UNL     1       0.218 -18.340  -4.117  1.00  0.00     0.029 A 
ATOM     59  C   UNL     1      -1.131 -18.615  -4.599  1.00  0.00     0.049 A 
ATOM     60  H   UNL     1      -2.930 -17.924  -3.807  1.00  0.00     0.167 HD
ATOM     61  C   UNL     1      -6.640 -16.597  -1.938  1.00  0.00     0.034 A 
ATOM     62  C   UNL     1      -1.426 -19.389  -5.660  1.00  0.00     0.034 A 
ATOM     63  C   UNL     1      -7.048 -17.384  -3.070  1.00  0.00     0.049 A 
ATOM     64  C   UNL     1      -2.861 -19.621  -6.025  1.00  0.00     0.074 A 
ATOM     65  C   UNL     1      -8.333 -17.637  -3.520  1.00  0.00     0.029 A 
ATOM     66  N   UNL     1      -6.184 -18.032  -3.937  1.00  0.00    -0.354 N 
ATOM     67  N   UNL     1      -3.938 -19.121  -5.473  1.00  0.00    -0.248 NA
ATOM     68  C   UNL     1      -3.121 -20.521  -7.157  1.00  0.00     0.031 C 
ATOM     69  C   UNL     1      -8.245 -18.437  -4.663  1.00  0.00     0.029 A 
ATOM     70  C   UNL     1      -6.907 -18.683  -4.921  1.00  0.00     0.049 A 
ATOM     71  H   UNL     1      -5.203 -18.030  -3.864  1.00  0.00     0.167 HD
ATOM     72  C   UNL     1      -5.007 -19.645  -6.187  1.00  0.00     0.074 A 
ATOM     73  C   UNL     1      -4.446 -20.477  -7.232  1.00  0.00     0.031 C 
ATOM     74  C   UNL     1      -6.334 -19.474  -5.978  1.00  0.00     0.034 A 
BRANCH  61  75
ATOM     75  C   UNL     1      -7.728 -15.964  -1.113  1.00  0.00     0.023 A 
ATOM     76  C   UNL     1      -8.095 -14.628  -1.363  1.00  0.00     0.012 A 
ATOM     77  C   UNL     1      -8.469 -16.728  -0.188  1.00  0.00     0.148 A 
ATOM     78  C   UNL     1      -9.183 -14.058  -0.702  1.00  0.00     0.002 A 
ATOM     79  C   UNL     1      -9.568 -16.160   0.447  1.00  0.00     0.091 A 
ATOM     80  F   UNL     1      -8.093 -17.994   0.038  1.00  0.00    -0.205 F 
ATOM     81  C   UNL     1      -9.924 -14.825   0.193  1.00  0.00     0.022 A 
BRANCH  79  82
ATOM     82  S   UNL     1     -10.624 -17.076   1.576  1.00  0.00     0.127 S 
ATOM     83  O   UNL     1     -10.395 -16.366   2.834  1.00  0.00    -0.237 OA
ATOM     84  O   UNL     1     -11.949 -16.869   0.992  1.00  0.00    -0.237 OA
ATOM     85  O   UNL     1     -10.149 -18.452   1.548  1.00  0.00    -0.744 OA
ENDBRANCH  79  82
ENDBRANCH  61  75
BRANCH  62  86
ATOM     86  C   UNL     1      -0.315 -19.978  -6.452  1.00  0.00     0.023 A 
ATOM     87  C   UNL     1      -0.004 -19.436  -7.712  1.00  0.00     0.012 A 
ATOM     88  C   UNL     1       0.496 -20.997  -5.915  1.00  0.00     0.148 A 
ATOM     89  C   UNL     1       1.100 -19.899  -8.426  1.00  0.00     0.002 A 
ATOM     90  C   UNL     1       1.623 -21.417  -6.608  1.00  0.00     0.091 A 
ATOM     91  F   UNL     1       0.169 -21.501  -4.717  1.00  0.00    -0.205 F 
ATOM     92  C   UNL     1       1.921 -20.877  -7.869  1.00  0.00     0.022 A 
BRANCH  90  93
ATOM     93  S   UNL     1       2.810 -22.567  -5.906  1.00  0.00     0.127 S 
ATOM     94  O   UNL     1       2.611 -23.748  -6.743  1.00  0.00    -0.237 OA
ATOM     95  O   UNL     1       4.074 -21.863  -6.121  1.00  0.00    -0.237 OA
ATOM     96  O   UNL     1       2.436 -22.715  -4.506  1.00  0.00    -0.744 OA
ENDBRANCH  90  93
ENDBRANCH  62  86
BRANCH  74  97
ATOM     97  C   UNL     1      -7.282 -20.203  -6.885  1.00  0.00     0.023 A 
ATOM     98  C   UNL     1      -7.545 -21.565  -6.646  1.00  0.00     0.012 A 
ATOM     99  C   UNL     1      -7.979 -19.524  -7.902  1.00  0.00     0.148 A 
ATOM    100  C   UNL     1      -8.484 -22.248  -7.417  1.00  0.00     0.002 A 
ATOM    101  C   UNL     1      -8.935 -20.204  -8.647  1.00  0.00     0.091 A 
ATOM    102  F   UNL     1      -7.697 -18.231  -8.117  1.00  0.00    -0.205 F 
ATOM    103  C   UNL     1      -9.185 -21.566  -8.408  1.00  0.00     0.022 A 
BRANCH 101 104
ATOM    104  S   UNL     1      -9.938 -19.394  -9.898  1.00  0.00     0.127 S 
ATOM    105  O   UNL     1      -9.390 -19.959 -11.129  1.00  0.00    -0.237 OA
ATOM    106  O   UNL     1     -11.286 -19.853  -9.561  1.00  0.00    -0.237 OA
ATOM    107  O   UNL     1      -9.724 -17.964  -9.719  1.00  0.00    -0.744 OA
ENDBRANCH 101 104
ENDBRANCH  74  97
ENDBRANCH  48  49
ENDBRANCH  40  43
ENDBRANCH  38  39
ENDBRANCH  37  38
ENDBRANCH   1  37
TORSDOF 20
