REMARK SMILES COc1ccc([C@@H]2[NH2+][C@H](C(=O)NCCCCNC(=O)c3ccc(-c4c5nc(c(-c6cccc(S(=O)(=O)[O-])c6F)c6ccc([nH]6)c(-c6cccc(S(=O)(=O)[O-])c6F)c6nc(c(-c7cccc(S(=O)(=O)[O-])c7F)c7ccc4[nH]7)C=C6)C=C5)cc3)CS2)cc1Cn1nc(C)c(Br)c1C
REMARK SMILES IDX 14 1 13 2 12 3 10 4 11 5 9 7 7 8 8 9 84 10 83 13 6 14 3 15
REMARK SMILES IDX 4 16 86 17 5 18 85 19 2 20 1 21 87 22 88 23 89 24 94 25
REMARK SMILES IDX 90 26 92 27 95 28 91 29 93 30 15 31 16 32 17 33 18 34 19 36
REMARK SMILES IDX 20 37 21 38 82 39 22 40 81 41 23 42 24 43 25 44 75 45 26 46
REMARK SMILES IDX 80 47 74 48 76 49 27 50 79 51 73 52 72 53 28 55 60 56 40 57
REMARK SMILES IDX 59 58 41 59 44 60 58 61 77 62 42 63 43 64 57 66 78 67 45 68
REMARK SMILES IDX 29 69 30 70 38 71 31 72 33 73 39 74 32 75 34 76 35 77 36 78
REMARK SMILES IDX 37 79 61 80 62 81 70 82 63 83 65 84 71 85 64 86 66 87 67 88
REMARK SMILES IDX 68 89 69 90 46 91 47 92 55 93 48 94 50 95 56 96 49 97 51 98
REMARK SMILES IDX 52 99 53 100 54 101
REMARK H PARENT 12 6 8 11 8 12 17 35 76 54 44 65
REMARK Flexibility Score: inf
ROOT
ATOM      1  C   UNL     1       1.452  -5.483  -0.041  1.00  0.00     0.023 C 
ENDROOT
BRANCH   1   2
ATOM      2  C   UNL     1       2.258  -4.973  -1.231  1.00  0.00     0.116 C 
BRANCH   2   3
ATOM      3  N   UNL     1       3.396  -5.792  -1.610  1.00  0.00    -0.351 N 
ATOM      4  C   UNL     1       3.918  -6.075  -2.836  1.00  0.00     0.279 C 
ATOM      5  O   UNL     1       5.094  -6.475  -2.848  1.00  0.00    -0.268 OA
ATOM      6  H   UNL     1       3.869  -6.211  -0.855  1.00  0.00     0.163 HD
BRANCH   4   7
ATOM      7  C   UNL     1       3.170  -6.018  -4.190  1.00  0.00     0.283 C 
ATOM      8  C   UNL     1       1.541  -4.375  -4.919  1.00  0.00     0.274 C 
ATOM      9  N   UNL     1       1.744  -5.619  -4.170  1.00  0.00    -0.321 N 
ATOM     10  S   UNL     1       2.801  -4.288  -6.195  1.00  0.00    -0.088 SA
ATOM     11  H   UNL     1       1.184  -6.359  -4.591  1.00  0.00     0.348 HD
ATOM     12  H   UNL     1       1.461  -5.467  -3.201  1.00  0.00     0.348 HD
ATOM     13  C   UNL     1       3.990  -5.230  -5.218  1.00  0.00     0.151 C 
BRANCH   8  14
ATOM     14  C   UNL     1       1.444  -3.175  -3.986  1.00  0.00     0.021 A 
ATOM     15  C   UNL     1       1.205  -1.209  -1.990  1.00  0.00     0.123 A 
ATOM     16  C   UNL     1       0.065  -1.847  -2.482  1.00  0.00     0.047 A 
ATOM     17  C   UNL     1       2.483  -1.546  -2.446  1.00  0.00     0.016 A 
ATOM     18  C   UNL     1       0.183  -2.822  -3.472  1.00  0.00     0.015 A 
ATOM     19  C   UNL     1       2.575  -2.503  -3.475  1.00  0.00     0.020 A 
BRANCH  15  20
ATOM     20  O   UNL     1       1.048  -0.328  -0.957  1.00  0.00    -0.496 OA
ATOM     21  C   UNL     1       0.832   1.000  -1.424  1.00  0.00     0.278 C 
ENDBRANCH  15  20
BRANCH  17  22
ATOM     22  C   UNL     1       3.721  -0.906  -1.849  1.00  0.00     0.184 C 
BRANCH  22  23
ATOM     23  N   UNL     1       4.668  -1.861  -1.265  1.00  0.00    -0.264 N 
ATOM     24  N   UNL     1       4.585  -2.122   0.062  1.00  0.00    -0.177 NA
ATOM     25  C   UNL     1       5.765  -2.452  -1.853  1.00  0.00     0.050 A 
ATOM     26  C   UNL     1       5.606  -2.950   0.318  1.00  0.00     0.074 A 
ATOM     27  C   UNL     1       6.346  -3.197  -0.851  1.00  0.00     0.061 A 
ATOM     28  C   UNL     1       6.193  -2.266  -3.260  1.00  0.00     0.067 C 
ATOM     29  C   UNL     1       5.845  -3.434   1.702  1.00  0.00     0.070 C 
ATOM     30  Br  UNL     1       7.871  -4.277  -0.977  1.00  0.00    -0.047 Br
ENDBRANCH  22  23
ENDBRANCH  17  22
ENDBRANCH   8  14
ENDBRANCH   4   7
ENDBRANCH   2   3
ENDBRANCH   1   2
BRANCH   1  31
ATOM     31  C   UNL     1       1.780  -4.843   1.312  1.00  0.00     0.023 C 
BRANCH  31  32
ATOM     32  C   UNL     1       1.642  -3.320   1.423  1.00  0.00     0.116 C 
BRANCH  32  33
ATOM     33  N   UNL     1       0.327  -2.776   1.134  1.00  0.00    -0.352 N 
ATOM     34  C   UNL     1      -0.224  -1.564   1.516  1.00  0.00     0.251 C 
ATOM     35  H   UNL     1      -0.257  -3.352   0.589  1.00  0.00     0.163 HD
ATOM     36  O   UNL     1      -1.334  -1.259   1.098  1.00  0.00    -0.269 OA
BRANCH  34  37
ATOM     37  C   UNL     1       0.464  -0.667   2.495  1.00  0.00     0.039 A 
ATOM     38  C   UNL     1      -0.332  -0.058   3.474  1.00  0.00     0.014 A 
ATOM     39  C   UNL     1       1.845  -0.457   2.519  1.00  0.00     0.014 A 
ATOM     40  C   UNL     1       0.261   0.607   4.553  1.00  0.00     0.010 A 
ATOM     41  C   UNL     1       2.445   0.155   3.626  1.00  0.00     0.010 A 
ATOM     42  C   UNL     1       1.659   0.634   4.683  1.00  0.00    -0.014 A 
BRANCH  42  43
ATOM     43  C   UNL     1       2.275   0.928   6.007  1.00  0.00     0.031 A 
ATOM     44  C   UNL     1       3.123   2.139   6.256  1.00  0.00     0.074 A 
ATOM     45  C   UNL     1       2.131   0.000   6.978  1.00  0.00     0.049 A 
ATOM     46  N   UNL     1       3.673   2.535   7.377  1.00  0.00    -0.248 NA
ATOM     47  C   UNL     1       3.412   3.007   5.106  1.00  0.00     0.031 C 
ATOM     48  C   UNL     1       1.436  -1.282   6.817  1.00  0.00     0.029 A 
ATOM     49  N   UNL     1       2.575  -0.030   8.276  1.00  0.00    -0.354 N 
ATOM     50  C   UNL     1       4.391   3.684   7.069  1.00  0.00     0.074 A 
ATOM     51  C   UNL     1       4.217   3.914   5.649  1.00  0.00     0.031 C 
ATOM     52  C   UNL     1       1.497  -1.967   7.967  1.00  0.00     0.029 A 
ATOM     53  C   UNL     1       2.243  -1.186   8.946  1.00  0.00     0.049 A 
ATOM     54  H   UNL     1       3.083   0.705   8.690  1.00  0.00     0.167 HD
ATOM     55  C   UNL     1       5.112   4.479   7.898  1.00  0.00     0.034 A 
ATOM     56  C   UNL     1       2.500  -1.576  10.210  1.00  0.00     0.034 A 
ATOM     57  C   UNL     1       5.259   4.252   9.314  1.00  0.00     0.049 A 
ATOM     58  C   UNL     1       3.216  -0.628  11.128  1.00  0.00     0.074 A 
ATOM     59  C   UNL     1       5.876   5.057  10.256  1.00  0.00     0.029 A 
ATOM     60  N   UNL     1       4.801   3.131   9.989  1.00  0.00    -0.354 N 
ATOM     61  N   UNL     1       3.691   0.566  10.870  1.00  0.00    -0.248 NA
ATOM     62  C   UNL     1       3.390  -1.055  12.524  1.00  0.00     0.031 C 
ATOM     63  C   UNL     1       5.805   4.415  11.498  1.00  0.00     0.029 A 
ATOM     64  C   UNL     1       5.131   3.216  11.333  1.00  0.00     0.049 A 
ATOM     65  H   UNL     1       4.312   2.383   9.575  1.00  0.00     0.167 HD
ATOM     66  C   UNL     1       4.193   1.045  12.073  1.00  0.00     0.074 A 
ATOM     67  C   UNL     1       3.938   0.023  13.068  1.00  0.00     0.031 C 
ATOM     68  C   UNL     1       4.825   2.217  12.325  1.00  0.00     0.034 A 
BRANCH  55  69
ATOM     69  C   UNL     1       5.752   5.713   7.314  1.00  0.00     0.023 A 
ATOM     70  C   UNL     1       4.940   6.818   6.985  1.00  0.00     0.012 A 
ATOM     71  C   UNL     1       7.150   5.816   7.171  1.00  0.00     0.148 A 
ATOM     72  C   UNL     1       5.505   7.996   6.499  1.00  0.00     0.002 A 
ATOM     73  C   UNL     1       7.709   7.006   6.716  1.00  0.00     0.091 A 
ATOM     74  F   UNL     1       7.905   4.751   7.476  1.00  0.00    -0.205 F 
ATOM     75  C   UNL     1       6.888   8.094   6.373  1.00  0.00     0.022 A 
BRANCH  73  76
ATOM     76  S   UNL     1       9.484   7.258   6.581  1.00  0.00     0.127 S 
ATOM     77  O   UNL     1       9.672   7.252   5.131  1.00  0.00    -0.237 OA
ATOM     78  O   UNL     1       9.661   8.566   7.212  1.00  0.00    -0.237 OA
ATOM     79  O   UNL     1      10.102   6.150   7.297  1.00  0.00    -0.744 OA
ENDBRANCH  73  76
ENDBRANCH  55  69
BRANCH  56  80
ATOM     80  C   UNL     1       1.988  -2.889  10.697  1.00  0.00     0.023 A 
ATOM     81  C   UNL     1       0.917  -2.916  11.611  1.00  0.00     0.012 A 
ATOM     82  C   UNL     1       2.517  -4.105  10.223  1.00  0.00     0.148 A 
ATOM     83  C   UNL     1       0.402  -4.129  12.068  1.00  0.00     0.002 A 
ATOM     84  C   UNL     1       1.963  -5.311  10.641  1.00  0.00     0.091 A 
ATOM     85  F   UNL     1       3.545  -4.063   9.364  1.00  0.00    -0.205 F 
ATOM     86  C   UNL     1       0.916  -5.326  11.575  1.00  0.00     0.022 A 
BRANCH  84  87
ATOM     87  S   UNL     1       2.479  -6.884   9.943  1.00  0.00     0.127 S 
ATOM     88  O   UNL     1       3.380  -7.389  10.973  1.00  0.00    -0.237 OA
ATOM     89  O   UNL     1       1.210  -7.604   9.827  1.00  0.00    -0.237 OA
ATOM     90  O   UNL     1       3.090  -6.551   8.661  1.00  0.00    -0.744 OA
ENDBRANCH  84  87
ENDBRANCH  56  80
BRANCH  68  91
ATOM     91  C   UNL     1       5.275   2.471  13.739  1.00  0.00     0.023 A 
ATOM     92  C   UNL     1       6.387   1.773  14.251  1.00  0.00     0.012 A 
ATOM     93  C   UNL     1       4.640   3.441  14.538  1.00  0.00     0.148 A 
ATOM     94  C   UNL     1       6.842   2.015  15.546  1.00  0.00     0.002 A 
ATOM     95  C   UNL     1       5.126   3.708  15.813  1.00  0.00     0.091 A 
ATOM     96  F   UNL     1       3.567   4.076  14.045  1.00  0.00    -0.205 F 
ATOM     97  C   UNL     1       6.220   2.990  16.323  1.00  0.00     0.022 A 
BRANCH  95  98
ATOM     98  S   UNL     1       4.438   5.011  16.841  1.00  0.00     0.127 S 
ATOM     99  O   UNL     1       3.594   4.253  17.762  1.00  0.00    -0.237 OA
ATOM    100  O   UNL     1       5.633   5.597  17.451  1.00  0.00    -0.237 OA
ATOM    101  O   UNL     1       3.734   5.903  15.928  1.00  0.00    -0.744 OA
ENDBRANCH  95  98
ENDBRANCH  68  91
ENDBRANCH  42  43
ENDBRANCH  34  37
ENDBRANCH  32  33
ENDBRANCH  31  32
ENDBRANCH   1  31
TORSDOF 18
