REMARK SMILES Cc1ccc(-c2nc(C)cc(N3CCCC[C@H]3C(=O)NCCCCNC(=O)c3ccc(-c4c5nc(c(-c6cccc(S(=O)(=O)[O-])c6F)c6ccc([nH]6)c(-c6cccc(S(=O)(=O)[O-])c6F)c6nc(c(-c7cccc(S(=O)(=O)[O-])c7F)c7ccc4[nH]7)C=C6)C=C5)cc3)n2)cc1
REMARK SMILES IDX 23 1 22 2 21 3 20 4 18 5 19 6 17 8 12 9 13 10 14 11 16 12
REMARK SMILES IDX 15 13 11 14 6 15 7 16 91 17 8 18 9 19 10 20 5 21 1 22 2 23
REMARK SMILES IDX 3 24 93 25 4 26 92 27 24 28 25 29 26 30 27 32 28 33 29 34
REMARK SMILES IDX 90 35 30 36 89 37 31 38 32 39 33 40 83 41 34 42 88 43 82 44
REMARK SMILES IDX 84 45 35 46 87 47 81 48 80 49 36 51 68 52 48 53 67 54 49 55
REMARK SMILES IDX 52 56 66 57 85 58 50 59 51 60 65 62 86 63 53 64 37 65 38 66
REMARK SMILES IDX 46 67 39 68 41 69 47 70 40 71 42 72 43 73 44 74 45 75 69 76
REMARK SMILES IDX 70 77 78 78 71 79 73 80 79 81 72 82 74 83 75 84 76 85 77 86
REMARK SMILES IDX 54 87 55 88 63 89 56 90 58 91 64 92 57 93 59 94 60 95 61 96
REMARK SMILES IDX 62 97
REMARK H PARENT 20 7 25 31 84 50 52 61
REMARK Flexibility Score: inf
ROOT
ATOM      1  C   UNL     1      -9.153   3.151  -6.688  1.00  0.00     0.023 C 
ENDROOT
BRANCH   1   2
ATOM      2  C   UNL     1      -7.973   3.596  -5.826  1.00  0.00     0.023 C 
BRANCH   2   3
ATOM      3  C   UNL     1      -8.302   4.017  -4.385  1.00  0.00     0.116 C 
BRANCH   3   4
ATOM      4  N   UNL     1      -8.693   2.896  -3.554  1.00  0.00    -0.354 N 
ATOM      5  C   UNL     1      -8.095   2.183  -2.572  1.00  0.00     0.242 C 
ATOM      6  O   UNL     1      -8.823   1.320  -2.051  1.00  0.00    -0.273 OA
ATOM      7  H   UNL     1      -9.605   2.580  -3.750  1.00  0.00     0.163 HD
BRANCH   5   8
ATOM      8  C   UNL     1      -6.626   2.318  -2.064  1.00  0.00     0.173 C 
ATOM      9  N   UNL     1      -5.953   1.008  -2.219  1.00  0.00    -0.344 N 
ATOM     10  C   UNL     1      -5.453   0.678  -3.544  1.00  0.00     0.119 C 
ATOM     11  C   UNL     1      -4.454   1.722  -4.027  1.00  0.00     0.022 C 
ATOM     12  C   UNL     1      -5.655   3.408  -2.532  1.00  0.00     0.035 C 
ATOM     13  C   UNL     1      -4.992   3.143  -3.886  1.00  0.00     0.004 C 
BRANCH   9  14
ATOM     14  C   UNL     1      -5.276   0.510  -1.117  1.00  0.00     0.133 A 
ATOM     15  C   UNL     1      -3.321  -0.047  -0.061  1.00  0.00     0.161 A 
ATOM     16  N   UNL     1      -3.936  -0.573   1.013  1.00  0.00    -0.233 NA
ATOM     17  N   UNL     1      -3.935   0.478  -1.134  1.00  0.00    -0.211 NA
ATOM     18  C   UNL     1      -5.282  -0.517   1.012  1.00  0.00     0.043 A 
ATOM     19  C   UNL     1      -5.981  -1.114   2.194  1.00  0.00     0.067 C 
ATOM     20  C   UNL     1      -5.994   0.035  -0.034  1.00  0.00     0.070 A 
BRANCH  15  21
ATOM     21  C   UNL     1      -1.857  -0.032  -0.055  1.00  0.00     0.019 A 
ATOM     22  C   UNL     1       2.472   0.002  -0.012  1.00  0.00     0.044 C 
ATOM     23  C   UNL     1       0.973   0.000  -0.024  1.00  0.00    -0.051 A 
ATOM     24  C   UNL     1       0.275  -1.210   0.053  1.00  0.00     0.004 A 
ATOM     25  C   UNL     1       0.252   1.194  -0.125  1.00  0.00     0.004 A 
ATOM     26  C   UNL     1      -1.123  -1.224   0.048  1.00  0.00     0.012 A 
ATOM     27  C   UNL     1      -1.147   1.176  -0.148  1.00  0.00     0.012 A 
ENDBRANCH  15  21
ENDBRANCH   9  14
ENDBRANCH   5   8
ENDBRANCH   3   4
ENDBRANCH   2   3
ENDBRANCH   1   2
BRANCH   1  28
ATOM     28  C   UNL     1     -10.191   4.234  -6.900  1.00  0.00     0.116 C 
BRANCH  28  29
ATOM     29  N   UNL     1      -9.822   5.262  -7.851  1.00  0.00    -0.352 N 
ATOM     30  C   UNL     1     -10.514   6.399  -8.251  1.00  0.00     0.251 C 
ATOM     31  H   UNL     1      -8.945   5.136  -8.282  1.00  0.00     0.163 HD
ATOM     32  O   UNL     1     -10.123   6.977  -9.251  1.00  0.00    -0.269 OA
BRANCH  30  33
ATOM     33  C   UNL     1     -11.588   6.989  -7.395  1.00  0.00     0.039 A 
ATOM     34  C   UNL     1     -11.817   8.372  -7.469  1.00  0.00     0.014 A 
ATOM     35  C   UNL     1     -12.175   6.272  -6.364  1.00  0.00     0.014 A 
ATOM     36  C   UNL     1     -12.384   9.044  -6.385  1.00  0.00     0.010 A 
ATOM     37  C   UNL     1     -12.555   6.934  -5.227  1.00  0.00     0.010 A 
ATOM     38  C   UNL     1     -12.621   8.327  -5.224  1.00  0.00    -0.014 A 
BRANCH  38  39
ATOM     39  C   UNL     1     -13.065   8.852  -3.949  1.00  0.00     0.031 A 
ATOM     40  C   UNL     1     -14.492   8.686  -3.602  1.00  0.00     0.074 A 
ATOM     41  C   UNL     1     -12.120   9.063  -3.005  1.00  0.00     0.049 A 
ATOM     42  N   UNL     1     -15.020   9.078  -2.499  1.00  0.00    -0.248 NA
ATOM     43  C   UNL     1     -15.445   8.036  -4.497  1.00  0.00     0.031 C 
ATOM     44  C   UNL     1     -12.285   8.989  -1.559  1.00  0.00     0.029 A 
ATOM     45  N   UNL     1     -10.834   9.590  -3.168  1.00  0.00    -0.354 N 
ATOM     46  C   UNL     1     -16.277   8.515  -2.411  1.00  0.00     0.074 A 
ATOM     47  C   UNL     1     -16.519   7.937  -3.708  1.00  0.00     0.031 C 
ATOM     48  C   UNL     1     -11.309   9.703  -0.976  1.00  0.00     0.029 A 
ATOM     49  C   UNL     1     -10.632  10.416  -2.045  1.00  0.00     0.049 A 
ATOM     50  H   UNL     1     -10.206   9.421  -3.907  1.00  0.00     0.167 HD
ATOM     51  C   UNL     1     -16.895   8.511  -1.196  1.00  0.00     0.034 A 
ATOM     52  C   UNL     1     -10.524  11.777  -2.123  1.00  0.00     0.034 A 
ATOM     53  C   UNL     1     -16.092   9.269  -0.226  1.00  0.00     0.049 A 
ATOM     54  C   UNL     1     -11.564  12.514  -1.292  1.00  0.00     0.074 A 
ATOM     55  C   UNL     1     -15.174   8.905   0.744  1.00  0.00     0.029 A 
ATOM     56  N   UNL     1     -15.967  10.640  -0.396  1.00  0.00    -0.354 N 
ATOM     57  N   UNL     1     -12.611  11.951  -0.755  1.00  0.00    -0.248 NA
ATOM     58  C   UNL     1     -11.507  13.942  -0.996  1.00  0.00     0.031 C 
ATOM     59  C   UNL     1     -14.442  10.069   1.109  1.00  0.00     0.029 A 
ATOM     60  C   UNL     1     -14.941  11.141   0.388  1.00  0.00     0.049 A 
ATOM     61  H   UNL     1     -16.532  11.184  -0.992  1.00  0.00     0.167 HD
ATOM     62  C   UNL     1     -13.405  12.890  -0.146  1.00  0.00     0.074 A 
ATOM     63  C   UNL     1     -12.628  14.113  -0.270  1.00  0.00     0.031 C 
ATOM     64  C   UNL     1     -14.642  12.570   0.357  1.00  0.00     0.034 A 
BRANCH  51  65
ATOM     65  C   UNL     1     -18.093   7.677  -0.768  1.00  0.00     0.023 A 
ATOM     66  C   UNL     1     -18.341   7.594   0.623  1.00  0.00     0.012 A 
ATOM     67  C   UNL     1     -18.965   6.925  -1.589  1.00  0.00     0.148 A 
ATOM     68  C   UNL     1     -19.330   6.770   1.171  1.00  0.00     0.002 A 
ATOM     69  C   UNL     1     -19.938   6.078  -1.044  1.00  0.00     0.091 A 
ATOM     70  F   UNL     1     -18.906   7.044  -2.914  1.00  0.00    -0.205 F 
ATOM     71  C   UNL     1     -20.117   5.993   0.338  1.00  0.00     0.022 A 
BRANCH  69  72
ATOM     72  S   UNL     1     -20.986   5.015  -2.057  1.00  0.00     0.127 S 
ATOM     73  O   UNL     1     -20.678   3.686  -1.524  1.00  0.00    -0.237 OA
ATOM     74  O   UNL     1     -22.329   5.499  -1.740  1.00  0.00    -0.237 OA
ATOM     75  O   UNL     1     -20.567   5.216  -3.439  1.00  0.00    -0.744 OA
ENDBRANCH  69  72
ENDBRANCH  51  65
BRANCH  52  76
ATOM     76  C   UNL     1      -9.932  12.248  -3.412  1.00  0.00     0.023 A 
ATOM     77  C   UNL     1      -8.592  11.865  -3.660  1.00  0.00     0.012 A 
ATOM     78  C   UNL     1     -10.746  12.616  -4.500  1.00  0.00     0.148 A 
ATOM     79  C   UNL     1      -8.128  11.685  -4.964  1.00  0.00     0.002 A 
ATOM     80  C   UNL     1     -10.271  12.442  -5.801  1.00  0.00     0.091 A 
ATOM     81  F   UNL     1     -11.993  13.035  -4.252  1.00  0.00    -0.205 F 
ATOM     82  C   UNL     1      -8.983  11.931  -6.032  1.00  0.00     0.022 A 
BRANCH  80  83
ATOM     83  S   UNL     1     -11.307  12.720  -7.246  1.00  0.00     0.127 S 
ATOM     84  O   UNL     1     -10.855  14.039  -7.679  1.00  0.00    -0.237 OA
ATOM     85  O   UNL     1     -10.920  11.616  -8.124  1.00  0.00    -0.237 OA
ATOM     86  O   UNL     1     -12.673  12.637  -6.752  1.00  0.00    -0.744 OA
ENDBRANCH  80  83
ENDBRANCH  52  76
BRANCH  64  87
ATOM     87  C   UNL     1     -15.727  13.534   0.837  1.00  0.00     0.023 A 
ATOM     88  C   UNL     1     -15.669  14.922   0.625  1.00  0.00     0.012 A 
ATOM     89  C   UNL     1     -16.939  13.043   1.406  1.00  0.00     0.148 A 
ATOM     90  C   UNL     1     -16.729  15.776   0.965  1.00  0.00     0.002 A 
ATOM     91  C   UNL     1     -18.033  13.877   1.627  1.00  0.00     0.091 A 
ATOM     92  F   UNL     1     -17.042  11.759   1.775  1.00  0.00    -0.205 F 
ATOM     93  C   UNL     1     -17.924  15.251   1.433  1.00  0.00     0.022 A 
BRANCH  91  94
ATOM     94  S   UNL     1     -19.656  13.194   2.000  1.00  0.00     0.127 S 
ATOM     95  O   UNL     1     -19.683  13.255   3.459  1.00  0.00    -0.237 OA
ATOM     96  O   UNL     1     -20.555  14.139   1.334  1.00  0.00    -0.237 OA
ATOM     97  O   UNL     1     -19.649  11.863   1.409  1.00  0.00    -0.744 OA
ENDBRANCH  91  94
ENDBRANCH  64  87
ENDBRANCH  38  39
ENDBRANCH  30  33
ENDBRANCH  28  29
ENDBRANCH   1  28
TORSDOF 16
