REMARK SMILES Cc1cc(Br)cnc1SCC1(CC(=O)NCCCCNC(=O)c2ccc(-c3c4nc(c(-c5cccc(S(=O)(=O)[O-])c5F)c5ccc([nH]5)c(-c5cccc(S(=O)(=O)[O-])c5F)c5nc(c(-c6cccc(S(=O)(=O)[O-])c6F)c6ccc3[nH]6)C=C5)C=C4)cc2)CC1
REMARK SMILES IDX 17 1 16 2 15 3 13 4 14 5 12 7 11 8 86 9 87 10 10 11 9 12
REMARK SMILES IDX 8 13 1 14 2 15 3 16 4 17 7 18 5 19 6 20 18 21 19 22 20 23
REMARK SMILES IDX 21 24 22 26 23 27 24 28 85 29 25 30 84 31 26 32 27 33 28 34
REMARK SMILES IDX 78 35 29 36 83 37 77 38 79 39 30 40 82 41 76 42 75 43 31 45
REMARK SMILES IDX 63 46 43 47 62 48 44 49 47 50 61 51 80 52 45 53 46 54 60 56
REMARK SMILES IDX 81 57 48 58 32 59 33 60 41 61 34 62 36 63 42 64 35 65 37 66
REMARK SMILES IDX 38 67 39 68 40 69 64 70 65 71 73 72 66 73 68 74 74 75 67 76
REMARK SMILES IDX 69 77 70 78 71 79 72 80 49 81 50 82 58 83 51 84 53 85 59 86
REMARK SMILES IDX 52 87 54 88 55 89 56 90 57 91
REMARK H PARENT 15 6 20 25 79 44 47 55
REMARK Flexibility Score: inf
ROOT
ATOM      1  C   UNL     1       8.239  -2.865   1.599  1.00  0.00     0.023 C 
ENDROOT
BRANCH   1   2
ATOM      2  C   UNL     1       8.120  -1.848   2.735  1.00  0.00     0.116 C 
BRANCH   2   3
ATOM      3  N   UNL     1       8.082  -0.492   2.232  1.00  0.00    -0.356 N 
ATOM      4  C   UNL     1       7.002   0.301   1.976  1.00  0.00     0.220 C 
ATOM      5  O   UNL     1       7.200   1.421   1.505  1.00  0.00    -0.275 OA
ATOM      6  H   UNL     1       8.959  -0.084   2.050  1.00  0.00     0.163 HD
BRANCH   4   7
ATOM      7  C   UNL     1       5.594  -0.189   2.284  1.00  0.00     0.107 C 
BRANCH   7   8
ATOM      8  C   UNL     1       4.975  -1.150   1.272  1.00  0.00    -0.011 C 
ATOM      9  C   UNL     1       3.725  -1.891   1.733  1.00  0.00     0.009 C 
ATOM     10  C   UNL     1       5.000  -2.645   1.588  1.00  0.00     0.009 C 
BRANCH   8  11
ATOM     11  C   UNL     1       5.143  -0.778  -0.186  1.00  0.00     0.084 C 
BRANCH  11  12
ATOM     12  S   UNL     1       4.214   0.621  -0.845  1.00  0.00    -0.106 SA
BRANCH  12  13
ATOM     13  C   UNL     1       2.504   0.343  -0.454  1.00  0.00     0.099 A 
ATOM     14  C   UNL     1       2.176  -1.943  -1.617  1.00  0.00     0.047 C 
ATOM     15  C   UNL     1       1.714  -0.752  -0.830  1.00  0.00    -0.018 A 
ATOM     16  C   UNL     1       0.341  -0.718  -0.506  1.00  0.00     0.023 A 
ATOM     17  C   UNL     1      -0.207   0.390   0.122  1.00  0.00     0.036 A 
ATOM     18  N   UNL     1       1.960   1.423   0.169  1.00  0.00    -0.248 NA
ATOM     19  Br  UNL     1      -2.049   0.470   0.508  1.00  0.00    -0.049 Br
ATOM     20  C   UNL     1       0.634   1.436   0.429  1.00  0.00     0.128 A 
ENDBRANCH  12  13
ENDBRANCH  11  12
ENDBRANCH   8  11
ENDBRANCH   7   8
ENDBRANCH   4   7
ENDBRANCH   2   3
ENDBRANCH   1   2
BRANCH   1  21
ATOM     21  C   UNL     1       9.649  -3.050   1.042  1.00  0.00     0.023 C 
BRANCH  21  22
ATOM     22  C   UNL     1      10.697  -3.484   2.058  1.00  0.00     0.116 C 
BRANCH  22  23
ATOM     23  N   UNL     1      10.337  -4.684   2.802  1.00  0.00    -0.352 N 
ATOM     24  C   UNL     1      11.182  -5.626   3.344  1.00  0.00     0.251 C 
ATOM     25  H   UNL     1       9.374  -4.840   2.933  1.00  0.00     0.163 HD
ATOM     26  O   UNL     1      10.730  -6.635   3.879  1.00  0.00    -0.269 OA
BRANCH  24  27
ATOM     27  C   UNL     1      12.640  -5.424   3.226  1.00  0.00     0.039 A 
ATOM     28  C   UNL     1      13.423  -6.441   2.677  1.00  0.00     0.014 A 
ATOM     29  C   UNL     1      13.211  -4.199   3.581  1.00  0.00     0.014 A 
ATOM     30  C   UNL     1      14.772  -6.200   2.410  1.00  0.00     0.010 A 
ATOM     31  C   UNL     1      14.531  -3.936   3.240  1.00  0.00     0.010 A 
ATOM     32  C   UNL     1      15.325  -4.932   2.651  1.00  0.00    -0.014 A 
BRANCH  32  33
ATOM     33  C   UNL     1      16.727  -4.614   2.285  1.00  0.00     0.031 A 
ATOM     34  C   UNL     1      17.713  -4.226   3.353  1.00  0.00     0.074 A 
ATOM     35  C   UNL     1      17.081  -4.563   0.986  1.00  0.00     0.049 A 
ATOM     36  N   UNL     1      18.954  -3.836   3.226  1.00  0.00    -0.248 NA
ATOM     37  C   UNL     1      17.229  -4.244   4.744  1.00  0.00     0.031 C 
ATOM     38  C   UNL     1      16.189  -4.822  -0.147  1.00  0.00     0.029 A 
ATOM     39  N   UNL     1      18.279  -4.246   0.396  1.00  0.00    -0.354 N 
ATOM     40  C   UNL     1      19.384  -3.520   4.508  1.00  0.00     0.074 A 
ATOM     41  C   UNL     1      18.261  -3.729   5.396  1.00  0.00     0.031 C 
ATOM     42  C   UNL     1      16.871  -4.658  -1.292  1.00  0.00     0.029 A 
ATOM     43  C   UNL     1      18.240  -4.261  -0.979  1.00  0.00     0.049 A 
ATOM     44  H   UNL     1      19.091  -4.029   0.909  1.00  0.00     0.167 HD
ATOM     45  C   UNL     1      20.613  -3.128   4.918  1.00  0.00     0.034 A 
ATOM     46  C   UNL     1      19.199  -3.985  -1.884  1.00  0.00     0.034 A 
ATOM     47  C   UNL     1      21.743  -2.985   4.042  1.00  0.00     0.049 A 
ATOM     48  C   UNL     1      20.577  -3.624  -1.399  1.00  0.00     0.074 A 
ATOM     49  C   UNL     1      23.055  -2.698   4.370  1.00  0.00     0.029 A 
ATOM     50  N   UNL     1      21.694  -3.121   2.663  1.00  0.00    -0.354 N 
ATOM     51  N   UNL     1      21.012  -3.502  -0.168  1.00  0.00    -0.248 NA
ATOM     52  C   UNL     1      21.608  -3.403  -2.424  1.00  0.00     0.031 C 
ATOM     53  C   UNL     1      23.800  -2.652   3.186  1.00  0.00     0.029 A 
ATOM     54  C   UNL     1      22.952  -2.922   2.123  1.00  0.00     0.049 A 
ATOM     55  H   UNL     1      20.883  -3.328   2.145  1.00  0.00     0.167 HD
ATOM     56  C   UNL     1      22.369  -3.223  -0.268  1.00  0.00     0.074 A 
ATOM     57  C   UNL     1      22.691  -3.215  -1.681  1.00  0.00     0.031 C 
ATOM     58  C   UNL     1      23.266  -2.977   0.719  1.00  0.00     0.034 A 
BRANCH  45  59
ATOM     59  C   UNL     1      20.813  -2.896   6.393  1.00  0.00     0.023 A 
ATOM     60  C   UNL     1      20.837  -4.001   7.269  1.00  0.00     0.012 A 
ATOM     61  C   UNL     1      21.015  -1.602   6.908  1.00  0.00     0.148 A 
ATOM     62  C   UNL     1      21.021  -3.820   8.638  1.00  0.00     0.002 A 
ATOM     63  C   UNL     1      21.241  -1.433   8.270  1.00  0.00     0.091 A 
ATOM     64  F   UNL     1      20.963  -0.560   6.066  1.00  0.00    -0.205 F 
ATOM     65  C   UNL     1      21.233  -2.538   9.137  1.00  0.00     0.022 A 
BRANCH  63  66
ATOM     66  S   UNL     1      21.599   0.171   8.996  1.00  0.00     0.127 S 
ATOM     67  O   UNL     1      20.333   0.485   9.656  1.00  0.00    -0.237 OA
ATOM     68  O   UNL     1      22.701  -0.139   9.908  1.00  0.00    -0.237 OA
ATOM     69  O   UNL     1      21.962   1.039   7.884  1.00  0.00    -0.744 OA
ENDBRANCH  63  66
ENDBRANCH  45  59
BRANCH  46  70
ATOM     70  C   UNL     1      18.909  -4.131  -3.339  1.00  0.00     0.023 A 
ATOM     71  C   UNL     1      19.473  -5.213  -4.045  1.00  0.00     0.012 A 
ATOM     72  C   UNL     1      18.051  -3.243  -4.015  1.00  0.00     0.148 A 
ATOM     73  C   UNL     1      19.209  -5.391  -5.403  1.00  0.00     0.002 A 
ATOM     74  C   UNL     1      17.751  -3.457  -5.356  1.00  0.00     0.091 A 
ATOM     75  F   UNL     1      17.534  -2.214  -3.329  1.00  0.00    -0.205 F 
ATOM     76  C   UNL     1      18.341  -4.521  -6.056  1.00  0.00     0.022 A 
BRANCH  74  77
ATOM     77  S   UNL     1      16.541  -2.466  -6.241  1.00  0.00     0.127 S 
ATOM     78  O   UNL     1      17.392  -1.670  -7.121  1.00  0.00    -0.237 OA
ATOM     79  O   UNL     1      15.744  -3.492  -6.915  1.00  0.00    -0.237 OA
ATOM     80  O   UNL     1      15.818  -1.726  -5.215  1.00  0.00    -0.744 OA
ENDBRANCH  74  77
ENDBRANCH  46  70
BRANCH  58  81
ATOM     81  C   UNL     1      24.691  -2.707   0.317  1.00  0.00     0.023 A 
ATOM     82  C   UNL     1      25.029  -1.464  -0.254  1.00  0.00     0.012 A 
ATOM     83  C   UNL     1      25.706  -3.646   0.585  1.00  0.00     0.148 A 
ATOM     84  C   UNL     1      26.353  -1.170  -0.576  1.00  0.00     0.002 A 
ATOM     85  C   UNL     1      27.030  -3.328   0.302  1.00  0.00     0.091 A 
ATOM     86  F   UNL     1      25.361  -4.831   1.109  1.00  0.00    -0.205 F 
ATOM     87  C   UNL     1      27.354  -2.095  -0.286  1.00  0.00     0.022 A 
BRANCH  85  88
ATOM     88  S   UNL     1      28.389  -4.422   0.730  1.00  0.00     0.127 S 
ATOM     89  O   UNL     1      28.741  -4.983  -0.573  1.00  0.00    -0.237 OA
ATOM     90  O   UNL     1      29.377  -3.494   1.281  1.00  0.00    -0.237 OA
ATOM     91  O   UNL     1      27.849  -5.369   1.697  1.00  0.00    -0.744 OA
ENDBRANCH  85  88
ENDBRANCH  58  81
ENDBRANCH  32  33
ENDBRANCH  24  27
ENDBRANCH  22  23
ENDBRANCH  21  22
ENDBRANCH   1  21
TORSDOF 18
