REMARK SMILES NC(=O)[C@@H]1CCC[N@@H+]1[C@@H](C(=O)NCCCCNC(=O)c1ccc(-c2c3nc(c(-c4cccc(S(=O)(=O)[O-])c4F)c4ccc([nH]4)c(-c4cccc(S(=O)(=O)[O-])c4F)c4nc(c(-c5cccc(S(=O)(=O)[O-])c5F)c5ccc2[nH]5)C=C4)C=C3)cc1)c1c[nH]c2cc(OCc3ccccc3)ccc12
REMARK SMILES IDX 14 1 13 2 12 3 10 4 11 5 9 7 8 8 4 9 5 10 6 11 7 12 2 14
REMARK SMILES IDX 1 15 3 18 83 19 84 20 99 21 85 22 86 23 98 24 87 26 97 27
REMARK SMILES IDX 88 28 89 29 90 30 91 31 92 32 96 33 93 34 95 35 94 36 15 37
REMARK SMILES IDX 16 38 17 39 18 40 19 42 20 43 21 44 82 45 22 46 81 47 23 48
REMARK SMILES IDX 24 49 25 50 75 51 26 52 80 53 74 54 76 55 27 56 79 57 73 58
REMARK SMILES IDX 72 59 28 61 60 62 40 63 59 64 41 65 44 66 58 67 77 68 42 69
REMARK SMILES IDX 43 70 57 72 78 73 45 74 29 75 30 76 38 77 31 78 33 79 39 80
REMARK SMILES IDX 32 81 34 82 35 83 36 84 37 85 61 86 62 87 70 88 63 89 65 90
REMARK SMILES IDX 71 91 64 92 66 93 67 94 68 95 69 96 46 97 47 98 55 99 48 100
REMARK SMILES IDX 50 101 56 102 49 103 51 104 52 105 53 106 54 107
REMARK H PARENT 12 6 8 13 1 16 1 17 85 25 17 41 76 60 44 71
REMARK Flexibility Score: inf
ROOT
ATOM      1  C   UNL     1       0.521  -2.281  -0.433  1.00  0.00     0.023 C 
ENDROOT
BRANCH   1   2
ATOM      2  C   UNL     1       1.799  -1.599   0.083  1.00  0.00     0.116 C 
BRANCH   2   3
ATOM      3  N   UNL     1       2.975  -1.861  -0.723  1.00  0.00    -0.351 N 
ATOM      4  C   UNL     1       3.759  -1.174  -1.598  1.00  0.00     0.283 C 
ATOM      5  O   UNL     1       4.638  -1.897  -2.078  1.00  0.00    -0.268 OA
ATOM      6  H   UNL     1       3.293  -2.785  -0.605  1.00  0.00     0.163 HD
BRANCH   4   7
ATOM      7  C   UNL     1       3.619   0.345  -1.926  1.00  0.00     0.308 C 
BRANCH   7   8
ATOM      8  N   UNL     1       2.587   0.744  -2.988  1.00  0.00    -0.311 N 
ATOM      9  C   UNL     1       1.186   0.258  -2.927  1.00  0.00     0.275 C 
ATOM     10  C   UNL     1       1.216  -1.152  -3.520  1.00  0.00     0.081 C 
ATOM     11  C   UNL     1       2.362  -1.105  -4.517  1.00  0.00     0.068 C 
ATOM     12  C   UNL     1       2.899   0.300  -4.368  1.00  0.00     0.264 C 
ATOM     13  H   UNL     1       2.655   1.738  -2.767  1.00  0.00     0.349 HD
BRANCH   9  14
ATOM     14  C   UNL     1       0.328   0.659  -1.730  1.00  0.00     0.275 C 
ATOM     15  N   UNL     1       0.796   1.670  -0.947  1.00  0.00    -0.365 N 
ATOM     16  H   UNL     1       0.279   1.965  -0.163  1.00  0.00     0.159 HD
ATOM     17  H   UNL     1       1.651   2.106  -1.164  1.00  0.00     0.159 HD
ATOM     18  O   UNL     1      -0.800   0.218  -1.522  1.00  0.00    -0.268 OA
ENDBRANCH   9  14
ENDBRANCH   7   8
BRANCH   7  19
ATOM     19  C   UNL     1       4.967   1.035  -2.395  1.00  0.00     0.044 A 
ATOM     20  C   UNL     1       5.077   2.400  -2.671  1.00  0.00     0.094 A 
ATOM     21  C   UNL     1       6.088   0.474  -3.123  1.00  0.00     0.009 A 
ATOM     22  N   UNL     1       5.543   2.438  -3.973  1.00  0.00    -0.361 N 
ATOM     23  C   UNL     1       6.072   1.214  -4.304  1.00  0.00     0.050 A 
ATOM     24  C   UNL     1       6.852  -0.713  -3.120  1.00  0.00     0.015 A 
ATOM     25  H   UNL     1       5.502   3.220  -4.570  1.00  0.00     0.166 HD
ATOM     26  C   UNL     1       6.364   0.621  -5.536  1.00  0.00     0.073 A 
ATOM     27  C   UNL     1       7.314  -1.253  -4.332  1.00  0.00     0.047 A 
ATOM     28  C   UNL     1       6.956  -0.648  -5.530  1.00  0.00     0.121 A 
BRANCH  28  29
ATOM     29  O   UNL     1       6.978  -1.305  -6.734  1.00  0.00    -0.489 OA
BRANCH  29  30
ATOM     30  C   UNL     1       8.255  -1.780  -7.169  1.00  0.00     0.265 C 
BRANCH  30  31
ATOM     31  C   UNL     1       9.014  -0.741  -7.972  1.00  0.00    -0.011 A 
ATOM     32  C   UNL     1      10.286  -1.047  -8.470  1.00  0.00     0.007 A 
ATOM     33  C   UNL     1       8.491   0.532  -8.238  1.00  0.00     0.007 A 
ATOM     34  C   UNL     1      11.026  -0.083  -9.161  1.00  0.00     0.000 A 
ATOM     35  C   UNL     1       9.238   1.506  -8.894  1.00  0.00     0.000 A 
ATOM     36  C   UNL     1      10.510   1.199  -9.353  1.00  0.00     0.000 A 
ENDBRANCH  30  31
ENDBRANCH  29  30
ENDBRANCH  28  29
ENDBRANCH   7  19
ENDBRANCH   4   7
ENDBRANCH   2   3
ENDBRANCH   1   2
BRANCH   1  37
ATOM     37  C   UNL     1       0.636  -3.751  -0.847  1.00  0.00     0.023 C 
BRANCH  37  38
ATOM     38  C   UNL     1      -0.215  -4.630   0.040  1.00  0.00     0.116 C 
BRANCH  38  39
ATOM     39  N   UNL     1      -1.642  -4.355  -0.077  1.00  0.00    -0.352 N 
ATOM     40  C   UNL     1      -2.687  -5.169   0.315  1.00  0.00     0.251 C 
ATOM     41  H   UNL     1      -1.888  -3.492  -0.481  1.00  0.00     0.163 HD
ATOM     42  O   UNL     1      -3.841  -4.873   0.088  1.00  0.00    -0.269 OA
BRANCH  40  43
ATOM     43  C   UNL     1      -2.343  -6.452   0.969  1.00  0.00     0.039 A 
ATOM     44  C   UNL     1      -2.897  -7.630   0.469  1.00  0.00     0.014 A 
ATOM     45  C   UNL     1      -1.392  -6.490   1.990  1.00  0.00     0.014 A 
ATOM     46  C   UNL     1      -2.438  -8.854   0.953  1.00  0.00     0.010 A 
ATOM     47  C   UNL     1      -0.848  -7.704   2.376  1.00  0.00     0.010 A 
ATOM     48  C   UNL     1      -1.382  -8.899   1.880  1.00  0.00    -0.014 A 
BRANCH  48  49
ATOM     49  C   UNL     1      -0.841 -10.193   2.351  1.00  0.00     0.031 A 
ATOM     50  C   UNL     1      -0.928 -10.558   3.807  1.00  0.00     0.074 A 
ATOM     51  C   UNL     1      -0.224 -11.008   1.474  1.00  0.00     0.049 A 
ATOM     52  N   UNL     1      -0.570 -11.667   4.398  1.00  0.00    -0.248 NA
ATOM     53  C   UNL     1      -1.451  -9.534   4.728  1.00  0.00     0.031 C 
ATOM     54  C   UNL     1       0.026 -10.699   0.063  1.00  0.00     0.029 A 
ATOM     55  N   UNL     1       0.308 -12.260   1.638  1.00  0.00    -0.354 N 
ATOM     56  C   UNL     1      -0.796 -11.462   5.754  1.00  0.00     0.074 A 
ATOM     57  C   UNL     1      -1.262 -10.104   5.908  1.00  0.00     0.031 C 
ATOM     58  C   UNL     1       0.626 -11.750  -0.518  1.00  0.00     0.029 A 
ATOM     59  C   UNL     1       0.815 -12.798   0.478  1.00  0.00     0.049 A 
ATOM     60  H   UNL     1       0.326 -12.729   2.503  1.00  0.00     0.167 HD
ATOM     61  C   UNL     1      -0.674 -12.342   6.775  1.00  0.00     0.034 A 
ATOM     62  C   UNL     1       1.347 -14.014   0.245  1.00  0.00     0.034 A 
ATOM     63  C   UNL     1      -0.259 -13.705   6.598  1.00  0.00     0.049 A 
ATOM     64  C   UNL     1       1.389 -15.005   1.375  1.00  0.00     0.074 A 
ATOM     65  C   UNL     1      -0.189 -14.716   7.538  1.00  0.00     0.029 A 
ATOM     66  N   UNL     1       0.162 -14.247   5.392  1.00  0.00    -0.354 N 
ATOM     67  N   UNL     1       0.997 -14.857   2.618  1.00  0.00    -0.248 NA
ATOM     68  C   UNL     1       1.902 -16.345   1.061  1.00  0.00     0.031 C 
ATOM     69  C   UNL     1       0.291 -15.866   6.902  1.00  0.00     0.029 A 
ATOM     70  C   UNL     1       0.499 -15.578   5.562  1.00  0.00     0.049 A 
ATOM     71  H   UNL     1       0.212 -13.757   4.540  1.00  0.00     0.167 HD
ATOM     72  C   UNL     1       1.188 -16.090   3.229  1.00  0.00     0.074 A 
ATOM     73  C   UNL     1       1.704 -16.981   2.208  1.00  0.00     0.031 C 
ATOM     74  C   UNL     1       0.974 -16.451   4.519  1.00  0.00     0.034 A 
BRANCH  61  75
ATOM     75  C   UNL     1      -1.055 -11.862   8.152  1.00  0.00     0.023 A 
ATOM     76  C   UNL     1      -2.410 -11.592   8.444  1.00  0.00     0.012 A 
ATOM     77  C   UNL     1      -0.087 -11.690   9.159  1.00  0.00     0.148 A 
ATOM     78  C   UNL     1      -2.788 -11.114   9.698  1.00  0.00     0.002 A 
ATOM     79  C   UNL     1      -0.478 -11.259  10.422  1.00  0.00     0.091 A 
ATOM     80  F   UNL     1       1.198 -11.923   8.858  1.00  0.00    -0.205 F 
ATOM     81  C   UNL     1      -1.824 -10.957  10.689  1.00  0.00     0.022 A 
BRANCH  79  82
ATOM     82  S   UNL     1       0.677 -11.100  11.788  1.00  0.00     0.127 S 
ATOM     83  O   UNL     1       0.806  -9.648  11.898  1.00  0.00    -0.237 OA
ATOM     84  O   UNL     1      -0.054 -11.732  12.887  1.00  0.00    -0.237 OA
ATOM     85  O   UNL     1       1.881 -11.809  11.377  1.00  0.00    -0.744 OA
ENDBRANCH  79  82
ENDBRANCH  61  75
BRANCH  62  86
ATOM     86  C   UNL     1       1.764 -14.387  -1.137  1.00  0.00     0.023 A 
ATOM     87  C   UNL     1       0.992 -15.314  -1.864  1.00  0.00     0.012 A 
ATOM     88  C   UNL     1       2.880 -13.790  -1.754  1.00  0.00     0.148 A 
ATOM     89  C   UNL     1       1.338 -15.660  -3.171  1.00  0.00     0.002 A 
ATOM     90  C   UNL     1       3.188 -14.098  -3.075  1.00  0.00     0.091 A 
ATOM     91  F   UNL     1       3.606 -12.916  -1.043  1.00  0.00    -0.205 F 
ATOM     92  C   UNL     1       2.428 -15.045  -3.780  1.00  0.00     0.022 A 
BRANCH  90  93
ATOM     93  S   UNL     1       4.490 -13.258  -3.983  1.00  0.00     0.127 S 
ATOM     94  O   UNL     1       5.487 -14.316  -4.124  1.00  0.00    -0.237 OA
ATOM     95  O   UNL     1       3.804 -12.888  -5.222  1.00  0.00    -0.237 OA
ATOM     96  O   UNL     1       4.881 -12.127  -3.153  1.00  0.00    -0.744 OA
ENDBRANCH  90  93
ENDBRANCH  62  86
BRANCH  74  97
ATOM     97  C   UNL     1       1.284 -17.875   4.895  1.00  0.00     0.023 A 
ATOM     98  C   UNL     1       2.626 -18.297   4.980  1.00  0.00     0.012 A 
ATOM     99  C   UNL     1       0.252 -18.775   5.221  1.00  0.00     0.148 A 
ATOM    100  C   UNL     1       2.934 -19.606   5.346  1.00  0.00     0.002 A 
ATOM    101  C   UNL     1       0.569 -20.064   5.634  1.00  0.00     0.091 A 
ATOM    102  F   UNL     1      -1.019 -18.361   5.114  1.00  0.00    -0.205 F 
ATOM    103  C   UNL     1       1.907 -20.485   5.684  1.00  0.00     0.022 A 
BRANCH 101 104
ATOM    104  S   UNL     1      -0.687 -21.225   6.182  1.00  0.00     0.127 S 
ATOM    105  O   UNL     1      -0.809 -22.103   5.020  1.00  0.00    -0.237 OA
ATOM    106  O   UNL     1      -0.055 -21.842   7.349  1.00  0.00    -0.237 OA
ATOM    107  O   UNL     1      -1.862 -20.421   6.492  1.00  0.00    -0.744 OA
ENDBRANCH 101 104
ENDBRANCH  74  97
ENDBRANCH  48  49
ENDBRANCH  40  43
ENDBRANCH  38  39
ENDBRANCH  37  38
ENDBRANCH   1  37
TORSDOF 20
