REMARK SMILES CC(C)C(=O)Nc1ccc2c([C@H](C(=O)NCCCCNC(=O)c3ccc(-c4c5nc(c(-c6cccc(S(=O)(=O)[O-])c6F)c6ccc([nH]6)c(-c6cccc(S(=O)(=O)[O-])c6F)c6nc(c(-c7cccc(S(=O)(=O)[O-])c7F)c7ccc4[nH]7)C=C6)C=C5)cc3)[NH+]3CC[NH+](CC(=O)N(C)C)CC3)c[nH]c2c1
REMARK SMILES IDX 17 1 16 2 15 3 13 4 14 5 12 7 11 8 7 9 8 10 101 11 9 12
REMARK SMILES IDX 100 13 10 14 99 15 98 16 6 18 4 19 5 20 2 22 1 23 3 24 86 25
REMARK SMILES IDX 87 26 97 27 88 29 96 30 89 31 90 33 91 34 92 35 93 36 94 37
REMARK SMILES IDX 95 38 18 39 19 40 20 41 21 42 22 44 23 45 24 46 85 47 25 48
REMARK SMILES IDX 84 49 26 50 27 51 28 52 78 53 29 54 83 55 77 56 79 57 30 58
REMARK SMILES IDX 82 59 76 60 75 61 31 63 63 64 43 65 62 66 44 67 47 68 61 69
REMARK SMILES IDX 80 70 45 71 46 72 60 74 81 75 48 76 32 77 33 78 41 79 34 80
REMARK SMILES IDX 36 81 42 82 35 83 37 84 38 85 39 86 40 87 64 88 65 89 73 90
REMARK SMILES IDX 66 91 68 92 74 93 67 94 69 95 70 96 71 97 72 98 49 99 50 100
REMARK SMILES IDX 58 101 51 102 53 103 59 104 52 105 54 106 55 107 56 108
REMARK SMILES IDX 57 109
REMARK H PARENT 15 6 99 17 6 21 86 28 89 32 20 43 79 62 47 73
REMARK Flexibility Score: inf
ROOT
ATOM      1  C   UNL     1       2.397  -0.009  -2.807  1.00  0.00     0.023 C 
ENDROOT
BRANCH   1   2
ATOM      2  C   UNL     1       1.669  -1.366  -2.663  1.00  0.00     0.116 C 
BRANCH   2   3
ATOM      3  N   UNL     1       0.671  -1.679  -3.685  1.00  0.00    -0.351 N 
ATOM      4  C   UNL     1       0.585  -2.583  -4.726  1.00  0.00     0.283 C 
ATOM      5  O   UNL     1      -0.500  -2.585  -5.319  1.00  0.00    -0.268 OA
ATOM      6  H   UNL     1      -0.129  -1.110  -3.615  1.00  0.00     0.163 HD
BRANCH   4   7
ATOM      7  C   UNL     1       1.775  -3.503  -5.135  1.00  0.00     0.308 C 
BRANCH   7   8
ATOM      8  C   UNL     1       1.412  -4.872  -5.689  1.00  0.00     0.044 A 
ATOM      9  C   UNL     1       3.634  -8.364  -6.444  1.00  0.00     0.043 A 
ATOM     10  C   UNL     1       4.368  -7.278  -5.985  1.00  0.00     0.027 A 
ATOM     11  C   UNL     1       2.294  -8.218  -6.819  1.00  0.00     0.052 A 
ATOM     12  C   UNL     1       3.743  -6.062  -5.708  1.00  0.00     0.013 A 
ATOM     13  C   UNL     1       1.673  -7.003  -6.500  1.00  0.00     0.048 A 
ATOM     14  C   UNL     1       2.355  -5.938  -5.913  1.00  0.00     0.009 A 
ATOM     15  N   UNL     1       0.369  -6.601  -6.658  1.00  0.00    -0.361 N 
ATOM     16  C   UNL     1       0.196  -5.342  -6.153  1.00  0.00     0.094 A 
ATOM     17  H   UNL     1      -0.339  -7.142  -7.076  1.00  0.00     0.166 HD
BRANCH   9  18
ATOM     18  N   UNL     1       4.207  -9.633  -6.542  1.00  0.00    -0.326 N 
ATOM     19  C   UNL     1       4.900 -10.341  -5.601  1.00  0.00     0.226 C 
ATOM     20  O   UNL     1       5.421 -11.405  -5.959  1.00  0.00    -0.274 OA
ATOM     21  H   UNL     1       4.096 -10.082  -7.412  1.00  0.00     0.169 HD
BRANCH  19  22
ATOM     22  C   UNL     1       4.971  -9.932  -4.120  1.00  0.00     0.072 C 
ATOM     23  C   UNL     1       6.049  -8.907  -3.791  1.00  0.00     0.018 C 
ATOM     24  C   UNL     1       3.622  -9.594  -3.486  1.00  0.00     0.018 C 
ENDBRANCH  19  22
ENDBRANCH   9  18
ENDBRANCH   7   8
BRANCH   7  25
ATOM     25  N   UNL     1       2.751  -2.884  -6.060  1.00  0.00    -0.312 N 
ATOM     26  C   UNL     1       2.563  -2.877  -7.518  1.00  0.00     0.325 C 
ATOM     27  C   UNL     1       3.271  -1.619  -5.612  1.00  0.00     0.325 C 
ATOM     28  H   UNL     1       3.438  -3.632  -5.970  1.00  0.00     0.349 HD
ATOM     29  C   UNL     1       2.145  -1.549  -8.222  1.00  0.00     0.325 C 
ATOM     30  C   UNL     1       2.464  -0.408  -6.126  1.00  0.00     0.325 C 
ATOM     31  N   UNL     1       2.488  -0.275  -7.572  1.00  0.00    -0.318 N 
ATOM     32  H   UNL     1       1.738   0.357  -7.847  1.00  0.00     0.348 HD
BRANCH  31  33
ATOM     33  C   UNL     1       3.643   0.471  -8.097  1.00  0.00     0.364 C 
BRANCH  33  34
ATOM     34  C   UNL     1       4.997  -0.234  -7.943  1.00  0.00     0.277 C 
ATOM     35  O   UNL     1       5.358  -1.038  -8.811  1.00  0.00    -0.268 OA
ATOM     36  N   UNL     1       5.785   0.002  -6.811  1.00  0.00    -0.344 N 
ATOM     37  C   UNL     1       5.532   0.968  -5.748  1.00  0.00     0.146 C 
ATOM     38  C   UNL     1       6.949  -0.848  -6.613  1.00  0.00     0.146 C 
ENDBRANCH  33  34
ENDBRANCH  31  33
ENDBRANCH   7  25
ENDBRANCH   4   7
ENDBRANCH   2   3
ENDBRANCH   1   2
BRANCH   1  39
ATOM     39  C   UNL     1       1.550   1.197  -3.215  1.00  0.00     0.023 C 
BRANCH  39  40
ATOM     40  C   UNL     1       1.003   1.960  -2.027  1.00  0.00     0.116 C 
BRANCH  40  41
ATOM     41  N   UNL     1       2.063   2.603  -1.254  1.00  0.00    -0.352 N 
ATOM     42  C   UNL     1       2.049   3.833  -0.632  1.00  0.00     0.251 C 
ATOM     43  H   UNL     1       2.898   2.090  -1.166  1.00  0.00     0.163 HD
ATOM     44  O   UNL     1       3.066   4.290  -0.140  1.00  0.00    -0.269 OA
BRANCH  42  45
ATOM     45  C   UNL     1       0.783   4.594  -0.610  1.00  0.00     0.039 A 
ATOM     46  C   UNL     1       0.790   5.952  -0.937  1.00  0.00     0.014 A 
ATOM     47  C   UNL     1      -0.415   3.935  -0.333  1.00  0.00     0.014 A 
ATOM     48  C   UNL     1      -0.422   6.635  -1.051  1.00  0.00     0.010 A 
ATOM     49  C   UNL     1      -1.616   4.581  -0.562  1.00  0.00     0.010 A 
ATOM     50  C   UNL     1      -1.633   5.943  -0.899  1.00  0.00    -0.014 A 
BRANCH  50  51
ATOM     51  C   UNL     1      -2.954   6.600  -1.034  1.00  0.00     0.031 A 
ATOM     52  C   UNL     1      -3.902   6.566   0.134  1.00  0.00     0.074 A 
ATOM     53  C   UNL     1      -3.348   7.082  -2.228  1.00  0.00     0.049 A 
ATOM     54  N   UNL     1      -5.166   6.887   0.185  1.00  0.00    -0.248 NA
ATOM     55  C   UNL     1      -3.366   6.039   1.403  1.00  0.00     0.031 C 
ATOM     56  C   UNL     1      -2.539   7.096  -3.448  1.00  0.00     0.029 A 
ATOM     57  N   UNL     1      -4.547   7.620  -2.617  1.00  0.00    -0.354 N 
ATOM     58  C   UNL     1      -5.590   6.538   1.461  1.00  0.00     0.074 A 
ATOM     59  C   UNL     1      -4.463   5.935   2.135  1.00  0.00     0.031 C 
ATOM     60  C   UNL     1      -3.261   7.628  -4.448  1.00  0.00     0.029 A 
ATOM     61  C   UNL     1      -4.593   7.954  -3.951  1.00  0.00     0.049 A 
ATOM     62  H   UNL     1      -5.303   7.755  -2.001  1.00  0.00     0.167 HD
ATOM     63  C   UNL     1      -6.800   6.735   2.035  1.00  0.00     0.034 A 
ATOM     64  C   UNL     1      -5.602   8.460  -4.685  1.00  0.00     0.034 A 
ATOM     65  C   UNL     1      -7.886   7.405   1.376  1.00  0.00     0.049 A 
ATOM     66  C   UNL     1      -6.917   8.738  -4.009  1.00  0.00     0.074 A 
ATOM     67  C   UNL     1      -9.121   7.756   1.887  1.00  0.00     0.029 A 
ATOM     68  N   UNL     1      -7.857   7.835   0.057  1.00  0.00    -0.354 N 
ATOM     69  N   UNL     1      -7.264   8.524  -2.761  1.00  0.00    -0.248 NA
ATOM     70  C   UNL     1      -7.968   9.355  -4.829  1.00  0.00     0.031 C 
ATOM     71  C   UNL     1      -9.845   8.389   0.870  1.00  0.00     0.029 A 
ATOM     72  C   UNL     1      -9.051   8.452  -0.265  1.00  0.00     0.049 A 
ATOM     73  H   UNL     1      -7.098   7.719  -0.558  1.00  0.00     0.167 HD
ATOM     74  C   UNL     1      -8.556   9.021  -2.634  1.00  0.00     0.074 A 
ATOM     75  C   UNL     1      -8.925   9.553  -3.931  1.00  0.00     0.031 C 
ATOM     76  C   UNL     1      -9.368   9.029  -1.548  1.00  0.00     0.034 A 
BRANCH  63  77
ATOM     77  C   UNL     1      -6.977   6.269   3.459  1.00  0.00     0.023 A 
ATOM     78  C   UNL     1      -6.267   6.911   4.497  1.00  0.00     0.012 A 
ATOM     79  C   UNL     1      -7.839   5.202   3.775  1.00  0.00     0.148 A 
ATOM     80  C   UNL     1      -6.365   6.461   5.812  1.00  0.00     0.002 A 
ATOM     81  C   UNL     1      -7.972   4.793   5.098  1.00  0.00     0.091 A 
ATOM     82  F   UNL     1      -8.489   4.584   2.778  1.00  0.00    -0.205 F 
ATOM     83  C   UNL     1      -7.223   5.408   6.114  1.00  0.00     0.022 A 
BRANCH  81  84
ATOM     84  S   UNL     1      -9.117   3.502   5.596  1.00  0.00     0.127 S 
ATOM     85  O   UNL     1      -8.211   2.379   5.834  1.00  0.00    -0.237 OA
ATOM     86  O   UNL     1      -9.715   4.068   6.806  1.00  0.00    -0.237 OA
ATOM     87  O   UNL     1     -10.043   3.341   4.484  1.00  0.00    -0.744 OA
ENDBRANCH  81  84
ENDBRANCH  63  77
BRANCH  64  88
ATOM     88  C   UNL     1      -5.369   8.830  -6.109  1.00  0.00     0.023 A 
ATOM     89  C   UNL     1      -5.288  10.194  -6.452  1.00  0.00     0.012 A 
ATOM     90  C   UNL     1      -5.171   7.858  -7.109  1.00  0.00     0.148 A 
ATOM     91  C   UNL     1      -5.039  10.586  -7.768  1.00  0.00     0.002 A 
ATOM     92  C   UNL     1      -4.874   8.255  -8.409  1.00  0.00     0.091 A 
ATOM     93  F   UNL     1      -5.253   6.566  -6.762  1.00  0.00    -0.205 F 
ATOM     94  C   UNL     1      -4.822   9.617  -8.743  1.00  0.00     0.022 A 
BRANCH  92  95
ATOM     95  S   UNL     1      -4.456   7.087  -9.709  1.00  0.00     0.127 S 
ATOM     96  O   UNL     1      -5.582   7.246 -10.626  1.00  0.00    -0.237 OA
ATOM     97  O   UNL     1      -3.185   7.623 -10.194  1.00  0.00    -0.237 OA
ATOM     98  O   UNL     1      -4.354   5.789  -9.055  1.00  0.00    -0.744 OA
ENDBRANCH  92  95
ENDBRANCH  64  88
BRANCH  76  99
ATOM     99  C   UNL     1     -10.717   9.679  -1.690  1.00  0.00     0.023 A 
ATOM    100  C   UNL     1     -11.740   9.027  -2.405  1.00  0.00     0.012 A 
ATOM    101  C   UNL     1     -10.995  10.892  -1.030  1.00  0.00     0.148 A 
ATOM    102  C   UNL     1     -13.015   9.588  -2.482  1.00  0.00     0.002 A 
ATOM    103  C   UNL     1     -12.279  11.418  -1.068  1.00  0.00     0.091 A 
ATOM    104  F   UNL     1      -9.999  11.504  -0.371  1.00  0.00    -0.205 F 
ATOM    105  C   UNL     1     -13.287  10.773  -1.803  1.00  0.00     0.022 A 
BRANCH 103 106
ATOM    106  S   UNL     1     -12.745  12.883  -0.139  1.00  0.00     0.127 S 
ATOM    107  O   UNL     1     -12.898  13.874  -1.203  1.00  0.00    -0.237 OA
ATOM    108  O   UNL     1     -13.999  12.464   0.490  1.00  0.00    -0.237 OA
ATOM    109  O   UNL     1     -11.655  13.130   0.794  1.00  0.00    -0.744 OA
ENDBRANCH 103 106
ENDBRANCH  76  99
ENDBRANCH  50  51
ENDBRANCH  42  45
ENDBRANCH  40  41
ENDBRANCH  39  40
ENDBRANCH   1  39
TORSDOF 20
