REMARK SMILES O=C(COCCNC(=O)Nc1cccc(F)c1)NCCCCNC(=O)c1ccc(-c2c3nc(c(-c4cccc(S(=O)(=O)[O-])c4F)c4ccc([nH]4)c(-c4cccc(S(=O)(=O)[O-])c4F)c4nc(c(-c5cccc(S(=O)(=O)[O-])c5F)c5ccc2[nH]5)C=C4)C=C3)cc1
REMARK SMILES IDX 19 1 18 2 1 3 2 4 3 6 4 7 5 8 6 9 7 10 8 11 9 13 10 14 11 16
REMARK SMILES IDX 12 17 17 18 13 19 15 20 14 21 16 22 20 23 21 24 22 25 23 26
REMARK SMILES IDX 24 27 25 29 26 30 27 31 88 32 28 33 87 34 29 35 30 36 31 37
REMARK SMILES IDX 81 38 32 39 86 40 80 41 82 42 33 43 85 44 79 45 78 46 34 48
REMARK SMILES IDX 66 49 46 50 65 51 47 52 50 53 64 54 83 55 48 56 49 57 63 59
REMARK SMILES IDX 84 60 51 61 35 62 36 63 44 64 37 65 39 66 45 67 38 68 40 69
REMARK SMILES IDX 41 70 42 71 43 72 67 73 68 74 76 75 69 76 71 77 77 78 70 79
REMARK SMILES IDX 72 80 73 81 74 82 75 83 52 84 53 85 61 86 54 87 56 88 62 89
REMARK SMILES IDX 55 90 57 91 58 92 59 93 60 94
REMARK H PARENT 18 5 7 12 10 15 23 28 82 47 50 58
REMARK Flexibility Score: inf
ROOT
ATOM      1  C   UNL     1       2.063   0.367   2.560  1.00  0.00     0.116 C 
ENDROOT
BRANCH   1   2
ATOM      2  N   UNL     1       2.798   0.153   1.337  1.00  0.00    -0.354 N 
ATOM      3  O   UNL     1       1.179  -1.095   0.277  1.00  0.00    -0.272 OA
ATOM      4  C   UNL     1       2.284  -0.565   0.278  1.00  0.00     0.245 C 
ATOM      5  H   UNL     1       3.702   0.535   1.255  1.00  0.00     0.163 HD
BRANCH   4   6
ATOM      6  C   UNL     1       3.244  -0.645  -0.912  1.00  0.00     0.260 C 
BRANCH   6   7
ATOM      7  O   UNL     1       3.914   0.558  -1.255  1.00  0.00    -0.370 OA
BRANCH   7   8
ATOM      8  C   UNL     1       3.079   1.703  -1.415  1.00  0.00     0.182 C 
BRANCH   8   9
ATOM      9  C   UNL     1       2.269   1.739  -2.711  1.00  0.00     0.146 C 
BRANCH   9  10
ATOM     10  N   UNL     1       1.044   0.938  -2.735  1.00  0.00    -0.336 N 
ATOM     11  C   UNL     1      -0.273   1.220  -2.663  1.00  0.00     0.319 C 
ATOM     12  H   UNL     1       1.222  -0.026  -2.823  1.00  0.00     0.165 HD
ATOM     13  O   UNL     1      -1.063   0.284  -2.524  1.00  0.00    -0.249 OA
ATOM     14  N   UNL     1      -0.758   2.480  -2.639  1.00  0.00    -0.308 N 
ATOM     15  H   UNL     1      -1.640   2.570  -2.210  1.00  0.00     0.171 HD
BRANCH  14  16
ATOM     16  C   UNL     1      -0.225   3.678  -3.118  1.00  0.00     0.045 A 
ATOM     17  C   UNL     1       0.518   3.740  -4.303  1.00  0.00     0.026 A 
ATOM     18  C   UNL     1      -0.398   4.820  -2.341  1.00  0.00     0.065 A 
ATOM     19  C   UNL     1       1.233   4.897  -4.617  1.00  0.00     0.005 A 
ATOM     20  C   UNL     1       0.325   5.962  -2.659  1.00  0.00     0.125 A 
ATOM     21  C   UNL     1       1.161   6.001  -3.771  1.00  0.00     0.039 A 
ATOM     22  F   UNL     1       0.256   7.026  -1.849  1.00  0.00    -0.207 F 
ENDBRANCH  14  16
ENDBRANCH   9  10
ENDBRANCH   8   9
ENDBRANCH   7   8
ENDBRANCH   6   7
ENDBRANCH   4   6
ENDBRANCH   1   2
BRANCH   1  23
ATOM     23  C   UNL     1       2.408  -0.682   3.612  1.00  0.00     0.023 C 
BRANCH  23  24
ATOM     24  C   UNL     1       3.894  -0.744   3.978  1.00  0.00     0.023 C 
BRANCH  24  25
ATOM     25  C   UNL     1       4.497   0.566   4.475  1.00  0.00     0.116 C 
BRANCH  25  26
ATOM     26  N   UNL     1       3.880   1.034   5.706  1.00  0.00    -0.352 N 
ATOM     27  C   UNL     1       4.473   1.400   6.892  1.00  0.00     0.251 C 
ATOM     28  H   UNL     1       2.898   1.099   5.687  1.00  0.00     0.163 HD
ATOM     29  O   UNL     1       3.780   1.615   7.879  1.00  0.00    -0.269 OA
BRANCH  27  30
ATOM     30  C   UNL     1       5.947   1.510   6.980  1.00  0.00     0.039 A 
ATOM     31  C   UNL     1       6.599   0.947   8.080  1.00  0.00     0.014 A 
ATOM     32  C   UNL     1       6.684   2.161   5.988  1.00  0.00     0.014 A 
ATOM     33  C   UNL     1       7.995   0.981   8.151  1.00  0.00     0.010 A 
ATOM     34  C   UNL     1       8.077   2.128   6.023  1.00  0.00     0.010 A 
ATOM     35  C   UNL     1       8.748   1.539   7.105  1.00  0.00    -0.014 A 
BRANCH  35  36
ATOM     36  C   UNL     1      10.235   1.494   7.115  1.00  0.00     0.031 A 
ATOM     37  C   UNL     1      11.039   2.767   7.129  1.00  0.00     0.074 A 
ATOM     38  C   UNL     1      10.865   0.304   7.033  1.00  0.00     0.049 A 
ATOM     39  N   UNL     1      12.337   2.919   7.083  1.00  0.00    -0.248 NA
ATOM     40  C   UNL     1      10.290   4.034   7.178  1.00  0.00     0.031 C 
ATOM     41  C   UNL     1      10.201  -0.998   6.946  1.00  0.00     0.029 A 
ATOM     42  N   UNL     1      12.203  -0.004   6.989  1.00  0.00    -0.354 N 
ATOM     43  C   UNL     1      12.560   4.291   7.067  1.00  0.00     0.074 A 
ATOM     44  C   UNL     1      11.262   4.929   7.074  1.00  0.00     0.031 C 
ATOM     45  C   UNL     1      11.131  -1.962   6.871  1.00  0.00     0.029 A 
ATOM     46  C   UNL     1      12.457  -1.351   6.867  1.00  0.00     0.049 A 
ATOM     47  H   UNL     1      12.914   0.676   7.040  1.00  0.00     0.167 HD
ATOM     48  C   UNL     1      13.737   4.958   7.075  1.00  0.00     0.034 A 
ATOM     49  C   UNL     1      13.621  -2.021   6.754  1.00  0.00     0.034 A 
ATOM     50  C   UNL     1      15.026   4.321   7.113  1.00  0.00     0.049 A 
ATOM     51  C   UNL     1      14.916  -1.256   6.789  1.00  0.00     0.074 A 
ATOM     52  C   UNL     1      16.271   4.917   7.208  1.00  0.00     0.029 A 
ATOM     53  N   UNL     1      15.240   2.954   7.053  1.00  0.00    -0.354 N 
ATOM     54  N   UNL     1      15.106   0.035   6.914  1.00  0.00    -0.248 NA
ATOM     55  C   UNL     1      16.158  -2.038   6.700  1.00  0.00     0.031 C 
ATOM     56  C   UNL     1      17.240   3.912   7.170  1.00  0.00     0.029 A 
ATOM     57  C   UNL     1      16.598   2.687   7.094  1.00  0.00     0.049 A 
ATOM     58  H   UNL     1      14.532   2.273   6.990  1.00  0.00     0.167 HD
ATOM     59  C   UNL     1      16.483   0.217   6.953  1.00  0.00     0.074 A 
ATOM     60  C   UNL     1      17.082  -1.098   6.856  1.00  0.00     0.031 C 
ATOM     61  C   UNL     1      17.186   1.372   7.049  1.00  0.00     0.034 A 
BRANCH  48  62
ATOM     62  C   UNL     1      13.702   6.465   7.102  1.00  0.00     0.023 A 
ATOM     63  C   UNL     1      13.302   7.128   8.279  1.00  0.00     0.012 A 
ATOM     64  C   UNL     1      14.169   7.219   6.008  1.00  0.00     0.148 A 
ATOM     65  C   UNL     1      13.348   8.519   8.361  1.00  0.00     0.002 A 
ATOM     66  C   UNL     1      14.258   8.602   6.113  1.00  0.00     0.091 A 
ATOM     67  F   UNL     1      14.528   6.569   4.891  1.00  0.00    -0.205 F 
ATOM     68  C   UNL     1      13.838   9.254   7.285  1.00  0.00     0.022 A 
BRANCH  66  69
ATOM     69  S   UNL     1      14.959   9.633   4.821  1.00  0.00     0.127 S 
ATOM     70  O   UNL     1      13.789  10.395   4.385  1.00  0.00    -0.237 OA
ATOM     71  O   UNL     1      15.954  10.412   5.557  1.00  0.00    -0.237 OA
ATOM     72  O   UNL     1      15.509   8.720   3.828  1.00  0.00    -0.744 OA
ENDBRANCH  66  69
ENDBRANCH  48  62
BRANCH  49  73
ATOM     73  C   UNL     1      13.608  -3.509   6.667  1.00  0.00     0.023 A 
ATOM     74  C   UNL     1      14.072  -4.270   7.758  1.00  0.00     0.012 A 
ATOM     75  C   UNL     1      13.088  -4.173   5.538  1.00  0.00     0.148 A 
ATOM     76  C   UNL     1      14.037  -5.664   7.719  1.00  0.00     0.002 A 
ATOM     77  C   UNL     1      13.001  -5.560   5.531  1.00  0.00     0.091 A 
ATOM     78  F   UNL     1      12.662  -3.431   4.507  1.00  0.00    -0.205 F 
ATOM     79  C   UNL     1      13.490  -6.309   6.613  1.00  0.00     0.022 A 
BRANCH  77  80
ATOM     80  S   UNL     1      12.184  -6.470   4.214  1.00  0.00     0.127 S 
ATOM     81  O   UNL     1      13.300  -7.199   3.617  1.00  0.00    -0.237 OA
ATOM     82  O   UNL     1      11.238  -7.296   4.964  1.00  0.00    -0.237 OA
ATOM     83  O   UNL     1      11.563  -5.463   3.365  1.00  0.00    -0.744 OA
ENDBRANCH  77  80
ENDBRANCH  49  73
BRANCH  61  84
ATOM     84  C   UNL     1      18.690   1.292   7.087  1.00  0.00     0.023 A 
ATOM     85  C   UNL     1      19.405   0.978   5.915  1.00  0.00     0.012 A 
ATOM     86  C   UNL     1      19.396   1.653   8.252  1.00  0.00     0.148 A 
ATOM     87  C   UNL     1      20.800   1.006   5.907  1.00  0.00     0.002 A 
ATOM     88  C   UNL     1      20.783   1.731   8.222  1.00  0.00     0.091 A 
ATOM     89  F   UNL     1      18.697   1.934   9.361  1.00  0.00    -0.205 F 
ATOM     90  C   UNL     1      21.487   1.397   7.054  1.00  0.00     0.022 A 
BRANCH  88  91
ATOM     91  S   UNL     1      21.749   2.329   9.614  1.00  0.00     0.127 S 
ATOM     92  O   UNL     1      22.450   1.116  10.033  1.00  0.00    -0.237 OA
ATOM     93  O   UNL     1      22.600   3.340   8.988  1.00  0.00    -0.237 OA
ATOM     94  O   UNL     1      20.789   2.854  10.576  1.00  0.00    -0.744 OA
ENDBRANCH  88  91
ENDBRANCH  61  84
ENDBRANCH  35  36
ENDBRANCH  27  30
ENDBRANCH  25  26
ENDBRANCH  24  25
ENDBRANCH  23  24
ENDBRANCH   1  23
TORSDOF 19
