REMARK SMILES C[C@H](C(=O)NCCCCNC(=O)c1ccc(-c2c3nc(c(-c4cccc(S(=O)(=O)[O-])c4F)c4ccc([nH]4)c(-c4cccc(S(=O)(=O)[O-])c4F)c4nc(c(-c5cccc(S(=O)(=O)[O-])c5F)c5ccc2[nH]5)C=C4)C=C3)cc1)n1c(=O)ssc1=O
REMARK SMILES IDX 8 1 7 2 6 3 5 4 3 5 4 6 2 8 1 9 76 10 77 11 81 12 78 13
REMARK SMILES IDX 79 14 80 15 82 16 9 17 10 18 11 19 12 21 13 22 14 23 75 24
REMARK SMILES IDX 15 25 74 26 16 27 17 28 18 29 68 30 19 31 73 32 67 33 69 34
REMARK SMILES IDX 20 35 72 36 66 37 65 38 21 40 53 41 33 42 52 43 34 44 37 45
REMARK SMILES IDX 51 46 70 47 35 48 36 49 50 51 71 52 38 53 22 54 23 55 31 56
REMARK SMILES IDX 24 57 26 58 32 59 25 60 27 61 28 62 29 63 30 64 54 65 55 66
REMARK SMILES IDX 63 67 56 68 58 69 64 70 57 71 59 72 60 73 61 74 62 75 39 76
REMARK SMILES IDX 40 77 48 78 41 79 43 80 49 81 42 82 44 83 45 84 46 85 47 86
REMARK H PARENT 5 7 10 20 69 39 37 50
REMARK Flexibility Score: inf
ROOT
ATOM      1  C   UNL     1      -1.834  -0.625  -3.070  1.00  0.00     0.023 C 
ENDROOT
BRANCH   1   2
ATOM      2  C   UNL     1      -1.858  -1.099  -1.616  1.00  0.00     0.023 C 
BRANCH   2   3
ATOM      3  C   UNL     1      -0.543  -1.701  -1.127  1.00  0.00     0.116 C 
BRANCH   3   4
ATOM      4  N   UNL     1       0.466  -0.683  -0.928  1.00  0.00    -0.354 N 
ATOM      5  C   UNL     1       0.932  -0.110   0.220  1.00  0.00     0.243 C 
ATOM      6  O   UNL     1       1.952   0.577   0.117  1.00  0.00    -0.273 OA
ATOM      7  H   UNL     1       0.883  -0.349  -1.755  1.00  0.00     0.163 HD
BRANCH   5   8
ATOM      8  C   UNL     1       0.332  -0.475   1.600  1.00  0.00     0.181 C 
ATOM      9  C   UNL     1       0.982   0.318   2.741  1.00  0.00     0.042 C 
BRANCH   8  10
ATOM     10  N   UNL     1      -1.131  -0.388   1.657  1.00  0.00    -0.244 N 
ATOM     11  C   UNL     1      -1.862  -1.501   2.017  1.00  0.00     0.321 A 
ATOM     12  C   UNL     1      -1.743   0.839   1.509  1.00  0.00     0.321 A 
ATOM     13  O   UNL     1      -1.399  -2.592   2.318  1.00  0.00    -0.256 OA
ATOM     14  S   UNL     1      -3.592  -1.230   2.001  1.00  0.00    -0.014 S 
ATOM     15  S   UNL     1      -3.482   0.777   1.721  1.00  0.00    -0.014 S 
ATOM     16  O   UNL     1      -1.172   1.896   1.280  1.00  0.00    -0.256 OA
ENDBRANCH   8  10
ENDBRANCH   5   8
ENDBRANCH   3   4
ENDBRANCH   2   3
ENDBRANCH   1   2
BRANCH   1  17
ATOM     17  C   UNL     1      -1.494  -1.702  -4.090  1.00  0.00     0.116 C 
BRANCH  17  18
ATOM     18  N   UNL     1      -2.385  -2.850  -4.018  1.00  0.00    -0.352 N 
ATOM     19  C   UNL     1      -2.898  -3.602  -5.045  1.00  0.00     0.251 C 
ATOM     20  H   UNL     1      -2.655  -3.124  -3.112  1.00  0.00     0.163 HD
ATOM     21  O   UNL     1      -3.754  -4.450  -4.812  1.00  0.00    -0.269 OA
BRANCH  19  22
ATOM     22  C   UNL     1      -2.430  -3.368  -6.428  1.00  0.00     0.039 A 
ATOM     23  C   UNL     1      -3.369  -3.338  -7.461  1.00  0.00     0.014 A 
ATOM     24  C   UNL     1      -1.073  -3.180  -6.704  1.00  0.00     0.014 A 
ATOM     25  C   UNL     1      -2.946  -3.092  -8.768  1.00  0.00     0.010 A 
ATOM     26  C   UNL     1      -0.667  -2.841  -7.989  1.00  0.00     0.010 A 
ATOM     27  C   UNL     1      -1.593  -2.827  -9.041  1.00  0.00    -0.014 A 
BRANCH  27  28
ATOM     28  C   UNL     1      -1.129  -2.580 -10.429  1.00  0.00     0.031 A 
ATOM     29  C   UNL     1      -0.147  -3.523 -11.075  1.00  0.00     0.074 A 
ATOM     30  C   UNL     1      -1.554  -1.487 -11.092  1.00  0.00     0.049 A 
ATOM     31  N   UNL     1       0.359  -3.487 -12.280  1.00  0.00    -0.248 NA
ATOM     32  C   UNL     1       0.357  -4.636 -10.251  1.00  0.00     0.031 C 
ATOM     33  C   UNL     1      -2.439  -0.456 -10.547  1.00  0.00     0.029 A 
ATOM     34  N   UNL     1      -1.288  -1.055 -12.367  1.00  0.00    -0.354 N 
ATOM     35  C   UNL     1       1.263  -4.541 -12.345  1.00  0.00     0.074 A 
ATOM     36  C   UNL     1       1.271  -5.172 -11.045  1.00  0.00     0.031 C 
ATOM     37  C   UNL     1      -2.663   0.475 -11.489  1.00  0.00     0.029 A 
ATOM     38  C   UNL     1      -1.917   0.124 -12.693  1.00  0.00     0.049 A 
ATOM     39  H   UNL     1      -0.702  -1.542 -12.990  1.00  0.00     0.167 HD
ATOM     40  C   UNL     1       1.998  -4.967 -13.399  1.00  0.00     0.034 A 
ATOM     41  C   UNL     1      -1.898   0.837 -13.836  1.00  0.00     0.034 A 
ATOM     42  C   UNL     1       1.952  -4.363 -14.703  1.00  0.00     0.049 A 
ATOM     43  C   UNL     1      -1.114   0.312 -15.008  1.00  0.00     0.074 A 
ATOM     44  C   UNL     1       2.583  -4.773 -15.863  1.00  0.00     0.029 A 
ATOM     45  N   UNL     1       1.245  -3.213 -15.016  1.00  0.00    -0.354 N 
ATOM     46  N   UNL     1      -0.393  -0.780 -15.100  1.00  0.00    -0.248 NA
ATOM     47  C   UNL     1      -1.178   1.094 -16.251  1.00  0.00     0.031 C 
ATOM     48  C   UNL     1       2.287  -3.849 -16.870  1.00  0.00     0.029 A 
ATOM     49  C   UNL     1       1.432  -2.891 -16.348  1.00  0.00     0.049 A 
ATOM     50  H   UNL     1       0.691  -2.702 -14.383  1.00  0.00     0.167 HD
ATOM     51  C   UNL     1       0.042  -0.841 -16.419  1.00  0.00     0.074 A 
ATOM     52  C   UNL     1      -0.512   0.316 -17.093  1.00  0.00     0.031 C 
ATOM     53  C   UNL     1       0.832  -1.766 -17.018  1.00  0.00     0.034 A 
BRANCH  40  54
ATOM     54  C   UNL     1       2.886  -6.168 -13.195  1.00  0.00     0.023 A 
ATOM     55  C   UNL     1       2.314  -7.442 -13.000  1.00  0.00     0.012 A 
ATOM     56  C   UNL     1       4.288  -6.043 -13.246  1.00  0.00     0.148 A 
ATOM     57  C   UNL     1       3.121  -8.565 -12.816  1.00  0.00     0.002 A 
ATOM     58  C   UNL     1       5.086  -7.174 -13.114  1.00  0.00     0.091 A 
ATOM     59  F   UNL     1       4.816  -4.822 -13.410  1.00  0.00    -0.205 F 
ATOM     60  C   UNL     1       4.505  -8.432 -12.884  1.00  0.00     0.022 A 
BRANCH  58  61
ATOM     61  S   UNL     1       6.874  -7.122 -13.273  1.00  0.00     0.127 S 
ATOM     62  O   UNL     1       7.299  -7.393 -11.900  1.00  0.00    -0.237 OA
ATOM     63  O   UNL     1       7.129  -8.210 -14.216  1.00  0.00    -0.237 OA
ATOM     64  O   UNL     1       7.195  -5.793 -13.774  1.00  0.00    -0.744 OA
ENDBRANCH  58  61
ENDBRANCH  40  54
BRANCH  41  65
ATOM     65  C   UNL     1      -2.710   2.081 -13.957  1.00  0.00     0.023 A 
ATOM     66  C   UNL     1      -3.834   2.095 -14.807  1.00  0.00     0.012 A 
ATOM     67  C   UNL     1      -2.385   3.241 -13.229  1.00  0.00     0.148 A 
ATOM     68  C   UNL     1      -4.594   3.255 -14.963  1.00  0.00     0.002 A 
ATOM     69  C   UNL     1      -3.179   4.376 -13.346  1.00  0.00     0.091 A 
ATOM     70  F   UNL     1      -1.309   3.208 -12.430  1.00  0.00    -0.205 F 
ATOM     71  C   UNL     1      -4.272   4.392 -14.227  1.00  0.00     0.022 A 
BRANCH  69  72
ATOM     72  S   UNL     1      -2.917   5.843 -12.345  1.00  0.00     0.127 S 
ATOM     73  O   UNL     1      -2.474   6.812 -13.344  1.00  0.00    -0.237 OA
ATOM     74  O   UNL     1      -4.256   6.081 -11.805  1.00  0.00    -0.237 OA
ATOM     75  O   UNL     1      -1.925   5.467 -11.346  1.00  0.00    -0.744 OA
ENDBRANCH  69  72
ENDBRANCH  41  65
BRANCH  53  76
ATOM     76  C   UNL     1       1.099  -1.606 -18.492  1.00  0.00     0.023 A 
ATOM     77  C   UNL     1       1.918  -0.558 -18.958  1.00  0.00     0.012 A 
ATOM     78  C   UNL     1       0.579  -2.538 -19.412  1.00  0.00     0.148 A 
ATOM     79  C   UNL     1       2.175  -0.413 -20.321  1.00  0.00     0.002 A 
ATOM     80  C   UNL     1       0.886  -2.421 -20.762  1.00  0.00     0.091 A 
ATOM     81  F   UNL     1      -0.213  -3.518 -18.953  1.00  0.00    -0.205 F 
ATOM     82  C   UNL     1       1.669  -1.349 -21.220  1.00  0.00     0.022 A 
BRANCH  80  83
ATOM     83  S   UNL     1       0.366  -3.640 -21.973  1.00  0.00     0.127 S 
ATOM     84  O   UNL     1      -0.695  -2.925 -22.679  1.00  0.00    -0.237 OA
ATOM     85  O   UNL     1       1.588  -3.845 -22.752  1.00  0.00    -0.237 OA
ATOM     86  O   UNL     1      -0.063  -4.805 -21.209  1.00  0.00    -0.744 OA
ENDBRANCH  80  83
ENDBRANCH  53  76
ENDBRANCH  27  28
ENDBRANCH  19  22
ENDBRANCH  17  18
ENDBRANCH   1  17
TORSDOF 15
