REMARK SMILES COc1cc(OC)cc(-c2ccc([C@@H](C)C(=O)NCCCCNC(=O)c3ccc(-c4c5nc(c(-c6cccc(S(=O)(=O)[O-])c6F)c6ccc([nH]6)c(-c6cccc(S(=O)(=O)[O-])c6F)c6nc(c(-c7cccc(S(=O)(=O)[O-])c7F)c7ccc4[nH]7)C=C6)C=C5)cc3)cc2F)c1
REMARK SMILES IDX 20 1 19 2 18 3 16 4 17 5 14 7 15 8 13 9 10 10 11 11 90 12
REMARK SMILES IDX 12 13 89 14 91 15 9 16 3 17 4 18 92 19 5 20 8 21 2 22 1 23
REMARK SMILES IDX 6 24 7 25 21 26 22 27 23 28 24 29 25 31 26 32 27 33 88 34
REMARK SMILES IDX 28 35 87 36 29 37 30 38 31 39 81 40 32 41 86 42 80 43 82 44
REMARK SMILES IDX 33 45 85 46 79 47 78 48 34 50 66 51 46 52 65 53 47 54 50 55
REMARK SMILES IDX 64 56 83 57 48 58 49 59 63 61 84 62 51 63 35 64 36 65 44 66
REMARK SMILES IDX 37 67 39 68 45 69 38 70 40 71 41 72 42 73 43 74 67 75 68 76
REMARK SMILES IDX 76 77 69 78 71 79 77 80 70 81 72 82 73 83 74 84 75 85 52 86
REMARK SMILES IDX 53 87 61 88 54 89 56 90 62 91 55 92 57 93 58 94 59 95 60 96
REMARK H PARENT 18 6 23 30 82 49 50 60
REMARK Flexibility Score: inf
ROOT
ATOM      1  C   UNL     1       5.936   4.776   4.766  1.00  0.00     0.023 C 
ENDROOT
BRANCH   1   2
ATOM      2  C   UNL     1       7.337   5.353   4.555  1.00  0.00     0.116 C 
BRANCH   2   3
ATOM      3  N   UNL     1       8.246   4.388   3.972  1.00  0.00    -0.356 N 
ATOM      4  C   UNL     1       8.619   4.155   2.684  1.00  0.00     0.227 C 
ATOM      5  O   UNL     1       9.385   3.202   2.491  1.00  0.00    -0.274 OA
ATOM      6  H   UNL     1       8.672   3.790   4.628  1.00  0.00     0.163 HD
BRANCH   4   7
ATOM      7  C   UNL     1       8.153   5.003   1.490  1.00  0.00     0.105 C 
ATOM      8  C   UNL     1       8.601   6.464   1.553  1.00  0.00     0.023 C 
BRANCH   7   9
ATOM      9  C   UNL     1       6.699   4.766   1.113  1.00  0.00    -0.033 A 
ATOM     10  C   UNL     1       3.970   4.131   0.522  1.00  0.00     0.018 A 
ATOM     11  C   UNL     1       4.319   5.190   1.378  1.00  0.00     0.012 A 
ATOM     12  C   UNL     1       5.031   3.416  -0.049  1.00  0.00     0.131 A 
ATOM     13  C   UNL     1       5.652   5.531   1.629  1.00  0.00     0.005 A 
ATOM     14  C   UNL     1       6.366   3.708   0.253  1.00  0.00     0.044 A 
ATOM     15  F   UNL     1       4.794   2.425  -0.922  1.00  0.00    -0.206 F 
BRANCH  10  16
ATOM     16  C   UNL     1       2.545   3.838   0.239  1.00  0.00    -0.008 A 
ATOM     17  C   UNL     1       0.706   2.287  -0.193  1.00  0.00     0.123 A 
ATOM     18  C   UNL     1      -0.176   3.364  -0.296  1.00  0.00     0.092 A 
ATOM     19  C   UNL     1       2.058   2.526   0.078  1.00  0.00     0.055 A 
ATOM     20  C   UNL     1       0.269   4.672  -0.130  1.00  0.00     0.123 A 
ATOM     21  C   UNL     1       1.620   4.897   0.127  1.00  0.00     0.055 A 
BRANCH  17  22
ATOM     22  O   UNL     1       0.132   1.063  -0.408  1.00  0.00    -0.497 OA
ATOM     23  C   UNL     1       0.868  -0.076   0.017  1.00  0.00     0.278 C 
ENDBRANCH  17  22
BRANCH  20  24
ATOM     24  O   UNL     1      -0.691   5.640  -0.244  1.00  0.00    -0.497 OA
ATOM     25  C   UNL     1      -0.262   6.988  -0.085  1.00  0.00     0.278 C 
ENDBRANCH  20  24
ENDBRANCH  10  16
ENDBRANCH   7   9
ENDBRANCH   4   7
ENDBRANCH   2   3
ENDBRANCH   1   2
BRANCH   1  26
ATOM     26  C   UNL     1       5.711   4.087   6.111  1.00  0.00     0.023 C 
BRANCH  26  27
ATOM     27  C   UNL     1       5.892   4.975   7.336  1.00  0.00     0.116 C 
BRANCH  27  28
ATOM     28  N   UNL     1       5.066   6.173   7.330  1.00  0.00    -0.352 N 
ATOM     29  C   UNL     1       4.555   6.867   8.406  1.00  0.00     0.251 C 
ATOM     30  H   UNL     1       4.842   6.535   6.441  1.00  0.00     0.163 HD
ATOM     31  O   UNL     1       3.807   7.815   8.225  1.00  0.00    -0.269 OA
BRANCH  29  32
ATOM     32  C   UNL     1       4.889   6.421   9.779  1.00  0.00     0.039 A 
ATOM     33  C   UNL     1       3.859   6.293  10.713  1.00  0.00     0.014 A 
ATOM     34  C   UNL     1       6.201   6.094  10.130  1.00  0.00     0.014 A 
ATOM     35  C   UNL     1       4.139   5.775  11.980  1.00  0.00     0.010 A 
ATOM     36  C   UNL     1       6.460   5.495  11.358  1.00  0.00     0.010 A 
ATOM     37  C   UNL     1       5.436   5.340  12.301  1.00  0.00    -0.014 A 
BRANCH  37  38
ATOM     38  C   UNL     1       5.729   4.717  13.617  1.00  0.00     0.031 A 
ATOM     39  C   UNL     1       6.704   5.362  14.566  1.00  0.00     0.074 A 
ATOM     40  C   UNL     1       5.173   3.529  13.928  1.00  0.00     0.049 A 
ATOM     41  N   UNL     1       7.071   4.972  15.760  1.00  0.00    -0.248 NA
ATOM     42  C   UNL     1       7.381   6.585  14.105  1.00  0.00     0.031 C 
ATOM     43  C   UNL     1       4.303   2.746  13.047  1.00  0.00     0.029 A 
ATOM     44  N   UNL     1       5.271   2.763  15.062  1.00  0.00    -0.354 N 
ATOM     45  C   UNL     1       8.040   5.876  16.175  1.00  0.00     0.074 A 
ATOM     46  C   UNL     1       8.239   6.810  15.089  1.00  0.00     0.031 C 
ATOM     47  C   UNL     1       3.933   1.621  13.680  1.00  0.00     0.029 A 
ATOM     48  C   UNL     1       4.549   1.593  15.002  1.00  0.00     0.049 A 
ATOM     49  H   UNL     1       5.807   3.025  15.844  1.00  0.00     0.167 HD
ATOM     50  C   UNL     1       8.681   5.949  17.366  1.00  0.00     0.034 A 
ATOM     51  C   UNL     1       4.391   0.615  15.916  1.00  0.00     0.034 A 
ATOM     52  C   UNL     1       8.439   5.051  18.462  1.00  0.00     0.049 A 
ATOM     53  C   UNL     1       5.040   0.768  17.265  1.00  0.00     0.074 A 
ATOM     54  C   UNL     1       8.956   5.099  19.745  1.00  0.00     0.029 A 
ATOM     55  N   UNL     1       7.612   3.941  18.406  1.00  0.00    -0.354 N 
ATOM     56  N   UNL     1       5.809   1.735  17.706  1.00  0.00    -0.248 NA
ATOM     57  C   UNL     1       4.760  -0.278  18.259  1.00  0.00     0.031 C 
ATOM     58  C   UNL     1       8.453   4.006  20.459  1.00  0.00     0.029 A 
ATOM     59  C   UNL     1       7.604   3.292  19.628  1.00  0.00     0.049 A 
ATOM     60  H   UNL     1       7.104   3.655  17.612  1.00  0.00     0.167 HD
ATOM     61  C   UNL     1       6.074   1.433  19.036  1.00  0.00     0.074 A 
ATOM     62  C   UNL     1       5.363   0.207  19.336  1.00  0.00     0.031 C 
ATOM     63  C   UNL     1       6.850   2.102  19.926  1.00  0.00     0.034 A 
BRANCH  50  64
ATOM     64  C   UNL     1       9.656   7.080  17.567  1.00  0.00     0.023 A 
ATOM     65  C   UNL     1       9.173   8.400  17.691  1.00  0.00     0.012 A 
ATOM     66  C   UNL     1      11.039   6.839  17.683  1.00  0.00     0.148 A 
ATOM     67  C   UNL     1      10.051   9.464  17.889  1.00  0.00     0.002 A 
ATOM     68  C   UNL     1      11.904   7.900  17.927  1.00  0.00     0.091 A 
ATOM     69  F   UNL     1      11.483   5.582  17.540  1.00  0.00    -0.205 F 
ATOM     70  C   UNL     1      11.414   9.213  18.017  1.00  0.00     0.022 A 
BRANCH  68  71
ATOM     71  S   UNL     1      13.666   7.672  18.187  1.00  0.00     0.127 S 
ATOM     72  O   UNL     1      14.220   8.216  16.948  1.00  0.00    -0.237 OA
ATOM     73  O   UNL     1      13.911   8.490  19.375  1.00  0.00    -0.237 OA
ATOM     74  O   UNL     1      13.861   6.242  18.385  1.00  0.00    -0.744 OA
ENDBRANCH  68  71
ENDBRANCH  50  64
BRANCH  51  75
ATOM     75  C   UNL     1       3.505  -0.545  15.616  1.00  0.00     0.023 A 
ATOM     76  C   UNL     1       2.265  -0.657  16.276  1.00  0.00     0.012 A 
ATOM     77  C   UNL     1       3.863  -1.514  14.660  1.00  0.00     0.148 A 
ATOM     78  C   UNL     1       1.413  -1.730  16.014  1.00  0.00     0.002 A 
ATOM     79  C   UNL     1       2.985  -2.551  14.363  1.00  0.00     0.091 A 
ATOM     80  F   UNL     1       5.051  -1.397  14.050  1.00  0.00    -0.205 F 
ATOM     81  C   UNL     1       1.767  -2.670  15.051  1.00  0.00     0.022 A 
BRANCH  79  82
ATOM     82  S   UNL     1       3.299  -3.728  13.043  1.00  0.00     0.127 S 
ATOM     83  O   UNL     1       3.616  -4.940  13.792  1.00  0.00    -0.237 OA
ATOM     84  O   UNL     1       2.012  -3.752  12.345  1.00  0.00    -0.237 OA
ATOM     85  O   UNL     1       4.390  -3.158  12.264  1.00  0.00    -0.744 OA
ENDBRANCH  79  82
ENDBRANCH  51  75
BRANCH  63  86
ATOM     86  C   UNL     1       6.946   1.544  21.322  1.00  0.00     0.023 A 
ATOM     87  C   UNL     1       7.677   0.362  21.555  1.00  0.00     0.012 A 
ATOM     88  C   UNL     1       6.365   2.224  22.410  1.00  0.00     0.148 A 
ATOM     89  C   UNL     1       7.793  -0.156  22.845  1.00  0.00     0.002 A 
ATOM     90  C   UNL     1       6.527   1.729  23.698  1.00  0.00     0.091 A 
ATOM     91  F   UNL     1       5.655   3.336  22.166  1.00  0.00    -0.205 F 
ATOM     92  C   UNL     1       7.229   0.533  23.916  1.00  0.00     0.022 A 
BRANCH  90  93
ATOM     93  S   UNL     1       5.917   2.607  25.141  1.00  0.00     0.127 S 
ATOM     94  O   UNL     1       4.712   1.845  25.467  1.00  0.00    -0.237 OA
ATOM     95  O   UNL     1       7.016   2.446  26.095  1.00  0.00    -0.237 OA
ATOM     96  O   UNL     1       5.697   3.979  24.706  1.00  0.00    -0.744 OA
ENDBRANCH  90  93
ENDBRANCH  63  86
ENDBRANCH  37  38
ENDBRANCH  29  32
ENDBRANCH  27  28
ENDBRANCH  26  27
ENDBRANCH   1  26
TORSDOF 18
