REMARK SMILES O=C(NCCCCNC(=O)c1c(F)cccc1NC(=O)c1ccc[nH]c1=O)c1ccc(-c2c3nc(c(-c4cccc(S(=O)(=O)[O-])c4F)c4ccc([nH]4)c(-c4cccc(S(=O)(=O)[O-])c4F)c4nc(c(-c5cccc(S(=O)(=O)[O-])c5F)c5ccc2[nH]5)C=C4)C=C3)cc1
REMARK SMILES IDX 5 1 4 2 3 3 1 4 2 5 28 7 29 8 90 9 30 10 89 11 31 12 32 13
REMARK SMILES IDX 33 14 83 15 34 16 88 17 82 18 84 19 35 20 87 21 81 22 80 23
REMARK SMILES IDX 36 25 68 26 48 27 67 28 49 29 52 30 66 31 85 32 50 33 51 34
REMARK SMILES IDX 65 36 86 37 53 38 37 39 38 40 46 41 39 42 41 43 47 44 40 45
REMARK SMILES IDX 42 46 43 47 44 48 45 49 69 50 70 51 78 52 71 53 73 54 79 55
REMARK SMILES IDX 72 56 74 57 75 58 76 59 77 60 54 61 55 62 63 63 56 64 58 65
REMARK SMILES IDX 64 66 57 67 59 68 60 69 61 70 62 71 6 72 7 73 8 74 9 75
REMARK SMILES IDX 10 77 11 78 12 79 17 80 13 81 14 82 16 83 15 84 18 85 19 86
REMARK SMILES IDX 20 88 21 89 22 90 26 91 23 92 25 93 27 94 24 95
REMARK H PARENT 3 6 84 24 52 35 8 76 18 87 25 96
REMARK Flexibility Score: inf
ROOT
ATOM      1  C   UNL     1       4.932  -0.325   2.339  1.00  0.00     0.023 C 
ENDROOT
BRANCH   1   2
ATOM      2  C   UNL     1       4.559  -0.701   0.910  1.00  0.00     0.116 C 
BRANCH   2   3
ATOM      3  N   UNL     1       3.121  -0.786   0.711  1.00  0.00    -0.352 N 
ATOM      4  O   UNL     1       1.087  -0.143  -0.004  1.00  0.00    -0.269 OA
ATOM      5  C   UNL     1       2.305  -0.040  -0.107  1.00  0.00     0.251 C 
ATOM      6  H   UNL     1       2.664  -1.480   1.240  1.00  0.00     0.163 HD
BRANCH   5   7
ATOM      7  C   UNL     1       2.899   0.899  -1.084  1.00  0.00     0.039 A 
ATOM      8  C   UNL     1       3.971   0.510  -1.892  1.00  0.00     0.014 A 
ATOM      9  C   UNL     1       2.366   2.185  -1.197  1.00  0.00     0.014 A 
ATOM     10  C   UNL     1       4.595   1.444  -2.715  1.00  0.00     0.010 A 
ATOM     11  C   UNL     1       2.947   3.099  -2.081  1.00  0.00     0.010 A 
ATOM     12  C   UNL     1       4.082   2.745  -2.828  1.00  0.00    -0.014 A 
BRANCH  12  13
ATOM     13  C   UNL     1       4.687   3.713  -3.778  1.00  0.00     0.031 A 
ATOM     14  C   UNL     1       5.314   4.989  -3.286  1.00  0.00     0.074 A 
ATOM     15  C   UNL     1       4.628   3.453  -5.100  1.00  0.00     0.049 A 
ATOM     16  N   UNL     1       5.780   5.996  -3.978  1.00  0.00    -0.248 NA
ATOM     17  C   UNL     1       5.435   5.160  -1.828  1.00  0.00     0.031 C 
ATOM     18  C   UNL     1       4.041   2.252  -5.699  1.00  0.00     0.029 A 
ATOM     19  N   UNL     1       5.044   4.191  -6.179  1.00  0.00    -0.354 N 
ATOM     20  C   UNL     1       6.217   6.933  -3.049  1.00  0.00     0.074 A 
ATOM     21  C   UNL     1       5.959   6.377  -1.738  1.00  0.00     0.031 C 
ATOM     22  C   UNL     1       4.132   2.335  -7.034  1.00  0.00     0.029 A 
ATOM     23  C   UNL     1       4.724   3.619  -7.389  1.00  0.00     0.049 A 
ATOM     24  H   UNL     1       5.524   5.046  -6.096  1.00  0.00     0.167 HD
ATOM     25  C   UNL     1       6.793   8.139  -3.272  1.00  0.00     0.034 A 
ATOM     26  C   UNL     1       4.856   4.089  -8.644  1.00  0.00     0.034 A 
ATOM     27  C   UNL     1       7.072   8.674  -4.580  1.00  0.00     0.049 A 
ATOM     28  C   UNL     1       5.468   5.446  -8.851  1.00  0.00     0.074 A 
ATOM     29  C   UNL     1       7.677   9.877  -4.902  1.00  0.00     0.029 A 
ATOM     30  N   UNL     1       6.768   8.049  -5.779  1.00  0.00    -0.354 N 
ATOM     31  N   UNL     1       5.949   6.281  -7.963  1.00  0.00    -0.248 NA
ATOM     32  C   UNL     1       5.581   5.916 -10.240  1.00  0.00     0.031 C 
ATOM     33  C   UNL     1       7.717   9.991  -6.294  1.00  0.00     0.029 A 
ATOM     34  C   UNL     1       7.170   8.843  -6.841  1.00  0.00     0.049 A 
ATOM     35  H   UNL     1       6.331   7.171  -5.863  1.00  0.00     0.167 HD
ATOM     36  C   UNL     1       6.452   7.357  -8.686  1.00  0.00     0.074 A 
ATOM     37  C   UNL     1       6.248   7.051 -10.086  1.00  0.00     0.031 C 
ATOM     38  C   UNL     1       7.012   8.505  -8.232  1.00  0.00     0.034 A 
BRANCH  25  39
ATOM     39  C   UNL     1       7.216   8.966  -2.086  1.00  0.00     0.023 A 
ATOM     40  C   UNL     1       8.379   8.610  -1.375  1.00  0.00     0.012 A 
ATOM     41  C   UNL     1       6.556  10.173  -1.775  1.00  0.00     0.148 A 
ATOM     42  C   UNL     1       8.878   9.439  -0.370  1.00  0.00     0.002 A 
ATOM     43  C   UNL     1       7.084  11.015  -0.802  1.00  0.00     0.091 A 
ATOM     44  F   UNL     1       5.446  10.486  -2.457  1.00  0.00    -0.205 F 
ATOM     45  C   UNL     1       8.241  10.646  -0.095  1.00  0.00     0.022 A 
BRANCH  43  46
ATOM     46  S   UNL     1       6.393  12.631  -0.430  1.00  0.00     0.127 S 
ATOM     47  O   UNL     1       6.008  12.472   0.972  1.00  0.00    -0.237 OA
ATOM     48  O   UNL     1       7.540  13.511  -0.651  1.00  0.00    -0.237 OA
ATOM     49  O   UNL     1       5.284  12.821  -1.354  1.00  0.00    -0.744 OA
ENDBRANCH  43  46
ENDBRANCH  25  39
BRANCH  26  50
ATOM     50  C   UNL     1       4.424   3.261  -9.806  1.00  0.00     0.023 A 
ATOM     51  C   UNL     1       5.393   2.783 -10.709  1.00  0.00     0.012 A 
ATOM     52  C   UNL     1       3.069   2.942 -10.022  1.00  0.00     0.148 A 
ATOM     53  C   UNL     1       5.019   2.038 -11.827  1.00  0.00     0.002 A 
ATOM     54  C   UNL     1       2.709   2.144 -11.102  1.00  0.00     0.091 A 
ATOM     55  F   UNL     1       2.158   3.418  -9.162  1.00  0.00    -0.205 F 
ATOM     56  C   UNL     1       3.679   1.710 -12.018  1.00  0.00     0.022 A 
BRANCH  54  57
ATOM     57  S   UNL     1       1.030   1.556 -11.347  1.00  0.00     0.127 S 
ATOM     58  O   UNL     1       0.607   2.333 -12.508  1.00  0.00    -0.237 OA
ATOM     59  O   UNL     1       1.244   0.131 -11.603  1.00  0.00    -0.237 OA
ATOM     60  O   UNL     1       0.329   1.841 -10.102  1.00  0.00    -0.744 OA
ENDBRANCH  54  57
ENDBRANCH  26  50
BRANCH  38  61
ATOM     61  C   UNL     1       7.480   9.506  -9.257  1.00  0.00     0.023 A 
ATOM     62  C   UNL     1       6.537  10.216 -10.026  1.00  0.00     0.012 A 
ATOM     63  C   UNL     1       8.852   9.787  -9.417  1.00  0.00     0.148 A 
ATOM     64  C   UNL     1       6.951  11.155 -10.969  1.00  0.00     0.002 A 
ATOM     65  C   UNL     1       9.255  10.766 -10.317  1.00  0.00     0.091 A 
ATOM     66  F   UNL     1       9.738   9.091  -8.690  1.00  0.00    -0.205 F 
ATOM     67  C   UNL     1       8.308  11.439 -11.106  1.00  0.00     0.022 A 
BRANCH  65  68
ATOM     68  S   UNL     1      10.970  11.273 -10.484  1.00  0.00     0.127 S 
ATOM     69  O   UNL     1      11.331  10.686 -11.773  1.00  0.00    -0.237 OA
ATOM     70  O   UNL     1      10.863  12.733 -10.488  1.00  0.00    -0.237 OA
ATOM     71  O   UNL     1      11.665  10.722  -9.329  1.00  0.00    -0.744 OA
ENDBRANCH  65  68
ENDBRANCH  38  61
ENDBRANCH  12  13
ENDBRANCH   5   7
ENDBRANCH   2   3
ENDBRANCH   1   2
BRANCH   1  72
ATOM     72  C   UNL     1       4.466  -1.310   3.408  1.00  0.00     0.023 C 
BRANCH  72  73
ATOM     73  C   UNL     1       4.898  -2.756   3.186  1.00  0.00     0.116 C 
BRANCH  73  74
ATOM     74  N   UNL     1       6.342  -2.934   3.260  1.00  0.00    -0.352 N 
ATOM     75  C   UNL     1       7.052  -3.855   3.996  1.00  0.00     0.256 C 
ATOM     76  H   UNL     1       6.879  -2.316   2.712  1.00  0.00     0.163 HD
ATOM     77  O   UNL     1       8.275  -3.789   4.068  1.00  0.00    -0.269 OA
BRANCH  75  78
ATOM     78  C   UNL     1       6.319  -4.851   4.798  1.00  0.00     0.099 A 
ATOM     79  C   UNL     1       5.389  -5.678   4.162  1.00  0.00     0.138 A 
ATOM     80  C   UNL     1       6.486  -4.913   6.192  1.00  0.00     0.057 A 
ATOM     81  F   UNL     1       5.288  -5.697   2.825  1.00  0.00    -0.206 F 
ATOM     82  C   UNL     1       4.505  -6.453   4.899  1.00  0.00     0.040 A 
ATOM     83  C   UNL     1       5.510  -5.603   6.922  1.00  0.00     0.027 A 
ATOM     84  C   UNL     1       4.533  -6.376   6.285  1.00  0.00     0.005 A 
BRANCH  80  85
ATOM     85  N   UNL     1       7.606  -4.285   6.795  1.00  0.00    -0.321 N 
ATOM     86  C   UNL     1       8.217  -4.462   8.010  1.00  0.00     0.261 C 
ATOM     87  H   UNL     1       8.024  -3.591   6.235  1.00  0.00     0.170 HD
ATOM     88  O   UNL     1       9.105  -3.687   8.373  1.00  0.00    -0.269 OA
BRANCH  86  89
ATOM     89  C   UNL     1       7.807  -5.566   8.903  1.00  0.00     0.105 A 
ATOM     90  C   UNL     1       7.397  -5.243  10.144  1.00  0.00     0.021 A 
ATOM     91  C   UNL     1       7.761  -6.995   8.470  1.00  0.00     0.260 A 
ATOM     92  C   UNL     1       6.813  -6.239  11.014  1.00  0.00     0.019 A 
ATOM     93  N   UNL     1       7.125  -7.858   9.342  1.00  0.00    -0.328 N 
ATOM     94  O   UNL     1       8.214  -7.394   7.407  1.00  0.00    -0.269 OA
ATOM     95  C   UNL     1       6.662  -7.496  10.580  1.00  0.00     0.086 A 
ATOM     96  H   UNL     1       6.995  -8.791   9.056  1.00  0.00     0.169 HD
ENDBRANCH  86  89
ENDBRANCH  80  85
ENDBRANCH  75  78
ENDBRANCH  73  74
ENDBRANCH  72  73
ENDBRANCH   1  72
TORSDOF 16
