REMARK SMILES CC(C)C[C@H](NC(=O)[C@H]1N2C(=O)c3ccccc3[C@@H]2SC1(C)C)C(=O)N[C@@H](C)C(=O)NCCCCNC(=O)c1ccc(-c2c3nc(c(-c4cccc(S(=O)(=O)[O-])c4F)c4ccc([nH]4)c(-c4cccc(S(=O)(=O)[O-])c4F)c4nc(c(-c5cccc(S(=O)(=O)[O-])c5F)c5ccc2[nH]5)C=C4)C=C3)cc1
REMARK SMILES IDX 33 1 32 2 31 3 29 4 30 5 27 7 28 8 26 9 24 10 25 11 5 13
REMARK SMILES IDX 4 14 2 15 1 16 3 17 6 18 7 19 8 21 9 22 10 23 21 24 11 25
REMARK SMILES IDX 19 26 20 27 22 28 23 29 12 30 13 31 18 32 14 33 17 34 15 35
REMARK SMILES IDX 16 36 34 37 35 38 36 39 37 40 38 42 39 43 40 44 101 45 41 46
REMARK SMILES IDX 100 47 42 48 43 49 44 50 94 51 45 52 99 53 93 54 95 55 46 56
REMARK SMILES IDX 98 57 92 58 91 59 47 61 79 62 59 63 78 64 60 65 63 66 77 67
REMARK SMILES IDX 96 68 61 69 62 70 76 72 97 73 64 74 48 75 49 76 57 77 50 78
REMARK SMILES IDX 52 79 58 80 51 81 53 82 54 83 55 84 56 85 80 86 81 87 89 88
REMARK SMILES IDX 82 89 84 90 90 91 83 92 85 93 86 94 87 95 88 96 65 97 66 98
REMARK SMILES IDX 74 99 67 100 69 101 75 102 68 103 70 104 71 105 72 106
REMARK SMILES IDX 73 107
REMARK H PARENT 31 6 26 12 6 20 36 41 95 60 63 71
REMARK Flexibility Score: inf
ROOT
ATOM      1  C   UNL     1      -6.861  -0.215   3.893  1.00  0.00     0.023 C 
ENDROOT
BRANCH   1   2
ATOM      2  C   UNL     1      -6.039   0.971   4.390  1.00  0.00     0.116 C 
BRANCH   2   3
ATOM      3  N   UNL     1      -4.880   0.568   5.165  1.00  0.00    -0.354 N 
ATOM      4  C   UNL     1      -3.543   0.708   4.930  1.00  0.00     0.242 C 
ATOM      5  O   UNL     1      -2.771   0.418   5.849  1.00  0.00    -0.273 OA
ATOM      6  H   UNL     1      -5.097   0.113   6.011  1.00  0.00     0.163 HD
BRANCH   4   7
ATOM      7  C   UNL     1      -2.987   1.299   3.615  1.00  0.00     0.168 C 
ATOM      8  C   UNL     1      -3.225   2.802   3.536  1.00  0.00     0.041 C 
BRANCH   7   9
ATOM      9  N   UNL     1      -3.521   0.604   2.451  1.00  0.00    -0.343 N 
ATOM     10  C   UNL     1      -3.031  -0.431   1.726  1.00  0.00     0.243 C 
ATOM     11  O   UNL     1      -3.778  -0.876   0.845  1.00  0.00    -0.273 OA
ATOM     12  H   UNL     1      -4.389   0.945   2.136  1.00  0.00     0.164 HD
BRANCH  10  13
ATOM     13  C   UNL     1      -1.586  -0.964   1.834  1.00  0.00     0.171 C 
BRANCH  13  14
ATOM     14  C   UNL     1      -1.044  -1.438   3.196  1.00  0.00     0.038 C 
BRANCH  14  15
ATOM     15  C   UNL     1      -1.332  -2.929   3.517  1.00  0.00    -0.015 C 
ATOM     16  C   UNL     1      -0.202  -3.875   3.069  1.00  0.00     0.007 C 
ATOM     17  C   UNL     1      -1.541  -3.105   5.023  1.00  0.00     0.007 C 
ENDBRANCH  14  15
ENDBRANCH  13  14
BRANCH  13  18
ATOM     18  N   UNL     1      -0.635  -0.088   1.164  1.00  0.00    -0.342 N 
ATOM     19  C   UNL     1       0.133  -0.191   0.054  1.00  0.00     0.244 C 
ATOM     20  H   UNL     1      -0.524   0.775   1.624  1.00  0.00     0.164 HD
ATOM     21  O   UNL     1       1.013   0.690   0.030  1.00  0.00    -0.273 OA
BRANCH  19  22
ATOM     22  C   UNL     1      -0.054  -1.120  -1.210  1.00  0.00     0.191 C 
ATOM     23  N   UNL     1       1.299  -1.126  -1.831  1.00  0.00    -0.309 N 
ATOM     24  C   UNL     1      -0.442  -2.635  -1.327  1.00  0.00     0.042 C 
ATOM     25  C   UNL     1       1.663  -0.723  -3.105  1.00  0.00     0.256 C 
ATOM     26  C   UNL     1       2.194  -2.106  -1.293  1.00  0.00     0.176 C 
ATOM     27  S   UNL     1       1.161  -3.584  -1.254  1.00  0.00    -0.123 SA
ATOM     28  C   UNL     1      -1.278  -3.376  -0.310  1.00  0.00     0.026 C 
ATOM     29  C   UNL     1      -1.141  -2.853  -2.686  1.00  0.00     0.026 C 
ATOM     30  O   UNL     1       1.045  -0.036  -3.885  1.00  0.00    -0.269 OA
ATOM     31  C   UNL     1       2.939  -1.419  -3.408  1.00  0.00     0.046 A 
ATOM     32  C   UNL     1       3.268  -2.209  -2.308  1.00  0.00    -0.002 A 
ATOM     33  C   UNL     1       3.674  -1.472  -4.576  1.00  0.00     0.014 A 
ATOM     34  C   UNL     1       4.389  -3.025  -2.310  1.00  0.00     0.007 A 
ATOM     35  C   UNL     1       4.786  -2.325  -4.605  1.00  0.00     0.001 A 
ATOM     36  C   UNL     1       5.150  -3.083  -3.476  1.00  0.00     0.000 A 
ENDBRANCH  19  22
ENDBRANCH  13  18
ENDBRANCH  10  13
ENDBRANCH   7   9
ENDBRANCH   4   7
ENDBRANCH   2   3
ENDBRANCH   1   2
BRANCH   1  37
ATOM     37  C   UNL     1      -7.594  -1.006   4.979  1.00  0.00     0.023 C 
BRANCH  37  38
ATOM     38  C   UNL     1      -8.453  -0.183   5.934  1.00  0.00     0.116 C 
BRANCH  38  39
ATOM     39  N   UNL     1      -9.457   0.643   5.279  1.00  0.00    -0.352 N 
ATOM     40  C   UNL     1     -10.680   1.045   5.776  1.00  0.00     0.251 C 
ATOM     41  H   UNL     1      -9.237   0.952   4.370  1.00  0.00     0.163 HD
ATOM     42  O   UNL     1     -11.451   1.690   5.074  1.00  0.00    -0.269 OA
BRANCH  40  43
ATOM     43  C   UNL     1     -11.063   0.636   7.146  1.00  0.00     0.039 A 
ATOM     44  C   UNL     1     -10.168   0.801   8.203  1.00  0.00     0.014 A 
ATOM     45  C   UNL     1     -12.287  -0.005   7.352  1.00  0.00     0.014 A 
ATOM     46  C   UNL     1     -10.408   0.154   9.408  1.00  0.00     0.010 A 
ATOM     47  C   UNL     1     -12.567  -0.576   8.598  1.00  0.00     0.010 A 
ATOM     48  C   UNL     1     -11.603  -0.557   9.617  1.00  0.00    -0.014 A 
BRANCH  48  49
ATOM     49  C   UNL     1     -11.794  -1.277  10.904  1.00  0.00     0.031 A 
ATOM     50  C   UNL     1     -11.913  -2.778  10.950  1.00  0.00     0.074 A 
ATOM     51  C   UNL     1     -11.780  -0.572  12.052  1.00  0.00     0.049 A 
ATOM     52  N   UNL     1     -11.996  -3.561  11.996  1.00  0.00    -0.248 NA
ATOM     53  C   UNL     1     -11.947  -3.498   9.666  1.00  0.00     0.031 C 
ATOM     54  C   UNL     1     -11.699   0.887  12.139  1.00  0.00     0.029 A 
ATOM     55  N   UNL     1     -11.802  -0.983  13.361  1.00  0.00    -0.354 N 
ATOM     56  C   UNL     1     -12.125  -4.853  11.501  1.00  0.00     0.074 A 
ATOM     57  C   UNL     1     -12.121  -4.754  10.059  1.00  0.00     0.031 C 
ATOM     58  C   UNL     1     -11.620   1.247  13.427  1.00  0.00     0.029 A 
ATOM     59  C   UNL     1     -11.694   0.051  14.261  1.00  0.00     0.049 A 
ATOM     60  H   UNL     1     -11.887  -1.926  13.629  1.00  0.00     0.167 HD
ATOM     61  C   UNL     1     -12.211  -6.019  12.184  1.00  0.00     0.034 A 
ATOM     62  C   UNL     1     -11.657   0.046  15.607  1.00  0.00     0.034 A 
ATOM     63  C   UNL     1     -12.162  -6.126  13.617  1.00  0.00     0.049 A 
ATOM     64  C   UNL     1     -11.719  -1.260  16.341  1.00  0.00     0.074 A 
ATOM     65  C   UNL     1     -12.213  -7.271  14.393  1.00  0.00     0.029 A 
ATOM     66  N   UNL     1     -12.038  -5.056  14.488  1.00  0.00    -0.354 N 
ATOM     67  N   UNL     1     -11.775  -2.473  15.848  1.00  0.00    -0.248 NA
ATOM     68  C   UNL     1     -11.697  -1.205  17.809  1.00  0.00     0.031 C 
ATOM     69  C   UNL     1     -12.117  -6.893  15.735  1.00  0.00     0.029 A 
ATOM     70  C   UNL     1     -12.001  -5.513  15.793  1.00  0.00     0.049 A 
ATOM     71  H   UNL     1     -11.983  -4.111  14.219  1.00  0.00     0.167 HD
ATOM     72  C   UNL     1     -11.789  -3.328  16.942  1.00  0.00     0.074 A 
ATOM     73  C   UNL     1     -11.712  -2.495  18.126  1.00  0.00     0.031 C 
ATOM     74  C   UNL     1     -11.879  -4.679  16.960  1.00  0.00     0.034 A 
BRANCH  61  75
ATOM     75  C   UNL     1     -12.301  -7.295  11.393  1.00  0.00     0.023 A 
ATOM     76  C   UNL     1     -11.128  -7.835  10.830  1.00  0.00     0.012 A 
ATOM     77  C   UNL     1     -13.513  -8.005  11.289  1.00  0.00     0.148 A 
ATOM     78  C   UNL     1     -11.160  -9.058  10.163  1.00  0.00     0.002 A 
ATOM     79  C   UNL     1     -13.531  -9.238  10.646  1.00  0.00     0.091 A 
ATOM     80  F   UNL     1     -14.618  -7.465  11.822  1.00  0.00    -0.205 F 
ATOM     81  C   UNL     1     -12.358  -9.763  10.079  1.00  0.00     0.022 A 
BRANCH  79  82
ATOM     82  S   UNL     1     -15.008 -10.255  10.529  1.00  0.00     0.127 S 
ATOM     83  O   UNL     1     -15.281 -10.211   9.092  1.00  0.00    -0.237 OA
ATOM     84  O   UNL     1     -14.532 -11.547  11.020  1.00  0.00    -0.237 OA
ATOM     85  O   UNL     1     -16.008  -9.612  11.370  1.00  0.00    -0.744 OA
ENDBRANCH  79  82
ENDBRANCH  61  75
BRANCH  62  86
ATOM     86  C   UNL     1     -11.498   1.339  16.322  1.00  0.00     0.023 A 
ATOM     87  C   UNL     1     -10.245   1.677  16.868  1.00  0.00     0.012 A 
ATOM     88  C   UNL     1     -12.545   2.280  16.353  1.00  0.00     0.148 A 
ATOM     89  C   UNL     1     -10.037   2.937  17.431  1.00  0.00     0.002 A 
ATOM     90  C   UNL     1     -12.317   3.548  16.872  1.00  0.00     0.091 A 
ATOM     91  F   UNL     1     -13.725   1.929  15.825  1.00  0.00    -0.205 F 
ATOM     92  C   UNL     1     -11.067   3.876  17.420  1.00  0.00     0.022 A 
BRANCH  90  93
ATOM     93  S   UNL     1     -13.536   4.864  16.783  1.00  0.00     0.127 S 
ATOM     94  O   UNL     1     -13.787   5.134  18.196  1.00  0.00    -0.237 OA
ATOM     95  O   UNL     1     -12.794   5.908  16.077  1.00  0.00    -0.237 OA
ATOM     96  O   UNL     1     -14.662   4.313  16.042  1.00  0.00    -0.744 OA
ENDBRANCH  90  93
ENDBRANCH  62  86
BRANCH  74  97
ATOM     97  C   UNL     1     -11.901  -5.368  18.295  1.00  0.00     0.023 A 
ATOM     98  C   UNL     1     -13.106  -5.422  19.020  1.00  0.00     0.012 A 
ATOM     99  C   UNL     1     -10.774  -6.074  18.759  1.00  0.00     0.148 A 
ATOM    100  C   UNL     1     -13.190  -6.168  20.194  1.00  0.00     0.002 A 
ATOM    101  C   UNL     1     -10.874  -6.841  19.913  1.00  0.00     0.091 A 
ATOM    102  F   UNL     1      -9.638  -5.998  18.050  1.00  0.00    -0.205 F 
ATOM    103  C   UNL     1     -12.079  -6.886  20.633  1.00  0.00     0.022 A 
BRANCH 101 104
ATOM    104  S   UNL     1      -9.524  -7.859  20.521  1.00  0.00     0.127 S 
ATOM    105  O   UNL     1      -9.208  -7.206  21.791  1.00  0.00    -0.237 OA
ATOM    106  O   UNL     1     -10.161  -9.169  20.649  1.00  0.00    -0.237 OA
ATOM    107  O   UNL     1      -8.476  -7.786  19.512  1.00  0.00    -0.744 OA
ENDBRANCH 101 104
ENDBRANCH  74  97
ENDBRANCH  48  49
ENDBRANCH  40  43
ENDBRANCH  38  39
ENDBRANCH  37  38
ENDBRANCH   1  37
TORSDOF 20
