REMARK SMILES Cc1cccc(Nc2ccccc2C(=O)NCCCCNC(=O)c2ccc(-c3c4nc(c(-c5cccc(S(=O)(=O)[O-])c5F)c5ccc([nH]5)c(-c5cccc(S(=O)(=O)[O-])c5F)c5nc(c(-c6cccc(S(=O)(=O)[O-])c6F)c6ccc3[nH]6)C=C5)C=C4)cc2)c1C
REMARK SMILES IDX 19 1 18 2 17 3 16 4 14 5 15 6 13 8 8 9 9 10 10 11 12 12
REMARK SMILES IDX 11 13 7 14 6 16 1 17 2 18 3 19 87 20 4 21 88 22 5 23 20 24
REMARK SMILES IDX 21 25 22 26 23 28 24 29 25 30 86 31 26 32 85 33 27 34 28 35
REMARK SMILES IDX 29 36 79 37 30 38 84 39 78 40 80 41 31 42 83 43 77 44 76 45
REMARK SMILES IDX 32 47 64 48 44 49 63 50 45 51 48 52 62 53 81 54 46 55 47 56
REMARK SMILES IDX 61 58 82 59 49 60 33 61 34 62 42 63 35 64 37 65 43 66 36 67
REMARK SMILES IDX 38 68 39 69 40 70 41 71 65 72 66 73 74 74 67 75 69 76 75 77
REMARK SMILES IDX 68 78 70 79 71 80 72 81 73 82 50 83 51 84 59 85 52 86 54 87
REMARK SMILES IDX 60 88 53 89 55 90 56 91 57 92 58 93
REMARK H PARENT 16 7 7 15 21 27 80 46 48 57
REMARK Flexibility Score: inf
ROOT
ATOM      1  C   UNL     1      -3.258  -1.172   3.159  1.00  0.00     0.023 C 
ENDROOT
BRANCH   1   2
ATOM      2  C   UNL     1      -2.734  -2.429   2.458  1.00  0.00     0.023 C 
BRANCH   2   3
ATOM      3  C   UNL     1      -1.470  -2.275   1.622  1.00  0.00     0.116 C 
BRANCH   3   4
ATOM      4  N   UNL     1      -0.238  -2.172   2.364  1.00  0.00    -0.352 N 
ATOM      5  C   UNL     1       1.032  -2.575   2.020  1.00  0.00     0.253 C 
ATOM      6  O   UNL     1       1.955  -2.208   2.754  1.00  0.00    -0.269 OA
ATOM      7  H   UNL     1      -0.318  -1.750   3.250  1.00  0.00     0.163 HD
BRANCH   5   8
ATOM      8  C   UNL     1       1.353  -3.538   0.916  1.00  0.00     0.063 A 
ATOM      9  C   UNL     1       0.850  -3.584  -0.400  1.00  0.00     0.051 A 
ATOM     10  C   UNL     1       1.259  -4.659  -1.232  1.00  0.00     0.027 A 
ATOM     11  C   UNL     1       2.189  -5.613  -0.822  1.00  0.00     0.002 A 
ATOM     12  C   UNL     1       2.316  -4.507   1.302  1.00  0.00     0.016 A 
ATOM     13  C   UNL     1       2.739  -5.523   0.444  1.00  0.00     0.001 A 
BRANCH   9  14
ATOM     14  N   UNL     1       0.069  -2.614  -1.061  1.00  0.00    -0.355 N 
ATOM     15  H   UNL     1      -0.622  -3.009  -1.641  1.00  0.00     0.167 HD
BRANCH  14  16
ATOM     16  C   UNL     1       0.056  -1.204  -1.076  1.00  0.00     0.042 A 
ATOM     17  C   UNL     1       2.021   1.932  -0.088  1.00  0.00     0.044 C 
ATOM     18  C   UNL     1       0.919   1.015  -0.550  1.00  0.00    -0.046 A 
ATOM     19  C   UNL     1      -0.344   1.568  -0.811  1.00  0.00     0.004 A 
ATOM     20  C   UNL     1       1.142  -0.374  -0.736  1.00  0.00    -0.025 A 
ATOM     21  C   UNL     1      -1.388   0.765  -1.246  1.00  0.00     0.002 A 
ATOM     22  C   UNL     1       2.548  -0.908  -0.617  1.00  0.00     0.047 C 
ATOM     23  C   UNL     1      -1.188  -0.604  -1.374  1.00  0.00     0.026 A 
ENDBRANCH  14  16
ENDBRANCH   9  14
ENDBRANCH   5   8
ENDBRANCH   3   4
ENDBRANCH   2   3
ENDBRANCH   1   2
BRANCH   1  24
ATOM     24  C   UNL     1      -3.401   0.106   2.328  1.00  0.00     0.116 C 
BRANCH  24  25
ATOM     25  N   UNL     1      -4.131  -0.049   1.078  1.00  0.00    -0.352 N 
ATOM     26  C   UNL     1      -4.962   0.846   0.437  1.00  0.00     0.251 C 
ATOM     27  H   UNL     1      -4.016  -0.916   0.626  1.00  0.00     0.163 HD
ATOM     28  O   UNL     1      -5.468   0.546  -0.637  1.00  0.00    -0.269 OA
BRANCH  26  29
ATOM     29  C   UNL     1      -5.280   2.151   1.068  1.00  0.00     0.039 A 
ATOM     30  C   UNL     1      -6.622   2.530   1.175  1.00  0.00     0.014 A 
ATOM     31  C   UNL     1      -4.280   2.978   1.583  1.00  0.00     0.014 A 
ATOM     32  C   UNL     1      -6.964   3.685   1.886  1.00  0.00     0.010 A 
ATOM     33  C   UNL     1      -4.626   4.095   2.345  1.00  0.00     0.010 A 
ATOM     34  C   UNL     1      -5.972   4.452   2.521  1.00  0.00    -0.014 A 
BRANCH  34  35
ATOM     35  C   UNL     1      -6.345   5.573   3.428  1.00  0.00     0.031 A 
ATOM     36  C   UNL     1      -5.950   6.993   3.120  1.00  0.00     0.074 A 
ATOM     37  C   UNL     1      -6.976   5.296   4.588  1.00  0.00     0.049 A 
ATOM     38  N   UNL     1      -6.225   8.084   3.788  1.00  0.00    -0.248 NA
ATOM     39  C   UNL     1      -5.118   7.217   1.928  1.00  0.00     0.031 C 
ATOM     40  C   UNL     1      -7.307   3.952   5.071  1.00  0.00     0.029 A 
ATOM     41  N   UNL     1      -7.431   6.123   5.586  1.00  0.00    -0.354 N 
ATOM     42  C   UNL     1      -5.575   9.117   3.122  1.00  0.00     0.074 A 
ATOM     43  C   UNL     1      -4.871   8.518   2.008  1.00  0.00     0.031 C 
ATOM     44  C   UNL     1      -7.912   4.047   6.266  1.00  0.00     0.029 A 
ATOM     45  C   UNL     1      -8.006   5.454   6.643  1.00  0.00     0.049 A 
ATOM     46  H   UNL     1      -7.353   7.104   5.550  1.00  0.00     0.167 HD
ATOM     47  C   UNL     1      -5.586  10.444   3.394  1.00  0.00     0.034 A 
ATOM     48  C   UNL     1      -8.555   5.917   7.783  1.00  0.00     0.034 A 
ATOM     49  C   UNL     1      -6.331  11.044   4.470  1.00  0.00     0.049 A 
ATOM     50  C   UNL     1      -8.646   7.404   8.000  1.00  0.00     0.074 A 
ATOM     51  C   UNL     1      -6.504  12.389   4.749  1.00  0.00     0.029 A 
ATOM     52  N   UNL     1      -7.015  10.344   5.449  1.00  0.00    -0.354 N 
ATOM     53  N   UNL     1      -8.219   8.377   7.234  1.00  0.00    -0.248 NA
ATOM     54  C   UNL     1      -9.343   7.859   9.213  1.00  0.00     0.031 C 
ATOM     55  C   UNL     1      -7.279  12.501   5.908  1.00  0.00     0.029 A 
ATOM     56  C   UNL     1      -7.606  11.226   6.338  1.00  0.00     0.049 A 
ATOM     57  H   UNL     1      -7.074   9.362   5.504  1.00  0.00     0.167 HD
ATOM     58  C   UNL     1      -8.623   9.555   7.853  1.00  0.00     0.074 A 
ATOM     59  C   UNL     1      -9.359   9.173   9.039  1.00  0.00     0.031 C 
ATOM     60  C   UNL     1      -8.386  10.838   7.484  1.00  0.00     0.034 A 
BRANCH  47  61
ATOM     61  C   UNL     1      -4.822  11.362   2.477  1.00  0.00     0.023 A 
ATOM     62  C   UNL     1      -5.331  11.634   1.190  1.00  0.00     0.012 A 
ATOM     63  C   UNL     1      -3.665  12.032   2.919  1.00  0.00     0.148 A 
ATOM     64  C   UNL     1      -4.688  12.542   0.350  1.00  0.00     0.002 A 
ATOM     65  C   UNL     1      -3.053  12.966   2.091  1.00  0.00     0.091 A 
ATOM     66  F   UNL     1      -3.189  11.747   4.139  1.00  0.00    -0.205 F 
ATOM     67  C   UNL     1      -3.558  13.216   0.804  1.00  0.00     0.022 A 
BRANCH  65  68
ATOM     68  S   UNL     1      -1.638  13.947   2.608  1.00  0.00     0.127 S 
ATOM     69  O   UNL     1      -0.584  13.423   1.740  1.00  0.00    -0.237 OA
ATOM     70  O   UNL     1      -2.074  15.306   2.287  1.00  0.00    -0.237 OA
ATOM     71  O   UNL     1      -1.461  13.682   4.029  1.00  0.00    -0.744 OA
ENDBRANCH  65  68
ENDBRANCH  47  61
BRANCH  48  72
ATOM     72  C   UNL     1      -9.139   4.969   8.775  1.00  0.00     0.023 A 
ATOM     73  C   UNL     1     -10.536   4.925   8.954  1.00  0.00     0.012 A 
ATOM     74  C   UNL     1      -8.324   4.111   9.537  1.00  0.00     0.148 A 
ATOM     75  C   UNL     1     -11.106   4.077   9.905  1.00  0.00     0.002 A 
ATOM     76  C   UNL     1      -8.903   3.227  10.441  1.00  0.00     0.091 A 
ATOM     77  F   UNL     1      -6.996   4.175   9.367  1.00  0.00    -0.205 F 
ATOM     78  C   UNL     1     -10.292   3.222  10.641  1.00  0.00     0.022 A 
BRANCH  76  79
ATOM     79  S   UNL     1      -7.932   1.999  11.322  1.00  0.00     0.127 S 
ATOM     80  O   UNL     1      -7.785   2.618  12.636  1.00  0.00    -0.237 OA
ATOM     81  O   UNL     1      -8.808   0.827  11.287  1.00  0.00    -0.237 OA
ATOM     82  O   UNL     1      -6.710   1.849  10.543  1.00  0.00    -0.744 OA
ENDBRANCH  76  79
ENDBRANCH  48  72
BRANCH  60  83
ATOM     83  C   UNL     1      -8.952  11.928   8.356  1.00  0.00     0.023 A 
ATOM     84  C   UNL     1      -8.397  12.164   9.630  1.00  0.00     0.012 A 
ATOM     85  C   UNL     1     -10.000  12.750   7.898  1.00  0.00     0.148 A 
ATOM     86  C   UNL     1      -8.906  13.170  10.451  1.00  0.00     0.002 A 
ATOM     87  C   UNL     1     -10.470  13.783   8.703  1.00  0.00     0.091 A 
ATOM     88  F   UNL     1     -10.533  12.501   6.693  1.00  0.00    -0.205 F 
ATOM     89  C   UNL     1      -9.934  13.985   9.984  1.00  0.00     0.022 A 
BRANCH  87  90
ATOM     90  S   UNL     1     -11.724  14.934   8.132  1.00  0.00     0.127 S 
ATOM     91  O   UNL     1     -12.933  14.392   8.749  1.00  0.00    -0.237 OA
ATOM     92  O   UNL     1     -11.269  16.206   8.698  1.00  0.00    -0.237 OA
ATOM     93  O   UNL     1     -11.675  14.877   6.676  1.00  0.00    -0.744 OA
ENDBRANCH  87  90
ENDBRANCH  60  83
ENDBRANCH  34  35
ENDBRANCH  26  29
ENDBRANCH  24  25
ENDBRANCH   1  24
TORSDOF 16
