REMARK SMILES CC(C)c1ccc(NC(=O)C(=O)N/N=C/c2ccccc2C(=O)NCCCCNC(=O)c2ccc(-c3c4nc(c(-c5cccc(S(=O)(=O)[O-])c5F)c5ccc([nH]5)c(-c5cccc(S(=O)(=O)[O-])c5F)c5nc(c(-c6cccc(S(=O)(=O)[O-])c6F)c6ccc3[nH]6)C=C5)C=C4)cc2)cc1
REMARK SMILES IDX 25 1 24 2 22 3 23 4 21 6 16 7 17 8 18 9 20 10 19 11 15 12
REMARK SMILES IDX 14 13 13 14 11 15 12 16 9 18 8 19 10 21 7 22 4 23 5 24 96 25
REMARK SMILES IDX 6 26 95 27 2 28 1 29 3 30 26 31 27 32 28 33 29 34 30 35
REMARK SMILES IDX 31 37 32 38 33 39 94 40 34 41 93 42 35 43 36 44 37 45 87 46
REMARK SMILES IDX 38 47 92 48 86 49 88 50 39 51 91 52 85 53 84 54 40 56 72 57
REMARK SMILES IDX 52 58 71 59 53 60 56 61 70 62 89 63 54 64 55 65 69 67 90 68
REMARK SMILES IDX 57 69 41 70 42 71 50 72 43 73 45 74 51 75 44 76 46 77 47 78
REMARK SMILES IDX 48 79 49 80 73 81 74 82 82 83 75 84 77 85 83 86 76 87 78 88
REMARK SMILES IDX 79 89 80 90 81 91 58 92 59 93 67 94 60 95 62 96 68 97 61 98
REMARK SMILES IDX 63 99 64 100 65 101 66 102
REMARK H PARENT 24 5 13 17 8 20 29 36 88 55 56 66
REMARK Flexibility Score: inf
ROOT
ATOM      1  C   UNL     1      -7.270   4.024  -2.728  1.00  0.00     0.116 C 
ENDROOT
BRANCH   1   2
ATOM      2  N   UNL     1      -8.261   5.053  -2.874  1.00  0.00    -0.352 N 
ATOM      3  C   UNL     1      -9.531   5.154  -2.365  1.00  0.00     0.251 C 
ATOM      4  O   UNL     1     -10.116   6.221  -2.582  1.00  0.00    -0.269 OA
ATOM      5  H   UNL     1      -7.982   5.814  -3.433  1.00  0.00     0.163 HD
BRANCH   3   6
ATOM      6  C   UNL     1     -10.306   4.080  -1.659  1.00  0.00     0.048 A 
ATOM      7  C   UNL     1      -9.895   3.127  -0.718  1.00  0.00     0.007 A 
ATOM      8  C   UNL     1     -10.827   2.260  -0.105  1.00  0.00     0.010 A 
ATOM      9  C   UNL     1     -12.180   2.321  -0.418  1.00  0.00     0.001 A 
ATOM     10  C   UNL     1     -11.691   4.109  -1.958  1.00  0.00     0.014 A 
ATOM     11  C   UNL     1     -12.613   3.241  -1.358  1.00  0.00     0.001 A 
BRANCH   7  12
ATOM     12  C   UNL     1      -8.526   2.753  -0.368  1.00  0.00     0.142 C 
ATOM     13  N   UNL     1      -7.798   3.358   0.513  1.00  0.00    -0.180 NA
BRANCH  13  14
ATOM     14  N   UNL     1      -6.552   2.783   0.787  1.00  0.00    -0.239 N 
ATOM     15  C   UNL     1      -5.874   1.984  -0.129  1.00  0.00     0.329 C 
ATOM     16  O   UNL     1      -5.357   2.414  -1.151  1.00  0.00    -0.262 OA
ATOM     17  H   UNL     1      -6.138   2.949   1.665  1.00  0.00     0.194 HD
BRANCH  15  18
ATOM     18  C   UNL     1      -5.985   0.472   0.109  1.00  0.00     0.315 C 
ATOM     19  N   UNL     1      -4.969  -0.383  -0.262  1.00  0.00    -0.318 N 
ATOM     20  H   UNL     1      -5.246  -1.327  -0.310  1.00  0.00     0.170 HD
ATOM     21  O   UNL     1      -7.050   0.008   0.515  1.00  0.00    -0.263 OA
BRANCH  19  22
ATOM     22  C   UNL     1      -3.617  -0.176  -0.586  1.00  0.00     0.041 A 
ATOM     23  C   UNL     1      -0.846   0.005  -1.183  1.00  0.00    -0.045 A 
ATOM     24  C   UNL     1      -1.550   1.087  -0.642  1.00  0.00     0.006 A 
ATOM     25  C   UNL     1      -1.554  -1.175  -1.427  1.00  0.00     0.006 A 
ATOM     26  C   UNL     1      -2.913   0.993  -0.334  1.00  0.00     0.026 A 
ATOM     27  C   UNL     1      -2.922  -1.262  -1.133  1.00  0.00     0.026 A 
BRANCH  23  28
ATOM     28  C   UNL     1       0.652   0.146  -1.397  1.00  0.00     0.013 C 
ATOM     29  C   UNL     1       1.381  -0.105  -0.073  1.00  0.00     0.012 C 
ATOM     30  C   UNL     1       1.235  -0.746  -2.497  1.00  0.00     0.012 C 
ENDBRANCH  23  28
ENDBRANCH  19  22
ENDBRANCH  15  18
ENDBRANCH  13  14
ENDBRANCH   7  12
ENDBRANCH   3   6
ENDBRANCH   1   2
BRANCH   1  31
ATOM     31  C   UNL     1      -6.263   3.885  -3.863  1.00  0.00     0.023 C 
BRANCH  31  32
ATOM     32  C   UNL     1      -5.140   4.914  -4.002  1.00  0.00     0.023 C 
BRANCH  32  33
ATOM     33  C   UNL     1      -4.620   5.632  -2.763  1.00  0.00     0.116 C 
BRANCH  33  34
ATOM     34  N   UNL     1      -4.035   4.776  -1.744  1.00  0.00    -0.352 N 
ATOM     35  C   UNL     1      -2.867   4.920  -1.033  1.00  0.00     0.251 C 
ATOM     36  H   UNL     1      -4.556   3.968  -1.529  1.00  0.00     0.163 HD
ATOM     37  O   UNL     1      -2.622   4.198  -0.068  1.00  0.00    -0.269 OA
BRANCH  35  38
ATOM     38  C   UNL     1      -1.854   5.903  -1.462  1.00  0.00     0.039 A 
ATOM     39  C   UNL     1      -0.551   5.454  -1.711  1.00  0.00     0.014 A 
ATOM     40  C   UNL     1      -2.183   7.246  -1.635  1.00  0.00     0.014 A 
ATOM     41  C   UNL     1       0.410   6.344  -2.196  1.00  0.00     0.010 A 
ATOM     42  C   UNL     1      -1.248   8.111  -2.192  1.00  0.00     0.010 A 
ATOM     43  C   UNL     1       0.059   7.674  -2.465  1.00  0.00    -0.014 A 
BRANCH  43  44
ATOM     44  C   UNL     1       1.043   8.662  -2.972  1.00  0.00     0.031 A 
ATOM     45  C   UNL     1       1.385   9.848  -2.111  1.00  0.00     0.074 A 
ATOM     46  C   UNL     1       1.522   8.565  -4.227  1.00  0.00     0.049 A 
ATOM     47  N   UNL     1       2.058  10.925  -2.414  1.00  0.00    -0.248 NA
ATOM     48  C   UNL     1       0.854   9.838  -0.736  1.00  0.00     0.031 C 
ATOM     49  C   UNL     1       1.208   7.495  -5.177  1.00  0.00     0.029 A 
ATOM     50  N   UNL     1       2.346   9.404  -4.935  1.00  0.00    -0.354 N 
ATOM     51  C   UNL     1       1.970  11.749  -1.297  1.00  0.00     0.074 A 
ATOM     52  C   UNL     1       1.162  11.056  -0.319  1.00  0.00     0.031 C 
ATOM     53  C   UNL     1       1.820   7.750  -6.346  1.00  0.00     0.029 A 
ATOM     54  C   UNL     1       2.549   9.009  -6.238  1.00  0.00     0.049 A 
ATOM     55  H   UNL     1       2.752  10.213  -4.548  1.00  0.00     0.167 HD
ATOM     56  C   UNL     1       2.535  12.963  -1.094  1.00  0.00     0.034 A 
ATOM     57  C   UNL     1       3.242   9.604  -7.230  1.00  0.00     0.034 A 
ATOM     58  C   UNL     1       3.407  13.601  -2.040  1.00  0.00     0.049 A 
ATOM     59  C   UNL     1       3.960  10.896  -6.936  1.00  0.00     0.074 A 
ATOM     60  C   UNL     1       4.102  14.789  -1.908  1.00  0.00     0.029 A 
ATOM     61  N   UNL     1       3.721  13.087  -3.289  1.00  0.00    -0.354 N 
ATOM     62  N   UNL     1       3.969  11.601  -5.830  1.00  0.00    -0.248 NA
ATOM     63  C   UNL     1       4.798  11.452  -8.008  1.00  0.00     0.031 C 
ATOM     64  C   UNL     1       4.847  14.988  -3.076  1.00  0.00     0.029 A 
ATOM     65  C   UNL     1       4.619  13.920  -3.931  1.00  0.00     0.049 A 
ATOM     66  H   UNL     1       3.358  12.252  -3.664  1.00  0.00     0.167 HD
ATOM     67  C   UNL     1       4.843  12.658  -6.057  1.00  0.00     0.074 A 
ATOM     68  C   UNL     1       5.358  12.490  -7.401  1.00  0.00     0.031 C 
ATOM     69  C   UNL     1       5.176  13.685  -5.237  1.00  0.00     0.034 A 
BRANCH  56  70
ATOM     70  C   UNL     1       2.279  13.638   0.227  1.00  0.00     0.023 A 
ATOM     71  C   UNL     1       2.878  13.125   1.396  1.00  0.00     0.012 A 
ATOM     72  C   UNL     1       1.475  14.792   0.314  1.00  0.00     0.148 A 
ATOM     73  C   UNL     1       2.649  13.720   2.635  1.00  0.00     0.002 A 
ATOM     74  C   UNL     1       1.287  15.408   1.547  1.00  0.00     0.091 A 
ATOM     75  F   UNL     1       0.894  15.254  -0.802  1.00  0.00    -0.205 F 
ATOM     76  C   UNL     1       1.862  14.866   2.709  1.00  0.00     0.022 A 
BRANCH  74  77
ATOM     77  S   UNL     1       0.355  16.931   1.738  1.00  0.00     0.127 S 
ATOM     78  O   UNL     1      -0.862  16.454   2.394  1.00  0.00    -0.237 OA
ATOM     79  O   UNL     1       1.236  17.727   2.594  1.00  0.00    -0.237 OA
ATOM     80  O   UNL     1       0.176  17.462   0.394  1.00  0.00    -0.744 OA
ENDBRANCH  74  77
ENDBRANCH  56  70
BRANCH  57  81
ATOM     81  C   UNL     1       3.373   8.935  -8.556  1.00  0.00     0.023 A 
ATOM     82  C   UNL     1       4.614   8.372  -8.917  1.00  0.00     0.012 A 
ATOM     83  C   UNL     1       2.287   8.822  -9.445  1.00  0.00     0.148 A 
ATOM     84  C   UNL     1       4.780   7.739 -10.149  1.00  0.00     0.002 A 
ATOM     85  C   UNL     1       2.446   8.145 -10.651  1.00  0.00     0.091 A 
ATOM     86  F   UNL     1       1.117   9.376  -9.095  1.00  0.00    -0.205 F 
ATOM     87  C   UNL     1       3.695   7.616 -11.011  1.00  0.00     0.022 A 
BRANCH  85  88
ATOM     88  S   UNL     1       1.067   7.829 -11.760  1.00  0.00     0.127 S 
ATOM     89  O   UNL     1       1.286   8.827 -12.803  1.00  0.00    -0.237 OA
ATOM     90  O   UNL     1       1.313   6.445 -12.171  1.00  0.00    -0.237 OA
ATOM     91  O   UNL     1      -0.129   8.003 -10.946  1.00  0.00    -0.744 OA
ENDBRANCH  85  88
ENDBRANCH  57  81
BRANCH  69  92
ATOM     92  C   UNL     1       6.184  14.681  -5.743  1.00  0.00     0.023 A 
ATOM     93  C   UNL     1       5.798  15.640  -6.699  1.00  0.00     0.012 A 
ATOM     94  C   UNL     1       7.485  14.720  -5.206  1.00  0.00     0.148 A 
ATOM     95  C   UNL     1       6.703  16.608  -7.133  1.00  0.00     0.002 A 
ATOM     96  C   UNL     1       8.367  15.714  -5.611  1.00  0.00     0.091 A 
ATOM     97  F   UNL     1       7.840  13.783  -4.314  1.00  0.00    -0.205 F 
ATOM     98  C   UNL     1       7.981  16.653  -6.581  1.00  0.00     0.022 A 
BRANCH  96  99
ATOM     99  S   UNL     1       9.997  15.890  -4.875  1.00  0.00     0.127 S 
ATOM    100  O   UNL     1      10.845  15.227  -5.863  1.00  0.00    -0.237 OA
ATOM    101  O   UNL     1      10.160  17.344  -4.810  1.00  0.00    -0.237 OA
ATOM    102  O   UNL     1       9.911  15.240  -3.574  1.00  0.00    -0.744 OA
ENDBRANCH  96  99
ENDBRANCH  69  92
ENDBRANCH  43  44
ENDBRANCH  35  38
ENDBRANCH  33  34
ENDBRANCH  32  33
ENDBRANCH  31  32
ENDBRANCH   1  31
TORSDOF 19
