REMARK SMILES C[C@@H](Nc1cccc(C(=O)NCCCCNC(=O)c2ccc(-c3c4nc(c(-c5cccc(S(=O)(=O)[O-])c5F)c5ccc([nH]5)c(-c5cccc(S(=O)(=O)[O-])c5F)c5nc(c(-c6cccc(S(=O)(=O)[O-])c6F)c6ccc3[nH]6)C=C5)C=C4)cc2)c1)C1CC[NH+](C)CC1
REMARK SMILES IDX 13 1 12 2 11 3 9 4 10 5 8 7 4 8 5 9 82 10 6 11 7 12 3 13
REMARK SMILES IDX 2 15 1 16 83 17 84 18 89 19 85 20 88 21 86 22 87 23 14 25
REMARK SMILES IDX 15 26 16 27 17 28 18 30 19 31 20 32 81 33 21 34 80 35 22 36
REMARK SMILES IDX 23 37 24 38 74 39 25 40 79 41 73 42 75 43 26 44 78 45 72 46
REMARK SMILES IDX 71 47 27 49 59 50 39 51 58 52 40 53 43 54 57 55 76 56 41 57
REMARK SMILES IDX 42 58 56 60 77 61 44 62 28 63 29 64 37 65 30 66 32 67 38 68
REMARK SMILES IDX 31 69 33 70 34 71 35 72 36 73 60 74 61 75 69 76 62 77 64 78
REMARK SMILES IDX 70 79 63 80 65 81 66 82 67 83 68 84 45 85 46 86 54 87 47 88
REMARK SMILES IDX 49 89 55 90 48 91 50 92 51 93 52 94 53 95
REMARK H PARENT 11 6 3 14 86 24 16 29 75 48 43 59
REMARK Flexibility Score: inf
ROOT
ATOM      1  C   UNL     1      -2.941   0.024   5.901  1.00  0.00     0.023 C 
ENDROOT
BRANCH   1   2
ATOM      2  C   UNL     1      -3.692   1.151   5.137  1.00  0.00     0.116 C 
BRANCH   2   3
ATOM      3  N   UNL     1      -3.086   2.525   5.319  1.00  0.00    -0.352 N 
ATOM      4  C   UNL     1      -2.376   3.597   4.794  1.00  0.00     0.251 C 
ATOM      5  O   UNL     1      -2.459   4.594   5.536  1.00  0.00    -0.269 OA
ATOM      6  H   UNL     1      -3.293   2.780   6.247  1.00  0.00     0.163 HD
BRANCH   4   7
ATOM      7  C   UNL     1      -1.567   3.861   3.529  1.00  0.00     0.041 A 
ATOM      8  C   UNL     1       0.149   3.374   1.759  1.00  0.00     0.035 A 
ATOM      9  C   UNL     1       0.054   4.696   1.330  1.00  0.00     0.026 A 
ATOM     10  C   UNL     1      -0.575   3.065   2.928  1.00  0.00     0.039 A 
ATOM     11  C   UNL     1      -0.787   5.601   1.980  1.00  0.00     0.003 A 
ATOM     12  C   UNL     1      -1.616   5.173   3.029  1.00  0.00     0.014 A 
BRANCH   8  13
ATOM     13  N   UNL     1       0.852   2.475   0.970  1.00  0.00    -0.382 N 
ATOM     14  H   UNL     1       1.272   2.901   0.188  1.00  0.00     0.160 HD
BRANCH  13  15
ATOM     15  C   UNL     1       1.113   1.017   1.040  1.00  0.00     0.079 C 
ATOM     16  C   UNL     1       1.999   0.689  -0.197  1.00  0.00     0.031 C 
BRANCH  15  17
ATOM     17  C   UNL     1      -0.081   0.005   0.929  1.00  0.00     0.022 C 
ATOM     18  C   UNL     1      -1.443   0.467   1.424  1.00  0.00     0.067 C 
ATOM     19  C   UNL     1       0.226  -1.330   1.683  1.00  0.00     0.067 C 
ATOM     20  C   UNL     1      -1.610   0.226   2.929  1.00  0.00     0.262 C 
ATOM     21  C   UNL     1       0.424  -1.121   3.188  1.00  0.00     0.262 C 
ATOM     22  N   UNL     1      -0.339   0.020   3.614  1.00  0.00    -0.337 N 
ATOM     23  C   UNL     1      -0.071   0.482   4.967  1.00  0.00     0.332 C 
ATOM     24  H   UNL     1       0.055   0.866   3.202  1.00  0.00     0.347 HD
ENDBRANCH  15  17
ENDBRANCH  13  15
ENDBRANCH   8  13
ENDBRANCH   4   7
ENDBRANCH   2   3
ENDBRANCH   1   2
BRANCH   1  25
ATOM     25  C   UNL     1      -3.678  -1.178   6.505  1.00  0.00     0.023 C 
BRANCH  25  26
ATOM     26  C   UNL     1      -4.186  -2.262   5.548  1.00  0.00     0.116 C 
BRANCH  26  27
ATOM     27  N   UNL     1      -3.174  -3.156   4.973  1.00  0.00    -0.352 N 
ATOM     28  C   UNL     1      -3.180  -4.542   4.829  1.00  0.00     0.251 C 
ATOM     29  H   UNL     1      -2.365  -2.706   4.636  1.00  0.00     0.163 HD
ATOM     30  O   UNL     1      -2.240  -5.108   4.300  1.00  0.00    -0.269 OA
BRANCH  28  31
ATOM     31  C   UNL     1      -4.313  -5.347   5.373  1.00  0.00     0.039 A 
ATOM     32  C   UNL     1      -4.049  -6.507   6.113  1.00  0.00     0.014 A 
ATOM     33  C   UNL     1      -5.629  -4.921   5.219  1.00  0.00     0.014 A 
ATOM     34  C   UNL     1      -5.086  -7.138   6.819  1.00  0.00     0.010 A 
ATOM     35  C   UNL     1      -6.631  -5.474   6.011  1.00  0.00     0.010 A 
ATOM     36  C   UNL     1      -6.374  -6.580   6.837  1.00  0.00    -0.014 A 
BRANCH  36  37
ATOM     37  C   UNL     1      -7.461  -7.095   7.722  1.00  0.00     0.031 A 
ATOM     38  C   UNL     1      -8.788  -7.509   7.133  1.00  0.00     0.074 A 
ATOM     39  C   UNL     1      -7.317  -7.058   9.064  1.00  0.00     0.049 A 
ATOM     40  N   UNL     1      -9.893  -7.855   7.743  1.00  0.00    -0.248 NA
ATOM     41  C   UNL     1      -8.902  -7.487   5.665  1.00  0.00     0.031 C 
ATOM     42  C   UNL     1      -6.130  -6.581   9.780  1.00  0.00     0.029 A 
ATOM     43  N   UNL     1      -8.190  -7.396  10.072  1.00  0.00    -0.354 N 
ATOM     44  C   UNL     1     -10.841  -8.037   6.742  1.00  0.00     0.074 A 
ATOM     45  C   UNL     1     -10.194  -7.720   5.488  1.00  0.00     0.031 C 
ATOM     46  C   UNL     1      -6.345  -6.668  11.103  1.00  0.00     0.029 A 
ATOM     47  C   UNL     1      -7.692  -7.176  11.338  1.00  0.00     0.049 A 
ATOM     48  H   UNL     1      -9.088  -7.763   9.905  1.00  0.00     0.167 HD
ATOM     49  C   UNL     1     -12.121  -8.467   6.845  1.00  0.00     0.034 A 
ATOM     50  C   UNL     1      -8.255  -7.357  12.551  1.00  0.00     0.034 A 
ATOM     51  C   UNL     1     -12.744  -8.855   8.081  1.00  0.00     0.049 A 
ATOM     52  C   UNL     1      -9.651  -7.915  12.636  1.00  0.00     0.074 A 
ATOM     53  C   UNL     1     -13.998  -9.407   8.276  1.00  0.00     0.029 A 
ATOM     54  N   UNL     1     -12.159  -8.737   9.331  1.00  0.00    -0.354 N 
ATOM     55  N   UNL     1     -10.470  -8.241  11.665  1.00  0.00    -0.248 NA
ATOM     56  C   UNL     1     -10.187  -8.169  13.982  1.00  0.00     0.031 C 
ATOM     57  C   UNL     1     -14.176  -9.610   9.648  1.00  0.00     0.029 A 
ATOM     58  C   UNL     1     -13.025  -9.206  10.304  1.00  0.00     0.049 A 
ATOM     59  H   UNL     1     -11.260  -8.373   9.503  1.00  0.00     0.167 HD
ATOM     60  C   UNL     1     -11.597  -8.776  12.280  1.00  0.00     0.074 A 
ATOM     61  C   UNL     1     -11.348  -8.748  13.706  1.00  0.00     0.031 C 
ATOM     62  C   UNL     1     -12.740  -9.235  11.715  1.00  0.00     0.034 A 
BRANCH  49  63
ATOM     63  C   UNL     1     -12.914  -8.614   5.571  1.00  0.00     0.023 A 
ATOM     64  C   UNL     1     -12.586  -9.643   4.664  1.00  0.00     0.012 A 
ATOM     65  C   UNL     1     -14.012  -7.775   5.295  1.00  0.00     0.148 A 
ATOM     66  C   UNL     1     -13.309  -9.809   3.484  1.00  0.00     0.002 A 
ATOM     67  C   UNL     1     -14.758  -7.977   4.140  1.00  0.00     0.091 A 
ATOM     68  F   UNL     1     -14.299  -6.790   6.159  1.00  0.00    -0.205 F 
ATOM     69  C   UNL     1     -14.400  -8.984   3.227  1.00  0.00     0.022 A 
BRANCH  67  70
ATOM     70  S   UNL     1     -16.231  -7.023   3.755  1.00  0.00     0.127 S 
ATOM     71  O   UNL     1     -15.771  -6.212   2.629  1.00  0.00    -0.237 OA
ATOM     72  O   UNL     1     -17.191  -8.069   3.401  1.00  0.00    -0.237 OA
ATOM     73  O   UNL     1     -16.558  -6.284   4.966  1.00  0.00    -0.744 OA
ENDBRANCH  67  70
ENDBRANCH  49  63
BRANCH  50  74
ATOM     74  C   UNL     1      -7.468  -7.091  13.791  1.00  0.00     0.023 A 
ATOM     75  C   UNL     1      -7.051  -8.178  14.587  1.00  0.00     0.012 A 
ATOM     76  C   UNL     1      -7.121  -5.784  14.183  1.00  0.00     0.148 A 
ATOM     77  C   UNL     1      -6.336  -7.966  15.767  1.00  0.00     0.002 A 
ATOM     78  C   UNL     1      -6.361  -5.584  15.331  1.00  0.00     0.091 A 
ATOM     79  F   UNL     1      -7.536  -4.762  13.422  1.00  0.00    -0.205 F 
ATOM     80  C   UNL     1      -5.983  -6.671  16.134  1.00  0.00     0.022 A 
BRANCH  78  81
ATOM     81  S   UNL     1      -5.751  -3.964  15.812  1.00  0.00     0.127 S 
ATOM     82  O   UNL     1      -6.579  -3.666  16.977  1.00  0.00    -0.237 OA
ATOM     83  O   UNL     1      -4.346  -4.245  16.110  1.00  0.00    -0.237 OA
ATOM     84  O   UNL     1      -5.957  -3.108  14.651  1.00  0.00    -0.744 OA
ENDBRANCH  78  81
ENDBRANCH  50  74
BRANCH  62  85
ATOM     85  C   UNL     1     -13.800  -9.795  12.627  1.00  0.00     0.023 A 
ATOM     86  C   UNL     1     -14.562  -8.928  13.435  1.00  0.00     0.012 A 
ATOM     87  C   UNL     1     -14.096 -11.173  12.620  1.00  0.00     0.148 A 
ATOM     88  C   UNL     1     -15.580  -9.428  14.246  1.00  0.00     0.002 A 
ATOM     89  C   UNL     1     -15.144 -11.657  13.393  1.00  0.00     0.091 A 
ATOM     90  F   UNL     1     -13.347 -11.985  11.859  1.00  0.00    -0.205 F 
ATOM     91  C   UNL     1     -15.880 -10.789  14.215  1.00  0.00     0.022 A 
BRANCH  89  92
ATOM     92  S   UNL     1     -15.662 -13.377  13.338  1.00  0.00     0.127 S 
ATOM     93  O   UNL     1     -15.151 -13.882  14.611  1.00  0.00    -0.237 OA
ATOM     94  O   UNL     1     -17.119 -13.262  13.268  1.00  0.00    -0.237 OA
ATOM     95  O   UNL     1     -15.045 -13.942  12.146  1.00  0.00    -0.744 OA
ENDBRANCH  89  92
ENDBRANCH  62  85
ENDBRANCH  36  37
ENDBRANCH  28  31
ENDBRANCH  26  27
ENDBRANCH  25  26
ENDBRANCH   1  25
TORSDOF 17
