REMARK SMILES C/C(C(=O)NCCCCNC(=O)c1ccc(-c2c3nc(c(-c4cccc(S(=O)(=O)[O-])c4F)c4ccc([nH]4)c(-c4cccc(S(=O)(=O)[O-])c4F)c4nc(c(-c5cccc(S(=O)(=O)[O-])c5F)c5ccc2[nH]5)C=C4)C=C3)cc1)=C(\C)C(=O)N[C@H]1CCCC1(C)C
REMARK SMILES IDX 8 1 7 2 6 3 5 4 3 5 4 6 2 8 1 9 76 10 77 11 78 12 79 13
REMARK SMILES IDX 80 14 81 16 82 17 85 18 83 19 84 20 86 21 87 22 9 23 10 24
REMARK SMILES IDX 11 25 12 27 13 28 14 29 75 30 15 31 74 32 16 33 17 34 18 35
REMARK SMILES IDX 68 36 19 37 73 38 67 39 69 40 20 41 72 42 66 43 65 44 21 46
REMARK SMILES IDX 53 47 33 48 52 49 34 50 37 51 51 52 70 53 35 54 36 55 50 57
REMARK SMILES IDX 71 58 38 59 22 60 23 61 31 62 24 63 26 64 32 65 25 66 27 67
REMARK SMILES IDX 28 68 29 69 30 70 54 71 55 72 63 73 56 74 58 75 64 76 57 77
REMARK SMILES IDX 59 78 60 79 61 80 62 81 39 82 40 83 48 84 41 85 43 86 49 87
REMARK SMILES IDX 42 88 44 89 45 90 46 91 47 92
REMARK H PARENT 5 7 80 15 10 26 69 45 37 56
REMARK Flexibility Score: inf
ROOT
ATOM      1  C   UNL     1      -2.345   3.503  -0.161  1.00  0.00     0.023 C 
ENDROOT
BRANCH   1   2
ATOM      2  C   UNL     1      -1.235   2.499  -0.474  1.00  0.00     0.023 C 
BRANCH   2   3
ATOM      3  C   UNL     1      -0.045   2.511   0.488  1.00  0.00     0.116 C 
BRANCH   3   4
ATOM      4  N   UNL     1      -0.249   1.702   1.680  1.00  0.00    -0.352 N 
ATOM      5  C   UNL     1       0.135   0.450   2.068  1.00  0.00     0.247 C 
ATOM      6  O   UNL     1       0.197   0.289   3.289  1.00  0.00    -0.270 OA
ATOM      7  H   UNL     1      -0.788   2.163   2.363  1.00  0.00     0.163 HD
BRANCH   5   8
ATOM      8  C   UNL     1       0.592  -0.638   1.113  1.00  0.00     0.022 C 
ATOM      9  C   UNL     1       0.852  -0.263  -0.319  1.00  0.00     0.051 C 
ATOM     10  C   UNL     1       0.804  -1.925   1.528  1.00  0.00     0.022 C 
ATOM     11  C   UNL     1       1.484  -2.938   0.650  1.00  0.00     0.051 C 
BRANCH  10  12
ATOM     12  C   UNL     1       0.233  -2.463   2.825  1.00  0.00     0.247 C 
ATOM     13  O   UNL     1      -0.885  -2.108   3.205  1.00  0.00    -0.270 OA
ATOM     14  N   UNL     1       0.821  -3.468   3.547  1.00  0.00    -0.349 N 
ATOM     15  H   UNL     1       0.405  -3.606   4.429  1.00  0.00     0.164 HD
BRANCH  14  16
ATOM     16  C   UNL     1       1.933  -4.378   3.285  1.00  0.00     0.088 C 
ATOM     17  C   UNL     1       3.283  -3.730   3.607  1.00  0.00     0.025 C 
ATOM     18  C   UNL     1       1.931  -5.692   4.113  1.00  0.00    -0.015 C 
ATOM     19  C   UNL     1       3.709  -4.263   4.975  1.00  0.00     0.003 C 
ATOM     20  C   UNL     1       2.662  -5.290   5.399  1.00  0.00     0.008 C 
ATOM     21  C   UNL     1       0.539  -6.263   4.405  1.00  0.00     0.013 C 
ATOM     22  C   UNL     1       2.731  -6.777   3.351  1.00  0.00     0.013 C 
ENDBRANCH  14  16
ENDBRANCH  10  12
ENDBRANCH   5   8
ENDBRANCH   3   4
ENDBRANCH   2   3
ENDBRANCH   1   2
BRANCH   1  23
ATOM     23  C   UNL     1      -1.913   4.964  -0.068  1.00  0.00     0.116 C 
BRANCH  23  24
ATOM     24  N   UNL     1      -1.147   5.426  -1.216  1.00  0.00    -0.352 N 
ATOM     25  C   UNL     1      -1.077   6.693  -1.752  1.00  0.00     0.251 C 
ATOM     26  H   UNL     1      -0.606   4.740  -1.671  1.00  0.00     0.163 HD
ATOM     27  O   UNL     1      -0.449   6.890  -2.777  1.00  0.00    -0.269 OA
BRANCH  25  28
ATOM     28  C   UNL     1      -1.809   7.800  -1.094  1.00  0.00     0.039 A 
ATOM     29  C   UNL     1      -2.609   8.631  -1.881  1.00  0.00     0.014 A 
ATOM     30  C   UNL     1      -1.729   7.999   0.287  1.00  0.00     0.014 A 
ATOM     31  C   UNL     1      -3.381   9.621  -1.272  1.00  0.00     0.010 A 
ATOM     32  C   UNL     1      -2.554   8.938   0.899  1.00  0.00     0.010 A 
ATOM     33  C   UNL     1      -3.389   9.759   0.127  1.00  0.00    -0.014 A 
BRANCH  33  34
ATOM     34  C   UNL     1      -4.299  10.729   0.785  1.00  0.00     0.031 A 
ATOM     35  C   UNL     1      -3.753  11.887   1.573  1.00  0.00     0.074 A 
ATOM     36  C   UNL     1      -5.629  10.520   0.729  1.00  0.00     0.049 A 
ATOM     37  N   UNL     1      -4.403  12.846   2.180  1.00  0.00    -0.248 NA
ATOM     38  C   UNL     1      -2.291  11.967   1.722  1.00  0.00     0.031 C 
ATOM     39  C   UNL     1      -6.277   9.371   0.091  1.00  0.00     0.029 A 
ATOM     40  N   UNL     1      -6.675  11.253   1.230  1.00  0.00    -0.354 N 
ATOM     41  C   UNL     1      -3.437  13.625   2.805  1.00  0.00     0.074 A 
ATOM     42  C   UNL     1      -2.157  13.006   2.535  1.00  0.00     0.031 C 
ATOM     43  C   UNL     1      -7.607   9.484   0.227  1.00  0.00     0.029 A 
ATOM     44  C   UNL     1      -7.908  10.700   0.974  1.00  0.00     0.049 A 
ATOM     45  H   UNL     1      -6.554  12.095   1.725  1.00  0.00     0.167 HD
ATOM     46  C   UNL     1      -3.597  14.769   3.512  1.00  0.00     0.034 A 
ATOM     47  C   UNL     1      -9.143  11.129   1.299  1.00  0.00     0.034 A 
ATOM     48  C   UNL     1      -4.868  15.401   3.744  1.00  0.00     0.049 A 
ATOM     49  C   UNL     1      -9.293  12.439   2.022  1.00  0.00     0.074 A 
ATOM     50  C   UNL     1      -5.128  16.617   4.350  1.00  0.00     0.029 A 
ATOM     51  N   UNL     1      -6.096  14.861   3.391  1.00  0.00    -0.354 N 
ATOM     52  N   UNL     1      -8.362  13.266   2.431  1.00  0.00    -0.248 NA
ATOM     53  C   UNL     1     -10.664  12.896   2.291  1.00  0.00     0.031 C 
ATOM     54  C   UNL     1      -6.515  16.800   4.386  1.00  0.00     0.029 A 
ATOM     55  C   UNL     1      -7.118  15.710   3.780  1.00  0.00     0.049 A 
ATOM     56  H   UNL     1      -6.222  14.000   2.931  1.00  0.00     0.167 HD
ATOM     57  C   UNL     1      -9.032  14.352   2.982  1.00  0.00     0.074 A 
ATOM     58  C   UNL     1     -10.448  14.090   2.824  1.00  0.00     0.031 C 
ATOM     59  C   UNL     1      -8.522  15.456   3.583  1.00  0.00     0.034 A 
BRANCH  46  60
ATOM     60  C   UNL     1      -2.357  15.446   4.037  1.00  0.00     0.023 A 
ATOM     61  C   UNL     1      -1.477  16.079   3.134  1.00  0.00     0.012 A 
ATOM     62  C   UNL     1      -2.089  15.508   5.418  1.00  0.00     0.148 A 
ATOM     63  C   UNL     1      -0.334  16.732   3.593  1.00  0.00     0.002 A 
ATOM     64  C   UNL     1      -0.971  16.199   5.872  1.00  0.00     0.091 A 
ATOM     65  F   UNL     1      -2.923  14.883   6.261  1.00  0.00    -0.205 F 
ATOM     66  C   UNL     1      -0.087  16.801   4.961  1.00  0.00     0.022 A 
BRANCH  64  67
ATOM     67  S   UNL     1      -0.606  16.413   7.618  1.00  0.00     0.127 S 
ATOM     68  O   UNL     1       0.550  15.533   7.787  1.00  0.00    -0.237 OA
ATOM     69  O   UNL     1      -0.300  17.842   7.696  1.00  0.00    -0.237 OA
ATOM     70  O   UNL     1      -1.810  16.011   8.331  1.00  0.00    -0.744 OA
ENDBRANCH  64  67
ENDBRANCH  46  60
BRANCH  47  71
ATOM     71  C   UNL     1     -10.335  10.346   0.868  1.00  0.00     0.023 A 
ATOM     72  C   UNL     1     -11.167  10.854  -0.149  1.00  0.00     0.012 A 
ATOM     73  C   UNL     1     -10.624   9.085   1.425  1.00  0.00     0.148 A 
ATOM     74  C   UNL     1     -12.282  10.136  -0.582  1.00  0.00     0.002 A 
ATOM     75  C   UNL     1     -11.703   8.349   0.950  1.00  0.00     0.091 A 
ATOM     76  F   UNL     1      -9.827   8.624   2.399  1.00  0.00    -0.205 F 
ATOM     77  C   UNL     1     -12.544   8.880  -0.041  1.00  0.00     0.022 A 
BRANCH  75  78
ATOM     78  S   UNL     1     -12.032   6.668   1.489  1.00  0.00     0.127 S 
ATOM     79  O   UNL     1     -13.234   6.843   2.300  1.00  0.00    -0.237 OA
ATOM     80  O   UNL     1     -12.243   5.978   0.215  1.00  0.00    -0.237 OA
ATOM     81  O   UNL     1     -10.837   6.246   2.207  1.00  0.00    -0.744 OA
ENDBRANCH  75  78
ENDBRANCH  47  71
BRANCH  59  82
ATOM     82  C   UNL     1      -9.502  16.474   4.108  1.00  0.00     0.023 A 
ATOM     83  C   UNL     1     -10.270  16.176   5.251  1.00  0.00     0.012 A 
ATOM     84  C   UNL     1      -9.623  17.741   3.505  1.00  0.00     0.148 A 
ATOM     85  C   UNL     1     -11.172  17.109   5.763  1.00  0.00     0.002 A 
ATOM     86  C   UNL     1     -10.487  18.683   4.050  1.00  0.00     0.091 A 
ATOM     87  F   UNL     1      -8.899  18.000   2.406  1.00  0.00    -0.205 F 
ATOM     88  C   UNL     1     -11.272  18.365   5.169  1.00  0.00     0.022 A 
BRANCH  86  89
ATOM     89  S   UNL     1     -10.609  20.357   3.407  1.00  0.00     0.127 S 
ATOM     90  O   UNL     1     -11.880  20.308   2.687  1.00  0.00    -0.237 OA
ATOM     91  O   UNL     1     -10.631  21.160   4.630  1.00  0.00    -0.237 OA
ATOM     92  O   UNL     1      -9.425  20.553   2.581  1.00  0.00    -0.744 OA
ENDBRANCH  86  89
ENDBRANCH  59  82
ENDBRANCH  33  34
ENDBRANCH  25  28
ENDBRANCH  23  24
ENDBRANCH   1  23
TORSDOF 16
