REMARK SMILES CN1C(=O)C[C@H](C(=O)NCCCCNC(=O)c2ccc(-c3c4nc(c(-c5cccc(S(=O)(=O)[O-])c5F)c5ccc([nH]5)c(-c5cccc(S(=O)(=O)[O-])c5F)c5nc(c(-c6cccc(S(=O)(=O)[O-])c6F)c6ccc3[nH]6)C=C5)C=C4)cc2)c2cccc(Cl)c21
REMARK SMILES IDX 13 1 12 2 11 3 10 4 9 5 7 6 8 7 6 9 1 10 2 11 3 12 86 13
REMARK SMILES IDX 4 14 5 15 80 16 84 17 81 18 83 19 85 20 82 21 14 22 15 23
REMARK SMILES IDX 16 25 17 26 18 27 79 28 19 29 78 30 20 31 21 32 22 33 72 34
REMARK SMILES IDX 23 35 77 36 71 37 73 38 24 39 76 40 70 41 69 42 25 44 57 45
REMARK SMILES IDX 37 46 56 47 38 48 41 49 55 50 74 51 39 52 40 53 54 55 75 56
REMARK SMILES IDX 42 57 26 58 27 59 35 60 28 61 30 62 36 63 29 64 31 65 32 66
REMARK SMILES IDX 33 67 34 68 58 69 59 70 67 71 60 72 62 73 68 74 61 75 63 76
REMARK SMILES IDX 64 77 65 78 66 79 43 80 44 81 52 82 45 83 47 84 53 85 46 86
REMARK SMILES IDX 48 87 49 88 50 89 51 90
REMARK H PARENT 9 8 14 24 73 43 41 54
REMARK Flexibility Score: inf
ROOT
ATOM      1  C   UNL     1      -6.119  -0.043  -0.646  1.00  0.00     0.116 C 
ENDROOT
BRANCH   1   2
ATOM      2  C   UNL     1      -5.369   1.243  -0.979  1.00  0.00     0.023 C 
BRANCH   2   3
ATOM      3  C   UNL     1      -3.846   1.145  -0.891  1.00  0.00     0.023 C 
BRANCH   3   4
ATOM      4  C   UNL     1      -3.225   0.049  -1.749  1.00  0.00     0.116 C 
BRANCH   4   5
ATOM      5  N   UNL     1      -3.362   0.312  -3.170  1.00  0.00    -0.356 N 
ATOM      6  C   UNL     1      -2.410   0.371  -4.146  1.00  0.00     0.228 C 
ATOM      7  O   UNL     1      -2.781   0.539  -5.310  1.00  0.00    -0.274 OA
ATOM      8  H   UNL     1      -4.284   0.471  -3.477  1.00  0.00     0.163 HD
BRANCH   6   9
ATOM      9  C   UNL     1      -0.917   0.243  -3.823  1.00  0.00     0.120 C 
ATOM     10  C   UNL     1       1.353  -0.025  -0.126  1.00  0.00     0.153 C 
ATOM     11  N   UNL     1       0.661  -0.003  -1.405  1.00  0.00    -0.314 N 
ATOM     12  C   UNL     1       0.530   1.257  -1.976  1.00  0.00     0.227 C 
ATOM     13  C   UNL     1       0.190  -1.216  -2.028  1.00  0.00     0.066 A 
ATOM     14  O   UNL     1       1.143   2.245  -1.558  1.00  0.00    -0.274 OA
ATOM     15  C   UNL     1      -0.474   1.469  -3.064  1.00  0.00     0.119 C 
ATOM     16  C   UNL     1      -0.565  -1.095  -3.216  1.00  0.00    -0.010 A 
ATOM     17  C   UNL     1       0.425  -2.540  -1.558  1.00  0.00     0.065 A 
ATOM     18  C   UNL     1      -1.036  -2.242  -3.899  1.00  0.00     0.007 A 
ATOM     19  C   UNL     1      -0.086  -3.660  -2.238  1.00  0.00     0.023 A 
ATOM     20  Cl  UNL     1       1.373  -2.985  -0.174  1.00  0.00    -0.082 Cl
ATOM     21  C   UNL     1      -0.812  -3.515  -3.407  1.00  0.00     0.002 A 
ENDBRANCH   6   9
ENDBRANCH   4   5
ENDBRANCH   3   4
ENDBRANCH   2   3
ENDBRANCH   1   2
BRANCH   1  22
ATOM     22  N   UNL     1      -5.835  -0.527   0.699  1.00  0.00    -0.352 N 
ATOM     23  C   UNL     1      -6.727  -0.873   1.685  1.00  0.00     0.251 C 
ATOM     24  H   UNL     1      -4.883  -0.617   0.930  1.00  0.00     0.163 HD
ATOM     25  O   UNL     1      -6.336  -1.137   2.817  1.00  0.00    -0.269 OA
BRANCH  23  26
ATOM     26  C   UNL     1      -8.166  -0.899   1.364  1.00  0.00     0.039 A 
ATOM     27  C   UNL     1      -9.044  -0.118   2.118  1.00  0.00     0.014 A 
ATOM     28  C   UNL     1      -8.627  -1.655   0.281  1.00  0.00     0.014 A 
ATOM     29  C   UNL     1     -10.387  -0.046   1.746  1.00  0.00     0.010 A 
ATOM     30  C   UNL     1      -9.956  -1.544  -0.115  1.00  0.00     0.010 A 
ATOM     31  C   UNL     1     -10.845  -0.739   0.614  1.00  0.00    -0.014 A 
BRANCH  31  32
ATOM     32  C   UNL     1     -12.257  -0.645   0.178  1.00  0.00     0.031 A 
ATOM     33  C   UNL     1     -13.158  -1.839   0.313  1.00  0.00     0.074 A 
ATOM     34  C   UNL     1     -12.707   0.487  -0.397  1.00  0.00     0.049 A 
ATOM     35  N   UNL     1     -14.408  -1.967  -0.045  1.00  0.00    -0.248 NA
ATOM     36  C   UNL     1     -12.576  -3.052   0.912  1.00  0.00     0.031 C 
ATOM     37  C   UNL     1     -11.909   1.694  -0.630  1.00  0.00     0.029 A 
ATOM     38  N   UNL     1     -13.942   0.802  -0.904  1.00  0.00    -0.354 N 
ATOM     39  C   UNL     1     -14.754  -3.277   0.257  1.00  0.00     0.074 A 
ATOM     40  C   UNL     1     -13.579  -3.913   0.809  1.00  0.00     0.031 C 
ATOM     41  C   UNL     1     -12.681   2.622  -1.222  1.00  0.00     0.029 A 
ATOM     42  C   UNL     1     -14.018   2.072  -1.425  1.00  0.00     0.049 A 
ATOM     43  H   UNL     1     -14.702   0.177  -0.896  1.00  0.00     0.167 HD
ATOM     44  C   UNL     1     -15.953  -3.885   0.118  1.00  0.00     0.034 A 
ATOM     45  C   UNL     1     -15.054   2.723  -1.991  1.00  0.00     0.034 A 
ATOM     46  C   UNL     1     -17.136  -3.236  -0.370  1.00  0.00     0.049 A 
ATOM     47  C   UNL     1     -16.384   2.030  -2.106  1.00  0.00     0.074 A 
ATOM     48  C   UNL     1     -18.417  -3.748  -0.465  1.00  0.00     0.029 A 
ATOM     49  N   UNL     1     -17.185  -1.933  -0.838  1.00  0.00    -0.354 N 
ATOM     50  N   UNL     1     -16.724   0.833  -1.696  1.00  0.00    -0.248 NA
ATOM     51  C   UNL     1     -17.479   2.785  -2.736  1.00  0.00     0.031 C 
ATOM     52  C   UNL     1     -19.245  -2.752  -0.990  1.00  0.00     0.029 A 
ATOM     53  C   UNL     1     -18.476  -1.623  -1.224  1.00  0.00     0.049 A 
ATOM     54  H   UNL     1     -16.416  -1.321  -0.889  1.00  0.00     0.167 HD
ATOM     55  C   UNL     1     -18.076   0.700  -1.990  1.00  0.00     0.074 A 
ATOM     56  C   UNL     1     -18.496   1.941  -2.607  1.00  0.00     0.031 C 
ATOM     57  C   UNL     1     -18.890  -0.362  -1.781  1.00  0.00     0.034 A 
BRANCH  44  58
ATOM     58  C   UNL     1     -16.073  -5.310   0.575  1.00  0.00     0.023 A 
ATOM     59  C   UNL     1     -16.236  -5.571   1.950  1.00  0.00     0.012 A 
ATOM     60  C   UNL     1     -16.114  -6.371  -0.347  1.00  0.00     0.148 A 
ATOM     61  C   UNL     1     -16.431  -6.873   2.403  1.00  0.00     0.002 A 
ATOM     62  C   UNL     1     -16.334  -7.665   0.110  1.00  0.00     0.091 A 
ATOM     63  F   UNL     1     -15.942  -6.093  -1.648  1.00  0.00    -0.205 F 
ATOM     64  C   UNL     1     -16.489  -7.917   1.484  1.00  0.00     0.022 A 
BRANCH  62  65
ATOM     65  S   UNL     1     -16.468  -9.079  -0.990  1.00  0.00     0.127 S 
ATOM     66  O   UNL     1     -15.327  -9.890  -0.566  1.00  0.00    -0.237 OA
ATOM     67  O   UNL     1     -17.775  -9.625  -0.625  1.00  0.00    -0.237 OA
ATOM     68  O   UNL     1     -16.378  -8.549  -2.343  1.00  0.00    -0.744 OA
ENDBRANCH  62  65
ENDBRANCH  44  58
BRANCH  45  69
ATOM     69  C   UNL     1     -14.897   4.144  -2.401  1.00  0.00     0.023 A 
ATOM     70  C   UNL     1     -15.456   5.148  -1.587  1.00  0.00     0.012 A 
ATOM     71  C   UNL     1     -14.170   4.510  -3.549  1.00  0.00     0.148 A 
ATOM     72  C   UNL     1     -15.307   6.495  -1.916  1.00  0.00     0.002 A 
ATOM     73  C   UNL     1     -13.996   5.856  -3.854  1.00  0.00     0.091 A 
ATOM     74  F   UNL     1     -13.654   3.535  -4.309  1.00  0.00    -0.205 F 
ATOM     75  C   UNL     1     -14.572   6.849  -3.044  1.00  0.00     0.022 A 
BRANCH  73  76
ATOM     76  S   UNL     1     -12.992   6.418  -5.233  1.00  0.00     0.127 S 
ATOM     77  O   UNL     1     -13.993   7.034  -6.100  1.00  0.00    -0.237 OA
ATOM     78  O   UNL     1     -12.082   7.358  -4.576  1.00  0.00    -0.237 OA
ATOM     79  O   UNL     1     -12.348   5.225  -5.765  1.00  0.00    -0.744 OA
ENDBRANCH  73  76
ENDBRANCH  45  69
BRANCH  57  80
ATOM     80  C   UNL     1     -20.327  -0.248  -2.200  1.00  0.00     0.023 A 
ATOM     81  C   UNL     1     -20.666  -0.457  -3.551  1.00  0.00     0.012 A 
ATOM     82  C   UNL     1     -21.346  -0.083  -1.242  1.00  0.00     0.148 A 
ATOM     83  C   UNL     1     -22.002  -0.501  -3.943  1.00  0.00     0.002 A 
ATOM     84  C   UNL     1     -22.676  -0.161  -1.636  1.00  0.00     0.091 A 
ATOM     85  F   UNL     1     -20.993   0.124   0.035  1.00  0.00    -0.205 F 
ATOM     86  C   UNL     1     -23.005  -0.367  -2.986  1.00  0.00     0.022 A 
BRANCH  84  87
ATOM     87  S   UNL     1     -24.037  -0.081  -0.466  1.00  0.00     0.127 S 
ATOM     88  O   UNL     1     -24.648   1.202  -0.807  1.00  0.00    -0.237 OA
ATOM     89  O   UNL     1     -24.831  -1.253  -0.835  1.00  0.00    -0.237 OA
ATOM     90  O   UNL     1     -23.435  -0.150   0.859  1.00  0.00    -0.744 OA
ENDBRANCH  84  87
ENDBRANCH  57  80
ENDBRANCH  31  32
ENDBRANCH  23  26
ENDBRANCH   1  22
TORSDOF 14
