REMARK SMILES COc1ccc(-c2cnc(N)c(C(=O)NCCCCNC(=O)c3ccc(-c4c5nc(c(-c6cccc(S(=O)(=O)[O-])c6F)c6ccc([nH]6)c(-c6cccc(S(=O)(=O)[O-])c6F)c6nc(c(-c7cccc(S(=O)(=O)[O-])c7F)c7ccc4[nH]7)C=C6)C=C5)cc3)c2)c(C)c1
REMARK SMILES IDX 18 1 17 2 16 3 15 4 13 5 14 6 12 8 7 9 8 10 86 11 9 12 10 13
REMARK SMILES IDX 6 14 3 15 4 16 89 17 5 18 87 19 88 20 2 21 1 22 11 23 19 26
REMARK SMILES IDX 20 27 21 28 22 30 23 31 24 32 85 33 25 34 84 35 26 36 27 37
REMARK SMILES IDX 28 38 78 39 29 40 83 41 77 42 79 43 30 44 82 45 76 46 75 47
REMARK SMILES IDX 31 49 63 50 43 51 62 52 44 53 47 54 61 55 80 56 45 57 46 58
REMARK SMILES IDX 60 60 81 61 48 62 32 63 33 64 41 65 34 66 36 67 42 68 35 69
REMARK SMILES IDX 37 70 38 71 39 72 40 73 64 74 65 75 73 76 66 77 68 78 74 79
REMARK SMILES IDX 67 80 69 81 70 82 71 83 72 84 49 85 50 86 58 87 51 88 53 89
REMARK SMILES IDX 59 90 52 91 54 92 55 93 56 94 57 95
REMARK H PARENT 15 7 11 24 11 25 20 29 79 48 47 59
REMARK Flexibility Score: inf
ROOT
ATOM      1  C   UNL     1       0.765  13.609   0.695  1.00  0.00     0.023 C 
ENDROOT
BRANCH   1   2
ATOM      2  C   UNL     1       1.352  12.568  -0.251  1.00  0.00     0.023 C 
BRANCH   2   3
ATOM      3  C   UNL     1       2.260  11.504   0.367  1.00  0.00     0.116 C 
BRANCH   3   4
ATOM      4  N   UNL     1       1.669  10.758   1.469  1.00  0.00    -0.352 N 
ATOM      5  C   UNL     1       1.741   9.414   1.764  1.00  0.00     0.255 C 
ATOM      6  O   UNL     1       1.171   8.996   2.771  1.00  0.00    -0.269 OA
ATOM      7  H   UNL     1       1.137  11.295   2.100  1.00  0.00     0.163 HD
BRANCH   5   8
ATOM      8  C   UNL     1       2.394   8.435   0.863  1.00  0.00     0.082 A 
ATOM      9  C   UNL     1       2.231   6.266  -0.236  1.00  0.00     0.001 A 
ATOM     10  C   UNL     1       3.398   6.634  -0.904  1.00  0.00     0.122 A 
ATOM     11  C   UNL     1       1.717   7.219   0.646  1.00  0.00     0.028 A 
ATOM     12  N   UNL     1       4.115   7.754  -0.659  1.00  0.00    -0.238 NA
ATOM     13  C   UNL     1       3.650   8.602   0.280  1.00  0.00     0.136 A 
BRANCH   9  14
ATOM     14  C   UNL     1       1.678   4.907  -0.392  1.00  0.00    -0.014 A 
ATOM     15  C   UNL     1       0.849   2.202  -0.638  1.00  0.00     0.119 A 
ATOM     16  C   UNL     1       2.165   2.494  -0.315  1.00  0.00     0.047 A 
ATOM     17  C   UNL     1      -0.047   3.250  -0.856  1.00  0.00     0.050 A 
ATOM     18  C   UNL     1       2.565   3.825  -0.187  1.00  0.00     0.013 A 
ATOM     19  C   UNL     1       0.344   4.603  -0.737  1.00  0.00    -0.040 A 
ATOM     20  C   UNL     1      -0.723   5.641  -0.958  1.00  0.00     0.045 C 
BRANCH  15  21
ATOM     21  O   UNL     1       0.346   0.940  -0.800  1.00  0.00    -0.497 OA
ATOM     22  C   UNL     1       0.966  -0.062   0.002  1.00  0.00     0.278 C 
ENDBRANCH  15  21
ENDBRANCH   9  14
BRANCH  13  23
ATOM     23  N   UNL     1       4.523   9.625   0.583  1.00  0.00    -0.383 N 
ATOM     24  H   UNL     1       5.396   9.678   0.130  1.00  0.00     0.158 HD
ATOM     25  H   UNL     1       4.274  10.302   1.253  1.00  0.00     0.158 HD
ENDBRANCH  13  23
ENDBRANCH   5   8
ENDBRANCH   3   4
ENDBRANCH   2   3
ENDBRANCH   1   2
BRANCH   1  26
ATOM     26  C   UNL     1       1.774  14.373   1.535  1.00  0.00     0.116 C 
BRANCH  26  27
ATOM     27  N   UNL     1       2.518  15.389   0.820  1.00  0.00    -0.352 N 
ATOM     28  C   UNL     1       3.408  16.346   1.284  1.00  0.00     0.251 C 
ATOM     29  H   UNL     1       2.367  15.402  -0.153  1.00  0.00     0.163 HD
ATOM     30  O   UNL     1       3.760  17.211   0.494  1.00  0.00    -0.269 OA
BRANCH  28  31
ATOM     31  C   UNL     1       4.022  16.267   2.646  1.00  0.00     0.039 A 
ATOM     32  C   UNL     1       5.259  16.907   2.857  1.00  0.00     0.014 A 
ATOM     33  C   UNL     1       3.510  15.466   3.660  1.00  0.00     0.014 A 
ATOM     34  C   UNL     1       6.058  16.565   3.952  1.00  0.00     0.010 A 
ATOM     35  C   UNL     1       4.319  15.064   4.694  1.00  0.00     0.010 A 
ATOM     36  C   UNL     1       5.618  15.561   4.800  1.00  0.00    -0.014 A 
BRANCH  36  37
ATOM     37  C   UNL     1       6.409  14.860   5.796  1.00  0.00     0.031 A 
ATOM     38  C   UNL     1       6.206  15.140   7.228  1.00  0.00     0.074 A 
ATOM     39  C   UNL     1       6.945  13.688   5.383  1.00  0.00     0.049 A 
ATOM     40  N   UNL     1       6.813  14.506   8.170  1.00  0.00    -0.248 NA
ATOM     41  C   UNL     1       5.302  16.180   7.719  1.00  0.00     0.031 C 
ATOM     42  C   UNL     1       7.210  12.492   6.173  1.00  0.00     0.029 A 
ATOM     43  N   UNL     1       7.572  13.430   4.159  1.00  0.00    -0.354 N 
ATOM     44  C   UNL     1       6.151  14.797   9.338  1.00  0.00     0.074 A 
ATOM     45  C   UNL     1       5.330  15.941   9.035  1.00  0.00     0.031 C 
ATOM     46  C   UNL     1       8.160  11.773   5.555  1.00  0.00     0.029 A 
ATOM     47  C   UNL     1       8.662  12.600   4.471  1.00  0.00     0.049 A 
ATOM     48  H   UNL     1       7.307  13.760   3.270  1.00  0.00     0.167 HD
ATOM     49  C   UNL     1       6.266  13.931  10.380  1.00  0.00     0.034 A 
ATOM     50  C   UNL     1       9.961  12.996   4.327  1.00  0.00     0.034 A 
ATOM     51  C   UNL     1       7.362  12.982  10.152  1.00  0.00     0.049 A 
ATOM     52  C   UNL     1      10.754  12.942   5.623  1.00  0.00     0.074 A 
ATOM     53  C   UNL     1       7.425  11.639   9.829  1.00  0.00     0.029 A 
ATOM     54  N   UNL     1       8.651  13.484   9.996  1.00  0.00    -0.354 N 
ATOM     55  N   UNL     1      10.235  12.725   6.801  1.00  0.00    -0.248 NA
ATOM     56  C   UNL     1      12.199  13.134   5.694  1.00  0.00     0.031 C 
ATOM     57  C   UNL     1       8.741  11.371   9.347  1.00  0.00     0.029 A 
ATOM     58  C   UNL     1       9.488  12.536   9.432  1.00  0.00     0.049 A 
ATOM     59  H   UNL     1       8.931  14.392  10.253  1.00  0.00     0.167 HD
ATOM     60  C   UNL     1      11.190  12.866   7.775  1.00  0.00     0.074 A 
ATOM     61  C   UNL     1      12.419  13.037   7.018  1.00  0.00     0.031 C 
ATOM     62  C   UNL     1      10.870  12.890   9.109  1.00  0.00     0.034 A 
BRANCH  49  63
ATOM     63  C   UNL     1       5.313  13.829  11.555  1.00  0.00     0.023 A 
ATOM     64  C   UNL     1       5.676  12.959  12.607  1.00  0.00     0.012 A 
ATOM     65  C   UNL     1       4.036  14.436  11.662  1.00  0.00     0.148 A 
ATOM     66  C   UNL     1       4.833  12.709  13.698  1.00  0.00     0.002 A 
ATOM     67  C   UNL     1       3.229  14.249  12.789  1.00  0.00     0.091 A 
ATOM     68  F   UNL     1       3.525  15.116  10.631  1.00  0.00    -0.205 F 
ATOM     69  C   UNL     1       3.619  13.372  13.803  1.00  0.00     0.022 A 
BRANCH  67  70
ATOM     70  S   UNL     1       1.680  15.143  13.013  1.00  0.00     0.127 S 
ATOM     71  O   UNL     1       0.683  14.120  12.703  1.00  0.00    -0.237 OA
ATOM     72  O   UNL     1       1.734  15.529  14.424  1.00  0.00    -0.237 OA
ATOM     73  O   UNL     1       1.732  16.269  12.088  1.00  0.00    -0.744 OA
ENDBRANCH  67  70
ENDBRANCH  49  63
BRANCH  50  74
ATOM     74  C   UNL     1      10.162  13.970   3.211  1.00  0.00     0.023 A 
ATOM     75  C   UNL     1       9.896  13.490   1.905  1.00  0.00     0.012 A 
ATOM     76  C   UNL     1      10.166  15.360   3.434  1.00  0.00     0.148 A 
ATOM     77  C   UNL     1       9.506  14.359   0.884  1.00  0.00     0.002 A 
ATOM     78  C   UNL     1       9.779  16.222   2.406  1.00  0.00     0.091 A 
ATOM     79  F   UNL     1      10.451  15.809   4.662  1.00  0.00    -0.205 F 
ATOM     80  C   UNL     1       9.413  15.720   1.146  1.00  0.00     0.022 A 
BRANCH  78  81
ATOM     81  S   UNL     1       9.576  17.992   2.664  1.00  0.00     0.127 S 
ATOM     82  O   UNL     1      10.811  18.515   2.087  1.00  0.00    -0.237 OA
ATOM     83  O   UNL     1       8.365  18.282   1.897  1.00  0.00    -0.237 OA
ATOM     84  O   UNL     1       9.420  18.148   4.102  1.00  0.00    -0.744 OA
ENDBRANCH  78  81
ENDBRANCH  50  74
BRANCH  62  85
ATOM     85  C   UNL     1      11.805  13.294  10.246  1.00  0.00     0.023 A 
ATOM     86  C   UNL     1      13.002  14.005  10.031  1.00  0.00     0.012 A 
ATOM     87  C   UNL     1      11.430  13.099  11.604  1.00  0.00     0.148 A 
ATOM     88  C   UNL     1      13.809  14.448  11.087  1.00  0.00     0.002 A 
ATOM     89  C   UNL     1      12.177  13.644  12.649  1.00  0.00     0.091 A 
ATOM     90  F   UNL     1      10.350  12.364  11.905  1.00  0.00    -0.205 F 
ATOM     91  C   UNL     1      13.385  14.291  12.397  1.00  0.00     0.022 A 
BRANCH  89  92
ATOM     92  S   UNL     1      11.524  13.675  14.326  1.00  0.00     0.127 S 
ATOM     93  O   UNL     1      12.037  12.424  14.879  1.00  0.00    -0.237 OA
ATOM     94  O   UNL     1      12.136  14.883  14.885  1.00  0.00    -0.237 OA
ATOM     95  O   UNL     1      10.079  13.766  14.161  1.00  0.00    -0.744 OA
ENDBRANCH  89  92
ENDBRANCH  62  85
ENDBRANCH  36  37
ENDBRANCH  28  31
ENDBRANCH  26  27
ENDBRANCH   1  26
TORSDOF 17
