REMARK SMILES O=C(NCCCCNC(=O)C1CCN(S(=O)(=O)c2ccc3nc(O)sc3c2)CC1)c1ccc(-c2c3nc(c(-c4cccc(S(=O)(=O)[O-])c4F)c4ccc([nH]4)c(-c4cccc(S(=O)(=O)[O-])c4F)c4nc(c(-c5cccc(S(=O)(=O)[O-])c5F)c5ccc2[nH]5)C=C4)C=C3)cc1
REMARK SMILES IDX 5 1 4 2 3 3 1 4 2 5 30 7 31 8 92 9 32 10 91 11 33 12 34 13
REMARK SMILES IDX 35 14 85 15 36 16 90 17 84 18 86 19 37 20 89 21 83 22 82 23
REMARK SMILES IDX 38 25 70 26 50 27 69 28 51 29 54 30 68 31 87 32 52 33 53 34
REMARK SMILES IDX 67 36 88 37 55 38 39 39 40 40 48 41 41 42 43 43 49 44 42 45
REMARK SMILES IDX 44 46 45 47 46 48 47 49 71 50 72 51 80 52 73 53 75 54 81 55
REMARK SMILES IDX 74 56 76 57 77 58 78 59 79 60 56 61 57 62 65 63 58 64 60 65
REMARK SMILES IDX 66 66 59 67 61 68 62 69 63 70 64 71 6 72 7 73 8 74 9 75
REMARK SMILES IDX 10 77 11 78 12 79 29 80 13 81 28 82 14 83 15 84 16 85 17 86
REMARK SMILES IDX 18 87 19 88 27 89 20 90 26 91 21 92 25 93 22 94 23 95 24 96
REMARK H PARENT 3 6 86 24 54 35 8 76 24 97
REMARK Flexibility Score: inf
ROOT
ATOM      1  C   UNL     1       5.004  -2.075  -0.533  1.00  0.00     0.023 C 
ENDROOT
BRANCH   1   2
ATOM      2  C   UNL     1       4.471  -0.639  -0.659  1.00  0.00     0.116 C 
BRANCH   2   3
ATOM      3  N   UNL     1       3.025  -0.626  -0.534  1.00  0.00    -0.352 N 
ATOM      4  O   UNL     1       1.054  -0.270   0.415  1.00  0.00    -0.269 OA
ATOM      5  C   UNL     1       2.182   0.172   0.186  1.00  0.00     0.251 C 
ATOM      6  H   UNL     1       2.569  -1.318  -1.065  1.00  0.00     0.163 HD
BRANCH   5   7
ATOM      7  C   UNL     1       2.542   1.527   0.668  1.00  0.00     0.039 A 
ATOM      8  C   UNL     1       1.823   2.011   1.771  1.00  0.00     0.014 A 
ATOM      9  C   UNL     1       3.411   2.384  -0.015  1.00  0.00     0.014 A 
ATOM     10  C   UNL     1       1.962   3.334   2.182  1.00  0.00     0.010 A 
ATOM     11  C   UNL     1       3.559   3.712   0.407  1.00  0.00     0.010 A 
ATOM     12  C   UNL     1       2.832   4.193   1.503  1.00  0.00    -0.014 A 
BRANCH  12  13
ATOM     13  C   UNL     1       3.002   5.548   2.064  1.00  0.00     0.031 A 
ATOM     14  C   UNL     1       4.432   5.939   2.301  1.00  0.00     0.074 A 
ATOM     15  C   UNL     1       2.082   6.509   1.823  1.00  0.00     0.049 A 
ATOM     16  N   UNL     1       5.228   6.367   1.365  1.00  0.00    -0.248 NA
ATOM     17  C   UNL     1       5.126   5.602   3.546  1.00  0.00     0.031 C 
ATOM     18  C   UNL     1       1.447   6.725   0.516  1.00  0.00     0.029 A 
ATOM     19  N   UNL     1       1.706   7.607   2.569  1.00  0.00    -0.354 N 
ATOM     20  C   UNL     1       6.523   6.326   1.862  1.00  0.00     0.074 A 
ATOM     21  C   UNL     1       6.407   5.840   3.220  1.00  0.00     0.031 C 
ATOM     22  C   UNL     1       0.913   7.964   0.493  1.00  0.00     0.029 A 
ATOM     23  C   UNL     1       1.062   8.585   1.809  1.00  0.00     0.049 A 
ATOM     24  H   UNL     1       1.873   7.691   3.535  1.00  0.00     0.167 HD
ATOM     25  C   UNL     1       7.609   6.712   1.135  1.00  0.00     0.034 A 
ATOM     26  C   UNL     1       1.154   9.925   2.057  1.00  0.00     0.034 A 
ATOM     27  C   UNL     1       7.301   7.239  -0.165  1.00  0.00     0.049 A 
ATOM     28  C   UNL     1       2.504  10.213   1.432  1.00  0.00     0.074 A 
ATOM     29  C   UNL     1       7.341   6.824  -1.477  1.00  0.00     0.029 A 
ATOM     30  N   UNL     1       6.753   8.498  -0.220  1.00  0.00    -0.354 N 
ATOM     31  N   UNL     1       2.767  10.260   0.150  1.00  0.00    -0.248 NA
ATOM     32  C   UNL     1       3.673   9.998   2.286  1.00  0.00     0.031 C 
ATOM     33  C   UNL     1       6.388   7.646  -2.164  1.00  0.00     0.029 A 
ATOM     34  C   UNL     1       5.822   8.508  -1.226  1.00  0.00     0.049 A 
ATOM     35  H   UNL     1       6.987   9.259   0.360  1.00  0.00     0.167 HD
ATOM     36  C   UNL     1       4.060   9.739   0.022  1.00  0.00     0.074 A 
ATOM     37  C   UNL     1       4.559   9.611   1.378  1.00  0.00     0.031 C 
ATOM     38  C   UNL     1       4.595   9.274  -1.148  1.00  0.00     0.034 A 
BRANCH  25  39
ATOM     39  C   UNL     1       8.987   6.870   1.668  1.00  0.00     0.023 A 
ATOM     40  C   UNL     1       9.327   8.160   2.124  1.00  0.00     0.012 A 
ATOM     41  C   UNL     1       9.999   5.902   1.528  1.00  0.00     0.148 A 
ATOM     42  C   UNL     1      10.649   8.505   2.392  1.00  0.00     0.002 A 
ATOM     43  C   UNL     1      11.322   6.251   1.807  1.00  0.00     0.091 A 
ATOM     44  F   UNL     1       9.664   4.681   1.086  1.00  0.00    -0.205 F 
ATOM     45  C   UNL     1      11.646   7.554   2.226  1.00  0.00     0.022 A 
BRANCH  43  46
ATOM     46  S   UNL     1      12.713   5.126   1.614  1.00  0.00     0.127 S 
ATOM     47  O   UNL     1      13.489   5.778   0.560  1.00  0.00    -0.237 OA
ATOM     48  O   UNL     1      13.327   5.176   2.941  1.00  0.00    -0.237 OA
ATOM     49  O   UNL     1      12.139   3.836   1.257  1.00  0.00    -0.744 OA
ENDBRANCH  43  46
ENDBRANCH  25  39
BRANCH  26  50
ATOM     50  C   UNL     1       0.761  10.346   3.451  1.00  0.00     0.023 A 
ATOM     51  C   UNL     1      -0.442   9.793   3.958  1.00  0.00     0.012 A 
ATOM     52  C   UNL     1       1.479  11.211   4.300  1.00  0.00     0.148 A 
ATOM     53  C   UNL     1      -0.831   9.957   5.288  1.00  0.00     0.002 A 
ATOM     54  C   UNL     1       1.109  11.344   5.641  1.00  0.00     0.091 A 
ATOM     55  F   UNL     1       2.526  11.884   3.809  1.00  0.00    -0.205 F 
ATOM     56  C   UNL     1      -0.033  10.703   6.141  1.00  0.00     0.022 A 
BRANCH  54  57
ATOM     57  S   UNL     1       2.083  12.270   6.838  1.00  0.00     0.127 S 
ATOM     58  O   UNL     1       1.064  13.095   7.488  1.00  0.00    -0.237 OA
ATOM     59  O   UNL     1       2.622  11.193   7.666  1.00  0.00    -0.237 OA
ATOM     60  O   UNL     1       3.065  13.010   6.059  1.00  0.00    -0.744 OA
ENDBRANCH  54  57
ENDBRANCH  26  50
BRANCH  38  61
ATOM     61  C   UNL     1       3.775   9.455  -2.391  1.00  0.00     0.023 A 
ATOM     62  C   UNL     1       3.620  10.757  -2.900  1.00  0.00     0.012 A 
ATOM     63  C   UNL     1       3.249   8.364  -3.116  1.00  0.00     0.148 A 
ATOM     64  C   UNL     1       2.985  10.973  -4.122  1.00  0.00     0.002 A 
ATOM     65  C   UNL     1       2.638   8.583  -4.347  1.00  0.00     0.091 A 
ATOM     66  F   UNL     1       3.375   7.128  -2.609  1.00  0.00    -0.205 F 
ATOM     67  C   UNL     1       2.509   9.887  -4.852  1.00  0.00     0.022 A 
BRANCH  65  68
ATOM     68  S   UNL     1       2.027   7.256  -5.396  1.00  0.00     0.127 S 
ATOM     69  O   UNL     1       0.621   7.624  -5.567  1.00  0.00    -0.237 OA
ATOM     70  O   UNL     1       2.846   7.417  -6.598  1.00  0.00    -0.237 OA
ATOM     71  O   UNL     1       2.250   6.016  -4.665  1.00  0.00    -0.744 OA
ENDBRANCH  65  68
ENDBRANCH  38  61
ENDBRANCH  12  13
ENDBRANCH   5   7
ENDBRANCH   2   3
ENDBRANCH   1   2
BRANCH   1  72
ATOM     72  C   UNL     1       4.502  -3.067  -1.600  1.00  0.00     0.023 C 
BRANCH  72  73
ATOM     73  C   UNL     1       4.943  -2.759  -3.030  1.00  0.00     0.116 C 
BRANCH  73  74
ATOM     74  N   UNL     1       6.370  -2.956  -3.203  1.00  0.00    -0.356 N 
ATOM     75  C   UNL     1       7.049  -3.797  -4.031  1.00  0.00     0.223 C 
ATOM     76  H   UNL     1       6.939  -2.391  -2.631  1.00  0.00     0.163 HD
ATOM     77  O   UNL     1       8.278  -3.730  -4.045  1.00  0.00    -0.275 OA
BRANCH  75  78
ATOM     78  C   UNL     1       6.287  -4.801  -4.895  1.00  0.00     0.081 C 
ATOM     79  C   UNL     1       5.734  -5.963  -4.071  1.00  0.00     0.030 C 
ATOM     80  C   UNL     1       7.164  -5.357  -6.022  1.00  0.00     0.030 C 
ATOM     81  C   UNL     1       6.843  -6.887  -3.575  1.00  0.00     0.103 C 
ATOM     82  C   UNL     1       8.222  -6.349  -5.541  1.00  0.00     0.103 C 
ATOM     83  N   UNL     1       7.613  -7.449  -4.731  1.00  0.00    -0.198 NA
BRANCH  83  84
ATOM     84  S   UNL     1       8.748  -8.635  -4.177  1.00  0.00     0.243 S 
ATOM     85  O   UNL     1       9.882  -7.955  -3.596  1.00  0.00    -0.207 OA
ATOM     86  O   UNL     1       8.005  -9.621  -3.411  1.00  0.00    -0.207 OA
BRANCH  84  87
ATOM     87  C   UNL     1       9.321  -9.457  -5.654  1.00  0.00     0.084 A 
ATOM     88  C   UNL     1      10.280  -8.838  -6.457  1.00  0.00     0.024 A 
ATOM     89  C   UNL     1       8.894 -10.767  -5.916  1.00  0.00     0.043 A 
ATOM     90  C   UNL     1      10.769  -9.484  -7.598  1.00  0.00     0.031 A 
ATOM     91  C   UNL     1       9.431 -11.418  -7.040  1.00  0.00     0.059 A 
ATOM     92  C   UNL     1      10.347 -10.795  -7.895  1.00  0.00     0.085 A 
ATOM     93  S   UNL     1       9.144 -13.022  -7.611  1.00  0.00    -0.077 S 
ATOM     94  N   UNL     1      10.771 -11.558  -8.972  1.00  0.00    -0.203 NA
ATOM     95  C   UNL     1      10.203 -12.730  -8.904  1.00  0.00     0.271 A 
BRANCH  95  96
ATOM     96  O   UNL     1      10.474 -13.626  -9.833  1.00  0.00    -0.486 OA
ATOM     97  H   UNL     1      11.067 -13.415 -10.528  1.00  0.00     0.296 HD
ENDBRANCH  95  96
ENDBRANCH  84  87
ENDBRANCH  83  84
ENDBRANCH  75  78
ENDBRANCH  73  74
ENDBRANCH  72  73
ENDBRANCH   1  72
TORSDOF 17
