REMARK SMILES O=C(NCCCCNC(=O)C1CC[NH+]([C@H]2CC(=O)N(c3ccc4c(c3)OCCO4)C2=O)CC1)c1ccc(-c2c3nc(c(-c4cccc(S(=O)(=O)[O-])c4F)c4ccc([nH]4)c(-c4cccc(S(=O)(=O)[O-])c4F)c4nc(c(-c5cccc(S(=O)(=O)[O-])c5F)c5ccc2[nH]5)C=C4)C=C3)cc1
REMARK SMILES IDX 5 1 4 2 3 3 1 4 2 5 34 7 35 8 96 9 36 10 95 11 37 12 38 13
REMARK SMILES IDX 39 14 89 15 40 16 94 17 88 18 90 19 41 20 93 21 87 22 86 23
REMARK SMILES IDX 42 25 74 26 54 27 73 28 55 29 58 30 72 31 91 32 56 33 57 34
REMARK SMILES IDX 71 36 92 37 59 38 43 39 44 40 52 41 45 42 47 43 53 44 46 45
REMARK SMILES IDX 48 46 49 47 50 48 51 49 75 50 76 51 84 52 77 53 79 54 85 55
REMARK SMILES IDX 78 56 80 57 81 58 82 59 83 60 60 61 61 62 69 63 62 64 64 65
REMARK SMILES IDX 70 66 63 67 65 68 66 69 67 70 68 71 6 72 7 73 8 74 9 75
REMARK SMILES IDX 10 77 11 78 12 79 33 80 13 81 32 82 14 83 15 85 16 86 30 87
REMARK SMILES IDX 17 88 19 89 31 90 18 91 20 92 21 93 25 94 22 95 24 96 23 97
REMARK SMILES IDX 26 98 29 99 27 100 28 101
REMARK H PARENT 3 6 90 24 58 35 8 76 14 84
REMARK Flexibility Score: inf
ROOT
ATOM      1  C   UNL     1       7.128  -7.776  -0.550  1.00  0.00     0.023 C 
ENDROOT
BRANCH   1   2
ATOM      2  C   UNL     1       7.682  -8.736   0.488  1.00  0.00     0.116 C 
BRANCH   2   3
ATOM      3  N   UNL     1       8.535  -8.085   1.472  1.00  0.00    -0.352 N 
ATOM      4  O   UNL     1       9.188  -7.459   3.542  1.00  0.00    -0.269 OA
ATOM      5  C   UNL     1       8.482  -8.178   2.845  1.00  0.00     0.251 C 
ATOM      6  H   UNL     1       9.241  -7.502   1.109  1.00  0.00     0.163 HD
BRANCH   5   7
ATOM      7  C   UNL     1       7.528  -9.130   3.450  1.00  0.00     0.039 A 
ATOM      8  C   UNL     1       7.428 -10.426   2.943  1.00  0.00     0.014 A 
ATOM      9  C   UNL     1       6.673  -8.697   4.464  1.00  0.00     0.014 A 
ATOM     10  C   UNL     1       6.352 -11.219   3.308  1.00  0.00     0.010 A 
ATOM     11  C   UNL     1       5.662  -9.548   4.918  1.00  0.00     0.010 A 
ATOM     12  C   UNL     1       5.464 -10.798   4.312  1.00  0.00    -0.014 A 
BRANCH  12  13
ATOM     13  C   UNL     1       4.384 -11.721   4.747  1.00  0.00     0.031 A 
ATOM     14  C   UNL     1       2.931 -11.353   4.621  1.00  0.00     0.074 A 
ATOM     15  C   UNL     1       4.738 -12.922   5.246  1.00  0.00     0.049 A 
ATOM     16  N   UNL     1       1.876 -12.070   4.918  1.00  0.00    -0.248 NA
ATOM     17  C   UNL     1       2.614 -10.011   4.110  1.00  0.00     0.031 C 
ATOM     18  C   UNL     1       6.119 -13.374   5.447  1.00  0.00     0.029 A 
ATOM     19  N   UNL     1       3.980 -13.983   5.665  1.00  0.00    -0.354 N 
ATOM     20  C   UNL     1       0.776 -11.254   4.678  1.00  0.00     0.074 A 
ATOM     21  C   UNL     1       1.292  -9.984   4.214  1.00  0.00     0.031 C 
ATOM     22  C   UNL     1       6.109 -14.633   5.904  1.00  0.00     0.029 A 
ATOM     23  C   UNL     1       4.728 -15.052   6.098  1.00  0.00     0.049 A 
ATOM     24  H   UNL     1       2.995 -13.980   5.656  1.00  0.00     0.167 HD
ATOM     25  C   UNL     1      -0.541 -11.542   4.823  1.00  0.00     0.034 A 
ATOM     26  C   UNL     1       4.349 -16.235   6.615  1.00  0.00     0.034 A 
ATOM     27  C   UNL     1      -1.044 -12.820   5.258  1.00  0.00     0.049 A 
ATOM     28  C   UNL     1       2.884 -16.526   6.754  1.00  0.00     0.074 A 
ATOM     29  C   UNL     1      -2.360 -13.234   5.369  1.00  0.00     0.029 A 
ATOM     30  N   UNL     1      -0.257 -13.886   5.669  1.00  0.00    -0.354 N 
ATOM     31  N   UNL     1       1.860 -15.787   6.403  1.00  0.00    -0.248 NA
ATOM     32  C   UNL     1       2.523 -17.824   7.336  1.00  0.00     0.031 C 
ATOM     33  C   UNL     1      -2.369 -14.535   5.885  1.00  0.00     0.029 A 
ATOM     34  C   UNL     1      -1.058 -14.949   6.053  1.00  0.00     0.049 A 
ATOM     35  H   UNL     1       0.728 -13.887   5.685  1.00  0.00     0.167 HD
ATOM     36  C   UNL     1       0.731 -16.544   6.690  1.00  0.00     0.074 A 
ATOM     37  C   UNL     1       1.202 -17.808   7.221  1.00  0.00     0.031 C 
ATOM     38  C   UNL     1      -0.576 -16.218   6.539  1.00  0.00     0.034 A 
BRANCH  25  39
ATOM     39  C   UNL     1      -1.540 -10.459   4.497  1.00  0.00     0.023 A 
ATOM     40  C   UNL     1      -1.750 -10.072   3.158  1.00  0.00     0.012 A 
ATOM     41  C   UNL     1      -2.317  -9.867   5.514  1.00  0.00     0.148 A 
ATOM     42  C   UNL     1      -2.686  -9.087   2.840  1.00  0.00     0.002 A 
ATOM     43  C   UNL     1      -3.281  -8.920   5.184  1.00  0.00     0.091 A 
ATOM     44  F   UNL     1      -2.095 -10.232   6.784  1.00  0.00    -0.205 F 
ATOM     45  C   UNL     1      -3.457  -8.519   3.850  1.00  0.00     0.022 A 
BRANCH  43  46
ATOM     46  S   UNL     1      -4.380  -8.191   6.404  1.00  0.00     0.127 S 
ATOM     47  O   UNL     1      -3.858  -6.828   6.494  1.00  0.00    -0.237 OA
ATOM     48  O   UNL     1      -5.684  -8.302   5.750  1.00  0.00    -0.237 OA
ATOM     49  O   UNL     1      -4.235  -8.998   7.608  1.00  0.00    -0.744 OA
ENDBRANCH  43  46
ENDBRANCH  25  39
BRANCH  26  50
ATOM     50  C   UNL     1       5.378 -17.241   6.997  1.00  0.00     0.023 A 
ATOM     51  C   UNL     1       5.490 -18.432   6.255  1.00  0.00     0.012 A 
ATOM     52  C   UNL     1       6.269 -17.006   8.062  1.00  0.00     0.148 A 
ATOM     53  C   UNL     1       6.452 -19.386   6.586  1.00  0.00     0.002 A 
ATOM     54  C   UNL     1       7.264 -17.932   8.348  1.00  0.00     0.091 A 
ATOM     55  F   UNL     1       6.139 -15.869   8.760  1.00  0.00    -0.205 F 
ATOM     56  C   UNL     1       7.346 -19.131   7.624  1.00  0.00     0.022 A 
BRANCH  54  57
ATOM     57  S   UNL     1       8.541 -17.625   9.572  1.00  0.00     0.127 S 
ATOM     58  O   UNL     1       8.190 -18.584  10.616  1.00  0.00    -0.237 OA
ATOM     59  O   UNL     1       9.758 -17.944   8.823  1.00  0.00    -0.237 OA
ATOM     60  O   UNL     1       8.411 -16.220   9.933  1.00  0.00    -0.744 OA
ENDBRANCH  54  57
ENDBRANCH  26  50
BRANCH  38  61
ATOM     61  C   UNL     1      -1.594 -17.263   6.912  1.00  0.00     0.023 A 
ATOM     62  C   UNL     1      -1.802 -17.598   8.265  1.00  0.00     0.012 A 
ATOM     63  C   UNL     1      -2.378 -17.882   5.918  1.00  0.00     0.148 A 
ATOM     64  C   UNL     1      -2.743 -18.563   8.619  1.00  0.00     0.002 A 
ATOM     65  C   UNL     1      -3.353 -18.802   6.284  1.00  0.00     0.091 A 
ATOM     66  F   UNL     1      -2.151 -17.566   4.635  1.00  0.00    -0.205 F 
ATOM     67  C   UNL     1      -3.526 -19.156   7.631  1.00  0.00     0.022 A 
BRANCH  65  68
ATOM     68  S   UNL     1      -4.473 -19.540   5.089  1.00  0.00     0.127 S 
ATOM     69  O   UNL     1      -3.973 -20.912   5.020  1.00  0.00    -0.237 OA
ATOM     70  O   UNL     1      -5.770 -19.395   5.751  1.00  0.00    -0.237 OA
ATOM     71  O   UNL     1      -4.328 -18.760   3.868  1.00  0.00    -0.744 OA
ENDBRANCH  65  68
ENDBRANCH  38  61
ENDBRANCH  12  13
ENDBRANCH   5   7
ENDBRANCH   2   3
ENDBRANCH   1   2
BRANCH   1  72
ATOM     72  C   UNL     1       8.190  -7.046  -1.363  1.00  0.00     0.023 C 
BRANCH  72  73
ATOM     73  C   UNL     1       9.251  -7.957  -1.977  1.00  0.00     0.116 C 
BRANCH  73  74
ATOM     74  N   UNL     1       8.698  -8.960  -2.877  1.00  0.00    -0.356 N 
ATOM     75  C   UNL     1       8.759  -9.027  -4.243  1.00  0.00     0.223 C 
ATOM     76  H   UNL     1       8.210  -9.695  -2.440  1.00  0.00     0.163 HD
ATOM     77  O   UNL     1       8.277  -9.995  -4.826  1.00  0.00    -0.275 OA
BRANCH  75  78
ATOM     78  C   UNL     1       9.372  -7.852  -4.981  1.00  0.00     0.089 C 
ATOM     79  C   UNL     1       8.333  -6.714  -5.021  1.00  0.00     0.075 C 
ATOM     80  C   UNL     1      10.015  -8.256  -6.318  1.00  0.00     0.075 C 
ATOM     81  C   UNL     1       7.676  -6.489  -6.377  1.00  0.00     0.263 C 
ATOM     82  C   UNL     1       9.193  -7.912  -7.549  1.00  0.00     0.263 C 
ATOM     83  N   UNL     1       8.594  -6.580  -7.508  1.00  0.00    -0.324 N 
ATOM     84  H   UNL     1       8.072  -6.511  -8.382  1.00  0.00     0.348 HD
BRANCH  83  85
ATOM     85  C   UNL     1       9.454  -5.396  -7.713  1.00  0.00     0.284 C 
ATOM     86  C   UNL     1      10.431  -4.975  -6.623  1.00  0.00     0.176 C 
ATOM     87  C   UNL     1      10.316  -5.478  -8.972  1.00  0.00     0.292 C 
ATOM     88  C   UNL     1      11.761  -4.916  -7.287  1.00  0.00     0.240 C 
ATOM     89  N   UNL     1      11.624  -5.240  -8.608  1.00  0.00    -0.245 N 
ATOM     90  O   UNL     1       9.894  -5.725 -10.094  1.00  0.00    -0.267 OA
ATOM     91  O   UNL     1      12.775  -4.575  -6.688  1.00  0.00    -0.274 OA
BRANCH  89  92
ATOM     92  C   UNL     1      12.717  -5.257  -9.497  1.00  0.00     0.056 A 
ATOM     93  C   UNL     1      12.639  -4.618 -10.740  1.00  0.00     0.031 A 
ATOM     94  C   UNL     1      13.911  -5.886  -9.119  1.00  0.00     0.077 A 
ATOM     95  C   UNL     1      13.758  -4.571 -11.575  1.00  0.00     0.052 A 
ATOM     96  C   UNL     1      15.006  -5.886  -9.977  1.00  0.00     0.163 A 
ATOM     97  C   UNL     1      14.932  -5.222 -11.204  1.00  0.00     0.161 A 
ATOM     98  O   UNL     1      16.111  -6.578  -9.556  1.00  0.00    -0.486 OA
ATOM     99  O   UNL     1      15.976  -5.169 -12.090  1.00  0.00    -0.486 OA
ATOM    100  C   UNL     1      17.265  -6.266 -10.341  1.00  0.00     0.271 C 
ATOM    101  C   UNL     1      16.925  -6.206 -11.822  1.00  0.00     0.271 C 
ENDBRANCH  89  92
ENDBRANCH  83  85
ENDBRANCH  75  78
ENDBRANCH  73  74
ENDBRANCH  72  73
ENDBRANCH   1  72
TORSDOF 16
