REMARK SMILES O=C(NCCCCNC(=O)c1ccc([C@H]2Nc3ccc(Cl)cc3[C@@H]3C=CC[C@@H]23)cc1)c1ccc(-c2c3nc(c(-c4cccc(S(=O)(=O)[O-])c4F)c4ccc([nH]4)c(-c4cccc(S(=O)(=O)[O-])c4F)c4nc(c(-c5cccc(S(=O)(=O)[O-])c5F)c5ccc2[nH]5)C=C4)C=C3)cc1
REMARK SMILES IDX 4 1 3 2 1 3 2 4 31 6 32 7 93 8 33 9 92 10 34 11 35 12 36 13
REMARK SMILES IDX 86 14 37 15 91 16 85 17 87 18 38 19 90 20 84 21 83 22 39 24
REMARK SMILES IDX 71 25 51 26 70 27 52 28 55 29 69 30 88 31 53 32 54 33 68 35
REMARK SMILES IDX 89 36 56 37 40 38 41 39 49 40 42 41 44 42 50 43 43 44 45 45
REMARK SMILES IDX 46 46 47 47 48 48 72 49 73 50 81 51 74 52 76 53 82 54 75 55
REMARK SMILES IDX 77 56 78 57 79 58 80 59 57 60 58 61 66 62 59 63 61 64 67 65
REMARK SMILES IDX 60 66 62 67 63 68 64 69 65 70 5 71 6 72 7 73 8 74 9 75 10 77
REMARK SMILES IDX 11 78 12 79 30 80 13 81 29 82 14 83 15 84 16 85 28 86 17 87
REMARK SMILES IDX 24 89 27 90 18 91 23 92 25 93 26 94 19 95 22 96 20 97 21 98
REMARK H PARENT 3 5 87 23 55 34 8 76 16 88
REMARK Flexibility Score: inf
ROOT
ATOM      1  C   UNL     1       4.585  -1.272   0.798  1.00  0.00     0.116 C 
ENDROOT
BRANCH   1   2
ATOM      2  N   UNL     1       3.147  -1.179   0.599  1.00  0.00    -0.352 N 
ATOM      3  O   UNL     1       1.156  -0.258   0.116  1.00  0.00    -0.269 OA
ATOM      4  C   UNL     1       2.384  -0.168   0.063  1.00  0.00     0.251 C 
ATOM      5  H   UNL     1       2.637  -1.967   0.896  1.00  0.00     0.163 HD
BRANCH   4   6
ATOM      6  C   UNL     1       3.010   1.032  -0.542  1.00  0.00     0.039 A 
ATOM      7  C   UNL     1       4.114   0.929  -1.392  1.00  0.00     0.014 A 
ATOM      8  C   UNL     1       2.458   2.289  -0.276  1.00  0.00     0.014 A 
ATOM      9  C   UNL     1       4.750   2.082  -1.853  1.00  0.00     0.010 A 
ATOM     10  C   UNL     1       3.053   3.441  -0.801  1.00  0.00     0.010 A 
ATOM     11  C   UNL     1       4.228   3.352  -1.563  1.00  0.00    -0.014 A 
BRANCH  11  12
ATOM     12  C   UNL     1       4.890   4.576  -2.087  1.00  0.00     0.031 A 
ATOM     13  C   UNL     1       5.471   5.601  -1.150  1.00  0.00     0.074 A 
ATOM     14  C   UNL     1       4.935   4.785  -3.417  1.00  0.00     0.049 A 
ATOM     15  N   UNL     1       6.032   6.751  -1.428  1.00  0.00    -0.248 NA
ATOM     16  C   UNL     1       5.405   5.302   0.289  1.00  0.00     0.031 C 
ATOM     17  C   UNL     1       4.382   3.884  -4.429  1.00  0.00     0.029 A 
ATOM     18  N   UNL     1       5.446   5.831  -4.146  1.00  0.00    -0.354 N 
ATOM     19  C   UNL     1       6.344   7.332  -0.205  1.00  0.00     0.074 A 
ATOM     20  C   UNL     1       5.903   6.410   0.820  1.00  0.00     0.031 C 
ATOM     21  C   UNL     1       4.577   4.415  -5.645  1.00  0.00     0.029 A 
ATOM     22  C   UNL     1       5.218   5.717  -5.498  1.00  0.00     0.049 A 
ATOM     23  H   UNL     1       5.927   6.588  -3.741  1.00  0.00     0.167 HD
ATOM     24  C   UNL     1       6.951   8.519   0.043  1.00  0.00     0.034 A 
ATOM     25  C   UNL     1       5.464   6.575  -6.506  1.00  0.00     0.034 A 
ATOM     26  C   UNL     1       7.404   9.424  -0.981  1.00  0.00     0.049 A 
ATOM     27  C   UNL     1       6.133   7.887  -6.208  1.00  0.00     0.074 A 
ATOM     28  C   UNL     1       8.087  10.618  -0.832  1.00  0.00     0.029 A 
ATOM     29  N   UNL     1       7.204   9.247  -2.342  1.00  0.00    -0.354 N 
ATOM     30  N   UNL     1       6.527   8.366  -5.053  1.00  0.00    -0.248 NA
ATOM     31  C   UNL     1       6.420   8.763  -7.352  1.00  0.00     0.031 C 
ATOM     32  C   UNL     1       8.264  11.183  -2.100  1.00  0.00     0.029 A 
ATOM     33  C   UNL     1       7.735  10.317  -3.043  1.00  0.00     0.049 A 
ATOM     34  H   UNL     1       6.750   8.474  -2.750  1.00  0.00     0.167 HD
ATOM     35  C   UNL     1       7.145   9.579  -5.334  1.00  0.00     0.074 A 
ATOM     36  C   UNL     1       7.079   9.758  -6.770  1.00  0.00     0.031 C 
ATOM     37  C   UNL     1       7.710  10.463  -4.477  1.00  0.00     0.034 A 
BRANCH  24  38
ATOM     38  C   UNL     1       7.171   8.907   1.485  1.00  0.00     0.023 A 
ATOM     39  C   UNL     1       8.120   8.213   2.264  1.00  0.00     0.012 A 
ATOM     40  C   UNL     1       6.471   9.989   2.056  1.00  0.00     0.148 A 
ATOM     41  C   UNL     1       8.334   8.558   3.599  1.00  0.00     0.002 A 
ATOM     42  C   UNL     1       6.725  10.357   3.373  1.00  0.00     0.091 A 
ATOM     43  F   UNL     1       5.561  10.629   1.309  1.00  0.00    -0.205 F 
ATOM     44  C   UNL     1       7.644   9.634   4.149  1.00  0.00     0.022 A 
BRANCH  42  45
ATOM     45  S   UNL     1       5.947  11.781   4.145  1.00  0.00     0.127 S 
ATOM     46  O   UNL     1       4.998  11.142   5.054  1.00  0.00    -0.237 OA
ATOM     47  O   UNL     1       7.080  12.431   4.806  1.00  0.00    -0.237 OA
ATOM     48  O   UNL     1       5.357  12.552   3.060  1.00  0.00    -0.744 OA
ENDBRANCH  42  45
ENDBRANCH  24  38
BRANCH  25  49
ATOM     49  C   UNL     1       5.095   6.193  -7.898  1.00  0.00     0.023 A 
ATOM     50  C   UNL     1       6.107   5.885  -8.826  1.00  0.00     0.012 A 
ATOM     51  C   UNL     1       3.745   6.072  -8.283  1.00  0.00     0.148 A 
ATOM     52  C   UNL     1       5.781   5.484 -10.122  1.00  0.00     0.002 A 
ATOM     53  C   UNL     1       3.428   5.616  -9.555  1.00  0.00     0.091 A 
ATOM     54  F   UNL     1       2.800   6.376  -7.382  1.00  0.00    -0.205 F 
ATOM     55  C   UNL     1       4.444   5.337 -10.483  1.00  0.00     0.022 A 
BRANCH  53  56
ATOM     56  S   UNL     1       1.741   5.266 -10.064  1.00  0.00     0.127 S 
ATOM     57  O   UNL     1       1.531   6.264 -11.109  1.00  0.00    -0.237 OA
ATOM     58  O   UNL     1       1.855   3.887 -10.542  1.00  0.00    -0.237 OA
ATOM     59  O   UNL     1       0.924   5.425  -8.869  1.00  0.00    -0.744 OA
ENDBRANCH  53  56
ENDBRANCH  25  49
BRANCH  37  60
ATOM     60  C   UNL     1       8.366  11.688  -5.060  1.00  0.00     0.023 A 
ATOM     61  C   UNL     1       7.580  12.733  -5.585  1.00  0.00     0.012 A 
ATOM     62  C   UNL     1       9.766  11.838  -5.002  1.00  0.00     0.148 A 
ATOM     63  C   UNL     1       8.181  13.897  -6.066  1.00  0.00     0.002 A 
ATOM     64  C   UNL     1      10.353  13.020  -5.433  1.00  0.00     0.091 A 
ATOM     65  F   UNL     1      10.496  10.822  -4.517  1.00  0.00    -0.205 F 
ATOM     66  C   UNL     1       9.564  14.046  -5.977  1.00  0.00     0.022 A 
BRANCH  64  67
ATOM     67  S   UNL     1      12.112  13.341  -5.264  1.00  0.00     0.127 S 
ATOM     68  O   UNL     1      12.554  13.322  -6.657  1.00  0.00    -0.237 OA
ATOM     69  O   UNL     1      12.125  14.664  -4.638  1.00  0.00    -0.237 OA
ATOM     70  O   UNL     1      12.640  12.270  -4.429  1.00  0.00    -0.744 OA
ENDBRANCH  64  67
ENDBRANCH  37  60
ENDBRANCH  11  12
ENDBRANCH   4   6
ENDBRANCH   1   2
BRANCH   1  71
ATOM     71  C   UNL     1       4.980  -1.487   2.257  1.00  0.00     0.023 C 
BRANCH  71  72
ATOM     72  C   UNL     1       4.482  -2.777   2.917  1.00  0.00     0.023 C 
BRANCH  72  73
ATOM     73  C   UNL     1       4.877  -4.099   2.245  1.00  0.00     0.116 C 
BRANCH  73  74
ATOM     74  N   UNL     1       6.317  -4.305   2.165  1.00  0.00    -0.352 N 
ATOM     75  C   UNL     1       7.119  -5.376   2.491  1.00  0.00     0.251 C 
ATOM     76  H   UNL     1       6.811  -3.531   1.810  1.00  0.00     0.163 HD
ATOM     77  O   UNL     1       8.339  -5.243   2.404  1.00  0.00    -0.269 OA
BRANCH  75  78
ATOM     78  C   UNL     1       6.579  -6.665   2.997  1.00  0.00     0.039 A 
ATOM     79  C   UNL     1       7.266  -7.306   4.038  1.00  0.00     0.014 A 
ATOM     80  C   UNL     1       5.438  -7.271   2.476  1.00  0.00     0.014 A 
ATOM     81  C   UNL     1       6.706  -8.413   4.690  1.00  0.00     0.006 A 
ATOM     82  C   UNL     1       4.875  -8.374   3.133  1.00  0.00     0.006 A 
ATOM     83  C   UNL     1       5.426  -8.858   4.335  1.00  0.00    -0.025 A 
BRANCH  83  84
ATOM     84  C   UNL     1       4.488  -9.545   5.339  1.00  0.00     0.114 C 
ATOM     85  N   UNL     1       5.179 -10.378   6.358  1.00  0.00    -0.378 N 
ATOM     86  C   UNL     1       3.640  -8.492   6.091  1.00  0.00     0.031 C 
ATOM     87  C   UNL     1       5.072 -10.095   7.728  1.00  0.00     0.038 A 
ATOM     88  H   UNL     1       5.723 -11.145   6.065  1.00  0.00     0.161 HD
ATOM     89  C   UNL     1       4.586  -7.774   7.072  1.00  0.00     0.049 C 
ATOM     90  C   UNL     1       2.818  -7.405   5.402  1.00  0.00     0.034 C 
ATOM     91  C   UNL     1       5.135 -11.110   8.685  1.00  0.00     0.027 A 
ATOM     92  C   UNL     1       4.761  -8.778   8.169  1.00  0.00    -0.016 A 
ATOM     93  C   UNL     1       3.949  -6.444   7.244  1.00  0.00    -0.023 C 
ATOM     94  C   UNL     1       3.044  -6.214   6.284  1.00  0.00    -0.030 C 
ATOM     95  C   UNL     1       4.901 -10.824  10.039  1.00  0.00     0.022 A 
ATOM     96  C   UNL     1       4.577  -8.484   9.522  1.00  0.00     0.027 A 
ATOM     97  C   UNL     1       4.635  -9.517  10.450  1.00  0.00     0.041 A 
ATOM     98  Cl  UNL     1       4.332  -9.182  12.111  1.00  0.00    -0.084 Cl
ENDBRANCH  83  84
ENDBRANCH  75  78
ENDBRANCH  73  74
ENDBRANCH  72  73
ENDBRANCH  71  72
ENDBRANCH   1  71
TORSDOF 15
