REMARK SMILES O=C(NCCCCNC(=O)c1ccc(-c2c3nc(c(-c4cccc(S(=O)(=O)[O-])c4F)c4ccc([nH]4)c(-c4cccc(S(=O)(=O)[O-])c4F)c4nc(c(-c5cccc(S(=O)(=O)[O-])c5F)c5ccc2[nH]5)C=C4)C=C3)cc1)C1=Cc2c(Cl)ccc(Cl)c2O[C@@H]1C(F)(F)F
REMARK SMILES IDX 6 1 5 2 4 3 3 4 1 5 2 6 74 8 75 9 85 10 76 11 84 12 77 13
REMARK SMILES IDX 83 14 78 15 79 16 81 17 80 18 82 19 86 20 87 21 88 22 89 23
REMARK SMILES IDX 7 24 8 25 9 26 10 28 11 29 12 30 73 31 13 32 72 33 14 34
REMARK SMILES IDX 15 35 16 36 66 37 17 38 71 39 65 40 67 41 18 42 70 43 64 44
REMARK SMILES IDX 63 45 19 47 51 48 31 49 50 50 32 51 35 52 49 53 68 54 33 55
REMARK SMILES IDX 34 56 48 58 69 59 36 60 20 61 21 62 29 63 22 64 24 65 30 66
REMARK SMILES IDX 23 67 25 68 26 69 27 70 28 71 52 72 53 73 61 74 54 75 56 76
REMARK SMILES IDX 62 77 55 78 57 79 58 80 59 81 60 82 37 83 38 84 46 85 39 86
REMARK SMILES IDX 41 87 47 88 40 89 42 90 43 91 44 92 45 93
REMARK H PARENT 3 7 8 27 67 46 35 57
REMARK Flexibility Score: inf
ROOT
ATOM      1  C   UNL     1       3.920   1.931  -3.967  1.00  0.00     0.023 C 
ENDROOT
BRANCH   1   2
ATOM      2  C   UNL     1       4.112   0.625  -3.195  1.00  0.00     0.023 C 
BRANCH   2   3
ATOM      3  C   UNL     1       3.631   0.654  -1.742  1.00  0.00     0.116 C 
BRANCH   3   4
ATOM      4  N   UNL     1       2.529  -0.268  -1.462  1.00  0.00    -0.352 N 
ATOM      5  O   UNL     1       1.125  -1.499  -0.183  1.00  0.00    -0.270 OA
ATOM      6  C   UNL     1       2.240  -1.012  -0.340  1.00  0.00     0.251 C 
ATOM      7  H   UNL     1       1.887  -0.375  -2.200  1.00  0.00     0.163 HD
BRANCH   6   8
ATOM      8  C   UNL     1       3.235  -1.059   0.756  1.00  0.00     0.067 C 
ATOM      9  C   UNL     1       4.478  -1.539   0.621  1.00  0.00     0.027 C 
ATOM     10  C   UNL     1       2.924  -0.247   1.971  1.00  0.00     0.314 C 
ATOM     11  C   UNL     1       5.519  -0.529   0.898  1.00  0.00     0.037 A 
ATOM     12  O   UNL     1       3.897   0.803   2.167  1.00  0.00    -0.474 OA
ATOM     13  C   UNL     1       6.769  -0.554   0.242  1.00  0.00     0.052 A 
ATOM     14  C   UNL     1       5.140   0.641   1.594  1.00  0.00     0.148 A 
ATOM     15  Cl  UNL     1       7.278  -1.895  -0.728  1.00  0.00    -0.084 Cl
ATOM     16  C   UNL     1       7.599   0.573   0.252  1.00  0.00     0.023 A 
ATOM     17  C   UNL     1       5.992   1.755   1.615  1.00  0.00     0.083 A 
ATOM     18  C   UNL     1       7.206   1.727   0.930  1.00  0.00     0.026 A 
ATOM     19  Cl  UNL     1       5.527   3.220   2.401  1.00  0.00    -0.080 Cl
BRANCH  10  20
ATOM     20  C   UNL     1       2.836  -1.156   3.220  1.00  0.00     0.429 C 
ATOM     21  F   UNL     1       2.474  -0.454   4.319  1.00  0.00    -0.167 F 
ATOM     22  F   UNL     1       1.925  -2.148   3.071  1.00  0.00    -0.167 F 
ATOM     23  F   UNL     1       4.021  -1.753   3.509  1.00  0.00    -0.167 F 
ENDBRANCH  10  20
ENDBRANCH   6   8
ENDBRANCH   3   4
ENDBRANCH   2   3
ENDBRANCH   1   2
BRANCH   1  24
ATOM     24  C   UNL     1       4.503   3.200  -3.345  1.00  0.00     0.116 C 
BRANCH  24  25
ATOM     25  N   UNL     1       5.936   3.158  -3.083  1.00  0.00    -0.352 N 
ATOM     26  C   UNL     1       6.892   4.139  -3.313  1.00  0.00     0.251 C 
ATOM     27  H   UNL     1       6.271   2.320  -2.689  1.00  0.00     0.163 HD
ATOM     28  O   UNL     1       8.051   3.954  -3.032  1.00  0.00    -0.269 OA
BRANCH  26  29
ATOM     29  C   UNL     1       6.461   5.399  -3.976  1.00  0.00     0.039 A 
ATOM     30  C   UNL     1       7.049   5.743  -5.196  1.00  0.00     0.014 A 
ATOM     31  C   UNL     1       5.397   6.145  -3.465  1.00  0.00     0.014 A 
ATOM     32  C   UNL     1       6.472   6.750  -5.975  1.00  0.00     0.010 A 
ATOM     33  C   UNL     1       4.783   7.098  -4.274  1.00  0.00     0.010 A 
ATOM     34  C   UNL     1       5.287   7.377  -5.555  1.00  0.00    -0.014 A 
BRANCH  34  35
ATOM     35  C   UNL     1       4.483   8.213  -6.487  1.00  0.00     0.031 A 
ATOM     36  C   UNL     1       4.201   9.657  -6.188  1.00  0.00     0.074 A 
ATOM     37  C   UNL     1       3.877   7.620  -7.537  1.00  0.00     0.049 A 
ATOM     38  N   UNL     1       3.450  10.501  -6.847  1.00  0.00    -0.248 NA
ATOM     39  C   UNL     1       4.819  10.218  -4.978  1.00  0.00     0.031 C 
ATOM     40  C   UNL     1       3.974   6.197  -7.873  1.00  0.00     0.029 A 
ATOM     41  N   UNL     1       3.026   8.126  -8.489  1.00  0.00    -0.354 N 
ATOM     42  C   UNL     1       3.479  11.683  -6.120  1.00  0.00     0.074 A 
ATOM     43  C   UNL     1       4.298  11.437  -4.951  1.00  0.00     0.031 C 
ATOM     44  C   UNL     1       3.205   5.943  -8.943  1.00  0.00     0.029 A 
ATOM     45  C   UNL     1       2.540   7.174  -9.356  1.00  0.00     0.049 A 
ATOM     46  H   UNL     1       2.785   9.079  -8.545  1.00  0.00     0.167 HD
ATOM     47  C   UNL     1       2.905  12.875  -6.413  1.00  0.00     0.034 A 
ATOM     48  C   UNL     1       1.649   7.271 -10.363  1.00  0.00     0.034 A 
ATOM     49  C   UNL     1       2.126  13.131  -7.595  1.00  0.00     0.049 A 
ATOM     50  C   UNL     1       1.062   8.613 -10.699  1.00  0.00     0.074 A 
ATOM     51  C   UNL     1       1.611  14.335  -8.041  1.00  0.00     0.029 A 
ATOM     52  N   UNL     1       1.736  12.166  -8.511  1.00  0.00    -0.354 N 
ATOM     53  N   UNL     1       1.269   9.769 -10.117  1.00  0.00    -0.248 NA
ATOM     54  C   UNL     1       0.146   8.673 -11.848  1.00  0.00     0.031 C 
ATOM     55  C   UNL     1       0.896  14.095  -9.221  1.00  0.00     0.029 A 
ATOM     56  C   UNL     1       0.971  12.743  -9.511  1.00  0.00     0.049 A 
ATOM     57  H   UNL     1       1.968  11.211  -8.458  1.00  0.00     0.167 HD
ATOM     58  C   UNL     1       0.522  10.696 -10.834  1.00  0.00     0.074 A 
ATOM     59  C   UNL     1      -0.119   9.972 -11.913  1.00  0.00     0.031 C 
ATOM     60  C   UNL     1       0.366  12.023 -10.604  1.00  0.00     0.034 A 
BRANCH  47  61
ATOM     61  C   UNL     1       3.169  14.016  -5.468  1.00  0.00     0.023 A 
ATOM     62  C   UNL     1       4.443  14.618  -5.460  1.00  0.00     0.012 A 
ATOM     63  C   UNL     1       2.164  14.513  -4.618  1.00  0.00     0.148 A 
ATOM     64  C   UNL     1       4.726  15.674  -4.595  1.00  0.00     0.002 A 
ATOM     65  C   UNL     1       2.442  15.591  -3.783  1.00  0.00     0.091 A 
ATOM     66  F   UNL     1       0.965  13.911  -4.616  1.00  0.00    -0.205 F 
ATOM     67  C   UNL     1       3.724  16.166  -3.764  1.00  0.00     0.022 A 
BRANCH  65  68
ATOM     68  S   UNL     1       1.188  16.326  -2.728  1.00  0.00     0.127 S 
ATOM     69  O   UNL     1       1.468  15.685  -1.444  1.00  0.00    -0.237 OA
ATOM     70  O   UNL     1       1.523  17.750  -2.782  1.00  0.00    -0.237 OA
ATOM     71  O   UNL     1      -0.087  15.987  -3.345  1.00  0.00    -0.744 OA
ENDBRANCH  65  68
ENDBRANCH  47  61
BRANCH  48  72
ATOM     72  C   UNL     1       1.315   6.058 -11.161  1.00  0.00     0.023 A 
ATOM     73  C   UNL     1       1.823   5.930 -12.467  1.00  0.00     0.012 A 
ATOM     74  C   UNL     1       0.564   5.003 -10.608  1.00  0.00     0.148 A 
ATOM     75  C   UNL     1       1.579   4.778 -13.215  1.00  0.00     0.002 A 
ATOM     76  C   UNL     1       0.370   3.835 -11.338  1.00  0.00     0.091 A 
ATOM     77  F   UNL     1       0.076   5.151  -9.368  1.00  0.00    -0.205 F 
ATOM     78  C   UNL     1       0.864   3.726 -12.646  1.00  0.00     0.022 A 
BRANCH  76  79
ATOM     79  S   UNL     1      -0.410   2.379 -10.629  1.00  0.00     0.127 S 
ATOM     80  O   UNL     1      -1.704   2.374 -11.303  1.00  0.00    -0.237 OA
ATOM     81  O   UNL     1       0.506   1.314 -11.041  1.00  0.00    -0.237 OA
ATOM     82  O   UNL     1      -0.441   2.614  -9.191  1.00  0.00    -0.744 OA
ENDBRANCH  76  79
ENDBRANCH  48  72
BRANCH  60  83
ATOM     83  C   UNL     1      -0.544  12.788 -11.527  1.00  0.00     0.023 A 
ATOM     84  C   UNL     1      -1.939  12.643 -11.394  1.00  0.00     0.012 A 
ATOM     85  C   UNL     1      -0.030  13.705 -12.465  1.00  0.00     0.148 A 
ATOM     86  C   UNL     1      -2.809  13.383 -12.193  1.00  0.00     0.002 A 
ATOM     87  C   UNL     1      -0.904  14.468 -13.231  1.00  0.00     0.091 A 
ATOM     88  F   UNL     1       1.300  13.812 -12.592  1.00  0.00    -0.205 F 
ATOM     89  C   UNL     1      -2.293  14.303 -13.102  1.00  0.00     0.022 A 
BRANCH  87  90
ATOM     90  S   UNL     1      -0.331  15.737 -14.368  1.00  0.00     0.127 S 
ATOM     91  O   UNL     1      -0.544  15.095 -15.664  1.00  0.00    -0.237 OA
ATOM     92  O   UNL     1      -1.238  16.848 -14.081  1.00  0.00    -0.237 OA
ATOM     93  O   UNL     1       1.060  15.989 -14.014  1.00  0.00    -0.744 OA
ENDBRANCH  87  90
ENDBRANCH  60  83
ENDBRANCH  34  35
ENDBRANCH  26  29
ENDBRANCH  24  25
ENDBRANCH   1  24
TORSDOF 15
