REMARK SMILES CN(CCCC(=O)NCCCCNC(=O)c1ccc(-c2c3nc(c(-c4cccc(S(=O)(=O)[O-])c4F)c4ccc([nH]4)c(-c4cccc(S(=O)(=O)[O-])c4F)c4nc(c(-c5cccc(S(=O)(=O)[O-])c5F)c5ccc2[nH]5)C=C4)C=C3)cc1)c1cccc(F)c1C(N)=O
REMARK SMILES IDX 9 1 8 2 6 3 7 4 5 6 4 7 3 8 2 9 1 10 79 11 80 12 85 13 81 14
REMARK SMILES IDX 83 15 82 16 84 17 86 18 87 19 88 20 10 23 11 24 12 25 13 26
REMARK SMILES IDX 14 27 15 29 16 30 17 31 78 32 18 33 77 34 19 35 20 36 21 37
REMARK SMILES IDX 71 38 22 39 76 40 70 41 72 42 23 43 75 44 69 45 68 46 24 48
REMARK SMILES IDX 56 49 36 50 55 51 37 52 40 53 54 54 73 55 38 56 39 57 53 59
REMARK SMILES IDX 74 60 41 61 25 62 26 63 34 64 27 65 29 66 35 67 28 68 30 69
REMARK SMILES IDX 31 70 32 71 33 72 57 73 58 74 66 75 59 76 61 77 67 78 60 79
REMARK SMILES IDX 62 80 63 81 64 82 65 83 42 84 43 85 51 86 44 87 46 88 52 89
REMARK SMILES IDX 45 90 47 91 48 92 49 93 50 94
REMARK H PARENT 8 5 87 21 87 22 13 28 72 47 40 58
REMARK Flexibility Score: inf
ROOT
ATOM      1  C   UNL     1       1.104  -4.095  -1.755  1.00  0.00     0.116 C 
ENDROOT
BRANCH   1   2
ATOM      2  N   UNL     1      -0.118  -4.798  -2.088  1.00  0.00    -0.356 N 
ATOM      3  C   UNL     1      -1.350  -4.287  -2.356  1.00  0.00     0.220 C 
ATOM      4  O   UNL     1      -2.316  -5.048  -2.421  1.00  0.00    -0.275 OA
ATOM      5  H   UNL     1      -0.047  -5.779  -2.126  1.00  0.00     0.163 HD
BRANCH   3   6
ATOM      6  C   UNL     1      -1.508  -2.804  -2.625  1.00  0.00     0.102 C 
BRANCH   6   7
ATOM      7  C   UNL     1      -1.854  -1.945  -1.406  1.00  0.00     0.031 C 
BRANCH   7   8
ATOM      8  C   UNL     1      -0.701  -1.312  -0.613  1.00  0.00     0.117 C 
BRANCH   8   9
ATOM      9  N   UNL     1      -0.093  -0.093  -1.192  1.00  0.00    -0.374 N 
ATOM     10  C   UNL     1       0.446   0.868  -0.230  1.00  0.00     0.143 C 
BRANCH   9  11
ATOM     11  C   UNL     1       0.561  -0.169  -2.426  1.00  0.00     0.052 A 
ATOM     12  C   UNL     1      -0.260   0.044  -3.558  1.00  0.00     0.027 A 
ATOM     13  C   UNL     1       1.936  -0.424  -2.663  1.00  0.00     0.098 A 
ATOM     14  C   UNL     1       0.213  -0.085  -4.865  1.00  0.00     0.005 A 
ATOM     15  C   UNL     1       2.395  -0.544  -3.987  1.00  0.00     0.138 A 
ATOM     16  C   UNL     1       1.546  -0.395  -5.079  1.00  0.00     0.040 A 
ATOM     17  F   UNL     1       3.680  -0.835  -4.247  1.00  0.00    -0.206 F 
BRANCH  13  18
ATOM     18  C   UNL     1       2.941  -0.656  -1.590  1.00  0.00     0.253 C 
ATOM     19  N   UNL     1       4.182  -0.102  -1.760  1.00  0.00    -0.365 N 
ATOM     20  O   UNL     1       2.711  -1.329  -0.595  1.00  0.00    -0.269 OA
ATOM     21  H   UNL     1       4.374   0.441  -2.558  1.00  0.00     0.159 HD
ATOM     22  H   UNL     1       4.882  -0.246  -1.083  1.00  0.00     0.159 HD
ENDBRANCH  13  18
ENDBRANCH   9  11
ENDBRANCH   8   9
ENDBRANCH   7   8
ENDBRANCH   6   7
ENDBRANCH   3   6
ENDBRANCH   1   2
BRANCH   1  23
ATOM     23  C   UNL     1       1.386  -4.228  -0.257  1.00  0.00     0.023 C 
BRANCH  23  24
ATOM     24  C   UNL     1       2.416  -5.293   0.079  1.00  0.00     0.023 C 
BRANCH  24  25
ATOM     25  C   UNL     1       3.808  -5.016  -0.474  1.00  0.00     0.116 C 
BRANCH  25  26
ATOM     26  N   UNL     1       4.435  -3.800   0.033  1.00  0.00    -0.352 N 
ATOM     27  C   UNL     1       5.766  -3.628   0.352  1.00  0.00     0.251 C 
ATOM     28  H   UNL     1       3.847  -3.021   0.162  1.00  0.00     0.163 HD
ATOM     29  O   UNL     1       6.196  -2.571   0.805  1.00  0.00    -0.269 OA
BRANCH  27  30
ATOM     30  C   UNL     1       6.677  -4.775   0.142  1.00  0.00     0.039 A 
ATOM     31  C   UNL     1       7.357  -5.328   1.229  1.00  0.00     0.014 A 
ATOM     32  C   UNL     1       6.737  -5.379  -1.118  1.00  0.00     0.014 A 
ATOM     33  C   UNL     1       8.034  -6.542   1.068  1.00  0.00     0.010 A 
ATOM     34  C   UNL     1       7.339  -6.624  -1.252  1.00  0.00     0.010 A 
ATOM     35  C   UNL     1       7.990  -7.223  -0.162  1.00  0.00    -0.014 A 
BRANCH  35  36
ATOM     36  C   UNL     1       8.591  -8.573  -0.332  1.00  0.00     0.031 A 
ATOM     37  C   UNL     1       9.689  -8.788  -1.340  1.00  0.00     0.074 A 
ATOM     38  C   UNL     1       8.068  -9.629   0.326  1.00  0.00     0.049 A 
ATOM     39  N   UNL     1      10.274  -9.902  -1.697  1.00  0.00    -0.248 NA
ATOM     40  C   UNL     1      10.166  -7.601  -2.071  1.00  0.00     0.031 C 
ATOM     41  C   UNL     1       6.932  -9.577   1.249  1.00  0.00     0.029 A 
ATOM     42  N   UNL     1       8.402 -10.961   0.292  1.00  0.00    -0.354 N 
ATOM     43  C   UNL     1      11.147  -9.560  -2.722  1.00  0.00     0.074 A 
ATOM     44  C   UNL     1      10.995  -8.140  -2.952  1.00  0.00     0.031 C 
ATOM     45  C   UNL     1       6.665 -10.817   1.692  1.00  0.00     0.029 A 
ATOM     46  C   UNL     1       7.594 -11.756   1.072  1.00  0.00     0.049 A 
ATOM     47  H   UNL     1       9.150 -11.315  -0.242  1.00  0.00     0.167 HD
ATOM     48  C   UNL     1      12.024 -10.347  -3.389  1.00  0.00     0.034 A 
ATOM     49  C   UNL     1       7.601 -13.091   1.267  1.00  0.00     0.034 A 
ATOM     50  C   UNL     1      12.233 -11.739  -3.104  1.00  0.00     0.049 A 
ATOM     51  C   UNL     1       8.651 -13.926   0.584  1.00  0.00     0.074 A 
ATOM     52  C   UNL     1      13.184 -12.592  -3.637  1.00  0.00     0.029 A 
ATOM     53  N   UNL     1      11.484 -12.484  -2.208  1.00  0.00    -0.354 N 
ATOM     54  N   UNL     1       9.597 -13.547  -0.241  1.00  0.00    -0.248 NA
ATOM     55  C   UNL     1       8.661 -15.365   0.888  1.00  0.00     0.031 C 
ATOM     56  C   UNL     1      13.007 -13.856  -3.065  1.00  0.00     0.029 A 
ATOM     57  C   UNL     1      11.949 -13.787  -2.172  1.00  0.00     0.049 A 
ATOM     58  H   UNL     1      10.732 -12.138  -1.675  1.00  0.00     0.167 HD
ATOM     59  C   UNL     1      10.332 -14.691  -0.529  1.00  0.00     0.074 A 
ATOM     60  C   UNL     1       9.738 -15.773   0.230  1.00  0.00     0.031 C 
ATOM     61  C   UNL     1      11.391 -14.838  -1.362  1.00  0.00     0.034 A 
BRANCH  48  62
ATOM     62  C   UNL     1      12.888  -9.701  -4.439  1.00  0.00     0.023 A 
ATOM     63  C   UNL     1      13.947  -8.861  -4.038  1.00  0.00     0.012 A 
ATOM     64  C   UNL     1      12.699  -9.974  -5.807  1.00  0.00     0.148 A 
ATOM     65  C   UNL     1      14.788  -8.279  -4.985  1.00  0.00     0.002 A 
ATOM     66  C   UNL     1      13.567  -9.422  -6.743  1.00  0.00     0.091 A 
ATOM     67  F   UNL     1      11.673 -10.757  -6.169  1.00  0.00    -0.205 F 
ATOM     68  C   UNL     1      14.605  -8.568  -6.334  1.00  0.00     0.022 A 
BRANCH  66  69
ATOM     69  S   UNL     1      13.462  -9.789  -8.498  1.00  0.00     0.127 S 
ATOM     70  O   UNL     1      12.956  -8.527  -9.034  1.00  0.00    -0.237 OA
ATOM     71  O   UNL     1      14.856 -10.079  -8.837  1.00  0.00    -0.237 OA
ATOM     72  O   UNL     1      12.560 -10.926  -8.616  1.00  0.00    -0.744 OA
ENDBRANCH  66  69
ENDBRANCH  48  62
BRANCH  49  73
ATOM     73  C   UNL     1       6.634 -13.711   2.217  1.00  0.00     0.023 A 
ATOM     74  C   UNL     1       7.104 -14.203   3.451  1.00  0.00     0.012 A 
ATOM     75  C   UNL     1       5.260 -13.799   1.923  1.00  0.00     0.148 A 
ATOM     76  C   UNL     1       6.229 -14.799   4.361  1.00  0.00     0.002 A 
ATOM     77  C   UNL     1       4.386 -14.348   2.856  1.00  0.00     0.091 A 
ATOM     78  F   UNL     1       4.832 -13.344   0.737  1.00  0.00    -0.205 F 
ATOM     79  C   UNL     1       4.870 -14.862   4.068  1.00  0.00     0.022 A 
BRANCH  77  80
ATOM     80  S   UNL     1       2.606 -14.345   2.607  1.00  0.00     0.127 S 
ATOM     81  O   UNL     1       2.361 -15.717   2.175  1.00  0.00    -0.237 OA
ATOM     82  O   UNL     1       2.107 -14.022   3.945  1.00  0.00    -0.237 OA
ATOM     83  O   UNL     1       2.361 -13.305   1.616  1.00  0.00    -0.744 OA
ENDBRANCH  77  80
ENDBRANCH  49  73
BRANCH  61  84
ATOM     84  C   UNL     1      12.002 -16.207  -1.486  1.00  0.00     0.023 A 
ATOM     85  C   UNL     1      11.332 -17.202  -2.225  1.00  0.00     0.012 A 
ATOM     86  C   UNL     1      13.275 -16.482  -0.949  1.00  0.00     0.148 A 
ATOM     87  C   UNL     1      11.909 -18.458  -2.407  1.00  0.00     0.002 A 
ATOM     88  C   UNL     1      13.863 -17.722  -1.171  1.00  0.00     0.091 A 
ATOM     89  F   UNL     1      13.887 -15.529  -0.231  1.00  0.00    -0.205 F 
ATOM     90  C   UNL     1      13.178 -18.714  -1.891  1.00  0.00     0.022 A 
BRANCH  88  91
ATOM     91  S   UNL     1      15.531 -18.101  -0.622  1.00  0.00     0.127 S 
ATOM     92  O   UNL     1      15.277 -18.925   0.558  1.00  0.00    -0.237 OA
ATOM     93  O   UNL     1      16.081 -18.829  -1.766  1.00  0.00    -0.237 OA
ATOM     94  O   UNL     1      16.166 -16.815  -0.367  1.00  0.00    -0.744 OA
ENDBRANCH  88  91
ENDBRANCH  61  84
ENDBRANCH  35  36
ENDBRANCH  27  30
ENDBRANCH  25  26
ENDBRANCH  24  25
ENDBRANCH  23  24
ENDBRANCH   1  23
TORSDOF 19
