REMARK SMILES CC(C)c1ccc(NC(=O)C[C@H]2SC[C@@H](C(=O)NCCCCNC(=O)c3ccc(-c4c5nc(c(-c6cccc(S(=O)(=O)[O-])c6F)c6ccc([nH]6)c(-c6cccc(S(=O)(=O)[O-])c6F)c6nc(c(-c7cccc(S(=O)(=O)[O-])c7F)c7ccc4[nH]7)C=C6)C=C5)cc3)NC2=O)cc1
REMARK SMILES IDX 20 1 19 2 18 3 16 4 17 5 15 7 12 8 13 9 90 10 14 11 89 12
REMARK SMILES IDX 91 13 11 15 9 16 8 17 10 19 7 20 4 21 5 22 93 23 6 24 92 25
REMARK SMILES IDX 2 26 1 27 3 28 21 29 22 30 23 31 24 32 25 34 26 35 27 36
REMARK SMILES IDX 88 37 28 38 87 39 29 40 30 41 31 42 81 43 32 44 86 45 80 46
REMARK SMILES IDX 82 47 33 48 85 49 79 50 78 51 34 53 66 54 46 55 65 56 47 57
REMARK SMILES IDX 50 58 64 59 83 60 48 61 49 62 63 64 84 65 51 66 35 67 36 68
REMARK SMILES IDX 44 69 37 70 39 71 45 72 38 73 40 74 41 75 42 76 43 77 67 78
REMARK SMILES IDX 68 79 76 80 69 81 71 82 77 83 70 84 72 85 73 86 74 87 75 88
REMARK SMILES IDX 52 89 53 90 61 91 54 92 56 93 62 94 55 95 57 96 58 97 59 98
REMARK SMILES IDX 60 99
REMARK H PARENT 18 6 89 14 8 18 23 33 82 52 50 63
REMARK Flexibility Score: inf
ROOT
ATOM      1  C   UNL     1       2.332   1.270  -1.470  1.00  0.00     0.023 C 
ENDROOT
BRANCH   1   2
ATOM      2  C   UNL     1       1.258   0.246  -1.109  1.00  0.00     0.116 C 
BRANCH   2   3
ATOM      3  N   UNL     1       0.584   0.657   0.102  1.00  0.00    -0.354 N 
ATOM      4  C   UNL     1      -0.480   1.505   0.228  1.00  0.00     0.243 C 
ATOM      5  O   UNL     1      -0.642   2.056   1.315  1.00  0.00    -0.273 OA
ATOM      6  H   UNL     1       0.936   0.279   0.941  1.00  0.00     0.163 HD
BRANCH   4   7
ATOM      7  C   UNL     1      -1.558   1.501  -0.875  1.00  0.00     0.181 C 
ATOM      8  C   UNL     1      -4.207   1.795   0.632  1.00  0.00     0.145 C 
ATOM      9  S   UNL     1      -3.363   3.386   0.227  1.00  0.00    -0.145 SA
ATOM     10  C   UNL     1      -3.266   0.583   0.621  1.00  0.00     0.234 C 
ATOM     11  C   UNL     1      -2.242   2.842  -1.091  1.00  0.00     0.105 C 
ATOM     12  N   UNL     1      -2.448   0.424  -0.473  1.00  0.00    -0.343 N 
ATOM     13  O   UNL     1      -3.272  -0.340   1.429  1.00  0.00    -0.274 OA
ATOM     14  H   UNL     1      -2.466  -0.418  -0.983  1.00  0.00     0.164 HD
BRANCH   8  15
ATOM     15  C   UNL     1      -5.069   2.034   1.881  1.00  0.00     0.124 C 
BRANCH  15  16
ATOM     16  C   UNL     1      -5.279   0.928   2.896  1.00  0.00     0.226 C 
ATOM     17  N   UNL     1      -5.767  -0.303   2.588  1.00  0.00    -0.326 N 
ATOM     18  H   UNL     1      -5.828  -0.911   3.360  1.00  0.00     0.169 HD
ATOM     19  O   UNL     1      -5.024   1.145   4.087  1.00  0.00    -0.275 OA
BRANCH  17  20
ATOM     20  C   UNL     1      -6.198  -0.872   1.386  1.00  0.00     0.041 A 
ATOM     21  C   UNL     1      -6.781  -2.152  -1.065  1.00  0.00    -0.045 A 
ATOM     22  C   UNL     1      -7.107  -0.802  -0.850  1.00  0.00     0.006 A 
ATOM     23  C   UNL     1      -6.212  -2.864  -0.004  1.00  0.00     0.006 A 
ATOM     24  C   UNL     1      -6.821  -0.168   0.364  1.00  0.00     0.026 A 
ATOM     25  C   UNL     1      -5.944  -2.235   1.214  1.00  0.00     0.026 A 
BRANCH  21  26
ATOM     26  C   UNL     1      -7.062  -2.773  -2.426  1.00  0.00     0.013 C 
ATOM     27  C   UNL     1      -6.188  -2.130  -3.510  1.00  0.00     0.012 C 
ATOM     28  C   UNL     1      -6.900  -4.297  -2.492  1.00  0.00     0.012 C 
ENDBRANCH  21  26
ENDBRANCH  17  20
ENDBRANCH  15  16
ENDBRANCH   8  15
ENDBRANCH   4   7
ENDBRANCH   2   3
ENDBRANCH   1   2
BRANCH   1  29
ATOM     29  C   UNL     1       3.428   1.417  -0.407  1.00  0.00     0.023 C 
BRANCH  29  30
ATOM     30  C   UNL     1       4.114   0.114  -0.009  1.00  0.00     0.116 C 
BRANCH  30  31
ATOM     31  N   UNL     1       4.692  -0.578  -1.152  1.00  0.00    -0.352 N 
ATOM     32  C   UNL     1       5.950  -1.111  -1.288  1.00  0.00     0.251 C 
ATOM     33  H   UNL     1       4.102  -0.677  -1.933  1.00  0.00     0.163 HD
ATOM     34  O   UNL     1       6.328  -1.520  -2.383  1.00  0.00    -0.269 OA
BRANCH  32  35
ATOM     35  C   UNL     1       6.847  -1.161  -0.117  1.00  0.00     0.039 A 
ATOM     36  C   UNL     1       8.154  -0.687  -0.246  1.00  0.00     0.014 A 
ATOM     37  C   UNL     1       6.384  -1.641   1.112  1.00  0.00     0.014 A 
ATOM     38  C   UNL     1       8.979  -0.631   0.879  1.00  0.00     0.010 A 
ATOM     39  C   UNL     1       7.183  -1.515   2.244  1.00  0.00     0.010 A 
ATOM     40  C   UNL     1       8.487  -1.009   2.140  1.00  0.00    -0.014 A 
BRANCH  40  41
ATOM     41  C   UNL     1       9.311  -0.855   3.366  1.00  0.00     0.031 A 
ATOM     42  C   UNL     1       9.693  -2.060   4.180  1.00  0.00     0.074 A 
ATOM     43  C   UNL     1       9.635   0.381   3.796  1.00  0.00     0.049 A 
ATOM     44  N   UNL     1      10.350  -2.117   5.309  1.00  0.00    -0.248 NA
ATOM     45  C   UNL     1       9.261  -3.373   3.672  1.00  0.00     0.031 C 
ATOM     46  C   UNL     1       9.258   1.633   3.135  1.00  0.00     0.029 A 
ATOM     47  N   UNL     1      10.332   0.790   4.906  1.00  0.00    -0.354 N 
ATOM     48  C   UNL     1      10.380  -3.459   5.665  1.00  0.00     0.074 A 
ATOM     49  C   UNL     1       9.646  -4.181   4.648  1.00  0.00     0.031 C 
ATOM     50  C   UNL     1       9.730   2.667   3.848  1.00  0.00     0.029 A 
ATOM     51  C   UNL     1      10.412   2.158   5.034  1.00  0.00     0.049 A 
ATOM     52  H   UNL     1      10.735   0.164   5.549  1.00  0.00     0.167 HD
ATOM     53  C   UNL     1      10.987  -4.043   6.725  1.00  0.00     0.034 A 
ATOM     54  C   UNL     1      10.960   2.916   6.003  1.00  0.00     0.034 A 
ATOM     55  C   UNL     1      11.743  -3.325   7.715  1.00  0.00     0.049 A 
ATOM     56  C   UNL     1      11.645   2.241   7.161  1.00  0.00     0.074 A 
ATOM     57  C   UNL     1      12.466  -3.834   8.780  1.00  0.00     0.029 A 
ATOM     58  N   UNL     1      11.865  -1.946   7.772  1.00  0.00    -0.354 N 
ATOM     59  N   UNL     1      11.799   0.961   7.395  1.00  0.00    -0.248 NA
ATOM     60  C   UNL     1      12.259   3.115   8.171  1.00  0.00     0.031 C 
ATOM     61  C   UNL     1      13.001  -2.760   9.498  1.00  0.00     0.029 A 
ATOM     62  C   UNL     1      12.640  -1.583   8.861  1.00  0.00     0.049 A 
ATOM     63  H   UNL     1      11.460  -1.316   7.133  1.00  0.00     0.167 HD
ATOM     64  C   UNL     1      12.559   0.874   8.556  1.00  0.00     0.074 A 
ATOM     65  C   UNL     1      12.850   2.233   8.966  1.00  0.00     0.031 C 
ATOM     66  C   UNL     1      12.967  -0.230   9.229  1.00  0.00     0.034 A 
BRANCH  53  67
ATOM     67  C   UNL     1      10.898  -5.543   6.844  1.00  0.00     0.023 A 
ATOM     68  C   UNL     1      11.606  -6.356   5.935  1.00  0.00     0.012 A 
ATOM     69  C   UNL     1      10.169  -6.147   7.886  1.00  0.00     0.148 A 
ATOM     70  C   UNL     1      11.559  -7.745   6.036  1.00  0.00     0.002 A 
ATOM     71  C   UNL     1      10.165  -7.532   8.010  1.00  0.00     0.091 A 
ATOM     72  F   UNL     1       9.487  -5.360   8.731  1.00  0.00    -0.205 F 
ATOM     73  C   UNL     1      10.848  -8.332   7.079  1.00  0.00     0.022 A 
BRANCH  71  74
ATOM     74  S   UNL     1       9.348  -8.384   9.364  1.00  0.00     0.127 S 
ATOM     75  O   UNL     1       8.232  -9.031   8.674  1.00  0.00    -0.237 OA
ATOM     76  O   UNL     1      10.392  -9.299   9.826  1.00  0.00    -0.237 OA
ATOM     77  O   UNL     1       8.975  -7.353  10.322  1.00  0.00    -0.744 OA
ENDBRANCH  71  74
ENDBRANCH  53  67
BRANCH  54  78
ATOM     78  C   UNL     1      10.937   4.403   5.891  1.00  0.00     0.023 A 
ATOM     79  C   UNL     1      12.139   5.097   5.654  1.00  0.00     0.012 A 
ATOM     80  C   UNL     1       9.734   5.128   5.995  1.00  0.00     0.148 A 
ATOM     81  C   UNL     1      12.151   6.489   5.558  1.00  0.00     0.002 A 
ATOM     82  C   UNL     1       9.745   6.510   5.841  1.00  0.00     0.091 A 
ATOM     83  F   UNL     1       8.602   4.450   6.229  1.00  0.00    -0.205 F 
ATOM     84  C   UNL     1      10.954   7.194   5.642  1.00  0.00     0.022 A 
BRANCH  82  85
ATOM     85  S   UNL     1       8.238   7.488   5.802  1.00  0.00     0.127 S 
ATOM     86  O   UNL     1       8.336   8.237   7.051  1.00  0.00    -0.237 OA
ATOM     87  O   UNL     1       8.429   8.283   4.588  1.00  0.00    -0.237 OA
ATOM     88  O   UNL     1       7.148   6.526   5.723  1.00  0.00    -0.744 OA
ENDBRANCH  82  85
ENDBRANCH  54  78
BRANCH  66  89
ATOM     89  C   UNL     1      13.810  -0.027  10.462  1.00  0.00     0.023 A 
ATOM     90  C   UNL     1      13.224   0.476  11.640  1.00  0.00     0.012 A 
ATOM     91  C   UNL     1      15.165  -0.412  10.473  1.00  0.00     0.148 A 
ATOM     92  C   UNL     1      13.983   0.623  12.801  1.00  0.00     0.002 A 
ATOM     93  C   UNL     1      15.901  -0.312  11.647  1.00  0.00     0.091 A 
ATOM     94  F   UNL     1      15.708  -0.873   9.336  1.00  0.00    -0.205 F 
ATOM     95  C   UNL     1      15.316   0.218  12.808  1.00  0.00     0.022 A 
BRANCH  93  96
ATOM     96  S   UNL     1      17.594  -0.899  11.778  1.00  0.00     0.127 S 
ATOM     97  O   UNL     1      18.336   0.355  11.901  1.00  0.00    -0.237 OA
ATOM     98  O   UNL     1      17.548  -1.702  13.001  1.00  0.00    -0.237 OA
ATOM     99  O   UNL     1      17.853  -1.659  10.563  1.00  0.00    -0.744 OA
ENDBRANCH  93  96
ENDBRANCH  66  89
ENDBRANCH  40  41
ENDBRANCH  32  35
ENDBRANCH  30  31
ENDBRANCH  29  30
ENDBRANCH   1  29
TORSDOF 18
