REMARK SMILES O=C(NCCCCNC(=O)[C@H](CO)NC(=O)[C@H](Cc1c[nH]c2ccccc12)NC(=O)c1ccc(F)cc1)c1ccc(-c2c3nc(c(-c4cccc(S(=O)(=O)[O-])c4F)c4ccc([nH]4)c(-c4cccc(S(=O)(=O)[O-])c4F)c4nc(c(-c5cccc(S(=O)(=O)[O-])c5F)c5ccc2[nH]5)C=C4)C=C3)cc1
REMARK SMILES IDX 6 1 5 2 4 3 3 4 1 5 2 6 38 8 39 9 100 10 40 11 99 12 41 13
REMARK SMILES IDX 42 14 43 15 93 16 44 17 98 18 92 19 94 20 45 21 97 22 91 23
REMARK SMILES IDX 90 24 46 26 78 27 58 28 77 29 59 30 62 31 76 32 95 33 60 34
REMARK SMILES IDX 61 35 75 37 96 38 63 39 47 40 48 41 56 42 49 43 51 44 57 45
REMARK SMILES IDX 50 46 52 47 53 48 54 49 55 50 79 51 80 52 88 53 81 54 83 55
REMARK SMILES IDX 89 56 82 57 84 58 85 59 86 60 87 61 64 62 65 63 73 64 66 65
REMARK SMILES IDX 68 66 74 67 67 68 69 69 70 70 71 71 72 72 7 73 8 74 9 75
REMARK SMILES IDX 10 77 11 78 14 79 15 80 16 82 17 83 28 84 29 85 30 87 31 88
REMARK SMILES IDX 32 89 37 90 33 91 36 92 34 93 35 94 18 95 19 96 20 97 27 98
REMARK SMILES IDX 21 99 22 100 26 101 23 103 25 104 24 105 12 106 13 107
REMARK H PARENT 3 7 94 25 62 36 8 76 14 81 28 86 21 102 13 108
REMARK Flexibility Score: inf
ROOT
ATOM      1  C   UNL     1      10.904  -1.399   7.298  1.00  0.00     0.023 C 
ENDROOT
BRANCH   1   2
ATOM      2  C   UNL     1      12.353  -0.963   7.127  1.00  0.00     0.023 C 
BRANCH   2   3
ATOM      3  C   UNL     1      12.804  -0.678   5.707  1.00  0.00     0.116 C 
BRANCH   3   4
ATOM      4  N   UNL     1      11.966   0.234   4.942  1.00  0.00    -0.352 N 
ATOM      5  O   UNL     1      11.575   1.531   3.100  1.00  0.00    -0.269 OA
ATOM      6  C   UNL     1      12.322   0.793   3.726  1.00  0.00     0.251 C 
ATOM      7  H   UNL     1      11.086   0.470   5.314  1.00  0.00     0.163 HD
BRANCH   6   8
ATOM      8  C   UNL     1      13.680   0.460   3.246  1.00  0.00     0.039 A 
ATOM      9  C   UNL     1      13.939  -0.867   2.896  1.00  0.00     0.014 A 
ATOM     10  C   UNL     1      14.718   1.361   3.495  1.00  0.00     0.014 A 
ATOM     11  C   UNL     1      15.244  -1.336   2.974  1.00  0.00     0.010 A 
ATOM     12  C   UNL     1      16.036   0.899   3.488  1.00  0.00     0.010 A 
ATOM     13  C   UNL     1      16.304  -0.464   3.290  1.00  0.00    -0.014 A 
BRANCH  13  14
ATOM     14  C   UNL     1      17.686  -1.000   3.384  1.00  0.00     0.031 A 
ATOM     15  C   UNL     1      18.456  -0.988   4.678  1.00  0.00     0.074 A 
ATOM     16  C   UNL     1      18.235  -1.533   2.276  1.00  0.00     0.049 A 
ATOM     17  N   UNL     1      19.674  -1.408   4.909  1.00  0.00    -0.248 NA
ATOM     18  C   UNL     1      17.784  -0.434   5.865  1.00  0.00     0.031 C 
ATOM     19  C   UNL     1      17.581  -1.583   0.967  1.00  0.00     0.029 A 
ATOM     20  N   UNL     1      19.445  -2.139   2.069  1.00  0.00    -0.354 N 
ATOM     21  C   UNL     1      19.934  -1.125   6.245  1.00  0.00     0.074 A 
ATOM     22  C   UNL     1      18.741  -0.509   6.783  1.00  0.00     0.031 C 
ATOM     23  C   UNL     1      18.376  -2.228   0.105  1.00  0.00     0.029 A 
ATOM     24  C   UNL     1      19.623  -2.575   0.778  1.00  0.00     0.049 A 
ATOM     25  H   UNL     1      20.122  -2.252   2.776  1.00  0.00     0.167 HD
ATOM     26  C   UNL     1      21.062  -1.369   6.955  1.00  0.00     0.034 A 
ATOM     27  C   UNL     1      20.676  -3.172   0.188  1.00  0.00     0.034 A 
ATOM     28  C   UNL     1      22.224  -2.035   6.425  1.00  0.00     0.049 A 
ATOM     29  C   UNL     1      21.896  -3.462   1.008  1.00  0.00     0.074 A 
ATOM     30  C   UNL     1      23.399  -2.363   7.079  1.00  0.00     0.029 A 
ATOM     31  N   UNL     1      22.356  -2.483   5.119  1.00  0.00    -0.354 N 
ATOM     32  N   UNL     1      22.095  -3.245   2.286  1.00  0.00    -0.248 NA
ATOM     33  C   UNL     1      23.031  -4.086   0.317  1.00  0.00     0.031 C 
ATOM     34  C   UNL     1      24.243  -3.007   6.168  1.00  0.00     0.029 A 
ATOM     35  C   UNL     1      23.592  -3.084   4.947  1.00  0.00     0.049 A 
ATOM     36  H   UNL     1      21.672  -2.388   4.418  1.00  0.00     0.167 HD
ATOM     37  C   UNL     1      23.378  -3.701   2.553  1.00  0.00     0.074 A 
ATOM     38  C   UNL     1      23.896  -4.243   1.312  1.00  0.00     0.031 C 
ATOM     39  C   UNL     1      24.076  -3.648   3.714  1.00  0.00     0.034 A 
BRANCH  26  40
ATOM     40  C   UNL     1      21.100  -0.963   8.407  1.00  0.00     0.023 A 
ATOM     41  C   UNL     1      20.463  -1.774   9.367  1.00  0.00     0.012 A 
ATOM     42  C   UNL     1      21.866   0.141   8.832  1.00  0.00     0.148 A 
ATOM     43  C   UNL     1      20.581  -1.488  10.727  1.00  0.00     0.002 A 
ATOM     44  C   UNL     1      22.005   0.401  10.192  1.00  0.00     0.091 A 
ATOM     45  F   UNL     1      22.447   0.913   7.903  1.00  0.00    -0.205 F 
ATOM     46  C   UNL     1      21.361  -0.411  11.140  1.00  0.00     0.022 A 
BRANCH  44  47
ATOM     47  S   UNL     1      23.050   1.721  10.822  1.00  0.00     0.127 S 
ATOM     48  O   UNL     1      22.056   2.709  11.239  1.00  0.00    -0.237 OA
ATOM     49  O   UNL     1      23.755   1.063  11.924  1.00  0.00    -0.237 OA
ATOM     50  O   UNL     1      23.903   2.118   9.711  1.00  0.00    -0.744 OA
ENDBRANCH  44  47
ENDBRANCH  26  40
BRANCH  27  51
ATOM     51  C   UNL     1      20.562  -3.571  -1.241  1.00  0.00     0.023 A 
ATOM     52  C   UNL     1      20.429  -4.934  -1.566  1.00  0.00     0.012 A 
ATOM     53  C   UNL     1      20.430  -2.605  -2.258  1.00  0.00     0.148 A 
ATOM     54  C   UNL     1      20.154  -5.325  -2.877  1.00  0.00     0.002 A 
ATOM     55  C   UNL     1      20.083  -2.998  -3.545  1.00  0.00     0.091 A 
ATOM     56  F   UNL     1      20.588  -1.313  -1.935  1.00  0.00    -0.205 F 
ATOM     57  C   UNL     1      19.957  -4.358  -3.860  1.00  0.00     0.022 A 
BRANCH  55  58
ATOM     58  S   UNL     1      19.611  -1.796  -4.795  1.00  0.00     0.127 S 
ATOM     59  O   UNL     1      20.839  -1.672  -5.574  1.00  0.00    -0.237 OA
ATOM     60  O   UNL     1      18.511  -2.475  -5.482  1.00  0.00    -0.237 OA
ATOM     61  O   UNL     1      19.199  -0.614  -4.048  1.00  0.00    -0.744 OA
ENDBRANCH  55  58
ENDBRANCH  27  51
BRANCH  39  62
ATOM     62  C   UNL     1      25.486  -4.168   3.697  1.00  0.00     0.023 A 
ATOM     63  C   UNL     1      26.503  -3.366   3.142  1.00  0.00     0.012 A 
ATOM     64  C   UNL     1      25.818  -5.397   4.297  1.00  0.00     0.148 A 
ATOM     65  C   UNL     1      27.830  -3.788   3.170  1.00  0.00     0.002 A 
ATOM     66  C   UNL     1      27.149  -5.795   4.351  1.00  0.00     0.091 A 
ATOM     67  F   UNL     1      24.831  -6.154   4.798  1.00  0.00    -0.205 F 
ATOM     68  C   UNL     1      28.155  -4.996   3.784  1.00  0.00     0.022 A 
BRANCH  66  69
ATOM     69  S   UNL     1      27.660  -7.300   5.190  1.00  0.00     0.127 S 
ATOM     70  O   UNL     1      27.861  -8.214   4.068  1.00  0.00    -0.237 OA
ATOM     71  O   UNL     1      28.890  -6.883   5.865  1.00  0.00    -0.237 OA
ATOM     72  O   UNL     1      26.567  -7.639   6.092  1.00  0.00    -0.744 OA
ENDBRANCH  66  69
ENDBRANCH  39  62
ENDBRANCH  13  14
ENDBRANCH   6   8
ENDBRANCH   3   4
ENDBRANCH   2   3
ENDBRANCH   1   2
BRANCH   1  73
ATOM     73  C   UNL     1      10.362  -2.378   6.252  1.00  0.00     0.116 C 
BRANCH  73  74
ATOM     74  N   UNL     1       9.780  -3.582   6.827  1.00  0.00    -0.354 N 
ATOM     75  C   UNL     1       8.510  -4.100   6.843  1.00  0.00     0.244 C 
ATOM     76  H   UNL     1      10.435  -4.142   7.303  1.00  0.00     0.163 HD
ATOM     77  O   UNL     1       8.457  -5.337   6.940  1.00  0.00    -0.273 OA
BRANCH  75  78
ATOM     78  C   UNL     1       7.027  -3.119   6.859  1.00  0.00     0.197 C 
BRANCH  78  79
ATOM     79  N   UNL     1       7.718  -1.904   7.752  1.00  0.00    -0.340 N 
ATOM     80  C   UNL     1       7.318  -1.019   8.697  1.00  0.00     0.243 C 
ATOM     81  H   UNL     1       8.674  -1.798   7.538  1.00  0.00     0.164 HD
ATOM     82  O   UNL     1       8.182  -0.286   9.185  1.00  0.00    -0.273 OA
BRANCH  80  83
ATOM     83  C   UNL     1       5.856  -1.007   9.173  1.00  0.00     0.176 C 
BRANCH  83  84
ATOM     84  N   UNL     1       5.632   0.191   9.991  1.00  0.00    -0.340 N 
ATOM     85  C   UNL     1       5.740   0.357  11.345  1.00  0.00     0.251 C 
ATOM     86  H   UNL     1       5.364   0.995   9.490  1.00  0.00     0.164 HD
ATOM     87  O   UNL     1       5.533   1.457  11.851  1.00  0.00    -0.269 OA
BRANCH  85  88
ATOM     88  C   UNL     1       6.017  -0.797  12.222  1.00  0.00     0.040 A 
ATOM     89  C   UNL     1       7.219  -1.511  12.147  1.00  0.00     0.017 A 
ATOM     90  C   UNL     1       5.061  -1.122  13.191  1.00  0.00     0.017 A 
ATOM     91  C   UNL     1       7.434  -2.593  13.003  1.00  0.00     0.040 A 
ATOM     92  C   UNL     1       5.284  -2.198  14.050  1.00  0.00     0.040 A 
ATOM     93  C   UNL     1       6.463  -2.929  13.941  1.00  0.00     0.123 A 
ATOM     94  F   UNL     1       6.670  -3.966  14.763  1.00  0.00    -0.207 F 
ENDBRANCH  85  88
ENDBRANCH  83  84
BRANCH  83  95
ATOM     95  C   UNL     1       4.910  -1.031   7.973  1.00  0.00     0.072 C 
BRANCH  95  96
ATOM     96  C   UNL     1       5.414  -2.027   6.996  1.00  0.00    -0.020 A 
ATOM     97  C   UNL     1       5.169  -3.801   7.002  1.00  0.00     0.087 A 
ATOM     98  C   UNL     1       6.752  -1.613   5.630  1.00  0.00     0.003 A 
ATOM     99  N   UNL     1       6.363  -4.540   5.777  1.00  0.00    -0.361 N 
ATOM    100  C   UNL     1       7.263  -3.164   4.906  1.00  0.00     0.046 A 
ATOM    101  C   UNL     1       7.263  -0.442   5.057  1.00  0.00     0.010 A 
ATOM    102  H   UNL     1       6.496  -5.502   5.617  1.00  0.00     0.166 HD
ATOM    103  C   UNL     1       8.012  -3.131   3.734  1.00  0.00     0.026 A 
ATOM    104  C   UNL     1       8.058  -0.600   3.902  1.00  0.00     0.001 A 
ATOM    105  C   UNL     1       8.389  -1.846   3.281  1.00  0.00     0.002 A 
ENDBRANCH  95  96
ENDBRANCH  83  95
ENDBRANCH  80  83
ENDBRANCH  78  79
BRANCH  78 106
ATOM    106  C   UNL     1       5.388  -2.966   5.291  1.00  0.00     0.191 C 
BRANCH 106 107
ATOM    107  O   UNL     1       4.920  -4.136   4.301  1.00  0.00    -0.394 OA
ATOM    108  H   UNL     1       5.617  -4.303   3.646  1.00  0.00     0.210 HD
ENDBRANCH 106 107
ENDBRANCH  78 106
ENDBRANCH  75  78
ENDBRANCH  73  74
ENDBRANCH   1  73
TORSDOF 22
