REMARK SMILES O=C(NCCCCNC(=O)[C@H]1CS[C@H](c2cc(F)ccc2F)[NH2+]1)c1ccc(-c2c3nc(c(-c4cccc(S(=O)(=O)[O-])c4F)c4ccc([nH]4)c(-c4cccc(S(=O)(=O)[O-])c4F)c4nc(c(-c5cccc(S(=O)(=O)[O-])c5F)c5ccc2[nH]5)C=C4)C=C3)cc1
REMARK SMILES IDX 4 1 3 2 1 3 2 4 24 6 25 7 86 8 26 9 85 10 27 11 28 12 29 13
REMARK SMILES IDX 79 14 30 15 84 16 78 17 80 18 31 19 83 20 77 21 76 22 32 24
REMARK SMILES IDX 64 25 44 26 63 27 45 28 48 29 62 30 81 31 46 32 47 33 61 35
REMARK SMILES IDX 82 36 49 37 33 38 34 39 42 40 35 41 37 42 43 43 36 44 38 45
REMARK SMILES IDX 39 46 40 47 41 48 65 49 66 50 74 51 67 52 69 53 75 54 68 55
REMARK SMILES IDX 70 56 71 57 72 58 73 59 50 60 51 61 59 62 52 63 54 64 60 65
REMARK SMILES IDX 53 66 55 67 56 68 57 69 58 70 5 71 6 72 7 73 8 74 9 75 10 77
REMARK SMILES IDX 11 78 12 79 23 80 13 81 14 82 15 85 16 86 21 87 17 88 20 89
REMARK SMILES IDX 22 90 18 91 19 92
REMARK H PARENT 3 5 80 23 48 34 8 76 23 83 23 84
REMARK Flexibility Score: inf
ROOT
ATOM      1  C   UNL     1       4.396  -0.907  -0.804  1.00  0.00     0.116 C 
ENDROOT
BRANCH   1   2
ATOM      2  N   UNL     1       2.984  -0.567  -0.874  1.00  0.00    -0.352 N 
ATOM      3  O   UNL     1       1.037   0.303  -0.139  1.00  0.00    -0.269 OA
ATOM      4  C   UNL     1       2.242   0.191   0.008  1.00  0.00     0.251 C 
ATOM      5  H   UNL     1       2.495  -0.922  -1.651  1.00  0.00     0.163 HD
BRANCH   4   6
ATOM      6  C   UNL     1       2.932   0.819   1.157  1.00  0.00     0.039 A 
ATOM      7  C   UNL     1       4.128   1.513   0.967  1.00  0.00     0.014 A 
ATOM      8  C   UNL     1       2.405   0.654   2.440  1.00  0.00     0.014 A 
ATOM      9  C   UNL     1       4.880   1.895   2.070  1.00  0.00     0.010 A 
ATOM     10  C   UNL     1       3.123   1.120   3.545  1.00  0.00     0.010 A 
ATOM     11  C   UNL     1       4.388   1.702   3.371  1.00  0.00    -0.014 A 
BRANCH  11  12
ATOM     12  C   UNL     1       5.203   2.161   4.524  1.00  0.00     0.031 A 
ATOM     13  C   UNL     1       5.753   1.188   5.531  1.00  0.00     0.074 A 
ATOM     14  C   UNL     1       5.469   3.477   4.638  1.00  0.00     0.049 A 
ATOM     15  N   UNL     1       6.538   1.422   6.551  1.00  0.00    -0.248 NA
ATOM     16  C   UNL     1       5.370  -0.226   5.385  1.00  0.00     0.031 C 
ATOM     17  C   UNL     1       4.952   4.517   3.745  1.00  0.00     0.029 A 
ATOM     18  N   UNL     1       6.246   4.164   5.533  1.00  0.00    -0.354 N 
ATOM     19  C   UNL     1       6.703   0.202   7.197  1.00  0.00     0.074 A 
ATOM     20  C   UNL     1       5.936  -0.774   6.453  1.00  0.00     0.031 C 
ATOM     21  C   UNL     1       5.464   5.701   4.107  1.00  0.00     0.029 A 
ATOM     22  C   UNL     1       6.305   5.515   5.284  1.00  0.00     0.049 A 
ATOM     23  H   UNL     1       6.717   3.732   6.283  1.00  0.00     0.167 HD
ATOM     24  C   UNL     1       7.440  -0.081   8.298  1.00  0.00     0.034 A 
ATOM     25  C   UNL     1       6.964   6.496   5.927  1.00  0.00     0.034 A 
ATOM     26  C   UNL     1       8.248   0.883   8.998  1.00  0.00     0.049 A 
ATOM     27  C   UNL     1       7.816   6.142   7.111  1.00  0.00     0.074 A 
ATOM     28  C   UNL     1       9.091   0.678  10.077  1.00  0.00     0.029 A 
ATOM     29  N   UNL     1       8.315   2.233   8.692  1.00  0.00    -0.354 N 
ATOM     30  N   UNL     1       8.064   4.961   7.623  1.00  0.00    -0.248 NA
ATOM     31  C   UNL     1       8.498   7.251   7.791  1.00  0.00     0.031 C 
ATOM     32  C   UNL     1       9.661   1.907  10.428  1.00  0.00     0.029 A 
ATOM     33  C   UNL     1       9.178   2.876   9.563  1.00  0.00     0.049 A 
ATOM     34  H   UNL     1       7.821   2.671   7.962  1.00  0.00     0.167 HD
ATOM     35  C   UNL     1       8.946   5.180   8.672  1.00  0.00     0.074 A 
ATOM     36  C   UNL     1       9.212   6.604   8.703  1.00  0.00     0.031 C 
ATOM     37  C   UNL     1       9.470   4.287   9.547  1.00  0.00     0.034 A 
BRANCH  24  38
ATOM     38  C   UNL     1       7.446  -1.503   8.796  1.00  0.00     0.023 A 
ATOM     39  C   UNL     1       8.201  -2.475   8.109  1.00  0.00     0.012 A 
ATOM     40  C   UNL     1       6.768  -1.862   9.977  1.00  0.00     0.148 A 
ATOM     41  C   UNL     1       8.261  -3.788   8.577  1.00  0.00     0.002 A 
ATOM     42  C   UNL     1       6.861  -3.165  10.456  1.00  0.00     0.091 A 
ATOM     43  F   UNL     1       6.033  -0.932  10.603  1.00  0.00    -0.205 F 
ATOM     44  C   UNL     1       7.601  -4.130   9.754  1.00  0.00     0.022 A 
BRANCH  42  45
ATOM     45  S   UNL     1       6.099  -3.673  12.002  1.00  0.00     0.127 S 
ATOM     46  O   UNL     1       4.899  -4.359  11.530  1.00  0.00    -0.237 OA
ATOM     47  O   UNL     1       7.116  -4.554  12.579  1.00  0.00    -0.237 OA
ATOM     48  O   UNL     1       5.874  -2.445  12.752  1.00  0.00    -0.744 OA
ENDBRANCH  42  45
ENDBRANCH  24  38
BRANCH  25  49
ATOM     49  C   UNL     1       6.897   7.889   5.406  1.00  0.00     0.023 A 
ATOM     50  C   UNL     1       8.037   8.453   4.803  1.00  0.00     0.012 A 
ATOM     51  C   UNL     1       5.699   8.629   5.437  1.00  0.00     0.148 A 
ATOM     52  C   UNL     1       7.990   9.735   4.253  1.00  0.00     0.002 A 
ATOM     53  C   UNL     1       5.643   9.880   4.835  1.00  0.00     0.091 A 
ATOM     54  F   UNL     1       4.630   8.084   6.035  1.00  0.00    -0.205 F 
ATOM     55  C   UNL     1       6.790  10.441   4.255  1.00  0.00     0.022 A 
BRANCH  53  56
ATOM     56  S   UNL     1       4.097  10.780   4.664  1.00  0.00     0.127 S 
ATOM     57  O   UNL     1       4.202  11.765   5.736  1.00  0.00    -0.237 OA
ATOM     58  O   UNL     1       4.206  11.327   3.311  1.00  0.00    -0.237 OA
ATOM     59  O   UNL     1       3.051   9.776   4.816  1.00  0.00    -0.744 OA
ENDBRANCH  53  56
ENDBRANCH  25  49
BRANCH  37  60
ATOM     60  C   UNL     1      10.395   4.823  10.605  1.00  0.00     0.023 A 
ATOM     61  C   UNL     1       9.858   5.532  11.698  1.00  0.00     0.012 A 
ATOM     62  C   UNL     1      11.780   4.579  10.551  1.00  0.00     0.148 A 
ATOM     63  C   UNL     1      10.691   6.017  12.705  1.00  0.00     0.002 A 
ATOM     64  C   UNL     1      12.599   5.030  11.579  1.00  0.00     0.091 A 
ATOM     65  F   UNL     1      12.276   3.924   9.490  1.00  0.00    -0.205 F 
ATOM     66  C   UNL     1      12.058   5.757  12.652  1.00  0.00     0.022 A 
BRANCH  64  67
ATOM     67  S   UNL     1      14.356   4.659  11.622  1.00  0.00     0.127 S 
ATOM     68  O   UNL     1      14.936   5.889  11.088  1.00  0.00    -0.237 OA
ATOM     69  O   UNL     1      14.600   4.439  13.049  1.00  0.00    -0.237 OA
ATOM     70  O   UNL     1      14.524   3.468  10.799  1.00  0.00    -0.744 OA
ENDBRANCH  64  67
ENDBRANCH  37  60
ENDBRANCH  11  12
ENDBRANCH   4   6
ENDBRANCH   1   2
BRANCH   1  71
ATOM     71  C   UNL     1       4.709  -2.299  -1.330  1.00  0.00     0.023 C 
BRANCH  71  72
ATOM     72  C   UNL     1       4.299  -2.551  -2.781  1.00  0.00     0.023 C 
BRANCH  72  73
ATOM     73  C   UNL     1       5.009  -1.678  -3.820  1.00  0.00     0.116 C 
BRANCH  73  74
ATOM     74  N   UNL     1       6.420  -1.996  -3.928  1.00  0.00    -0.351 N 
ATOM     75  C   UNL     1       7.088  -2.842  -4.761  1.00  0.00     0.279 C 
ATOM     76  H   UNL     1       6.995  -1.518  -3.288  1.00  0.00     0.163 HD
ATOM     77  O   UNL     1       8.318  -2.869  -4.638  1.00  0.00    -0.268 OA
BRANCH  75  78
ATOM     78  C   UNL     1       6.398  -3.676  -5.866  1.00  0.00     0.283 C 
ATOM     79  C   UNL     1       7.230  -4.942  -6.112  1.00  0.00     0.151 C 
ATOM     80  N   UNL     1       5.005  -4.076  -5.540  1.00  0.00    -0.320 N 
ATOM     81  S   UNL     1       6.057  -6.271  -6.477  1.00  0.00    -0.087 SA
ATOM     82  C   UNL     1       4.609  -5.179  -6.410  1.00  0.00     0.277 C 
ATOM     83  H   UNL     1       4.379  -3.284  -5.686  1.00  0.00     0.348 HD
ATOM     84  H   UNL     1       4.952  -4.371  -4.565  1.00  0.00     0.348 HD
BRANCH  82  85
ATOM     85  C   UNL     1       4.083  -4.879  -7.799  1.00  0.00     0.059 A 
ATOM     86  C   UNL     1       3.557  -5.962  -8.541  1.00  0.00     0.053 A 
ATOM     87  C   UNL     1       4.088  -3.626  -8.424  1.00  0.00     0.133 A 
ATOM     88  C   UNL     1       3.125  -5.796  -9.854  1.00  0.00     0.123 A 
ATOM     89  C   UNL     1       3.660  -3.466  -9.747  1.00  0.00     0.043 A 
ATOM     90  F   UNL     1       4.500  -2.525  -7.785  1.00  0.00    -0.206 F 
ATOM     91  F   UNL     1       2.655  -6.851 -10.530  1.00  0.00    -0.207 F 
ATOM     92  C   UNL     1       3.186  -4.557 -10.470  1.00  0.00     0.042 A 
ENDBRANCH  82  85
ENDBRANCH  75  78
ENDBRANCH  73  74
ENDBRANCH  72  73
ENDBRANCH  71  72
ENDBRANCH   1  71
TORSDOF 15
