REMARK SMILES Cc1cc(C(=O)NCCCCNC(=O)c2ccc(-c3c4nc(c(-c5cccc(S(=O)(=O)[O-])c5F)c5ccc([nH]5)c(-c5cccc(S(=O)(=O)[O-])c5F)c5nc(c(-c6cccc(S(=O)(=O)[O-])c6F)c6ccc3[nH]6)C=C5)C=C4)cc2)c(C)n1[C@@H]1C[N@H+]2CC[C@@H]1CC2
REMARK SMILES IDX 10 1 9 2 8 3 7 4 5 5 6 6 4 8 1 9 2 10 3 11 80 12 78 13 79 14
REMARK SMILES IDX 81 15 82 16 86 17 83 18 87 19 85 20 88 21 84 22 11 24 12 25
REMARK SMILES IDX 13 26 14 28 15 29 16 30 77 31 17 32 76 33 18 34 19 35 20 36
REMARK SMILES IDX 70 37 21 38 75 39 69 40 71 41 22 42 74 43 68 44 67 45 23 47
REMARK SMILES IDX 55 48 35 49 54 50 36 51 39 52 53 53 72 54 37 55 38 56 52 58
REMARK SMILES IDX 73 59 40 60 24 61 25 62 33 63 26 64 28 65 34 66 27 67 29 68
REMARK SMILES IDX 30 69 31 70 32 71 56 72 57 73 65 74 58 75 60 76 66 77 59 78
REMARK SMILES IDX 61 79 62 80 63 81 64 82 41 83 42 84 50 85 43 86 45 87 51 88
REMARK SMILES IDX 44 89 46 90 47 91 48 92 49 93
REMARK H PARENT 7 7 83 23 12 27 71 46 39 57
REMARK Flexibility Score: inf
ROOT
ATOM      1  C   UNL     1      -3.729   2.220   5.722  1.00  0.00     0.023 C 
ENDROOT
BRANCH   1   2
ATOM      2  C   UNL     1      -3.046   1.423   4.591  1.00  0.00     0.023 C 
BRANCH   2   3
ATOM      3  C   UNL     1      -3.065   2.081   3.209  1.00  0.00     0.116 C 
BRANCH   3   4
ATOM      4  N   UNL     1      -2.373   3.363   3.217  1.00  0.00    -0.352 N 
ATOM      5  C   UNL     1      -1.246   3.832   2.600  1.00  0.00     0.253 C 
ATOM      6  O   UNL     1      -1.000   5.045   2.760  1.00  0.00    -0.269 OA
ATOM      7  H   UNL     1      -2.809   4.036   3.788  1.00  0.00     0.163 HD
BRANCH   5   8
ATOM      8  C   UNL     1      -0.396   2.984   1.760  1.00  0.00     0.060 A 
ATOM      9  C   UNL     1       0.302  -0.164   0.023  1.00  0.00     0.064 C 
ATOM     10  C   UNL     1       0.380   1.205   0.598  1.00  0.00     0.016 A 
ATOM     11  C   UNL     1      -0.255   1.581   1.763  1.00  0.00     0.037 A 
ATOM     12  N   UNL     1       1.018   2.330   0.096  1.00  0.00    -0.339 N 
ATOM     13  C   UNL     1       0.492   3.439   0.774  1.00  0.00     0.028 A 
ATOM     14  C   UNL     1       0.796   4.878   0.466  1.00  0.00     0.065 C 
BRANCH  12  15
ATOM     15  C   UNL     1       2.082   2.397  -0.915  1.00  0.00     0.145 C 
ATOM     16  C   UNL     1       1.809   1.756  -2.297  1.00  0.00     0.288 C 
ATOM     17  C   UNL     1       3.493   1.954  -0.430  1.00  0.00     0.029 C 
ATOM     18  N   UNL     1       2.944   0.905  -2.757  1.00  0.00    -0.333 N 
ATOM     19  C   UNL     1       4.509   2.404  -1.508  1.00  0.00     0.067 C 
ATOM     20  C   UNL     1       3.609   0.424  -0.393  1.00  0.00     0.067 C 
ATOM     21  C   UNL     1       4.163   1.738  -2.853  1.00  0.00     0.262 C 
ATOM     22  C   UNL     1       3.187  -0.157  -1.755  1.00  0.00     0.262 C 
ATOM     23  H   UNL     1       2.720   0.494  -3.664  1.00  0.00     0.348 HD
ENDBRANCH  12  15
ENDBRANCH   5   8
ENDBRANCH   3   4
ENDBRANCH   2   3
ENDBRANCH   1   2
BRANCH   1  24
ATOM     24  C   UNL     1      -5.054   2.946   5.415  1.00  0.00     0.116 C 
BRANCH  24  25
ATOM     25  N   UNL     1      -6.234   2.121   5.506  1.00  0.00    -0.352 N 
ATOM     26  C   UNL     1      -7.553   2.543   5.582  1.00  0.00     0.251 C 
ATOM     27  H   UNL     1      -6.085   1.148   5.516  1.00  0.00     0.163 HD
ATOM     28  O   UNL     1      -8.400   1.683   5.826  1.00  0.00    -0.269 OA
BRANCH  26  29
ATOM     29  C   UNL     1      -7.932   4.005   5.516  1.00  0.00     0.039 A 
ATOM     30  C   UNL     1      -8.157   4.673   6.711  1.00  0.00     0.014 A 
ATOM     31  C   UNL     1      -8.293   4.689   4.342  1.00  0.00     0.014 A 
ATOM     32  C   UNL     1      -8.691   5.995   6.721  1.00  0.00     0.010 A 
ATOM     33  C   UNL     1      -8.923   6.006   4.365  1.00  0.00     0.010 A 
ATOM     34  C   UNL     1      -9.180   6.702   5.561  1.00  0.00    -0.014 A 
BRANCH  34  35
ATOM     35  C   UNL     1     -10.386   7.738   5.842  1.00  0.00     0.031 A 
ATOM     36  C   UNL     1     -11.254   6.949   6.765  1.00  0.00     0.074 A 
ATOM     37  C   UNL     1     -10.932   8.972   5.476  1.00  0.00     0.049 A 
ATOM     38  N   UNL     1     -11.611   5.731   6.454  1.00  0.00    -0.248 NA
ATOM     39  C   UNL     1     -11.406   7.266   8.187  1.00  0.00     0.031 C 
ATOM     40  C   UNL     1     -10.483   9.894   4.420  1.00  0.00     0.029 A 
ATOM     41  N   UNL     1     -12.051   9.724   5.980  1.00  0.00    -0.354 N 
ATOM     42  C   UNL     1     -12.409   5.314   7.472  1.00  0.00     0.074 A 
ATOM     43  C   UNL     1     -11.979   6.128   8.599  1.00  0.00     0.031 C 
ATOM     44  C   UNL     1     -11.168  11.079   4.450  1.00  0.00     0.029 A 
ATOM     45  C   UNL     1     -12.200  11.075   5.488  1.00  0.00     0.049 A 
ATOM     46  H   UNL     1     -12.684   9.337   6.627  1.00  0.00     0.167 HD
ATOM     47  C   UNL     1     -13.672   4.948   7.108  1.00  0.00     0.034 A 
ATOM     48  C   UNL     1     -13.114  12.082   5.808  1.00  0.00     0.034 A 
ATOM     49  C   UNL     1     -14.678   5.845   7.603  1.00  0.00     0.049 A 
ATOM     50  C   UNL     1     -14.308  11.390   6.317  1.00  0.00     0.074 A 
ATOM     51  C   UNL     1     -14.834   6.560   8.776  1.00  0.00     0.029 A 
ATOM     52  N   UNL     1     -15.446   6.479   6.654  1.00  0.00    -0.354 N 
ATOM     53  N   UNL     1     -15.162  10.842   5.505  1.00  0.00    -0.248 NA
ATOM     54  C   UNL     1     -14.716  11.443   7.718  1.00  0.00     0.031 C 
ATOM     55  C   UNL     1     -15.209   7.857   8.355  1.00  0.00     0.029 A 
ATOM     56  C   UNL     1     -15.629   7.794   7.035  1.00  0.00     0.049 A 
ATOM     57  H   UNL     1     -15.807   6.063   5.837  1.00  0.00     0.167 HD
ATOM     58  C   UNL     1     -15.906  10.058   6.331  1.00  0.00     0.074 A 
ATOM     59  C   UNL     1     -15.799  10.666   7.643  1.00  0.00     0.031 C 
ATOM     60  C   UNL     1     -15.974   8.747   6.007  1.00  0.00     0.034 A 
BRANCH  47  61
ATOM     61  C   UNL     1     -13.773   4.193   5.795  1.00  0.00     0.023 A 
ATOM     62  C   UNL     1     -14.176   2.851   5.851  1.00  0.00     0.012 A 
ATOM     63  C   UNL     1     -13.354   4.724   4.544  1.00  0.00     0.148 A 
ATOM     64  C   UNL     1     -14.104   2.042   4.713  1.00  0.00     0.002 A 
ATOM     65  C   UNL     1     -13.174   3.888   3.448  1.00  0.00     0.091 A 
ATOM     66  F   UNL     1     -13.153   6.047   4.429  1.00  0.00    -0.205 F 
ATOM     67  C   UNL     1     -13.565   2.546   3.528  1.00  0.00     0.022 A 
BRANCH  65  68
ATOM     68  S   UNL     1     -12.233   4.409   1.998  1.00  0.00     0.127 S 
ATOM     69  O   UNL     1     -11.411   3.228   1.708  1.00  0.00    -0.237 OA
ATOM     70  O   UNL     1     -13.267   4.678   1.004  1.00  0.00    -0.237 OA
ATOM     71  O   UNL     1     -11.451   5.566   2.413  1.00  0.00    -0.744 OA
ENDBRANCH  65  68
ENDBRANCH  47  61
BRANCH  48  72
ATOM     72  C   UNL     1     -13.515  13.592   5.641  1.00  0.00     0.023 A 
ATOM     73  C   UNL     1     -14.902  13.891   5.380  1.00  0.00     0.012 A 
ATOM     74  C   UNL     1     -12.781  14.674   6.181  1.00  0.00     0.148 A 
ATOM     75  C   UNL     1     -15.543  15.088   5.752  1.00  0.00     0.002 A 
ATOM     76  C   UNL     1     -13.422  15.903   6.509  1.00  0.00     0.091 A 
ATOM     77  F   UNL     1     -11.490  14.478   6.478  1.00  0.00    -0.205 F 
ATOM     78  C   UNL     1     -14.802  16.094   6.330  1.00  0.00     0.022 A 
BRANCH  76  79
ATOM     79  S   UNL     1     -12.577  17.314   7.263  1.00  0.00     0.127 S 
ATOM     80  O   UNL     1     -13.147  18.453   6.541  1.00  0.00    -0.237 OA
ATOM     81  O   UNL     1     -13.000  17.211   8.658  1.00  0.00    -0.237 OA
ATOM     82  O   UNL     1     -11.159  17.091   7.011  1.00  0.00    -0.744 OA
ENDBRANCH  76  79
ENDBRANCH  48  72
BRANCH  60  83
ATOM     83  C   UNL     1     -16.116   8.381   4.542  1.00  0.00     0.023 A 
ATOM     84  C   UNL     1     -15.283   8.843   3.499  1.00  0.00     0.012 A 
ATOM     85  C   UNL     1     -17.137   7.479   4.210  1.00  0.00     0.148 A 
ATOM     86  C   UNL     1     -15.473   8.423   2.177  1.00  0.00     0.002 A 
ATOM     87  C   UNL     1     -17.286   7.011   2.910  1.00  0.00     0.091 A 
ATOM     88  F   UNL     1     -17.954   7.074   5.195  1.00  0.00    -0.205 F 
ATOM     89  C   UNL     1     -16.460   7.485   1.885  1.00  0.00     0.022 A 
BRANCH  87  90
ATOM     90  S   UNL     1     -18.505   5.748   2.546  1.00  0.00     0.127 S 
ATOM     91  O   UNL     1     -19.620   6.542   2.032  1.00  0.00    -0.237 OA
ATOM     92  O   UNL     1     -17.843   4.908   1.552  1.00  0.00    -0.237 OA
ATOM     93  O   UNL     1     -18.752   5.079   3.820  1.00  0.00    -0.744 OA
ENDBRANCH  87  90
ENDBRANCH  60  83
ENDBRANCH  34  35
ENDBRANCH  26  29
ENDBRANCH  24  25
ENDBRANCH   1  24
TORSDOF 15
