REMARK SMILES CC(=O)c1ccc(NC(=O)C[C@H](C(=O)NCCCCNC(=O)c2ccc(-c3c4nc(c(-c5cccc(S(=O)(=O)[O-])c5F)c5ccc([nH]5)c(-c5cccc(S(=O)(=O)[O-])c5F)c5nc(c(-c6cccc(S(=O)(=O)[O-])c6F)c6ccc3[nH]6)C=C5)C=C4)cc2)[NH+](C)C)cc1
REMARK SMILES IDX 17 1 16 2 15 3 13 4 14 5 12 7 11 8 9 9 8 10 10 12 7 13 4 14
REMARK SMILES IDX 5 15 90 16 6 17 89 18 2 19 1 20 3 21 86 22 87 23 88 24 18 26
REMARK SMILES IDX 19 27 20 28 21 29 22 31 23 32 24 33 85 34 25 35 84 36 26 37
REMARK SMILES IDX 27 38 28 39 78 40 29 41 83 42 77 43 79 44 30 45 82 46 76 47
REMARK SMILES IDX 75 48 31 50 63 51 43 52 62 53 44 54 47 55 61 56 80 57 45 58
REMARK SMILES IDX 46 59 60 61 81 62 48 63 32 64 33 65 41 66 34 67 36 68 42 69
REMARK SMILES IDX 35 70 37 71 38 72 39 73 40 74 64 75 65 76 73 77 66 78 68 79
REMARK SMILES IDX 74 80 67 81 69 82 70 83 71 84 72 85 49 86 50 87 58 88 51 89
REMARK SMILES IDX 53 90 59 91 52 92 54 93 55 94 56 95 57 96
REMARK H PARENT 15 6 8 11 86 25 20 30 79 49 47 60
REMARK Flexibility Score: inf
ROOT
ATOM      1  C   UNL     1      -3.752   6.075  -2.937  1.00  0.00     0.023 C 
ENDROOT
BRANCH   1   2
ATOM      2  C   UNL     1      -2.971   6.687  -4.096  1.00  0.00     0.116 C 
BRANCH   2   3
ATOM      3  N   UNL     1      -1.572   6.859  -3.772  1.00  0.00    -0.351 N 
ATOM      4  C   UNL     1      -0.466   6.123  -4.029  1.00  0.00     0.278 C 
ATOM      5  O   UNL     1       0.604   6.664  -3.700  1.00  0.00    -0.268 OA
ATOM      6  H   UNL     1      -1.387   7.679  -3.260  1.00  0.00     0.163 HD
BRANCH   4   7
ATOM      7  C   UNL     1      -0.398   4.743  -4.737  1.00  0.00     0.283 C 
BRANCH   7   8
ATOM      8  C   UNL     1       0.632   3.809  -4.049  1.00  0.00     0.175 C 
BRANCH   8   9
ATOM      9  C   UNL     1       0.138   2.706  -3.137  1.00  0.00     0.230 C 
ATOM     10  N   UNL     1      -0.428   2.902  -1.913  1.00  0.00    -0.326 N 
ATOM     11  H   UNL     1      -0.790   2.076  -1.518  1.00  0.00     0.169 HD
ATOM     12  O   UNL     1       0.186   1.534  -3.538  1.00  0.00    -0.274 OA
BRANCH  10  13
ATOM     13  C   UNL     1      -0.605   4.028  -1.097  1.00  0.00     0.041 A 
ATOM     14  C   UNL     1      -1.270   6.310   0.411  1.00  0.00     0.017 A 
ATOM     15  C   UNL     1      -0.132   6.293  -0.399  1.00  0.00     0.014 A 
ATOM     16  C   UNL     1      -2.026   5.145   0.546  1.00  0.00     0.014 A 
ATOM     17  C   UNL     1       0.213   5.147  -1.123  1.00  0.00     0.027 A 
ATOM     18  C   UNL     1      -1.687   4.008  -0.203  1.00  0.00     0.027 A 
BRANCH  14  19
ATOM     19  C   UNL     1      -1.695   7.615   0.987  1.00  0.00     0.159 C 
ATOM     20  C   UNL     1      -2.489   7.635   2.263  1.00  0.00     0.093 C 
ATOM     21  O   UNL     1      -1.415   8.644   0.374  1.00  0.00    -0.295 OA
ENDBRANCH  14  19
ENDBRANCH  10  13
ENDBRANCH   8   9
ENDBRANCH   7   8
BRANCH   7  22
ATOM     22  N   UNL     1      -1.659   4.207  -5.307  1.00  0.00    -0.329 N 
ATOM     23  C   UNL     1      -1.421   3.468  -6.551  1.00  0.00     0.333 C 
ATOM     24  C   UNL     1      -2.478   3.385  -4.427  1.00  0.00     0.333 C 
ATOM     25  H   UNL     1      -2.200   5.055  -5.476  1.00  0.00     0.348 HD
ENDBRANCH   7  22
ENDBRANCH   4   7
ENDBRANCH   2   3
ENDBRANCH   1   2
BRANCH   1  26
ATOM     26  C   UNL     1      -4.021   7.027  -1.780  1.00  0.00     0.023 C 
BRANCH  26  27
ATOM     27  C   UNL     1      -4.954   8.178  -2.092  1.00  0.00     0.116 C 
BRANCH  27  28
ATOM     28  N   UNL     1      -6.265   7.733  -2.537  1.00  0.00    -0.352 N 
ATOM     29  C   UNL     1      -7.509   8.129  -2.105  1.00  0.00     0.251 C 
ATOM     30  H   UNL     1      -6.262   7.051  -3.247  1.00  0.00     0.163 HD
ATOM     31  O   UNL     1      -8.505   7.527  -2.483  1.00  0.00    -0.269 OA
BRANCH  29  32
ATOM     32  C   UNL     1      -7.628   9.262  -1.160  1.00  0.00     0.039 A 
ATOM     33  C   UNL     1      -8.550   9.173  -0.116  1.00  0.00     0.014 A 
ATOM     34  C   UNL     1      -6.820  10.395  -1.287  1.00  0.00     0.014 A 
ATOM     35  C   UNL     1      -8.617  10.198   0.829  1.00  0.00     0.010 A 
ATOM     36  C   UNL     1      -6.805  11.353  -0.282  1.00  0.00     0.010 A 
ATOM     37  C   UNL     1      -7.721  11.279   0.774  1.00  0.00    -0.014 A 
BRANCH  37  38
ATOM     38  C   UNL     1      -7.744  12.342   1.808  1.00  0.00     0.031 A 
ATOM     39  C   UNL     1      -8.026  13.771   1.423  1.00  0.00     0.074 A 
ATOM     40  C   UNL     1      -7.462  12.025   3.088  1.00  0.00     0.049 A 
ATOM     41  N   UNL     1      -8.115  14.826   2.191  1.00  0.00    -0.248 NA
ATOM     42  C   UNL     1      -8.206  14.062  -0.010  1.00  0.00     0.031 C 
ATOM     43  C   UNL     1      -7.075  10.694   3.564  1.00  0.00     0.029 A 
ATOM     44  N   UNL     1      -7.447  12.798   4.220  1.00  0.00    -0.354 N 
ATOM     45  C   UNL     1      -8.331  15.901   1.336  1.00  0.00     0.074 A 
ATOM     46  C   UNL     1      -8.311  15.382  -0.012  1.00  0.00     0.031 C 
ATOM     47  C   UNL     1      -6.889  10.739   4.893  1.00  0.00     0.029 A 
ATOM     48  C   UNL     1      -7.111  12.103   5.359  1.00  0.00     0.049 A 
ATOM     49  H   UNL     1      -7.657  13.760   4.218  1.00  0.00     0.167 HD
ATOM     50  C   UNL     1      -8.564  17.198   1.645  1.00  0.00     0.034 A 
ATOM     51  C   UNL     1      -6.997  12.521   6.634  1.00  0.00     0.034 A 
ATOM     52  C   UNL     1      -8.619  17.701   2.991  1.00  0.00     0.049 A 
ATOM     53  C   UNL     1      -7.306  13.958   6.954  1.00  0.00     0.074 A 
ATOM     54  C   UNL     1      -8.932  18.978   3.420  1.00  0.00     0.029 A 
ATOM     55  N   UNL     1      -8.345  16.953   4.125  1.00  0.00    -0.354 N 
ATOM     56  N   UNL     1      -7.680  14.922   6.148  1.00  0.00    -0.248 NA
ATOM     57  C   UNL     1      -7.219  14.355   8.366  1.00  0.00     0.031 C 
ATOM     58  C   UNL     1      -8.816  19.010   4.813  1.00  0.00     0.029 A 
ATOM     59  C   UNL     1      -8.468  17.743   5.255  1.00  0.00     0.049 A 
ATOM     60  H   UNL     1      -8.099  15.999   4.127  1.00  0.00     0.167 HD
ATOM     61  C   UNL     1      -7.901  16.031   6.956  1.00  0.00     0.074 A 
ATOM     62  C   UNL     1      -7.654  15.606   8.319  1.00  0.00     0.031 C 
ATOM     63  C   UNL     1      -8.257  17.291   6.605  1.00  0.00     0.034 A 
BRANCH  50  64
ATOM     64  C   UNL     1      -8.831  18.154   0.511  1.00  0.00     0.023 A 
ATOM     65  C   UNL     1     -10.037  18.056  -0.214  1.00  0.00     0.012 A 
ATOM     66  C   UNL     1      -7.924  19.187   0.203  1.00  0.00     0.148 A 
ATOM     67  C   UNL     1     -10.321  18.947  -1.248  1.00  0.00     0.002 A 
ATOM     68  C   UNL     1      -8.236  20.101  -0.796  1.00  0.00     0.091 A 
ATOM     69  F   UNL     1      -6.774  19.252   0.889  1.00  0.00    -0.205 F 
ATOM     70  C   UNL     1      -9.427  19.976  -1.530  1.00  0.00     0.022 A 
BRANCH  68  71
ATOM     71  S   UNL     1      -7.194  21.512  -1.184  1.00  0.00     0.127 S 
ATOM     72  O   UNL     1      -6.732  21.176  -2.530  1.00  0.00    -0.237 OA
ATOM     73  O   UNL     1      -8.146  22.620  -1.125  1.00  0.00    -0.237 OA
ATOM     74  O   UNL     1      -6.157  21.542  -0.161  1.00  0.00    -0.744 OA
ENDBRANCH  68  71
ENDBRANCH  50  64
BRANCH  51  75
ATOM     75  C   UNL     1      -6.631  11.556   7.711  1.00  0.00     0.023 A 
ATOM     76  C   UNL     1      -7.582  11.213   8.692  1.00  0.00     0.012 A 
ATOM     77  C   UNL     1      -5.353  10.967   7.761  1.00  0.00     0.148 A 
ATOM     78  C   UNL     1      -7.253  10.338   9.728  1.00  0.00     0.002 A 
ATOM     79  C   UNL     1      -5.052  10.048   8.759  1.00  0.00     0.091 A 
ATOM     80  F   UNL     1      -4.457  11.312   6.825  1.00  0.00    -0.205 F 
ATOM     81  C   UNL     1      -5.992   9.748   9.756  1.00  0.00     0.022 A 
BRANCH  79  82
ATOM     82  S   UNL     1      -3.506   9.133   8.784  1.00  0.00     0.127 S 
ATOM     83  O   UNL     1      -2.813   9.748   9.913  1.00  0.00    -0.237 OA
ATOM     84  O   UNL     1      -3.968   7.764   9.015  1.00  0.00    -0.237 OA
ATOM     85  O   UNL     1      -2.904   9.344   7.475  1.00  0.00    -0.744 OA
ENDBRANCH  79  82
ENDBRANCH  51  75
BRANCH  63  86
ATOM     86  C   UNL     1      -8.428  18.295   7.716  1.00  0.00     0.023 A 
ATOM     87  C   UNL     1      -7.301  18.758   8.424  1.00  0.00     0.012 A 
ATOM     88  C   UNL     1      -9.701  18.810   8.028  1.00  0.00     0.148 A 
ATOM     89  C   UNL     1      -7.444  19.682   9.458  1.00  0.00     0.002 A 
ATOM     90  C   UNL     1      -9.829  19.772   9.023  1.00  0.00     0.091 A 
ATOM     91  F   UNL     1     -10.763  18.346   7.355  1.00  0.00    -0.205 F 
ATOM     92  C   UNL     1      -8.705  20.196   9.750  1.00  0.00     0.022 A 
BRANCH  90  93
ATOM     93  S   UNL     1     -11.397  20.563   9.399  1.00  0.00     0.127 S 
ATOM     94  O   UNL     1     -11.735  19.955  10.685  1.00  0.00    -0.237 OA
ATOM     95  O   UNL     1     -11.022  21.975   9.471  1.00  0.00    -0.237 OA
ATOM     96  O   UNL     1     -12.288  20.231   8.296  1.00  0.00    -0.744 OA
ENDBRANCH  90  93
ENDBRANCH  63  86
ENDBRANCH  37  38
ENDBRANCH  29  32
ENDBRANCH  27  28
ENDBRANCH  26  27
ENDBRANCH   1  26
TORSDOF 19
