REMARK SMILES O=C(NCCCCNC(=O)c1cc2n(n1)[C@@H](C(F)(F)F)C[C@H](c1ccc3c(c1)OCO3)N2)c1ccc(-c2c3nc(c(-c4cccc(S(=O)(=O)[O-])c4F)c4ccc([nH]4)c(-c4cccc(S(=O)(=O)[O-])c4F)c4nc(c(-c5cccc(S(=O)(=O)[O-])c5F)c5ccc2[nH]5)C=C4)C=C3)cc1
REMARK SMILES IDX 4 1 3 2 1 3 2 4 33 6 34 7 95 8 35 9 94 10 36 11 37 12 38 13
REMARK SMILES IDX 88 14 39 15 93 16 87 17 89 18 40 19 92 20 86 21 85 22 41 24
REMARK SMILES IDX 73 25 53 26 72 27 54 28 57 29 71 30 90 31 55 32 56 33 70 35
REMARK SMILES IDX 91 36 58 37 42 38 43 39 51 40 44 41 46 42 52 43 45 44 47 45
REMARK SMILES IDX 48 46 49 47 50 48 74 49 75 50 83 51 76 52 78 53 84 54 77 55
REMARK SMILES IDX 79 56 80 57 81 58 82 59 59 60 60 61 68 62 61 63 63 64 69 65
REMARK SMILES IDX 62 66 64 67 65 68 66 69 67 70 5 71 6 72 7 73 8 74 9 75 10 77
REMARK SMILES IDX 11 78 12 79 15 80 13 81 14 82 32 83 16 84 22 85 21 87 17 88
REMARK SMILES IDX 18 89 19 90 20 91 23 92 24 93 28 94 25 95 27 96 26 97 29 98
REMARK SMILES IDX 31 99 30 100
REMARK H PARENT 3 5 89 23 57 34 8 76 32 86
REMARK Flexibility Score: inf
ROOT
ATOM      1  C   UNL     1       4.526  -1.159   0.489  1.00  0.00     0.116 C 
ENDROOT
BRANCH   1   2
ATOM      2  N   UNL     1       3.091  -1.095   0.258  1.00  0.00    -0.352 N 
ATOM      3  O   UNL     1       1.090  -0.116  -0.089  1.00  0.00    -0.269 OA
ATOM      4  C   UNL     1       2.312  -0.008  -0.070  1.00  0.00     0.251 C 
ATOM      5  H   UNL     1       2.609  -1.949   0.348  1.00  0.00     0.163 HD
BRANCH   4   6
ATOM      6  C   UNL     1       2.959   1.290  -0.362  1.00  0.00     0.039 A 
ATOM      7  C   UNL     1       4.080   1.352  -1.194  1.00  0.00     0.014 A 
ATOM      8  C   UNL     1       2.455   2.453   0.226  1.00  0.00     0.014 A 
ATOM      9  C   UNL     1       4.792   2.541  -1.303  1.00  0.00     0.010 A 
ATOM     10  C   UNL     1       3.120   3.668   0.036  1.00  0.00     0.010 A 
ATOM     11  C   UNL     1       4.316   3.715  -0.697  1.00  0.00    -0.014 A 
BRANCH  11  12
ATOM     12  C   UNL     1       5.052   4.989  -0.900  1.00  0.00     0.031 A 
ATOM     13  C   UNL     1       5.669   5.732   0.254  1.00  0.00     0.074 A 
ATOM     14  C   UNL     1       5.158   5.478  -2.151  1.00  0.00     0.049 A 
ATOM     15  N   UNL     1       6.349   6.850   0.241  1.00  0.00    -0.248 NA
ATOM     16  C   UNL     1       5.496   5.154   1.597  1.00  0.00     0.031 C 
ATOM     17  C   UNL     1       4.566   4.868  -3.345  1.00  0.00     0.029 A 
ATOM     18  N   UNL     1       5.792   6.596  -2.631  1.00  0.00    -0.354 N 
ATOM     19  C   UNL     1       6.651   7.133   1.568  1.00  0.00     0.074 A 
ATOM     20  C   UNL     1       6.073   6.071   2.364  1.00  0.00     0.031 C 
ATOM     21  C   UNL     1       4.880   5.605  -4.419  1.00  0.00     0.029 A 
ATOM     22  C   UNL     1       5.647   6.767  -3.987  1.00  0.00     0.049 A 
ATOM     23  H   UNL     1       6.300   7.215  -2.059  1.00  0.00     0.167 HD
ATOM     24  C   UNL     1       7.357   8.173   2.074  1.00  0.00     0.034 A 
ATOM     25  C   UNL     1       6.065   7.759  -4.796  1.00  0.00     0.034 A 
ATOM     26  C   UNL     1       7.959   9.208   1.272  1.00  0.00     0.049 A 
ATOM     27  C   UNL     1       6.860   8.888  -4.209  1.00  0.00     0.074 A 
ATOM     28  C   UNL     1       8.749  10.266   1.687  1.00  0.00     0.029 A 
ATOM     29  N   UNL     1       7.831   9.322  -0.104  1.00  0.00    -0.354 N 
ATOM     30  N   UNL     1       7.244   9.068  -2.969  1.00  0.00    -0.248 NA
ATOM     31  C   UNL     1       7.305   9.937  -5.136  1.00  0.00     0.031 C 
ATOM     32  C   UNL     1       9.079  11.033   0.564  1.00  0.00     0.029 A 
ATOM     33  C   UNL     1       8.516  10.438  -0.554  1.00  0.00     0.049 A 
ATOM     34  H   UNL     1       7.327   8.700  -0.677  1.00  0.00     0.167 HD
ATOM     35  C   UNL     1       7.997  10.235  -2.970  1.00  0.00     0.074 A 
ATOM     36  C   UNL     1       8.037  10.705  -4.340  1.00  0.00     0.031 C 
ATOM     37  C   UNL     1       8.588  10.869  -1.927  1.00  0.00     0.034 A 
BRANCH  24  38
ATOM     38  C   UNL     1       7.552   8.234   3.568  1.00  0.00     0.023 A 
ATOM     39  C   UNL     1       8.443   7.336   4.191  1.00  0.00     0.012 A 
ATOM     40  C   UNL     1       6.915   9.222   4.344  1.00  0.00     0.148 A 
ATOM     41  C   UNL     1       8.673   7.401   5.565  1.00  0.00     0.002 A 
ATOM     42  C   UNL     1       7.180   9.307   5.706  1.00  0.00     0.091 A 
ATOM     43  F   UNL     1       6.056  10.055   3.739  1.00  0.00    -0.205 F 
ATOM     44  C   UNL     1       8.051   8.392   6.320  1.00  0.00     0.022 A 
BRANCH  42  45
ATOM     45  S   UNL     1       6.487  10.596   6.749  1.00  0.00     0.127 S 
ATOM     46  O   UNL     1       5.500   9.848   7.526  1.00  0.00    -0.237 OA
ATOM     47  O   UNL     1       7.655  11.037   7.513  1.00  0.00    -0.237 OA
ATOM     48  O   UNL     1       5.945  11.597   5.842  1.00  0.00    -0.744 OA
ENDBRANCH  42  45
ENDBRANCH  24  38
BRANCH  25  49
ATOM     49  C   UNL     1       5.769   7.692  -6.254  1.00  0.00     0.023 A 
ATOM     50  C   UNL     1       6.816   7.462  -7.165  1.00  0.00     0.012 A 
ATOM     51  C   UNL     1       4.449   7.801  -6.735  1.00  0.00     0.148 A 
ATOM     52  C   UNL     1       6.558   7.363  -8.532  1.00  0.00     0.002 A 
ATOM     53  C   UNL     1       4.191   7.641  -8.090  1.00  0.00     0.091 A 
ATOM     54  F   UNL     1       3.468   8.034  -5.851  1.00  0.00    -0.205 F 
ATOM     55  C   UNL     1       5.246   7.439  -8.993  1.00  0.00     0.022 A 
BRANCH  53  56
ATOM     56  S   UNL     1       2.521   7.579  -8.748  1.00  0.00     0.127 S 
ATOM     57  O   UNL     1       2.428   8.858  -9.447  1.00  0.00    -0.237 OA
ATOM     58  O   UNL     1       2.582   6.404  -9.618  1.00  0.00    -0.237 OA
ATOM     59  O   UNL     1       1.650   7.422  -7.592  1.00  0.00    -0.744 OA
ENDBRANCH  53  56
ENDBRANCH  25  49
BRANCH  37  60
ATOM     60  C   UNL     1       9.355  12.129  -2.228  1.00  0.00     0.023 A 
ATOM     61  C   UNL     1       8.659  13.312  -2.549  1.00  0.00     0.012 A 
ATOM     62  C   UNL     1      10.760  12.157  -2.130  1.00  0.00     0.148 A 
ATOM     63  C   UNL     1       9.353  14.495  -2.801  1.00  0.00     0.002 A 
ATOM     64  C   UNL     1      11.441  13.351  -2.335  1.00  0.00     0.091 A 
ATOM     65  F   UNL     1      11.404  11.016  -1.844  1.00  0.00    -0.205 F 
ATOM     66  C   UNL     1      10.741  14.517  -2.683  1.00  0.00     0.022 A 
BRANCH  64  67
ATOM     67  S   UNL     1      13.218  13.494  -2.113  1.00  0.00     0.127 S 
ATOM     68  O   UNL     1      13.683  13.597  -3.495  1.00  0.00    -0.237 OA
ATOM     69  O   UNL     1      13.335  14.729  -1.336  1.00  0.00    -0.237 OA
ATOM     70  O   UNL     1      13.630  12.292  -1.401  1.00  0.00    -0.744 OA
ENDBRANCH  64  67
ENDBRANCH  37  60
ENDBRANCH  11  12
ENDBRANCH   4   6
ENDBRANCH   1   2
BRANCH   1  71
ATOM     71  C   UNL     1       4.886  -1.751   1.845  1.00  0.00     0.023 C 
BRANCH  71  72
ATOM     72  C   UNL     1       4.425  -3.187   2.067  1.00  0.00     0.023 C 
BRANCH  72  73
ATOM     73  C   UNL     1       4.850  -4.173   0.985  1.00  0.00     0.116 C 
BRANCH  73  74
ATOM     74  N   UNL     1       6.294  -4.316   0.883  1.00  0.00    -0.351 N 
ATOM     75  C   UNL     1       7.077  -5.435   1.084  1.00  0.00     0.271 C 
ATOM     76  H   UNL     1       6.782  -3.498   0.636  1.00  0.00     0.163 HD
ATOM     77  O   UNL     1       8.301  -5.305   1.090  1.00  0.00    -0.267 OA
BRANCH  75  78
ATOM     78  C   UNL     1       6.406  -6.727   1.276  1.00  0.00     0.152 A 
ATOM     79  C   UNL     1       5.309  -7.241   0.523  1.00  0.00     0.082 A 
ATOM     80  N   UNL     1       6.767  -7.593   2.248  1.00  0.00    -0.165 NA
ATOM     81  C   UNL     1       4.909  -8.359   1.196  1.00  0.00     0.126 A 
ATOM     82  N   UNL     1       5.832  -8.549   2.182  1.00  0.00    -0.237 N 
ATOM     83  N   UNL     1       3.855  -9.180   1.045  1.00  0.00    -0.363 N 
ATOM     84  C   UNL     1       5.805  -9.676   3.091  1.00  0.00     0.217 C 
ATOM     85  C   UNL     1       3.676 -10.377   1.860  1.00  0.00     0.113 C 
ATOM     86  H   UNL     1       3.180  -8.966   0.360  1.00  0.00     0.162 HD
ATOM     87  C   UNL     1       5.037 -10.839   2.428  1.00  0.00     0.066 C 
BRANCH  84  88
ATOM     88  C   UNL     1       5.196  -9.260   4.412  1.00  0.00     0.410 C 
ATOM     89  F   UNL     1       5.109 -10.342   5.233  1.00  0.00    -0.169 F 
ATOM     90  F   UNL     1       5.932  -8.342   5.072  1.00  0.00    -0.169 F 
ATOM     91  F   UNL     1       3.941  -8.774   4.294  1.00  0.00    -0.169 F 
ENDBRANCH  84  88
BRANCH  85  92
ATOM     92  C   UNL     1       2.983 -11.479   1.065  1.00  0.00    -0.022 A 
ATOM     93  C   UNL     1       2.500 -12.623   1.750  1.00  0.00     0.010 A 
ATOM     94  C   UNL     1       2.764 -11.385  -0.324  1.00  0.00     0.056 A 
ATOM     95  C   UNL     1       1.800 -13.634   1.080  1.00  0.00     0.051 A 
ATOM     96  C   UNL     1       2.046 -12.381  -0.951  1.00  0.00     0.166 A 
ATOM     97  C   UNL     1       1.576 -13.475  -0.269  1.00  0.00     0.165 A 
ATOM     98  O   UNL     1       1.708 -12.401  -2.268  1.00  0.00    -0.454 OA
ATOM     99  O   UNL     1       0.888 -14.329  -1.072  1.00  0.00    -0.454 OA
ATOM    100  C   UNL     1       0.938 -13.618  -2.328  1.00  0.00     0.468 C 
ENDBRANCH  85  92
ENDBRANCH  75  78
ENDBRANCH  73  74
ENDBRANCH  72  73
ENDBRANCH  71  72
ENDBRANCH   1  71
TORSDOF 16
