REMARK SMILES O=C(NCCCCNC(=O)[C@H]1CC2(CCN(C(=O)c3cccc(O)c3)CC2)CN1C(=O)C1CC1)c1ccc(-c2c3nc(c(-c4cccc(S(=O)(=O)[O-])c4F)c4ccc([nH]4)c(-c4cccc(S(=O)(=O)[O-])c4F)c4nc(c(-c5cccc(S(=O)(=O)[O-])c5F)c5ccc2[nH]5)C=C4)C=C3)cc1
REMARK SMILES IDX 5 1 4 2 3 3 1 4 2 5 35 7 36 8 97 9 37 10 96 11 38 12 39 13
REMARK SMILES IDX 40 14 90 15 41 16 95 17 89 18 91 19 42 20 94 21 88 22 87 23
REMARK SMILES IDX 43 25 75 26 55 27 74 28 56 29 59 30 73 31 92 32 57 33 58 34
REMARK SMILES IDX 72 36 93 37 60 38 44 39 45 40 53 41 46 42 48 43 54 44 47 45
REMARK SMILES IDX 49 46 50 47 51 48 52 49 76 50 77 51 85 52 78 53 80 54 86 55
REMARK SMILES IDX 79 56 81 57 82 58 83 59 84 60 61 61 62 62 70 63 63 64 65 65
REMARK SMILES IDX 71 66 64 67 66 68 67 69 68 70 69 71 6 72 7 73 8 74 9 75
REMARK SMILES IDX 10 77 11 78 12 79 29 80 13 81 28 82 14 83 27 84 15 85 26 86
REMARK SMILES IDX 16 87 17 88 18 89 30 90 31 91 32 92 33 93 34 94 19 95 20 96
REMARK SMILES IDX 25 97 21 98 23 99 22 100 24 101
REMARK H PARENT 3 6 91 24 59 35 8 76 24 102
REMARK Flexibility Score: inf
ROOT
ATOM      1  C   UNL     1       3.029   1.004   2.553  1.00  0.00     0.023 C 
ENDROOT
BRANCH   1   2
ATOM      2  C   UNL     1       2.146   2.219   2.798  1.00  0.00     0.116 C 
BRANCH   2   3
ATOM      3  N   UNL     1       2.519   3.371   1.993  1.00  0.00    -0.352 N 
ATOM      4  O   UNL     1       2.243   4.972   0.427  1.00  0.00    -0.269 OA
ATOM      5  C   UNL     1       1.736   4.101   1.129  1.00  0.00     0.251 C 
ATOM      6  H   UNL     1       3.454   3.667   2.077  1.00  0.00     0.163 HD
BRANCH   5   7
ATOM      7  C   UNL     1       0.294   3.793   1.030  1.00  0.00     0.039 A 
ATOM      8  C   UNL     1      -0.474   3.640   2.187  1.00  0.00     0.014 A 
ATOM      9  C   UNL     1      -0.279   3.602  -0.229  1.00  0.00     0.014 A 
ATOM     10  C   UNL     1      -1.764   3.136   2.092  1.00  0.00     0.010 A 
ATOM     11  C   UNL     1      -1.610   3.188  -0.325  1.00  0.00     0.010 A 
ATOM     12  C   UNL     1      -2.352   2.917   0.835  1.00  0.00    -0.014 A 
BRANCH  12  13
ATOM     13  C   UNL     1      -3.771   2.486   0.761  1.00  0.00     0.031 A 
ATOM     14  C   UNL     1      -4.163   1.168   0.154  1.00  0.00     0.074 A 
ATOM     15  C   UNL     1      -4.713   3.316   1.249  1.00  0.00     0.049 A 
ATOM     16  N   UNL     1      -5.358   0.652   0.018  1.00  0.00    -0.248 NA
ATOM     17  C   UNL     1      -3.083   0.320  -0.377  1.00  0.00     0.031 C 
ATOM     18  C   UNL     1      -4.451   4.640   1.822  1.00  0.00     0.029 A 
ATOM     19  N   UNL     1      -6.074   3.180   1.340  1.00  0.00    -0.354 N 
ATOM     20  C   UNL     1      -5.182  -0.555  -0.648  1.00  0.00     0.074 A 
ATOM     21  C   UNL     1      -3.762  -0.697  -0.892  1.00  0.00     0.031 C 
ATOM     22  C   UNL     1      -5.607   5.183   2.224  1.00  0.00     0.029 A 
ATOM     23  C   UNL     1      -6.697   4.277   1.887  1.00  0.00     0.049 A 
ATOM     24  H   UNL     1      -6.558   2.377   1.042  1.00  0.00     0.167 HD
ATOM     25  C   UNL     1      -6.118  -1.467  -1.007  1.00  0.00     0.034 A 
ATOM     26  C   UNL     1      -8.004   4.538   2.078  1.00  0.00     0.034 A 
ATOM     27  C   UNL     1      -7.524  -1.334  -0.726  1.00  0.00     0.049 A 
ATOM     28  C   UNL     1      -9.014   3.501   1.686  1.00  0.00     0.074 A 
ATOM     29  C   UNL     1      -8.542  -2.236  -0.987  1.00  0.00     0.029 A 
ATOM     30  N   UNL     1      -8.114  -0.230  -0.129  1.00  0.00    -0.354 N 
ATOM     31  N   UNL     1      -8.814   2.310   1.178  1.00  0.00    -0.248 NA
ATOM     32  C   UNL     1     -10.426   3.832   1.916  1.00  0.00     0.031 C 
ATOM     33  C   UNL     1      -9.749  -1.668  -0.565  1.00  0.00     0.029 A 
ATOM     34  C   UNL     1      -9.482  -0.420  -0.025  1.00  0.00     0.049 A 
ATOM     35  H   UNL     1      -7.631   0.572   0.175  1.00  0.00     0.167 HD
ATOM     36  C   UNL     1     -10.072   1.739   1.044  1.00  0.00     0.074 A 
ATOM     37  C   UNL     1     -11.025   2.705   1.554  1.00  0.00     0.031 C 
ATOM     38  C   UNL     1     -10.411   0.533   0.526  1.00  0.00     0.034 A 
BRANCH  25  39
ATOM     39  C   UNL     1      -5.655  -2.717  -1.710  1.00  0.00     0.023 A 
ATOM     40  C   UNL     1      -5.002  -3.726  -0.974  1.00  0.00     0.012 A 
ATOM     41  C   UNL     1      -5.935  -2.929  -3.075  1.00  0.00     0.148 A 
ATOM     42  C   UNL     1      -4.614  -4.917  -1.589  1.00  0.00     0.002 A 
ATOM     43  C   UNL     1      -5.578  -4.134  -3.672  1.00  0.00     0.091 A 
ATOM     44  F   UNL     1      -6.537  -1.950  -3.765  1.00  0.00    -0.205 F 
ATOM     45  C   UNL     1      -4.911  -5.125  -2.933  1.00  0.00     0.022 A 
BRANCH  43  46
ATOM     46  S   UNL     1      -5.982  -4.525  -5.380  1.00  0.00     0.127 S 
ATOM     47  O   UNL     1      -4.676  -4.404  -6.026  1.00  0.00    -0.237 OA
ATOM     48  O   UNL     1      -6.485  -5.895  -5.274  1.00  0.00    -0.237 OA
ATOM     49  O   UNL     1      -6.978  -3.545  -5.788  1.00  0.00    -0.744 OA
ENDBRANCH  43  46
ENDBRANCH  25  39
BRANCH  26  50
ATOM     50  C   UNL     1      -8.409   5.825   2.708  1.00  0.00     0.023 A 
ATOM     51  C   UNL     1      -8.935   5.820   4.013  1.00  0.00     0.012 A 
ATOM     52  C   UNL     1      -8.214   7.054   2.049  1.00  0.00     0.148 A 
ATOM     53  C   UNL     1      -9.277   7.017   4.644  1.00  0.00     0.002 A 
ATOM     54  C   UNL     1      -8.499   8.245   2.705  1.00  0.00     0.091 A 
ATOM     55  F   UNL     1      -7.727   7.035   0.799  1.00  0.00    -0.205 F 
ATOM     56  C   UNL     1      -9.046   8.228   3.997  1.00  0.00     0.022 A 
BRANCH  54  57
ATOM     57  S   UNL     1      -8.088   9.845   2.000  1.00  0.00     0.127 S 
ATOM     58  O   UNL     1      -9.398  10.330   1.575  1.00  0.00    -0.237 OA
ATOM     59  O   UNL     1      -7.512  10.546   3.148  1.00  0.00    -0.237 OA
ATOM     60  O   UNL     1      -7.135   9.565   0.934  1.00  0.00    -0.744 OA
ENDBRANCH  54  57
ENDBRANCH  26  50
BRANCH  38  61
ATOM     61  C   UNL     1     -11.874   0.180   0.498  1.00  0.00     0.023 A 
ATOM     62  C   UNL     1     -12.720   0.801  -0.442  1.00  0.00     0.012 A 
ATOM     63  C   UNL     1     -12.396  -0.807   1.356  1.00  0.00     0.148 A 
ATOM     64  C   UNL     1     -14.070   0.464  -0.509  1.00  0.00     0.002 A 
ATOM     65  C   UNL     1     -13.733  -1.169   1.253  1.00  0.00     0.091 A 
ATOM     66  F   UNL     1     -11.578  -1.369   2.258  1.00  0.00    -0.205 F 
ATOM     67  C   UNL     1     -14.574  -0.528   0.329  1.00  0.00     0.022 A 
BRANCH  65  68
ATOM     68  S   UNL     1     -14.446  -2.497   2.230  1.00  0.00     0.127 S 
ATOM     69  O   UNL     1     -15.250  -1.756   3.199  1.00  0.00    -0.237 OA
ATOM     70  O   UNL     1     -15.221  -3.237   1.233  1.00  0.00    -0.237 OA
ATOM     71  O   UNL     1     -13.319  -3.235   2.784  1.00  0.00    -0.744 OA
ENDBRANCH  65  68
ENDBRANCH  38  61
ENDBRANCH  12  13
ENDBRANCH   5   7
ENDBRANCH   2   3
ENDBRANCH   1   2
BRANCH   1  72
ATOM     72  C   UNL     1       4.499   1.188   2.905  1.00  0.00     0.023 C 
BRANCH  72  73
ATOM     73  C   UNL     1       4.763   1.842   4.253  1.00  0.00     0.116 C 
BRANCH  73  74
ATOM     74  N   UNL     1       4.160   1.148   5.385  1.00  0.00    -0.354 N 
ATOM     75  C   UNL     1       4.672   1.015   6.659  1.00  0.00     0.242 C 
ATOM     76  H   UNL     1       3.287   0.725   5.221  1.00  0.00     0.163 HD
ATOM     77  O   UNL     1       3.938   0.645   7.572  1.00  0.00    -0.273 OA
BRANCH  75  78
ATOM     78  C   UNL     1       6.136   1.429   6.858  1.00  0.00     0.175 C 
ATOM     79  C   UNL     1       6.071   2.951   7.022  1.00  0.00     0.044 C 
ATOM     80  N   UNL     1       6.954   1.022   7.988  1.00  0.00    -0.330 N 
ATOM     81  C   UNL     1       7.384   3.377   7.688  1.00  0.00    -0.006 C 
ATOM     82  C   UNL     1       7.901   2.077   8.327  1.00  0.00     0.127 C 
ATOM     83  C   UNL     1       7.108   4.449   8.759  1.00  0.00     0.030 C 
ATOM     84  C   UNL     1       8.377   3.956   6.653  1.00  0.00     0.030 C 
ATOM     85  C   UNL     1       6.572   5.723   8.118  1.00  0.00     0.120 C 
ATOM     86  C   UNL     1       7.944   5.322   6.096  1.00  0.00     0.120 C 
ATOM     87  N   UNL     1       7.542   6.244   7.155  1.00  0.00    -0.339 N 
ATOM     88  C   UNL     1       7.910   7.586   7.057  1.00  0.00     0.253 C 
ATOM     89  O   UNL     1       8.541   8.059   6.117  1.00  0.00    -0.269 OA
BRANCH  80  90
ATOM     90  C   UNL     1       7.287  -0.272   8.361  1.00  0.00     0.226 C 
ATOM     91  O   UNL     1       8.350  -0.520   8.928  1.00  0.00    -0.275 OA
BRANCH  90  92
ATOM     92  C   UNL     1       6.309  -1.384   8.242  1.00  0.00     0.079 C 
ATOM     93  C   UNL     1       5.511  -1.848   7.055  1.00  0.00     0.014 C 
ATOM     94  C   UNL     1       6.742  -2.598   7.433  1.00  0.00     0.014 C 
ENDBRANCH  90  92
ENDBRANCH  80  90
BRANCH  88  95
ATOM     95  C   UNL     1       7.523   8.493   8.158  1.00  0.00     0.043 A 
ATOM     96  C   UNL     1       8.005   8.265   9.454  1.00  0.00     0.014 A 
ATOM     97  C   UNL     1       6.650   9.549   7.897  1.00  0.00     0.060 A 
ATOM     98  C   UNL     1       7.559   9.064  10.506  1.00  0.00     0.005 A 
ATOM     99  C   UNL     1       6.221  10.341   8.954  1.00  0.00     0.116 A 
ATOM    100  C   UNL     1       6.658  10.102  10.257  1.00  0.00     0.046 A 
BRANCH  99 101
ATOM    101  O   UNL     1       5.347  11.350   8.676  1.00  0.00    -0.508 OA
ATOM    102  H   UNL     1       5.037  11.904   9.365  1.00  0.00     0.293 HD
ENDBRANCH  99 101
ENDBRANCH  88  95
ENDBRANCH  75  78
ENDBRANCH  73  74
ENDBRANCH  72  73
ENDBRANCH   1  72
TORSDOF 18
