REMARK SMILES Cc1cc(N2CC[NH+]([C@@H](C(=O)NCCCCNC(=O)c3ccc(-c4c5nc(c(-c6cccc(S(=O)(=O)[O-])c6F)c6ccc([nH]6)c(-c6cccc(S(=O)(=O)[O-])c6F)c6nc(c(-c7cccc(S(=O)(=O)[O-])c7F)c7ccc4[nH]7)C=C6)C=C5)cc3)c3c[nH]c4ccccc34)CC2)nc2ccccc12
REMARK SMILES IDX 15 1 14 2 13 3 12 4 10 5 11 6 9 8 8 9 5 10 6 11 93 12 7 13
REMARK SMILES IDX 92 14 4 16 1 17 2 18 3 19 100 20 95 21 99 22 94 23 96 24
REMARK SMILES IDX 98 25 97 26 83 27 84 28 91 29 85 30 86 31 90 32 87 34 89 35
REMARK SMILES IDX 88 36 16 37 17 38 18 39 19 41 20 42 21 43 82 44 22 45 81 46
REMARK SMILES IDX 23 47 24 48 25 49 75 50 26 51 80 52 74 53 76 54 27 55 79 56
REMARK SMILES IDX 73 57 72 58 28 60 60 61 40 62 59 63 41 64 44 65 58 66 77 67
REMARK SMILES IDX 42 68 43 69 57 71 78 72 45 73 29 74 30 75 38 76 31 77 33 78
REMARK SMILES IDX 39 79 32 80 34 81 35 82 36 83 37 84 61 85 62 86 70 87 63 88
REMARK SMILES IDX 65 89 71 90 64 91 66 92 67 93 68 94 69 95 46 96 47 97 55 98
REMARK SMILES IDX 48 99 50 100 56 101 49 102 51 103 52 104 53 105 54 106
REMARK H PARENT 12 7 8 15 85 33 17 40 76 59 44 70
REMARK Flexibility Score: inf
ROOT
ATOM      1  C   UNL     1      -3.085  -1.803  -3.220  1.00  0.00     0.023 C 
ENDROOT
BRANCH   1   2
ATOM      2  C   UNL     1      -4.466  -2.465  -3.114  1.00  0.00     0.023 C 
BRANCH   2   3
ATOM      3  C   UNL     1      -4.511  -3.996  -2.828  1.00  0.00     0.116 C 
BRANCH   3   4
ATOM      4  N   UNL     1      -3.452  -4.567  -1.980  1.00  0.00    -0.351 N 
ATOM      5  C   UNL     1      -3.311  -5.113  -0.717  1.00  0.00     0.283 C 
ATOM      6  O   UNL     1      -2.213  -5.659  -0.540  1.00  0.00    -0.268 OA
ATOM      7  H   UNL     1      -2.587  -4.556  -2.450  1.00  0.00     0.163 HD
BRANCH   5   8
ATOM      8  C   UNL     1      -4.427  -5.158   0.379  1.00  0.00     0.307 C 
BRANCH   8   9
ATOM      9  N   UNL     1      -4.885  -3.872   1.037  1.00  0.00    -0.318 N 
ATOM     10  N   UNL     1      -2.909  -1.702   1.162  1.00  0.00    -0.345 N 
ATOM     11  C   UNL     1      -2.775  -2.842   2.057  1.00  0.00     0.179 C 
ATOM     12  C   UNL     1      -3.605  -2.000  -0.088  1.00  0.00     0.179 C 
ATOM     13  C   UNL     1      -4.209  -3.360   2.252  1.00  0.00     0.284 C 
ATOM     14  C   UNL     1      -4.957  -2.717   0.147  1.00  0.00     0.284 C 
ATOM     15  H   UNL     1      -5.792  -4.241   1.323  1.00  0.00     0.349 HD
BRANCH  10  16
ATOM     16  C   UNL     1      -1.808  -0.882   0.945  1.00  0.00     0.129 A 
ATOM     17  C   UNL     1      -1.449   2.741   0.005  1.00  0.00     0.045 C 
ATOM     18  C   UNL     1      -1.072   1.323   0.314  1.00  0.00    -0.038 A 
ATOM     19  C   UNL     1      -2.083   0.456   0.702  1.00  0.00     0.051 A 
ATOM     20  C   UNL     1       0.239   0.821   0.228  1.00  0.00     0.003 A 
ATOM     21  C   UNL     1       0.435  -0.561   0.481  1.00  0.00     0.073 A 
ATOM     22  C   UNL     1       1.347   1.631  -0.101  1.00  0.00     0.010 A 
ATOM     23  N   UNL     1      -0.569  -1.389   0.841  1.00  0.00    -0.231 NA
ATOM     24  C   UNL     1       1.717  -1.080   0.333  1.00  0.00     0.029 A 
ATOM     25  C   UNL     1       2.623   1.088  -0.208  1.00  0.00     0.001 A 
ATOM     26  C   UNL     1       2.806  -0.273  -0.009  1.00  0.00     0.002 A 
ENDBRANCH  10  16
ENDBRANCH   8   9
BRANCH   8  27
ATOM     27  C   UNL     1      -4.250  -6.265   1.473  1.00  0.00     0.044 A 
ATOM     28  C   UNL     1      -5.341  -6.871   2.107  1.00  0.00     0.094 A 
ATOM     29  C   UNL     1      -3.225  -6.394   2.495  1.00  0.00     0.009 A 
ATOM     30  N   UNL     1      -5.261  -6.277   3.362  1.00  0.00    -0.361 N 
ATOM     31  C   UNL     1      -3.926  -6.166   3.692  1.00  0.00     0.046 A 
ATOM     32  C   UNL     1      -1.817  -6.423   2.567  1.00  0.00     0.011 A 
ATOM     33  H   UNL     1      -6.021  -5.987   3.916  1.00  0.00     0.166 HD
ATOM     34  C   UNL     1      -3.308  -5.712   4.865  1.00  0.00     0.026 A 
ATOM     35  C   UNL     1      -1.181  -6.132   3.787  1.00  0.00     0.001 A 
ATOM     36  C   UNL     1      -1.914  -5.699   4.889  1.00  0.00     0.002 A 
ENDBRANCH   8  27
ENDBRANCH   5   8
ENDBRANCH   3   4
ENDBRANCH   2   3
ENDBRANCH   1   2
BRANCH   1  37
ATOM     37  C   UNL     1      -2.672  -1.462  -4.636  1.00  0.00     0.116 C 
BRANCH  37  38
ATOM     38  N   UNL     1      -3.448  -0.356  -5.182  1.00  0.00    -0.352 N 
ATOM     39  C   UNL     1      -3.014   0.717  -5.931  1.00  0.00     0.251 C 
ATOM     40  H   UNL     1      -4.414  -0.379  -4.990  1.00  0.00     0.163 HD
ATOM     41  O   UNL     1      -3.771   1.648  -6.156  1.00  0.00    -0.269 OA
BRANCH  39  42
ATOM     42  C   UNL     1      -1.621   0.738  -6.439  1.00  0.00     0.039 A 
ATOM     43  C   UNL     1      -0.920   1.947  -6.457  1.00  0.00     0.014 A 
ATOM     44  C   UNL     1      -1.008  -0.431  -6.893  1.00  0.00     0.014 A 
ATOM     45  C   UNL     1       0.408   1.968  -6.889  1.00  0.00     0.010 A 
ATOM     46  C   UNL     1       0.342  -0.430  -7.209  1.00  0.00     0.010 A 
ATOM     47  C   UNL     1       1.056   0.774  -7.244  1.00  0.00    -0.014 A 
BRANCH  47  48
ATOM     48  C   UNL     1       2.468   0.757  -7.697  1.00  0.00     0.031 A 
ATOM     49  C   UNL     1       2.800   0.247  -9.076  1.00  0.00     0.074 A 
ATOM     50  C   UNL     1       3.446   1.115  -6.843  1.00  0.00     0.049 A 
ATOM     51  N   UNL     1       3.970   0.086  -9.635  1.00  0.00    -0.248 NA
ATOM     52  C   UNL     1       1.672  -0.172  -9.930  1.00  0.00     0.031 C 
ATOM     53  C   UNL     1       3.245   1.535  -5.453  1.00  0.00     0.029 A 
ATOM     54  N   UNL     1       4.807   1.156  -7.007  1.00  0.00    -0.354 N 
ATOM     55  C   UNL     1       3.722  -0.494 -10.874  1.00  0.00     0.074 A 
ATOM     56  C   UNL     1       2.296  -0.692 -10.976  1.00  0.00     0.031 C 
ATOM     57  C   UNL     1       4.438   1.801  -4.896  1.00  0.00     0.029 A 
ATOM     58  C   UNL     1       5.488   1.534  -5.873  1.00  0.00     0.049 A 
ATOM     59  H   UNL     1       5.254   0.936  -7.856  1.00  0.00     0.167 HD
ATOM     60  C   UNL     1       4.603  -0.804 -11.853  1.00  0.00     0.034 A 
ATOM     61  C   UNL     1       6.812   1.639  -5.647  1.00  0.00     0.034 A 
ATOM     62  C   UNL     1       6.013  -0.548 -11.764  1.00  0.00     0.049 A 
ATOM     63  C   UNL     1       7.762   1.342  -6.776  1.00  0.00     0.074 A 
ATOM     64  C   UNL     1       6.981  -0.724 -12.735  1.00  0.00     0.029 A 
ATOM     65  N   UNL     1       6.656  -0.068 -10.634  1.00  0.00    -0.354 N 
ATOM     66  N   UNL     1       7.493   0.955  -8.000  1.00  0.00    -0.248 NA
ATOM     67  C   UNL     1       9.194   1.532  -6.508  1.00  0.00     0.031 C 
ATOM     68  C   UNL     1       8.217  -0.383 -12.181  1.00  0.00     0.029 A 
ATOM     69  C   UNL     1       8.012   0.047 -10.879  1.00  0.00     0.049 A 
ATOM     70  H   UNL     1       6.214   0.157  -9.784  1.00  0.00     0.167 HD
ATOM     71  C   UNL     1       8.716   0.895  -8.657  1.00  0.00     0.074 A 
ATOM     72  C   UNL     1       9.723   1.309  -7.703  1.00  0.00     0.031 C 
ATOM     73  C   UNL     1       8.987   0.517  -9.931  1.00  0.00     0.034 A 
BRANCH  60  74
ATOM     74  C   UNL     1       4.070  -1.409 -13.126  1.00  0.00     0.023 A 
ATOM     75  C   UNL     1       3.318  -0.617 -14.018  1.00  0.00     0.012 A 
ATOM     76  C   UNL     1       4.387  -2.735 -13.478  1.00  0.00     0.148 A 
ATOM     77  C   UNL     1       2.869  -1.143 -15.229  1.00  0.00     0.002 A 
ATOM     78  C   UNL     1       3.978  -3.237 -14.708  1.00  0.00     0.091 A 
ATOM     79  F   UNL     1       5.085  -3.478 -12.607  1.00  0.00    -0.205 F 
ATOM     80  C   UNL     1       3.211  -2.446 -15.579  1.00  0.00     0.022 A 
BRANCH  78  81
ATOM     81  S   UNL     1       4.436  -4.872 -15.291  1.00  0.00     0.127 S 
ATOM     82  O   UNL     1       3.135  -5.537 -15.357  1.00  0.00    -0.237 OA
ATOM     83  O   UNL     1       5.035  -4.574 -16.593  1.00  0.00    -0.237 OA
ATOM     84  O   UNL     1       5.358  -5.412 -14.303  1.00  0.00    -0.744 OA
ENDBRANCH  78  81
ENDBRANCH  60  74
BRANCH  61  85
ATOM     85  C   UNL     1       7.319   2.084  -4.317  1.00  0.00     0.023 A 
ATOM     86  C   UNL     1       7.970   3.327  -4.198  1.00  0.00     0.012 A 
ATOM     87  C   UNL     1       7.158   1.283  -3.170  1.00  0.00     0.148 A 
ATOM     88  C   UNL     1       8.498   3.742  -2.974  1.00  0.00     0.002 A 
ATOM     89  C   UNL     1       7.629   1.730  -1.942  1.00  0.00     0.091 A 
ATOM     90  F   UNL     1       6.541   0.101  -3.301  1.00  0.00    -0.205 F 
ATOM     91  C   UNL     1       8.321   2.948  -1.845  1.00  0.00     0.022 A 
BRANCH  89  92
ATOM     92  S   UNL     1       7.316   0.844  -0.413  1.00  0.00     0.127 S 
ATOM     93  O   UNL     1       8.647   0.350  -0.073  1.00  0.00    -0.237 OA
ATOM     94  O   UNL     1       6.810   1.910   0.452  1.00  0.00    -0.237 OA
ATOM     95  O   UNL     1       6.327  -0.173  -0.745  1.00  0.00    -0.744 OA
ENDBRANCH  89  92
ENDBRANCH  61  85
BRANCH  73  96
ATOM     96  C   UNL     1      10.418   0.585 -10.388  1.00  0.00     0.023 A 
ATOM     97  C   UNL     1      11.360  -0.343  -9.904  1.00  0.00     0.012 A 
ATOM     98  C   UNL     1      10.807   1.526 -11.362  1.00  0.00     0.148 A 
ATOM     99  C   UNL     1      12.679  -0.311 -10.354  1.00  0.00     0.002 A 
ATOM    100  C   UNL     1      12.108   1.515 -11.847  1.00  0.00     0.091 A 
ATOM    101  F   UNL     1       9.897   2.410 -11.797  1.00  0.00    -0.205 F 
ATOM    102  C   UNL     1      13.049   0.608 -11.333  1.00  0.00     0.022 A 
BRANCH 100 103
ATOM    103  S   UNL     1      12.645   2.590 -13.182  1.00  0.00     0.127 S 
ATOM    104  O   UNL     1      13.531   3.516 -12.479  1.00  0.00    -0.237 OA
ATOM    105  O   UNL     1      13.325   1.653 -14.077  1.00  0.00    -0.237 OA
ATOM    106  O   UNL     1      11.435   3.183 -13.734  1.00  0.00    -0.744 OA
ENDBRANCH 100 103
ENDBRANCH  73  96
ENDBRANCH  47  48
ENDBRANCH  39  42
ENDBRANCH  37  38
ENDBRANCH   1  37
TORSDOF 17
