REMARK SMILES Cc1nc(-c2ccco2)nc(S)c1C(=O)NCCCCNC(=O)c1ccc(-c2c3nc(c(-c4cccc(S(=O)(=O)[O-])c4F)c4ccc([nH]4)c(-c4cccc(S(=O)(=O)[O-])c4F)c4nc(c(-c5cccc(S(=O)(=O)[O-])c5F)c5ccc2[nH]5)C=C4)C=C3)cc1
REMARK SMILES IDX 19 1 18 2 17 3 16 4 14 5 15 6 13 8 1 9 2 10 3 11 4 12 11 13
REMARK SMILES IDX 10 14 5 15 6 16 9 17 7 18 8 19 12 20 20 22 21 23 22 24 23 26
REMARK SMILES IDX 24 27 25 28 86 29 26 30 85 31 27 32 28 33 29 34 79 35 30 36
REMARK SMILES IDX 84 37 78 38 80 39 31 40 83 41 77 42 76 43 32 45 64 46 44 47
REMARK SMILES IDX 63 48 45 49 48 50 62 51 81 52 46 53 47 54 61 56 82 57 49 58
REMARK SMILES IDX 33 59 34 60 42 61 35 62 37 63 43 64 36 65 38 66 39 67 40 68
REMARK SMILES IDX 41 69 65 70 66 71 74 72 67 73 69 74 75 75 68 76 70 77 71 78
REMARK SMILES IDX 72 79 73 80 50 81 51 82 59 83 52 84 54 85 60 86 53 87 55 88
REMARK SMILES IDX 56 89 57 90 58 91
REMARK H PARENT 16 7 12 21 21 25 80 44 48 55
REMARK Flexibility Score: inf
ROOT
ATOM      1  C   UNL     1       0.844   3.473  -1.326  1.00  0.00     0.023 C 
ENDROOT
BRANCH   1   2
ATOM      2  C   UNL     1       0.935   2.073  -0.737  1.00  0.00     0.023 C 
BRANCH   2   3
ATOM      3  C   UNL     1      -0.398   1.331  -0.586  1.00  0.00     0.116 C 
BRANCH   3   4
ATOM      4  N   UNL     1      -0.719   0.675  -1.838  1.00  0.00    -0.352 N 
ATOM      5  C   UNL     1      -0.517  -0.599  -2.297  1.00  0.00     0.255 C 
ATOM      6  O   UNL     1      -0.705  -0.795  -3.499  1.00  0.00    -0.269 OA
ATOM      7  H   UNL     1      -1.171   1.262  -2.486  1.00  0.00     0.163 HD
BRANCH   5   8
ATOM      8  C   UNL     1      -0.163  -1.767  -1.458  1.00  0.00     0.093 A 
ATOM      9  C   UNL     1       2.017  -0.855  -0.448  1.00  0.00     0.068 C 
ATOM     10  C   UNL     1       0.973  -1.893  -0.668  1.00  0.00     0.055 A 
ATOM     11  N   UNL     1       1.306  -3.051  -0.056  1.00  0.00    -0.230 NA
ATOM     12  C   UNL     1       0.560  -4.129  -0.307  1.00  0.00     0.196 A 
ATOM     13  C   UNL     1      -0.886  -2.958  -1.626  1.00  0.00     0.110 A 
ATOM     14  N   UNL     1      -0.523  -4.148  -1.083  1.00  0.00    -0.218 NA
BRANCH  12  15
ATOM     15  C   UNL     1       1.161  -5.382   0.088  1.00  0.00     0.171 A 
ATOM     16  C   UNL     1       1.764  -6.406  -0.615  1.00  0.00     0.054 A 
ATOM     17  O   UNL     1       1.301  -5.595   1.431  1.00  0.00    -0.461 OA
ATOM     18  C   UNL     1       2.324  -7.278   0.349  1.00  0.00     0.043 A 
ATOM     19  C   UNL     1       2.003  -6.748   1.577  1.00  0.00     0.196 A 
ENDBRANCH  12  15
BRANCH  13  20
ATOM     20  S   UNL     1      -2.407  -3.090  -2.568  1.00  0.00    -0.123 SA
ATOM     21  H   UNL     1      -2.851  -4.375  -2.533  1.00  0.00     0.110 HD
ENDBRANCH  13  20
ENDBRANCH   5   8
ENDBRANCH   3   4
ENDBRANCH   2   3
ENDBRANCH   1   2
BRANCH   1  22
ATOM     22  C   UNL     1       0.280   4.507  -0.371  1.00  0.00     0.116 C 
BRANCH  22  23
ATOM     23  N   UNL     1       1.052   4.651   0.858  1.00  0.00    -0.352 N 
ATOM     24  C   UNL     1       1.320   5.808   1.556  1.00  0.00     0.251 C 
ATOM     25  H   UNL     1       1.427   3.822   1.234  1.00  0.00     0.163 HD
ATOM     26  O   UNL     1       2.043   5.792   2.545  1.00  0.00    -0.269 OA
BRANCH  24  27
ATOM     27  C   UNL     1       0.757   7.067   1.036  1.00  0.00     0.039 A 
ATOM     28  C   UNL     1      -0.602   7.133   0.722  1.00  0.00     0.014 A 
ATOM     29  C   UNL     1       1.623   8.111   0.710  1.00  0.00     0.014 A 
ATOM     30  C   UNL     1      -1.057   8.158  -0.093  1.00  0.00     0.010 A 
ATOM     31  C   UNL     1       1.137   9.192  -0.025  1.00  0.00     0.010 A 
ATOM     32  C   UNL     1      -0.192   9.196  -0.478  1.00  0.00    -0.014 A 
BRANCH  32  33
ATOM     33  C   UNL     1      -0.703  10.291  -1.337  1.00  0.00     0.031 A 
ATOM     34  C   UNL     1      -0.139  10.527  -2.711  1.00  0.00     0.074 A 
ATOM     35  C   UNL     1      -1.700  11.063  -0.867  1.00  0.00     0.049 A 
ATOM     36  N   UNL     1      -0.429  11.474  -3.565  1.00  0.00    -0.248 NA
ATOM     37  C   UNL     1       0.885   9.583  -3.193  1.00  0.00     0.031 C 
ATOM     38  C   UNL     1      -2.322  10.917   0.451  1.00  0.00     0.029 A 
ATOM     39  N   UNL     1      -2.370  12.112  -1.438  1.00  0.00    -0.354 N 
ATOM     40  C   UNL     1       0.402  11.273  -4.660  1.00  0.00     0.074 A 
ATOM     41  C   UNL     1       1.210  10.109  -4.367  1.00  0.00     0.031 C 
ATOM     42  C   UNL     1      -3.306  11.816   0.575  1.00  0.00     0.029 A 
ATOM     43  C   UNL     1      -3.337  12.650  -0.621  1.00  0.00     0.049 A 
ATOM     44  H   UNL     1      -2.179  12.449  -2.343  1.00  0.00     0.167 HD
ATOM     45  C   UNL     1       0.472  11.987  -5.809  1.00  0.00     0.034 A 
ATOM     46  C   UNL     1      -4.144  13.712  -0.801  1.00  0.00     0.034 A 
ATOM     47  C   UNL     1      -0.370  13.116  -6.106  1.00  0.00     0.049 A 
ATOM     48  C   UNL     1      -4.051  14.478  -2.087  1.00  0.00     0.074 A 
ATOM     49  C   UNL     1      -0.383  13.902  -7.245  1.00  0.00     0.029 A 
ATOM     50  N   UNL     1      -1.357  13.613  -5.267  1.00  0.00    -0.354 N 
ATOM     51  N   UNL     1      -3.287  14.247  -3.127  1.00  0.00    -0.248 NA
ATOM     52  C   UNL     1      -4.937  15.639  -2.233  1.00  0.00     0.031 C 
ATOM     53  C   UNL     1      -1.378  14.874  -7.094  1.00  0.00     0.029 A 
ATOM     54  C   UNL     1      -1.991  14.688  -5.865  1.00  0.00     0.049 A 
ATOM     55  H   UNL     1      -1.574  13.253  -4.377  1.00  0.00     0.167 HD
ATOM     56  C   UNL     1      -3.609  15.223  -4.059  1.00  0.00     0.074 A 
ATOM     57  C   UNL     1      -4.660  16.031  -3.471  1.00  0.00     0.031 C 
ATOM     58  C   UNL     1      -3.067  15.448  -5.282  1.00  0.00     0.034 A 
BRANCH  45  59
ATOM     59  C   UNL     1       1.458  11.548  -6.859  1.00  0.00     0.023 A 
ATOM     60  C   UNL     1       1.165  10.423  -7.655  1.00  0.00     0.012 A 
ATOM     61  C   UNL     1       2.623  12.296  -7.124  1.00  0.00     0.148 A 
ATOM     62  C   UNL     1       2.021  10.039  -8.687  1.00  0.00     0.002 A 
ATOM     63  C   UNL     1       3.454  11.928  -8.178  1.00  0.00     0.091 A 
ATOM     64  F   UNL     1       2.900  13.348  -6.340  1.00  0.00    -0.205 F 
ATOM     65  C   UNL     1       3.157  10.798  -8.956  1.00  0.00     0.022 A 
BRANCH  63  66
ATOM     66  S   UNL     1       4.899  12.888  -8.647  1.00  0.00     0.127 S 
ATOM     67  O   UNL     1       5.985  12.055  -8.134  1.00  0.00    -0.237 OA
ATOM     68  O   UNL     1       4.793  12.919 -10.107  1.00  0.00    -0.237 OA
ATOM     69  O   UNL     1       4.741  14.184  -8.003  1.00  0.00    -0.744 OA
ENDBRANCH  63  66
ENDBRANCH  45  59
BRANCH  46  70
ATOM     70  C   UNL     1      -5.137  14.053   0.254  1.00  0.00     0.023 A 
ATOM     71  C   UNL     1      -6.504  13.823   0.011  1.00  0.00     0.012 A 
ATOM     72  C   UNL     1      -4.729  14.491   1.530  1.00  0.00     0.148 A 
ATOM     73  C   UNL     1      -7.447  14.023   1.019  1.00  0.00     0.002 A 
ATOM     74  C   UNL     1      -5.665  14.623   2.548  1.00  0.00     0.091 A 
ATOM     75  F   UNL     1      -3.425  14.726   1.735  1.00  0.00    -0.205 F 
ATOM     76  C   UNL     1      -7.027  14.403   2.291  1.00  0.00     0.022 A 
BRANCH  74  77
ATOM     77  S   UNL     1      -5.182  14.932   4.251  1.00  0.00     0.127 S 
ATOM     78  O   UNL     1      -5.545  16.337   4.415  1.00  0.00    -0.237 OA
ATOM     79  O   UNL     1      -6.026  13.987   4.985  1.00  0.00    -0.237 OA
ATOM     80  O   UNL     1      -3.759  14.628   4.312  1.00  0.00    -0.744 OA
ENDBRANCH  74  77
ENDBRANCH  46  70
BRANCH  58  81
ATOM     81  C   UNL     1      -3.604  16.609  -6.072  1.00  0.00     0.023 A 
ATOM     82  C   UNL     1      -3.228  17.919  -5.715  1.00  0.00     0.012 A 
ATOM     83  C   UNL     1      -4.411  16.402  -7.206  1.00  0.00     0.148 A 
ATOM     84  C   UNL     1      -3.669  19.009  -6.464  1.00  0.00     0.002 A 
ATOM     85  C   UNL     1      -4.813  17.491  -7.971  1.00  0.00     0.091 A 
ATOM     86  F   UNL     1      -4.778  15.150  -7.515  1.00  0.00    -0.205 F 
ATOM     87  C   UNL     1      -4.450  18.795  -7.598  1.00  0.00     0.022 A 
BRANCH  85  88
ATOM     88  S   UNL     1      -5.745  17.285  -9.493  1.00  0.00     0.127 S 
ATOM     89  O   UNL     1      -7.113  17.524  -9.041  1.00  0.00    -0.237 OA
ATOM     90  O   UNL     1      -5.193  18.335 -10.350  1.00  0.00    -0.237 OA
ATOM     91  O   UNL     1      -5.454  15.931  -9.947  1.00  0.00    -0.744 OA
ENDBRANCH  85  88
ENDBRANCH  58  81
ENDBRANCH  32  33
ENDBRANCH  24  27
ENDBRANCH  22  23
ENDBRANCH   1  22
TORSDOF 16
