REMARK SMILES CC[C@H](C)N1C(=O)c2ccccc2[C@@H](C(=O)NCCCCNC(=O)c2ccc(-c3c4nc(c(-c5cccc(S(=O)(=O)[O-])c5F)c5ccc([nH]5)c(-c5cccc(S(=O)(=O)[O-])c5F)c5nc(c(-c6cccc(S(=O)(=O)[O-])c6F)c6ccc3[nH]6)C=C5)C=C4)cc2)C12CCCCC2
REMARK SMILES IDX 20 1 19 2 18 3 17 4 15 5 16 6 14 8 5 9 6 10 88 11 7 12 8 13
REMARK SMILES IDX 89 14 93 15 9 16 13 17 90 18 92 19 10 20 12 21 91 22 11 23
REMARK SMILES IDX 3 24 4 25 2 26 1 27 21 28 22 29 23 30 24 32 25 33 26 34
REMARK SMILES IDX 87 35 27 36 86 37 28 38 29 39 30 40 80 41 31 42 85 43 79 44
REMARK SMILES IDX 81 45 32 46 84 47 78 48 77 49 33 51 65 52 45 53 64 54 46 55
REMARK SMILES IDX 49 56 63 57 82 58 47 59 48 60 62 62 83 63 50 64 34 65 35 66
REMARK SMILES IDX 43 67 36 68 38 69 44 70 37 71 39 72 40 73 41 74 42 75 66 76
REMARK SMILES IDX 67 77 75 78 68 79 70 80 76 81 69 82 71 83 72 84 73 85 74 86
REMARK SMILES IDX 51 87 52 88 60 89 53 90 55 91 61 92 54 93 56 94 57 95 58 96
REMARK SMILES IDX 59 97
REMARK H PARENT 17 7 22 31 81 50 49 61
REMARK Flexibility Score: inf
ROOT
ATOM      1  C   UNL     1       2.495  -6.515  -6.414  1.00  0.00     0.023 C 
ENDROOT
BRANCH   1   2
ATOM      2  C   UNL     1       1.612  -5.509  -5.699  1.00  0.00     0.023 C 
BRANCH   2   3
ATOM      3  C   UNL     1       0.505  -6.120  -4.836  1.00  0.00     0.116 C 
BRANCH   3   4
ATOM      4  N   UNL     1       0.986  -7.110  -3.884  1.00  0.00    -0.355 N 
ATOM      5  C   UNL     1       0.935  -7.171  -2.523  1.00  0.00     0.229 C 
ATOM      6  O   UNL     1       1.363  -8.206  -2.000  1.00  0.00    -0.274 OA
ATOM      7  H   UNL     1       1.432  -7.882  -4.302  1.00  0.00     0.163 HD
BRANCH   5   8
ATOM      8  C   UNL     1       0.332  -6.055  -1.651  1.00  0.00     0.135 C 
ATOM      9  N   UNL     1       0.398  -3.520  -1.216  1.00  0.00    -0.329 N 
ATOM     10  C   UNL     1      -0.781  -3.334  -1.952  1.00  0.00     0.254 C 
ATOM     11  C   UNL     1       1.253  -4.789  -1.365  1.00  0.00     0.059 C 
ATOM     12  O   UNL     1      -1.278  -2.242  -2.211  1.00  0.00    -0.269 OA
ATOM     13  C   UNL     1      -1.552  -4.524  -2.361  1.00  0.00     0.044 A 
ATOM     14  C   UNL     1       2.299  -4.425  -2.452  1.00  0.00     0.030 C 
ATOM     15  C   UNL     1       2.084  -5.099  -0.063  1.00  0.00     0.030 C 
ATOM     16  C   UNL     1      -2.810  -4.345  -2.966  1.00  0.00     0.014 A 
ATOM     17  C   UNL     1      -1.098  -5.804  -2.083  1.00  0.00    -0.020 A 
ATOM     18  C   UNL     1       3.482  -5.377  -2.646  1.00  0.00     0.002 C 
ATOM     19  C   UNL     1       3.210  -6.120  -0.241  1.00  0.00     0.002 C 
ATOM     20  C   UNL     1      -3.641  -5.435  -3.224  1.00  0.00     0.001 A 
ATOM     21  C   UNL     1      -1.977  -6.892  -2.278  1.00  0.00     0.005 A 
ATOM     22  C   UNL     1       4.183  -5.714  -1.340  1.00  0.00     0.000 C 
ATOM     23  C   UNL     1      -3.236  -6.709  -2.847  1.00  0.00     0.000 A 
BRANCH   9  24
ATOM     24  C   UNL     1       0.917  -2.380  -0.404  1.00  0.00     0.082 C 
ATOM     25  C   UNL     1       0.701  -0.965  -0.967  1.00  0.00     0.031 C 
BRANCH  24  26
ATOM     26  C   UNL     1       0.369  -2.486   1.032  1.00  0.00     0.021 C 
ATOM     27  C   UNL     1       1.308  -1.858   2.052  1.00  0.00     0.006 C 
ENDBRANCH  24  26
ENDBRANCH   9  24
ENDBRANCH   5   8
ENDBRANCH   3   4
ENDBRANCH   2   3
ENDBRANCH   1   2
BRANCH   1  28
ATOM     28  C   UNL     1       1.734  -7.340  -7.429  1.00  0.00     0.116 C 
BRANCH  28  29
ATOM     29  N   UNL     1       1.234  -6.517  -8.525  1.00  0.00    -0.352 N 
ATOM     30  C   UNL     1       1.610  -6.532  -9.848  1.00  0.00     0.251 C 
ATOM     31  H   UNL     1       0.535  -5.865  -8.287  1.00  0.00     0.163 HD
ATOM     32  O   UNL     1       1.277  -5.627 -10.605  1.00  0.00    -0.269 OA
BRANCH  30  33
ATOM     33  C   UNL     1       2.445  -7.653 -10.317  1.00  0.00     0.039 A 
ATOM     34  C   UNL     1       2.110  -8.950  -9.925  1.00  0.00     0.014 A 
ATOM     35  C   UNL     1       3.610  -7.405 -11.044  1.00  0.00     0.014 A 
ATOM     36  C   UNL     1       3.046  -9.959 -10.063  1.00  0.00     0.010 A 
ATOM     37  C   UNL     1       4.489  -8.460 -11.303  1.00  0.00     0.010 A 
ATOM     38  C   UNL     1       4.239  -9.734 -10.770  1.00  0.00    -0.014 A 
BRANCH  38  39
ATOM     39  C   UNL     1       5.176 -10.868 -10.960  1.00  0.00     0.031 A 
ATOM     40  C   UNL     1       6.584 -10.818 -10.434  1.00  0.00     0.074 A 
ATOM     41  C   UNL     1       4.713 -11.980 -11.566  1.00  0.00     0.049 A 
ATOM     42  N   UNL     1       7.522 -11.725 -10.529  1.00  0.00    -0.248 NA
ATOM     43  C   UNL     1       7.003  -9.603  -9.714  1.00  0.00     0.031 C 
ATOM     44  C   UNL     1       3.363 -12.136 -12.118  1.00  0.00     0.029 A 
ATOM     45  N   UNL     1       5.301 -13.197 -11.791  1.00  0.00    -0.354 N 
ATOM     46  C   UNL     1       8.652 -11.172  -9.939  1.00  0.00     0.074 A 
ATOM     47  C   UNL     1       8.284  -9.854  -9.473  1.00  0.00     0.031 C 
ATOM     48  C   UNL     1       3.201 -13.396 -12.542  1.00  0.00     0.029 A 
ATOM     49  C   UNL     1       4.458 -14.112 -12.377  1.00  0.00     0.049 A 
ATOM     50  H   UNL     1       6.236 -13.396 -11.556  1.00  0.00     0.167 HD
ATOM     51  C   UNL     1       9.878 -11.725  -9.789  1.00  0.00     0.034 A 
ATOM     52  C   UNL     1       4.673 -15.384 -12.758  1.00  0.00     0.034 A 
ATOM     53  C   UNL     1      10.213 -13.063 -10.194  1.00  0.00     0.049 A 
ATOM     54  C   UNL     1       6.035 -15.974 -12.561  1.00  0.00     0.074 A 
ATOM     55  C   UNL     1      11.424 -13.720 -10.064  1.00  0.00     0.029 A 
ATOM     56  N   UNL     1       9.334 -13.954 -10.790  1.00  0.00    -0.354 N 
ATOM     57  N   UNL     1       7.081 -15.439 -11.982  1.00  0.00    -0.248 NA
ATOM     58  C   UNL     1       6.250 -17.333 -13.072  1.00  0.00     0.031 C 
ATOM     59  C   UNL     1      11.276 -15.012 -10.578  1.00  0.00     0.029 A 
ATOM     60  C   UNL     1       9.972 -15.158 -11.026  1.00  0.00     0.049 A 
ATOM     61  H   UNL     1       8.395 -13.758 -11.011  1.00  0.00     0.167 HD
ATOM     62  C   UNL     1       8.082 -16.396 -12.055  1.00  0.00     0.074 A 
ATOM     63  C   UNL     1       7.508 -17.555 -12.710  1.00  0.00     0.031 C 
ATOM     64  C   UNL     1       9.368 -16.311 -11.638  1.00  0.00     0.034 A 
BRANCH  51  65
ATOM     65  C   UNL     1      10.952 -10.913  -9.118  1.00  0.00     0.023 A 
ATOM     66  C   UNL     1      10.986 -10.846  -7.712  1.00  0.00     0.012 A 
ATOM     67  C   UNL     1      11.987 -10.320  -9.867  1.00  0.00     0.148 A 
ATOM     68  C   UNL     1      12.033 -10.197  -7.059  1.00  0.00     0.002 A 
ATOM     69  C   UNL     1      13.042  -9.698  -9.209  1.00  0.00     0.091 A 
ATOM     70  F   UNL     1      11.926 -10.390 -11.205  1.00  0.00    -0.205 F 
ATOM     71  C   UNL     1      13.065  -9.633  -7.806  1.00  0.00     0.022 A 
BRANCH  69  72
ATOM     72  S   UNL     1      14.449  -8.987 -10.072  1.00  0.00     0.127 S 
ATOM     73  O   UNL     1      14.313  -7.569  -9.737  1.00  0.00    -0.237 OA
ATOM     74  O   UNL     1      15.575  -9.661  -9.428  1.00  0.00    -0.237 OA
ATOM     75  O   UNL     1      14.264  -9.308 -11.480  1.00  0.00    -0.744 OA
ENDBRANCH  69  72
ENDBRANCH  51  65
BRANCH  52  76
ATOM     76  C   UNL     1       3.548 -16.171 -13.329  1.00  0.00     0.023 A 
ATOM     77  C   UNL     1       2.945 -17.172 -12.545  1.00  0.00     0.012 A 
ATOM     78  C   UNL     1       3.007 -15.862 -14.592  1.00  0.00     0.148 A 
ATOM     79  C   UNL     1       1.820 -17.854 -13.011  1.00  0.00     0.002 A 
ATOM     80  C   UNL     1       1.858 -16.508 -15.027  1.00  0.00     0.091 A 
ATOM     81  F   UNL     1       3.606 -14.910 -15.321  1.00  0.00    -0.205 F 
ATOM     82  C   UNL     1       1.268 -17.512 -14.243  1.00  0.00     0.022 A 
BRANCH  80  83
ATOM     83  S   UNL     1       1.001 -16.038 -16.535  1.00  0.00     0.127 S 
ATOM     84  O   UNL     1       1.238 -17.201 -17.386  1.00  0.00    -0.237 OA
ATOM     85  O   UNL     1      -0.376 -15.887 -16.064  1.00  0.00    -0.237 OA
ATOM     86  O   UNL     1       1.626 -14.798 -16.973  1.00  0.00    -0.744 OA
ENDBRANCH  80  83
ENDBRANCH  52  76
BRANCH  64  87
ATOM     87  C   UNL     1      10.252 -17.501 -11.871  1.00  0.00     0.023 A 
ATOM     88  C   UNL     1      10.825 -17.690 -13.142  1.00  0.00     0.012 A 
ATOM     89  C   UNL     1      10.601 -18.356 -10.809  1.00  0.00     0.148 A 
ATOM     90  C   UNL     1      11.735 -18.723 -13.357  1.00  0.00     0.002 A 
ATOM     91  C   UNL     1      11.532 -19.364 -11.023  1.00  0.00     0.091 A 
ATOM     92  F   UNL     1      10.028 -18.156  -9.614  1.00  0.00    -0.205 F 
ATOM     93  C   UNL     1      12.096 -19.552 -12.296  1.00  0.00     0.022 A 
BRANCH  91  94
ATOM     94  S   UNL     1      12.115 -20.436  -9.705  1.00  0.00     0.127 S 
ATOM     95  O   UNL     1      11.566 -21.729 -10.111  1.00  0.00    -0.237 OA
ATOM     96  O   UNL     1      13.567 -20.320  -9.834  1.00  0.00    -0.237 OA
ATOM     97  O   UNL     1      11.568 -19.891  -8.470  1.00  0.00    -0.744 OA
ENDBRANCH  91  94
ENDBRANCH  64  87
ENDBRANCH  38  39
ENDBRANCH  30  33
ENDBRANCH  28  29
ENDBRANCH   1  28
TORSDOF 16
