REMARK SMILES C[C@@H](C(=O)NCCCCNC(=O)c1ccc(-c2c3nc(c(-c4cccc(S(=O)(=O)[O-])c4F)c4ccc([nH]4)c(-c4cccc(S(=O)(=O)[O-])c4F)c4nc(c(-c5cccc(S(=O)(=O)[O-])c5F)c5ccc2[nH]5)C=C4)C=C3)cc1)c1ccc(Cc2ccsc2)cc1F
REMARK SMILES IDX 7 1 6 2 5 3 3 4 4 5 2 7 1 8 76 9 77 10 87 11 78 12 86 13
REMARK SMILES IDX 88 14 79 15 80 16 81 17 82 18 85 19 83 20 84 21 8 22 9 23
REMARK SMILES IDX 10 24 11 25 12 27 13 28 14 29 75 30 15 31 74 32 16 33 17 34
REMARK SMILES IDX 18 35 68 36 19 37 73 38 67 39 69 40 20 41 72 42 66 43 65 44
REMARK SMILES IDX 21 46 53 47 33 48 52 49 34 50 37 51 51 52 70 53 35 54 36 55
REMARK SMILES IDX 50 57 71 58 38 59 22 60 23 61 31 62 24 63 26 64 32 65 25 66
REMARK SMILES IDX 27 67 28 68 29 69 30 70 54 71 55 72 63 73 56 74 58 75 64 76
REMARK SMILES IDX 57 77 59 78 60 79 61 80 62 81 39 82 40 83 48 84 41 85 43 86
REMARK SMILES IDX 49 87 42 88 44 89 45 90 46 91 47 92
REMARK H PARENT 5 6 10 26 69 45 37 56
REMARK Flexibility Score: inf
ROOT
ATOM      1  C   UNL     1       4.284   0.512  -1.121  1.00  0.00     0.023 C 
ENDROOT
BRANCH   1   2
ATOM      2  C   UNL     1       3.447   1.760  -0.833  1.00  0.00     0.116 C 
BRANCH   2   3
ATOM      3  N   UNL     1       2.342   1.877  -1.762  1.00  0.00    -0.356 N 
ATOM      4  C   UNL     1       1.028   1.532  -1.620  1.00  0.00     0.227 C 
ATOM      5  O   UNL     1       0.312   1.649  -2.617  1.00  0.00    -0.274 OA
ATOM      6  H   UNL     1       2.575   2.267  -2.635  1.00  0.00     0.163 HD
BRANCH   4   7
ATOM      7  C   UNL     1       0.481   1.084  -0.249  1.00  0.00     0.108 C 
ATOM      8  C   UNL     1       1.024  -0.294   0.138  1.00  0.00     0.023 C 
BRANCH   7   9
ATOM      9  C   UNL     1      -1.044   1.194  -0.204  1.00  0.00    -0.000 A 
ATOM     10  C   UNL     1      -1.626   2.474  -0.230  1.00  0.00     0.008 A 
ATOM     11  C   UNL     1      -1.912   0.096  -0.190  1.00  0.00     0.127 A 
ATOM     12  C   UNL     1      -3.015   2.637  -0.254  1.00  0.00     0.004 A 
ATOM     13  C   UNL     1      -3.300   0.254  -0.181  1.00  0.00     0.043 A 
ATOM     14  F   UNL     1      -1.442  -1.159  -0.194  1.00  0.00    -0.207 F 
ATOM     15  C   UNL     1      -3.873   1.529  -0.223  1.00  0.00    -0.041 A 
BRANCH  15  16
ATOM     16  C   UNL     1      -5.370   1.694  -0.306  1.00  0.00     0.072 C 
BRANCH  16  17
ATOM     17  C   UNL     1      -5.854   2.113   1.053  1.00  0.00    -0.033 A 
ATOM     18  C   UNL     1      -5.791   3.452   1.573  1.00  0.00     0.015 A 
ATOM     19  C   UNL     1      -6.486   1.277   1.958  1.00  0.00     0.068 A 
ATOM     20  C   UNL     1      -6.337   3.566   2.832  1.00  0.00     0.065 A 
ATOM     21  S   UNL     1      -6.960   2.079   3.393  1.00  0.00    -0.152 S 
ENDBRANCH  16  17
ENDBRANCH  15  16
ENDBRANCH   7   9
ENDBRANCH   4   7
ENDBRANCH   2   3
ENDBRANCH   1   2
BRANCH   1  22
ATOM     22  C   UNL     1       5.083   0.562  -2.426  1.00  0.00     0.023 C 
BRANCH  22  23
ATOM     23  C   UNL     1       6.107   1.687  -2.520  1.00  0.00     0.116 C 
BRANCH  23  24
ATOM     24  N   UNL     1       7.104   1.642  -1.458  1.00  0.00    -0.352 N 
ATOM     25  C   UNL     1       8.453   1.890  -1.541  1.00  0.00     0.251 C 
ATOM     26  H   UNL     1       6.766   1.403  -0.564  1.00  0.00     0.163 HD
ATOM     27  O   UNL     1       9.179   1.698  -0.570  1.00  0.00    -0.269 OA
BRANCH  25  28
ATOM     28  C   UNL     1       9.025   2.356  -2.821  1.00  0.00     0.039 A 
ATOM     29  C   UNL     1      10.136   1.693  -3.350  1.00  0.00     0.014 A 
ATOM     30  C   UNL     1       8.434   3.414  -3.517  1.00  0.00     0.014 A 
ATOM     31  C   UNL     1      10.610   2.043  -4.616  1.00  0.00     0.010 A 
ATOM     32  C   UNL     1       8.866   3.716  -4.803  1.00  0.00     0.010 A 
ATOM     33  C   UNL     1       9.955   3.032  -5.367  1.00  0.00    -0.014 A 
BRANCH  33  34
ATOM     34  C   UNL     1      10.365   3.359  -6.756  1.00  0.00     0.031 A 
ATOM     35  C   UNL     1      10.859   4.739  -7.089  1.00  0.00     0.074 A 
ATOM     36  C   UNL     1      10.164   2.459  -7.739  1.00  0.00     0.049 A 
ATOM     37  N   UNL     1      11.141   5.255  -8.256  1.00  0.00    -0.248 NA
ATOM     38  C   UNL     1      11.022   5.674  -5.963  1.00  0.00     0.031 C 
ATOM     39  C   UNL     1       9.604   1.118  -7.555  1.00  0.00     0.029 A 
ATOM     40  N   UNL     1      10.363   2.553  -9.094  1.00  0.00    -0.354 N 
ATOM     41  C   UNL     1      11.466   6.584  -8.015  1.00  0.00     0.074 A 
ATOM     42  C   UNL     1      11.323   6.802  -6.591  1.00  0.00     0.031 C 
ATOM     43  C   UNL     1       9.486   0.523  -8.753  1.00  0.00     0.029 A 
ATOM     44  C   UNL     1       9.935   1.446  -9.791  1.00  0.00     0.049 A 
ATOM     45  H   UNL     1      10.772   3.337  -9.526  1.00  0.00     0.167 HD
ATOM     46  C   UNL     1      11.871   7.530  -8.893  1.00  0.00     0.034 A 
ATOM     47  C   UNL     1       9.891   1.208 -11.117  1.00  0.00     0.034 A 
ATOM     48  C   UNL     1      12.070   7.292 -10.297  1.00  0.00     0.049 A 
ATOM     49  C   UNL     1      10.413   2.251 -12.067  1.00  0.00     0.074 A 
ATOM     50  C   UNL     1      12.596   8.148 -11.248  1.00  0.00     0.029 A 
ATOM     51  N   UNL     1      11.745   6.114 -10.952  1.00  0.00    -0.354 N 
ATOM     52  N   UNL     1      10.892   3.441 -11.799  1.00  0.00    -0.248 NA
ATOM     53  C   UNL     1      10.424   1.907 -13.497  1.00  0.00     0.031 C 
ATOM     54  C   UNL     1      12.574   7.492 -12.483  1.00  0.00     0.029 A 
ATOM     55  C   UNL     1      12.049   6.223 -12.298  1.00  0.00     0.049 A 
ATOM     56  H   UNL     1      11.356   5.318 -10.523  1.00  0.00     0.167 HD
ATOM     57  C   UNL     1      11.290   3.976 -13.019  1.00  0.00     0.074 A 
ATOM     58  C   UNL     1      11.012   2.973 -14.026  1.00  0.00     0.031 C 
ATOM     59  C   UNL     1      11.823   5.195 -13.281  1.00  0.00     0.034 A 
BRANCH  46  60
ATOM     60  C   UNL     1      12.185   8.899  -8.350  1.00  0.00     0.023 A 
ATOM     61  C   UNL     1      13.347   9.088  -7.573  1.00  0.00     0.012 A 
ATOM     62  C   UNL     1      11.362  10.004  -8.641  1.00  0.00     0.148 A 
ATOM     63  C   UNL     1      13.664  10.345  -7.064  1.00  0.00     0.002 A 
ATOM     64  C   UNL     1      11.708  11.263  -8.165  1.00  0.00     0.091 A 
ATOM     65  F   UNL     1      10.247   9.802  -9.359  1.00  0.00    -0.205 F 
ATOM     66  C   UNL     1      12.852  11.434  -7.368  1.00  0.00     0.022 A 
BRANCH  64  67
ATOM     67  S   UNL     1      10.763  12.736  -8.570  1.00  0.00     0.127 S 
ATOM     68  O   UNL     1      10.018  12.959  -7.332  1.00  0.00    -0.237 OA
ATOM     69  O   UNL     1      11.814  13.720  -8.833  1.00  0.00    -0.237 OA
ATOM     70  O   UNL     1       9.962  12.385  -9.734  1.00  0.00    -0.744 OA
ENDBRANCH  64  67
ENDBRANCH  46  60
BRANCH  47  71
ATOM     71  C   UNL     1       9.389  -0.105 -11.611  1.00  0.00     0.023 A 
ATOM     72  C   UNL     1      10.301  -1.042 -12.132  1.00  0.00     0.012 A 
ATOM     73  C   UNL     1       8.027  -0.452 -11.513  1.00  0.00     0.148 A 
ATOM     74  C   UNL     1       9.864  -2.293 -12.568  1.00  0.00     0.002 A 
ATOM     75  C   UNL     1       7.607  -1.720 -11.899  1.00  0.00     0.091 A 
ATOM     76  F   UNL     1       7.173   0.459 -11.024  1.00  0.00    -0.205 F 
ATOM     77  C   UNL     1       8.521  -2.637 -12.441  1.00  0.00     0.022 A 
BRANCH  75  78
ATOM     78  S   UNL     1       5.924  -2.296 -11.643  1.00  0.00     0.127 S 
ATOM     79  O   UNL     1       5.408  -2.327 -13.009  1.00  0.00    -0.237 OA
ATOM     80  O   UNL     1       6.143  -3.609 -11.037  1.00  0.00    -0.237 OA
ATOM     81  O   UNL     1       5.308  -1.321 -10.754  1.00  0.00    -0.744 OA
ENDBRANCH  75  78
ENDBRANCH  47  71
BRANCH  59  82
ATOM     82  C   UNL     1      12.175   5.518 -14.709  1.00  0.00     0.023 A 
ATOM     83  C   UNL     1      11.152   5.825 -15.627  1.00  0.00     0.012 A 
ATOM     84  C   UNL     1      13.522   5.620 -15.111  1.00  0.00     0.148 A 
ATOM     85  C   UNL     1      11.464   6.213 -16.929  1.00  0.00     0.002 A 
ATOM     86  C   UNL     1      13.826   6.051 -16.396  1.00  0.00     0.091 A 
ATOM     87  F   UNL     1      14.479   5.305 -14.226  1.00  0.00    -0.205 F 
ATOM     88  C   UNL     1      12.798   6.340 -17.309  1.00  0.00     0.022 A 
BRANCH  86  89
ATOM     89  S   UNL     1      15.513   6.334 -16.945  1.00  0.00     0.127 S 
ATOM     90  O   UNL     1      15.716   5.222 -17.871  1.00  0.00    -0.237 OA
ATOM     91  O   UNL     1      15.417   7.649 -17.581  1.00  0.00    -0.237 OA
ATOM     92  O   UNL     1      16.337   6.304 -15.743  1.00  0.00    -0.744 OA
ENDBRANCH  86  89
ENDBRANCH  59  82
ENDBRANCH  33  34
ENDBRANCH  25  28
ENDBRANCH  23  24
ENDBRANCH  22  23
ENDBRANCH   1  22
TORSDOF 17
