REMARK SMILES CC(C)[C@@H](NC(N)=O)C(=O)N[C@H](C(=O)NCCCCNC(=O)c1ccc(-c2c3nc(c(-c4cccc(S(=O)(=O)[O-])c4F)c4ccc([nH]4)c(-c4cccc(S(=O)(=O)[O-])c4F)c4nc(c(-c5cccc(S(=O)(=O)[O-])c5F)c5ccc2[nH]5)C=C4)C=C3)cc1)[C@@H](C)O
REMARK SMILES IDX 17 1 16 2 15 3 13 4 14 5 12 7 11 8 9 9 10 10 4 12 2 13 1 14
REMARK SMILES IDX 3 15 5 16 6 17 7 19 8 20 86 23 87 24 88 25 18 27 19 28 20 29
REMARK SMILES IDX 21 30 22 32 23 33 24 34 85 35 25 36 84 37 26 38 27 39 28 40
REMARK SMILES IDX 78 41 29 42 83 43 77 44 79 45 30 46 82 47 76 48 75 49 31 51
REMARK SMILES IDX 63 52 43 53 62 54 44 55 47 56 61 57 80 58 45 59 46 60 60 62
REMARK SMILES IDX 81 63 48 64 32 65 33 66 41 67 34 68 36 69 42 70 35 71 37 72
REMARK SMILES IDX 38 73 39 74 40 75 64 76 65 77 73 78 66 79 68 80 74 81 67 82
REMARK SMILES IDX 69 83 70 84 71 85 72 86 49 87 50 88 58 89 51 90 53 91 59 92
REMARK SMILES IDX 52 93 54 94 55 95 56 96 57 97
REMARK H PARENT 15 6 11 11 5 18 7 21 7 22 88 26 20 31 79 50 47 61
REMARK Flexibility Score: inf
ROOT
ATOM      1  C   UNL     1       3.264  -3.196   0.530  1.00  0.00     0.023 C 
ENDROOT
BRANCH   1   2
ATOM      2  C   UNL     1       2.836  -3.013  -0.959  1.00  0.00     0.116 C 
BRANCH   2   3
ATOM      3  N   UNL     1       1.770  -2.042  -1.237  1.00  0.00    -0.354 N 
ATOM      4  C   UNL     1       0.834  -1.989  -2.255  1.00  0.00     0.245 C 
ATOM      5  O   UNL     1       0.301  -0.895  -2.474  1.00  0.00    -0.273 OA
ATOM      6  H   UNL     1       1.710  -1.303  -0.588  1.00  0.00     0.163 HD
BRANCH   4   7
ATOM      7  C   UNL     1       0.391  -3.276  -3.002  1.00  0.00     0.200 C 
BRANCH   7   8
ATOM      8  N   UNL     1      -0.434  -4.066  -2.088  1.00  0.00    -0.340 N 
ATOM      9  C   UNL     1       0.007  -4.533  -0.891  1.00  0.00     0.243 C 
ATOM     10  O   UNL     1       1.076  -5.126  -0.795  1.00  0.00    -0.273 OA
ATOM     11  H   UNL     1      -1.359  -4.271  -2.355  1.00  0.00     0.164 HD
BRANCH   9  12
ATOM     12  C   UNL     1      -1.001  -4.463   0.267  1.00  0.00     0.175 C 
BRANCH  12  13
ATOM     13  C   UNL     1      -1.475  -3.061   0.792  1.00  0.00     0.015 C 
ATOM     14  C   UNL     1      -1.944  -3.248   2.247  1.00  0.00     0.010 C 
ATOM     15  C   UNL     1      -0.574  -1.820   0.787  1.00  0.00     0.010 C 
ENDBRANCH  12  13
BRANCH  12  16
ATOM     16  N   UNL     1      -2.213  -5.219  -0.100  1.00  0.00    -0.326 N 
ATOM     17  C   UNL     1      -2.224  -6.418  -0.744  1.00  0.00     0.312 C 
ATOM     18  H   UNL     1      -3.083  -4.826   0.139  1.00  0.00     0.166 HD
ATOM     19  N   UNL     1      -3.441  -7.010  -0.689  1.00  0.00    -0.352 N 
ATOM     20  O   UNL     1      -1.314  -6.901  -1.378  1.00  0.00    -0.249 OA
ATOM     21  H   UNL     1      -4.166  -6.597  -0.166  1.00  0.00     0.161 HD
ATOM     22  H   UNL     1      -3.601  -7.853  -1.172  1.00  0.00     0.161 HD
ENDBRANCH  12  16
ENDBRANCH   9  12
ENDBRANCH   7   8
BRANCH   7  23
ATOM     23  C   UNL     1      -0.493  -2.993  -4.263  1.00  0.00     0.143 C 
ATOM     24  C   UNL     1      -1.868  -2.358  -3.993  1.00  0.00     0.041 C 
BRANCH  23  25
ATOM     25  O   UNL     1       0.193  -2.254  -5.273  1.00  0.00    -0.391 OA
ATOM     26  H   UNL     1       0.375  -1.357  -4.950  1.00  0.00     0.211 HD
ENDBRANCH  23  25
ENDBRANCH   7  23
ENDBRANCH   4   7
ENDBRANCH   2   3
ENDBRANCH   1   2
BRANCH   1  27
ATOM     27  C   UNL     1       2.361  -3.851   1.608  1.00  0.00     0.023 C 
BRANCH  27  28
ATOM     28  C   UNL     1       2.440  -5.361   1.901  1.00  0.00     0.116 C 
BRANCH  28  29
ATOM     29  N   UNL     1       3.715  -5.770   2.453  1.00  0.00    -0.352 N 
ATOM     30  C   UNL     1       4.075  -6.319   3.659  1.00  0.00     0.251 C 
ATOM     31  H   UNL     1       4.475  -5.626   1.843  1.00  0.00     0.163 HD
ATOM     32  O   UNL     1       5.280  -6.418   3.898  1.00  0.00    -0.269 OA
BRANCH  30  33
ATOM     33  C   UNL     1       3.108  -6.801   4.688  1.00  0.00     0.039 A 
ATOM     34  C   UNL     1       3.468  -6.634   6.035  1.00  0.00     0.014 A 
ATOM     35  C   UNL     1       1.963  -7.546   4.393  1.00  0.00     0.014 A 
ATOM     36  C   UNL     1       2.701  -7.195   7.067  1.00  0.00     0.010 A 
ATOM     37  C   UNL     1       1.170  -8.076   5.433  1.00  0.00     0.010 A 
ATOM     38  C   UNL     1       1.537  -7.924   6.782  1.00  0.00    -0.014 A 
BRANCH  38  39
ATOM     39  C   UNL     1       0.727  -8.526   7.889  1.00  0.00     0.031 A 
ATOM     40  C   UNL     1       0.602 -10.024   8.042  1.00  0.00     0.074 A 
ATOM     41  C   UNL     1       0.069  -7.729   8.757  1.00  0.00     0.049 A 
ATOM     42  N   UNL     1      -0.066 -10.714   8.935  1.00  0.00    -0.248 NA
ATOM     43  C   UNL     1       1.306 -10.856   7.054  1.00  0.00     0.031 C 
ATOM     44  C   UNL     1       0.052  -6.266   8.710  1.00  0.00     0.029 A 
ATOM     45  N   UNL     1      -0.728  -8.033   9.837  1.00  0.00    -0.354 N 
ATOM     46  C   UNL     1       0.105 -12.053   8.599  1.00  0.00     0.074 A 
ATOM     47  C   UNL     1       0.923 -12.078   7.404  1.00  0.00     0.031 C 
ATOM     48  C   UNL     1      -0.716  -5.802   9.709  1.00  0.00     0.029 A 
ATOM     49  C   UNL     1      -1.267  -6.928  10.458  1.00  0.00     0.049 A 
ATOM     50  H   UNL     1      -0.898  -8.955  10.137  1.00  0.00     0.167 HD
ATOM     51  C   UNL     1      -0.352 -13.164   9.232  1.00  0.00     0.034 A 
ATOM     52  C   UNL     1      -2.110  -6.825  11.506  1.00  0.00     0.034 A 
ATOM     53  C   UNL     1      -1.123 -13.151  10.449  1.00  0.00     0.049 A 
ATOM     54  C   UNL     1      -2.569  -8.071  12.218  1.00  0.00     0.074 A 
ATOM     55  C   UNL     1      -1.557 -14.228  11.205  1.00  0.00     0.029 A 
ATOM     56  N   UNL     1      -1.579 -12.010  11.089  1.00  0.00    -0.354 N 
ATOM     57  N   UNL     1      -2.271  -9.322  11.967  1.00  0.00    -0.248 NA
ATOM     58  C   UNL     1      -3.450  -7.888  13.382  1.00  0.00     0.031 C 
ATOM     59  C   UNL     1      -2.290 -13.738  12.291  1.00  0.00     0.029 A 
ATOM     60  C   UNL     1      -2.295 -12.355  12.225  1.00  0.00     0.049 A 
ATOM     61  H   UNL     1      -1.418 -11.088  10.782  1.00  0.00     0.167 HD
ATOM     62  C   UNL     1      -2.896 -10.071  12.958  1.00  0.00     0.074 A 
ATOM     63  C   UNL     1      -3.573  -9.132  13.828  1.00  0.00     0.031 C 
ATOM     64  C   UNL     1      -2.919 -11.416  13.122  1.00  0.00     0.034 A 
BRANCH  51  65
ATOM     65  C   UNL     1       0.017 -14.508   8.651  1.00  0.00     0.023 A 
ATOM     66  C   UNL     1       1.344 -14.971   8.765  1.00  0.00     0.012 A 
ATOM     67  C   UNL     1      -0.955 -15.341   8.059  1.00  0.00     0.148 A 
ATOM     68  C   UNL     1       1.707 -16.222   8.266  1.00  0.00     0.002 A 
ATOM     69  C   UNL     1      -0.594 -16.604   7.602  1.00  0.00     0.091 A 
ATOM     70  F   UNL     1      -2.209 -14.882   7.948  1.00  0.00    -0.205 F 
ATOM     71  C   UNL     1       0.738 -17.041   7.693  1.00  0.00     0.022 A 
BRANCH  69  72
ATOM     72  S   UNL     1      -1.784 -17.766   6.920  1.00  0.00     0.127 S 
ATOM     73  O   UNL     1      -1.442 -17.740   5.499  1.00  0.00    -0.237 OA
ATOM     74  O   UNL     1      -1.432 -19.009   7.608  1.00  0.00    -0.237 OA
ATOM     75  O   UNL     1      -3.098 -17.239   7.258  1.00  0.00    -0.744 OA
ENDBRANCH  69  72
ENDBRANCH  51  65
BRANCH  52  76
ATOM     76  C   UNL     1      -2.525  -5.477  11.994  1.00  0.00     0.023 A 
ATOM     77  C   UNL     1      -2.040  -5.010  13.232  1.00  0.00     0.012 A 
ATOM     78  C   UNL     1      -3.372  -4.649  11.233  1.00  0.00     0.148 A 
ATOM     79  C   UNL     1      -2.412  -3.754  13.714  1.00  0.00     0.002 A 
ATOM     80  C   UNL     1      -3.694  -3.377  11.693  1.00  0.00     0.091 A 
ATOM     81  F   UNL     1      -3.840  -5.118  10.067  1.00  0.00    -0.205 F 
ATOM     82  C   UNL     1      -3.228  -2.934  12.940  1.00  0.00     0.022 A 
BRANCH  80  83
ATOM     83  S   UNL     1      -4.627  -2.204  10.701  1.00  0.00     0.127 S 
ATOM     84  O   UNL     1      -5.914  -2.186  11.391  1.00  0.00    -0.237 OA
ATOM     85  O   UNL     1      -3.832  -0.984  10.845  1.00  0.00    -0.237 OA
ATOM     86  O   UNL     1      -4.638  -2.754   9.352  1.00  0.00    -0.744 OA
ENDBRANCH  80  83
ENDBRANCH  52  76
BRANCH  64  87
ATOM     87  C   UNL     1      -3.674 -11.970  14.304  1.00  0.00     0.023 A 
ATOM     88  C   UNL     1      -5.083 -11.960  14.301  1.00  0.00     0.012 A 
ATOM     89  C   UNL     1      -2.991 -12.568  15.382  1.00  0.00     0.148 A 
ATOM     90  C   UNL     1      -5.800 -12.510  15.364  1.00  0.00     0.002 A 
ATOM     91  C   UNL     1      -3.712 -13.155  16.416  1.00  0.00     0.091 A 
ATOM     92  F   UNL     1      -1.650 -12.550  15.378  1.00  0.00    -0.205 F 
ATOM     93  C   UNL     1      -5.115 -13.117  16.415  1.00  0.00     0.022 A 
BRANCH  91  94
ATOM     94  S   UNL     1      -2.916 -14.040  17.763  1.00  0.00     0.127 S 
ATOM     95  O   UNL     1      -3.073 -13.100  18.872  1.00  0.00    -0.237 OA
ATOM     96  O   UNL     1      -3.734 -15.248  17.868  1.00  0.00    -0.237 OA
ATOM     97  O   UNL     1      -1.545 -14.276  17.331  1.00  0.00    -0.744 OA
ENDBRANCH  91  94
ENDBRANCH  64  87
ENDBRANCH  38  39
ENDBRANCH  30  33
ENDBRANCH  28  29
ENDBRANCH  27  28
ENDBRANCH   1  27
TORSDOF 20
