REMARK SMILES C=CC[C@H](CNC(=O)OC(C)(C)C)C(=O)NCCCCNC(=O)c1ccc(-c2c3nc(c(-c4cccc(S(=O)(=O)[O-])c4F)c4ccc([nH]4)c(-c4cccc(S(=O)(=O)[O-])c4F)c4nc(c(-c5cccc(S(=O)(=O)[O-])c5F)c5ccc2[nH]5)C=C4)C=C3)cc1
REMARK SMILES IDX 18 1 17 2 16 3 14 4 15 5 4 7 3 8 2 9 1 10 5 11 6 12 7 13
REMARK SMILES IDX 8 15 9 16 10 17 11 18 12 19 13 20 19 21 20 22 21 23 22 24
REMARK SMILES IDX 23 26 24 27 25 28 86 29 26 30 85 31 27 32 28 33 29 34 79 35
REMARK SMILES IDX 30 36 84 37 78 38 80 39 31 40 83 41 77 42 76 43 32 45 64 46
REMARK SMILES IDX 44 47 63 48 45 49 48 50 62 51 81 52 46 53 47 54 61 56 82 57
REMARK SMILES IDX 49 58 33 59 34 60 42 61 35 62 37 63 43 64 36 65 38 66 39 67
REMARK SMILES IDX 40 68 41 69 65 70 66 71 74 72 67 73 69 74 75 75 68 76 70 77
REMARK SMILES IDX 71 78 72 79 73 80 50 81 51 82 59 83 52 84 54 85 60 86 53 87
REMARK SMILES IDX 55 88 56 89 57 90 58 91
REMARK H PARENT 16 6 6 14 21 25 80 44 48 55
REMARK Flexibility Score: inf
ROOT
ATOM      1  C   UNL     1      -3.469   1.411   3.016  1.00  0.00     0.023 C 
ENDROOT
BRANCH   1   2
ATOM      2  C   UNL     1      -3.179  -0.075   3.201  1.00  0.00     0.116 C 
BRANCH   2   3
ATOM      3  N   UNL     1      -3.720  -0.864   2.110  1.00  0.00    -0.356 N 
ATOM      4  C   UNL     1      -3.128  -1.746   1.262  1.00  0.00     0.225 C 
ATOM      5  O   UNL     1      -3.841  -2.300   0.422  1.00  0.00    -0.275 OA
ATOM      6  H   UNL     1      -4.685  -0.739   1.957  1.00  0.00     0.163 HD
BRANCH   4   7
ATOM      7  C   UNL     1      -1.642  -2.067   1.333  1.00  0.00     0.101 C 
BRANCH   7   8
ATOM      8  C   UNL     1      -1.267  -2.690   2.693  1.00  0.00     0.042 C 
BRANCH   8   9
ATOM      9  C   UNL     1      -1.174  -4.190   2.612  1.00  0.00    -0.034 C 
ATOM     10  C   UNL     1      -0.052  -4.888   2.828  1.00  0.00     0.004 C 
ENDBRANCH   8   9
ENDBRANCH   7   8
BRANCH   7  11
ATOM     11  C   UNL     1      -0.790  -0.856   0.926  1.00  0.00     0.133 C 
BRANCH  11  12
ATOM     12  N   UNL     1       0.606  -1.236   0.762  1.00  0.00    -0.321 N 
ATOM     13  C   UNL     1       1.388  -1.106  -0.342  1.00  0.00     0.407 C 
ATOM     14  H   UNL     1       1.038  -1.639   1.549  1.00  0.00     0.167 HD
ATOM     15  O   UNL     1       2.505  -1.614  -0.366  1.00  0.00    -0.225 OA
BRANCH  13  16
ATOM     16  O   UNL     1       0.820  -0.383  -1.330  1.00  0.00    -0.444 OA
BRANCH  16  17
ATOM     17  C   UNL     1       1.510  -0.203  -2.594  1.00  0.00     0.106 C 
ATOM     18  C   UNL     1       2.922   0.375  -2.423  1.00  0.00     0.056 C 
ATOM     19  C   UNL     1       1.526  -1.524  -3.370  1.00  0.00     0.056 C 
ATOM     20  C   UNL     1       0.669   0.822  -3.371  1.00  0.00     0.056 C 
ENDBRANCH  16  17
ENDBRANCH  13  16
ENDBRANCH  11  12
ENDBRANCH   7  11
ENDBRANCH   4   7
ENDBRANCH   2   3
ENDBRANCH   1   2
BRANCH   1  21
ATOM     21  C   UNL     1      -4.944   1.794   3.154  1.00  0.00     0.023 C 
BRANCH  21  22
ATOM     22  C   UNL     1      -5.607   1.380   4.465  1.00  0.00     0.116 C 
BRANCH  22  23
ATOM     23  N   UNL     1      -4.927   1.908   5.639  1.00  0.00    -0.352 N 
ATOM     24  C   UNL     1      -5.475   2.463   6.771  1.00  0.00     0.251 C 
ATOM     25  H   UNL     1      -3.944   1.861   5.619  1.00  0.00     0.163 HD
ATOM     26  O   UNL     1      -4.750   2.975   7.619  1.00  0.00    -0.269 OA
BRANCH  24  27
ATOM     27  C   UNL     1      -6.942   2.466   6.941  1.00  0.00     0.039 A 
ATOM     28  C   UNL     1      -7.583   3.661   7.274  1.00  0.00     0.014 A 
ATOM     29  C   UNL     1      -7.684   1.299   6.735  1.00  0.00     0.014 A 
ATOM     30  C   UNL     1      -8.977   3.703   7.335  1.00  0.00     0.010 A 
ATOM     31  C   UNL     1      -9.074   1.359   6.730  1.00  0.00     0.010 A 
ATOM     32  C   UNL     1      -9.735   2.560   7.029  1.00  0.00    -0.014 A 
BRANCH  32  33
ATOM     33  C   UNL     1     -11.219   2.603   6.996  1.00  0.00     0.031 A 
ATOM     34  C   UNL     1     -12.023   1.770   7.955  1.00  0.00     0.074 A 
ATOM     35  C   UNL     1     -11.841   3.318   6.037  1.00  0.00     0.049 A 
ATOM     36  N   UNL     1     -13.320   1.624   8.032  1.00  0.00    -0.248 NA
ATOM     37  C   UNL     1     -11.270   0.971   8.936  1.00  0.00     0.031 C 
ATOM     38  C   UNL     1     -11.171   4.097   4.993  1.00  0.00     0.029 A 
ATOM     39  N   UNL     1     -13.177   3.479   5.764  1.00  0.00    -0.354 N 
ATOM     40  C   UNL     1     -13.538   0.696   9.043  1.00  0.00     0.074 A 
ATOM     41  C   UNL     1     -12.238   0.284   9.526  1.00  0.00     0.031 C 
ATOM     42  C   UNL     1     -12.098   4.650   4.194  1.00  0.00     0.029 A 
ATOM     43  C   UNL     1     -13.425   4.248   4.651  1.00  0.00     0.049 A 
ATOM     44  H   UNL     1     -13.891   3.081   6.314  1.00  0.00     0.167 HD
ATOM     45  C   UNL     1     -14.713   0.250   9.548  1.00  0.00     0.034 A 
ATOM     46  C   UNL     1     -14.588   4.587   4.062  1.00  0.00     0.034 A 
ATOM     47  C   UNL     1     -16.004   0.698   9.098  1.00  0.00     0.049 A 
ATOM     48  C   UNL     1     -15.881   4.125   4.676  1.00  0.00     0.074 A 
ATOM     49  C   UNL     1     -17.251   0.375   9.604  1.00  0.00     0.029 A 
ATOM     50  N   UNL     1     -16.215   1.562   8.036  1.00  0.00    -0.354 N 
ATOM     51  N   UNL     1     -16.069   3.379   5.738  1.00  0.00    -0.248 NA
ATOM     52  C   UNL     1     -17.124   4.582   4.038  1.00  0.00     0.031 C 
ATOM     53  C   UNL     1     -18.217   1.036   8.839  1.00  0.00     0.029 A 
ATOM     54  C   UNL     1     -17.571   1.784   7.867  1.00  0.00     0.049 A 
ATOM     55  H   UNL     1     -15.505   1.960   7.482  1.00  0.00     0.167 HD
ATOM     56  C   UNL     1     -17.445   3.304   5.914  1.00  0.00     0.074 A 
ATOM     57  C   UNL     1     -18.044   4.101   4.862  1.00  0.00     0.031 C 
ATOM     58  C   UNL     1     -18.151   2.624   6.851  1.00  0.00     0.034 A 
BRANCH  45  59
ATOM     59  C   UNL     1     -14.654  -0.725  10.694  1.00  0.00     0.023 A 
ATOM     60  C   UNL     1     -14.244  -0.272  11.965  1.00  0.00     0.012 A 
ATOM     61  C   UNL     1     -15.048  -2.067  10.533  1.00  0.00     0.148 A 
ATOM     62  C   UNL     1     -14.192  -1.146  13.049  1.00  0.00     0.002 A 
ATOM     63  C   UNL     1     -15.035  -2.923  11.630  1.00  0.00     0.091 A 
ATOM     64  F   UNL     1     -15.413  -2.487   9.314  1.00  0.00    -0.205 F 
ATOM     65  C   UNL     1     -14.597  -2.467  12.884  1.00  0.00     0.022 A 
BRANCH  63  66
ATOM     66  S   UNL     1     -15.609  -4.623  11.537  1.00  0.00     0.127 S 
ATOM     67  O   UNL     1     -14.350  -5.363  11.598  1.00  0.00    -0.237 OA
ATOM     68  O   UNL     1     -16.440  -4.734  12.737  1.00  0.00    -0.237 OA
ATOM     69  O   UNL     1     -16.340  -4.730  10.283  1.00  0.00    -0.744 OA
ENDBRANCH  63  66
ENDBRANCH  45  59
BRANCH  46  70
ATOM     70  C   UNL     1     -14.581   5.473   2.863  1.00  0.00     0.023 A 
ATOM     71  C   UNL     1     -15.034   6.801   2.985  1.00  0.00     0.012 A 
ATOM     72  C   UNL     1     -14.095   5.025   1.620  1.00  0.00     0.148 A 
ATOM     73  C   UNL     1     -15.030   7.658   1.884  1.00  0.00     0.002 A 
ATOM     74  C   UNL     1     -14.044   5.900   0.541  1.00  0.00     0.091 A 
ATOM     75  F   UNL     1     -13.681   3.754   1.521  1.00  0.00    -0.205 F 
ATOM     76  C   UNL     1     -14.526   7.212   0.666  1.00  0.00     0.022 A 
BRANCH  74  77
ATOM     77  S   UNL     1     -13.286   5.450  -1.025  1.00  0.00     0.127 S 
ATOM     78  O   UNL     1     -14.452   5.300  -1.890  1.00  0.00    -0.237 OA
ATOM     79  O   UNL     1     -12.455   6.621  -1.307  1.00  0.00    -0.237 OA
ATOM     80  O   UNL     1     -12.531   4.233  -0.757  1.00  0.00    -0.744 OA
ENDBRANCH  74  77
ENDBRANCH  46  70
BRANCH  58  81
ATOM     81  C   UNL     1     -19.652   2.729   6.808  1.00  0.00     0.023 A 
ATOM     82  C   UNL     1     -20.371   2.050   5.804  1.00  0.00     0.012 A 
ATOM     83  C   UNL     1     -20.355   3.431   7.807  1.00  0.00     0.148 A 
ATOM     84  C   UNL     1     -21.764   2.093   5.778  1.00  0.00     0.002 A 
ATOM     85  C   UNL     1     -21.745   3.431   7.801  1.00  0.00     0.091 A 
ATOM     86  F   UNL     1     -19.652   4.087   8.743  1.00  0.00    -0.205 F 
ATOM     87  C   UNL     1     -22.451   2.772   6.782  1.00  0.00     0.022 A 
BRANCH  85  88
ATOM     88  S   UNL     1     -22.710   4.201   9.107  1.00  0.00     0.127 S 
ATOM     89  O   UNL     1     -23.204   5.405   8.442  1.00  0.00    -0.237 OA
ATOM     90  O   UNL     1     -23.734   3.190   9.375  1.00  0.00    -0.237 OA
ATOM     91  O   UNL     1     -21.784   4.426  10.208  1.00  0.00    -0.744 OA
ENDBRANCH  85  88
ENDBRANCH  58  81
ENDBRANCH  32  33
ENDBRANCH  24  27
ENDBRANCH  22  23
ENDBRANCH  21  22
ENDBRANCH   1  21
TORSDOF 20
