REMARK SMILES C[C@H](CNS(=O)(=O)c1ccc(C(=O)NCCCCNC(=O)c2ccc(-c3c4nc(c(-c5cccc(S(=O)(=O)[O-])c5F)c5ccc([nH]5)c(-c5cccc(S(=O)(=O)[O-])c5F)c5nc(c(-c6cccc(S(=O)(=O)[O-])c6F)c6ccc3[nH]6)C=C5)C=C4)cc2)cc1F)[NH+](C)C
REMARK SMILES IDX 15 1 14 2 12 3 13 4 11 6 8 7 9 8 86 9 10 10 85 11 87 12 5 13
REMARK SMILES IDX 6 14 7 15 4 16 3 18 2 19 1 20 88 21 89 22 90 23 16 25 17 26
REMARK SMILES IDX 18 27 19 28 20 29 21 31 22 32 23 33 84 34 24 35 83 36 25 37
REMARK SMILES IDX 26 38 27 39 77 40 28 41 82 42 76 43 78 44 29 45 81 46 75 47
REMARK SMILES IDX 74 48 30 50 62 51 42 52 61 53 43 54 46 55 60 56 79 57 44 58
REMARK SMILES IDX 45 59 59 61 80 62 47 63 31 64 32 65 40 66 33 67 35 68 41 69
REMARK SMILES IDX 34 70 36 71 37 72 38 73 39 74 63 75 64 76 72 77 65 78 67 79
REMARK SMILES IDX 73 80 66 81 68 82 69 83 70 84 71 85 48 86 49 87 57 88 50 89
REMARK SMILES IDX 52 90 58 91 51 92 53 93 54 94 55 95 56 96
REMARK H PARENT 14 5 4 17 88 24 19 30 78 49 46 60
REMARK Flexibility Score: inf
ROOT
ATOM      1  C   UNL     1       6.339   0.635  -6.406  1.00  0.00     0.116 C 
ENDROOT
BRANCH   1   2
ATOM      2  N   UNL     1       6.789   1.273  -5.186  1.00  0.00    -0.352 N 
ATOM      3  C   UNL     1       6.130   1.636  -4.042  1.00  0.00     0.251 C 
ATOM      4  O   UNL     1       6.776   2.219  -3.171  1.00  0.00    -0.269 OA
ATOM      5  H   UNL     1       7.750   1.486  -5.178  1.00  0.00     0.163 HD
BRANCH   3   6
ATOM      6  C   UNL     1       4.705   1.291  -3.760  1.00  0.00     0.042 A 
ATOM      7  C   UNL     1       2.164   0.364  -2.993  1.00  0.00     0.118 A 
ATOM      8  C   UNL     1       3.074   0.777  -2.021  1.00  0.00     0.026 A 
ATOM      9  C   UNL     1       2.481   0.517  -4.333  1.00  0.00     0.144 A 
ATOM     10  C   UNL     1       4.340   1.225  -2.406  1.00  0.00     0.015 A 
ATOM     11  C   UNL     1       3.729   1.007  -4.716  1.00  0.00     0.054 A 
ATOM     12  F   UNL     1       1.629   0.155  -5.301  1.00  0.00    -0.205 F 
BRANCH   7  13
ATOM     13  S   UNL     1       0.660  -0.445  -2.575  1.00  0.00     0.243 S 
ATOM     14  O   UNL     1       0.958  -1.844  -2.348  1.00  0.00    -0.207 OA
ATOM     15  O   UNL     1      -0.368  -0.011  -3.489  1.00  0.00    -0.207 OA
BRANCH  13  16
ATOM     16  N   UNL     1       0.198   0.234  -1.112  1.00  0.00    -0.205 NA
ATOM     17  H   UNL     1       0.584   1.178  -1.089  1.00  0.00     0.141 HD
BRANCH  16  18
ATOM     18  C   UNL     1       0.588  -0.419   0.148  1.00  0.00     0.163 C 
BRANCH  18  19
ATOM     19  C   UNL     1       0.263   0.496   1.366  1.00  0.00     0.195 C 
ATOM     20  C   UNL     1       1.165   1.738   1.396  1.00  0.00     0.076 C 
BRANCH  19  21
ATOM     21  N   UNL     1      -1.197   0.769   1.466  1.00  0.00    -0.337 N 
ATOM     22  C   UNL     1      -1.625   0.789   2.870  1.00  0.00     0.332 C 
ATOM     23  C   UNL     1      -1.655   2.004   0.822  1.00  0.00     0.332 C 
ATOM     24  H   UNL     1      -1.628   0.001   0.952  1.00  0.00     0.347 HD
ENDBRANCH  19  21
ENDBRANCH  18  19
ENDBRANCH  16  18
ENDBRANCH  13  16
ENDBRANCH   7  13
ENDBRANCH   3   6
ENDBRANCH   1   2
BRANCH   1  25
ATOM     25  C   UNL     1       5.856   1.691  -7.403  1.00  0.00     0.023 C 
BRANCH  25  26
ATOM     26  C   UNL     1       6.983   2.364  -8.191  1.00  0.00     0.023 C 
BRANCH  26  27
ATOM     27  C   UNL     1       7.771   1.425  -9.097  1.00  0.00     0.116 C 
BRANCH  27  28
ATOM     28  N   UNL     1       6.930   0.700 -10.037  1.00  0.00    -0.352 N 
ATOM     29  C   UNL     1       7.269   0.190 -11.265  1.00  0.00     0.251 C 
ATOM     30  H   UNL     1       5.997   0.557  -9.756  1.00  0.00     0.163 HD
ATOM     31  O   UNL     1       6.408  -0.304 -11.986  1.00  0.00    -0.269 OA
BRANCH  29  32
ATOM     32  C   UNL     1       8.669   0.280 -11.725  1.00  0.00     0.039 A 
ATOM     33  C   UNL     1       8.920   0.773 -13.007  1.00  0.00     0.014 A 
ATOM     34  C   UNL     1       9.726  -0.093 -10.890  1.00  0.00     0.014 A 
ATOM     35  C   UNL     1      10.237   0.938 -13.434  1.00  0.00     0.010 A 
ATOM     36  C   UNL     1      11.037   0.141 -11.289  1.00  0.00     0.010 A 
ATOM     37  C   UNL     1      11.306   0.647 -12.569  1.00  0.00    -0.014 A 
BRANCH  37  38
ATOM     38  C   UNL     1      12.708   0.873 -12.994  1.00  0.00     0.031 A 
ATOM     39  C   UNL     1      13.653  -0.287 -13.138  1.00  0.00     0.074 A 
ATOM     40  C   UNL     1      13.143   2.132 -13.197  1.00  0.00     0.049 A 
ATOM     41  N   UNL     1      14.905  -0.283 -13.515  1.00  0.00    -0.248 NA
ATOM     42  C   UNL     1      13.139  -1.623 -12.789  1.00  0.00     0.031 C 
ATOM     43  C   UNL     1      12.342   3.342 -13.000  1.00  0.00     0.029 A 
ATOM     44  N   UNL     1      14.366   2.606 -13.601  1.00  0.00    -0.354 N 
ATOM     45  C   UNL     1      15.333  -1.601 -13.425  1.00  0.00     0.074 A 
ATOM     46  C   UNL     1      14.224  -2.375 -12.916  1.00  0.00     0.031 C 
ATOM     47  C   UNL     1      13.087   4.417 -13.304  1.00  0.00     0.029 A 
ATOM     48  C   UNL     1      14.422   3.977 -13.699  1.00  0.00     0.049 A 
ATOM     49  H   UNL     1      15.131   2.020 -13.803  1.00  0.00     0.167 HD
ATOM     50  C   UNL     1      16.531  -2.125 -13.773  1.00  0.00     0.034 A 
ATOM     51  C   UNL     1      15.431   4.788 -14.076  1.00  0.00     0.034 A 
ATOM     52  C   UNL     1      17.606  -1.358 -14.337  1.00  0.00     0.049 A 
ATOM     53  C   UNL     1      16.733   4.175 -14.515  1.00  0.00     0.074 A 
ATOM     54  C   UNL     1      18.819  -1.812 -14.820  1.00  0.00     0.029 A 
ATOM     55  N   UNL     1      17.599   0.019 -14.494  1.00  0.00    -0.354 N 
ATOM     56  N   UNL     1      17.062   2.907 -14.585  1.00  0.00    -0.248 NA
ATOM     57  C   UNL     1      17.792   5.093 -14.960  1.00  0.00     0.031 C 
ATOM     58  C   UNL     1      19.555  -0.707 -15.253  1.00  0.00     0.029 A 
ATOM     59  C   UNL     1      18.791   0.434 -15.058  1.00  0.00     0.049 A 
ATOM     60  H   UNL     1      16.856   0.613 -14.242  1.00  0.00     0.167 HD
ATOM     61  C   UNL     1      18.349   2.873 -15.109  1.00  0.00     0.074 A 
ATOM     62  C   UNL     1      18.737   4.247 -15.353  1.00  0.00     0.031 C 
ATOM     63  C   UNL     1      19.140   1.801 -15.350  1.00  0.00     0.034 A 
BRANCH  50  64
ATOM     64  C   UNL     1      16.722  -3.611 -13.635  1.00  0.00     0.023 A 
ATOM     65  C   UNL     1      16.072  -4.476 -14.539  1.00  0.00     0.012 A 
ATOM     66  C   UNL     1      17.614  -4.146 -12.685  1.00  0.00     0.148 A 
ATOM     67  C   UNL     1      16.289  -5.852 -14.486  1.00  0.00     0.002 A 
ATOM     68  C   UNL     1      17.859  -5.514 -12.667  1.00  0.00     0.091 A 
ATOM     69  F   UNL     1      18.207  -3.308 -11.822  1.00  0.00    -0.205 F 
ATOM     70  C   UNL     1      17.191  -6.369 -13.560  1.00  0.00     0.022 A 
BRANCH  68  71
ATOM     71  S   UNL     1      19.063  -6.271 -11.570  1.00  0.00     0.127 S 
ATOM     72  O   UNL     1      18.201  -7.019 -10.657  1.00  0.00    -0.237 OA
ATOM     73  O   UNL     1      19.840  -7.100 -12.492  1.00  0.00    -0.237 OA
ATOM     74  O   UNL     1      19.805  -5.173 -10.967  1.00  0.00    -0.744 OA
ENDBRANCH  68  71
ENDBRANCH  50  64
BRANCH  51  75
ATOM     75  C   UNL     1      15.200   6.258 -14.149  1.00  0.00     0.023 A 
ATOM     76  C   UNL     1      15.098   6.877 -15.409  1.00  0.00     0.012 A 
ATOM     77  C   UNL     1      15.004   7.030 -12.987  1.00  0.00     0.148 A 
ATOM     78  C   UNL     1      14.819   8.240 -15.513  1.00  0.00     0.002 A 
ATOM     79  C   UNL     1      14.672   8.376 -13.098  1.00  0.00     0.091 A 
ATOM     80  F   UNL     1      15.117   6.425 -11.796  1.00  0.00    -0.205 F 
ATOM     81  C   UNL     1      14.593   8.986 -14.360  1.00  0.00     0.022 A 
BRANCH  79  82
ATOM     82  S   UNL     1      14.225   9.380 -11.676  1.00  0.00     0.127 S 
ATOM     83  O   UNL     1      15.366  10.286 -11.578  1.00  0.00    -0.237 OA
ATOM     84  O   UNL     1      12.980  10.003 -12.127  1.00  0.00    -0.237 OA
ATOM     85  O   UNL     1      14.061   8.445 -10.571  1.00  0.00    -0.744 OA
ENDBRANCH  79  82
ENDBRANCH  51  75
BRANCH  63  86
ATOM     86  C   UNL     1      20.511   2.037 -15.925  1.00  0.00     0.023 A 
ATOM     87  C   UNL     1      21.540   2.507 -15.086  1.00  0.00     0.012 A 
ATOM     88  C   UNL     1      20.814   1.636 -17.241  1.00  0.00     0.148 A 
ATOM     89  C   UNL     1      22.852   2.579 -15.552  1.00  0.00     0.002 A 
ATOM     90  C   UNL     1      22.131   1.666 -17.683  1.00  0.00     0.091 A 
ATOM     91  F   UNL     1      19.815   1.201 -18.022  1.00  0.00    -0.205 F 
ATOM     92  C   UNL     1      23.150   2.143 -16.841  1.00  0.00     0.022 A 
BRANCH  90  93
ATOM     93  S   UNL     1      22.631   1.028 -19.286  1.00  0.00     0.127 S 
ATOM     94  O   UNL     1      23.069   2.245 -19.967  1.00  0.00    -0.237 OA
ATOM     95  O   UNL     1      23.710   0.107 -18.928  1.00  0.00    -0.237 OA
ATOM     96  O   UNL     1      21.451   0.392 -19.855  1.00  0.00    -0.744 OA
ENDBRANCH  90  93
ENDBRANCH  63  86
ENDBRANCH  37  38
ENDBRANCH  29  32
ENDBRANCH  27  28
ENDBRANCH  26  27
ENDBRANCH  25  26
ENDBRANCH   1  25
TORSDOF 19
