REMARK SMILES O=C(NCCCCNC(=O)c1ccc(-n2cc(CSc3nc4ccccc4c(=O)n3-c3ccc(Br)cc3)nn2)cc1)c1ccc(-c2c3nc(c(-c4cccc(S(=O)(=O)[O-])c4F)c4ccc([nH]4)c(-c4cccc(S(=O)(=O)[O-])c4F)c4nc(c(-c5cccc(S(=O)(=O)[O-])c5F)c5ccc2[nH]5)C=C4)C=C3)cc1
REMARK SMILES IDX 6 1 5 2 4 3 3 4 1 5 2 6 42 8 43 9 104 10 44 11 103 12 45 13
REMARK SMILES IDX 46 14 47 15 97 16 48 17 102 18 96 19 98 20 49 21 101 22
REMARK SMILES IDX 95 23 94 24 50 26 82 27 62 28 81 29 63 30 66 31 80 32 99 33
REMARK SMILES IDX 64 34 65 35 79 37 100 38 67 39 51 40 52 41 60 42 53 43 55 44
REMARK SMILES IDX 61 45 54 46 56 47 57 48 58 49 59 50 83 51 84 52 92 53 85 54
REMARK SMILES IDX 87 55 93 56 86 57 88 58 89 59 90 60 91 61 68 62 69 63 77 64
REMARK SMILES IDX 70 65 72 66 78 67 71 68 73 69 74 70 75 71 76 72 7 73 8 74
REMARK SMILES IDX 9 75 10 77 11 78 12 79 41 80 13 81 40 82 14 83 15 84 16 85
REMARK SMILES IDX 39 86 17 87 38 88 18 89 19 90 20 91 21 92 30 93 22 94 28 95
REMARK SMILES IDX 23 96 27 97 29 98 24 99 26 100 25 101 31 102 32 103 37 104
REMARK SMILES IDX 33 105 36 106 34 107 35 108
REMARK H PARENT 3 7 98 25 66 36 8 76
REMARK Flexibility Score: inf
ROOT
ATOM      1  C   UNL     1       4.426  -0.858   3.395  1.00  0.00     0.023 C 
ENDROOT
BRANCH   1   2
ATOM      2  C   UNL     1       4.947  -0.029   2.218  1.00  0.00     0.023 C 
BRANCH   2   3
ATOM      3  C   UNL     1       4.700  -0.621   0.832  1.00  0.00     0.116 C 
BRANCH   3   4
ATOM      4  N   UNL     1       3.314  -0.899   0.519  1.00  0.00    -0.352 N 
ATOM      5  O   UNL     1       1.232  -0.763  -0.198  1.00  0.00    -0.269 OA
ATOM      6  C   UNL     1       2.249  -0.139   0.117  1.00  0.00     0.251 C 
ATOM      7  H   UNL     1       3.086  -1.852   0.618  1.00  0.00     0.163 HD
BRANCH   6   8
ATOM      8  C   UNL     1       2.221   1.348   0.099  1.00  0.00     0.039 A 
ATOM      9  C   UNL     1       3.342   2.178   0.106  1.00  0.00     0.014 A 
ATOM     10  C   UNL     1       0.944   1.942   0.070  1.00  0.00     0.014 A 
ATOM     11  C   UNL     1       3.197   3.561   0.169  1.00  0.00     0.010 A 
ATOM     12  C   UNL     1       0.793   3.325   0.112  1.00  0.00     0.010 A 
ATOM     13  C   UNL     1       1.923   4.133   0.188  1.00  0.00    -0.014 A 
BRANCH  13  14
ATOM     14  C   UNL     1       1.826   5.589   0.144  1.00  0.00     0.031 A 
ATOM     15  C   UNL     1       2.261   6.221  -1.135  1.00  0.00     0.074 A 
ATOM     16  C   UNL     1       1.246   6.330   1.108  1.00  0.00     0.049 A 
ATOM     17  N   UNL     1       3.221   7.069  -1.323  1.00  0.00    -0.248 NA
ATOM     18  C   UNL     1       1.593   5.787  -2.370  1.00  0.00     0.031 C 
ATOM     19  C   UNL     1       0.477   5.850   2.257  1.00  0.00     0.029 A 
ATOM     20  N   UNL     1       1.099   7.687   1.174  1.00  0.00    -0.354 N 
ATOM     21  C   UNL     1       3.151   7.429  -2.670  1.00  0.00     0.074 A 
ATOM     22  C   UNL     1       2.236   6.507  -3.290  1.00  0.00     0.031 C 
ATOM     23  C   UNL     1      -0.256   6.873   2.752  1.00  0.00     0.029 A 
ATOM     24  C   UNL     1       0.090   8.091   2.040  1.00  0.00     0.049 A 
ATOM     25  H   UNL     1       1.654   8.316   0.659  1.00  0.00     0.167 HD
ATOM     26  C   UNL     1       3.693   8.586  -3.142  1.00  0.00     0.034 A 
ATOM     27  C   UNL     1      -0.481   9.318   2.101  1.00  0.00     0.034 A 
ATOM     28  C   UNL     1       4.604   9.179  -2.202  1.00  0.00     0.049 A 
ATOM     29  C   UNL     1       0.434  10.282   1.452  1.00  0.00     0.074 A 
ATOM     30  C   UNL     1       5.778   8.798  -1.585  1.00  0.00     0.029 A 
ATOM     31  N   UNL     1       4.162  10.286  -1.523  1.00  0.00    -0.354 N 
ATOM     32  N   UNL     1       1.585  10.641   1.946  1.00  0.00    -0.248 NA
ATOM     33  C   UNL     1       0.230  10.596   0.047  1.00  0.00     0.031 C 
ATOM     34  C   UNL     1       5.729   9.404  -0.297  1.00  0.00     0.029 A 
ATOM     35  C   UNL     1       4.544  10.138  -0.219  1.00  0.00     0.049 A 
ATOM     36  H   UNL     1       3.663  11.045  -1.903  1.00  0.00     0.167 HD
ATOM     37  C   UNL     1       2.400  10.810   0.835  1.00  0.00     0.074 A 
ATOM     38  C   UNL     1       1.483  10.902  -0.296  1.00  0.00     0.031 C 
ATOM     39  C   UNL     1       3.742  10.566   0.905  1.00  0.00     0.034 A 
BRANCH  26  40
ATOM     40  C   UNL     1       3.172   9.387  -4.314  1.00  0.00     0.023 A 
ATOM     41  C   UNL     1       3.975  10.454  -4.781  1.00  0.00     0.012 A 
ATOM     42  C   UNL     1       1.839   9.338  -4.781  1.00  0.00     0.148 A 
ATOM     43  C   UNL     1       3.463  11.452  -5.617  1.00  0.00     0.002 A 
ATOM     44  C   UNL     1       1.359  10.287  -5.678  1.00  0.00     0.091 A 
ATOM     45  F   UNL     1       0.981   8.455  -4.261  1.00  0.00    -0.205 F 
ATOM     46  C   UNL     1       2.155  11.365  -6.072  1.00  0.00     0.022 A 
BRANCH  44  47
ATOM     47  S   UNL     1      -0.306  10.190  -6.346  1.00  0.00     0.127 S 
ATOM     48  O   UNL     1      -0.992  11.222  -5.576  1.00  0.00    -0.237 OA
ATOM     49  O   UNL     1      -0.083  10.513  -7.756  1.00  0.00    -0.237 OA
ATOM     50  O   UNL     1      -0.734   8.816  -6.112  1.00  0.00    -0.744 OA
ENDBRANCH  44  47
ENDBRANCH  26  40
BRANCH  27  51
ATOM     51  C   UNL     1      -1.862   9.697   2.478  1.00  0.00     0.023 A 
ATOM     52  C   UNL     1      -2.136  11.016   2.889  1.00  0.00     0.012 A 
ATOM     53  C   UNL     1      -2.954   8.850   2.182  1.00  0.00     0.148 A 
ATOM     54  C   UNL     1      -3.452  11.486   2.974  1.00  0.00     0.002 A 
ATOM     55  C   UNL     1      -4.260   9.318   2.280  1.00  0.00     0.091 A 
ATOM     56  F   UNL     1      -2.708   7.620   1.712  1.00  0.00    -0.205 F 
ATOM     57  C   UNL     1      -4.513  10.640   2.664  1.00  0.00     0.022 A 
BRANCH  55  58
ATOM     58  S   UNL     1      -5.676   8.284   1.879  1.00  0.00     0.127 S 
ATOM     59  O   UNL     1      -6.570   8.541   3.009  1.00  0.00    -0.237 OA
ATOM     60  O   UNL     1      -6.115   8.853   0.608  1.00  0.00    -0.237 OA
ATOM     61  O   UNL     1      -5.166   6.920   1.821  1.00  0.00    -0.744 OA
ENDBRANCH  55  58
ENDBRANCH  27  51
BRANCH  39  62
ATOM     62  C   UNL     1       4.375  10.421   2.263  1.00  0.00     0.023 A 
ATOM     63  C   UNL     1       3.997   9.402   3.161  1.00  0.00     0.012 A 
ATOM     64  C   UNL     1       5.498  11.212   2.565  1.00  0.00     0.148 A 
ATOM     65  C   UNL     1       4.704   9.195   4.347  1.00  0.00     0.002 A 
ATOM     66  C   UNL     1       6.230  10.968   3.720  1.00  0.00     0.091 A 
ATOM     67  F   UNL     1       5.850  12.174   1.698  1.00  0.00    -0.205 F 
ATOM     68  C   UNL     1       5.830   9.968   4.619  1.00  0.00     0.022 A 
BRANCH  66  69
ATOM     69  S   UNL     1       7.768  11.834   4.048  1.00  0.00     0.127 S 
ATOM     70  O   UNL     1       7.357  12.809   5.062  1.00  0.00    -0.237 OA
ATOM     71  O   UNL     1       8.631  10.761   4.553  1.00  0.00    -0.237 OA
ATOM     72  O   UNL     1       8.195  12.388   2.777  1.00  0.00    -0.744 OA
ENDBRANCH  66  69
ENDBRANCH  39  62
ENDBRANCH  13  14
ENDBRANCH   6   8
ENDBRANCH   3   4
ENDBRANCH   2   3
ENDBRANCH   1   2
BRANCH   1  73
ATOM     73  C   UNL     1       4.819  -2.333   3.397  1.00  0.00     0.116 C 
BRANCH  73  74
ATOM     74  N   UNL     1       6.258  -2.533   3.444  1.00  0.00    -0.352 N 
ATOM     75  C   UNL     1       7.014  -3.218   4.360  1.00  0.00     0.251 C 
ATOM     76  H   UNL     1       6.764  -2.116   2.710  1.00  0.00     0.163 HD
ATOM     77  O   UNL     1       8.239  -3.203   4.289  1.00  0.00    -0.269 OA
BRANCH  75  78
ATOM     78  C   UNL     1       6.362  -3.982   5.443  1.00  0.00     0.039 A 
ATOM     79  C   UNL     1       6.767  -3.756   6.762  1.00  0.00     0.016 A 
ATOM     80  C   UNL     1       5.412  -4.965   5.156  1.00  0.00     0.016 A 
ATOM     81  C   UNL     1       6.203  -4.498   7.803  1.00  0.00     0.029 A 
ATOM     82  C   UNL     1       4.848  -5.711   6.194  1.00  0.00     0.029 A 
ATOM     83  C   UNL     1       5.258  -5.494   7.521  1.00  0.00     0.066 A 
BRANCH  83  84
ATOM     84  N   UNL     1       4.786  -6.325   8.568  1.00  0.00    -0.220 N 
ATOM     85  C   UNL     1       4.042  -7.474   8.460  1.00  0.00     0.141 A 
ATOM     86  N   UNL     1       5.076  -6.112   9.875  1.00  0.00    -0.062 NA
ATOM     87  C   UNL     1       4.032  -8.021   9.725  1.00  0.00     0.093 A 
ATOM     88  N   UNL     1       4.625  -7.143  10.584  1.00  0.00    -0.134 NA
BRANCH  87  89
ATOM     89  C   UNL     1       3.370  -9.258  10.185  1.00  0.00     0.138 C 
BRANCH  89  90
ATOM     90  S   UNL     1       4.312 -10.749  10.537  1.00  0.00    -0.081 SA
BRANCH  90  91
ATOM     91  C   UNL     1       5.968 -10.591  10.002  1.00  0.00     0.176 A 
ATOM     92  N   UNL     1       6.804 -11.063  10.880  1.00  0.00    -0.223 NA
ATOM     93  N   UNL     1       6.391 -10.076   8.780  1.00  0.00    -0.255 N 
ATOM     94  C   UNL     1       8.174 -10.967  10.622  1.00  0.00     0.079 A 
ATOM     95  C   UNL     1       7.636  -9.430   8.830  1.00  0.00     0.266 A 
ATOM     96  C   UNL     1       9.094 -11.731  11.342  1.00  0.00     0.029 A 
ATOM     97  C   UNL     1       8.647 -10.052   9.696  1.00  0.00     0.066 A 
ATOM     98  O   UNL     1       7.951  -8.407   8.225  1.00  0.00    -0.268 OA
ATOM     99  C   UNL     1      10.469 -11.533  11.165  1.00  0.00     0.002 A 
ATOM    100  C   UNL     1      10.016  -9.807   9.541  1.00  0.00     0.016 A 
ATOM    101  C   UNL     1      10.929 -10.550  10.287  1.00  0.00     0.001 A 
BRANCH  93 102
ATOM    102  C   UNL     1       5.688 -10.121   7.506  1.00  0.00     0.051 A 
ATOM    103  C   UNL     1       6.316  -9.659   6.328  1.00  0.00     0.028 A 
ATOM    104  C   UNL     1       4.405 -10.657   7.324  1.00  0.00     0.028 A 
ATOM    105  C   UNL     1       5.643  -9.547   5.105  1.00  0.00     0.018 A 
ATOM    106  C   UNL     1       3.700 -10.504   6.118  1.00  0.00     0.018 A 
ATOM    107  C   UNL     1       4.313  -9.916   5.023  1.00  0.00     0.018 A 
ATOM    108  Br  UNL     1       3.343  -9.617   3.434  1.00  0.00    -0.051 Br
ENDBRANCH  93 102
ENDBRANCH  90  91
ENDBRANCH  89  90
ENDBRANCH  87  89
ENDBRANCH  83  84
ENDBRANCH  75  78
ENDBRANCH  73  74
ENDBRANCH   1  73
TORSDOF 19
