REMARK SMILES O=C(NCCCCNC(=O)c1ccc(-c2c3nc(c(-c4cccc(S(=O)(=O)[O-])c4F)c4ccc([nH]4)c(-c4cccc(S(=O)(=O)[O-])c4F)c4nc(c(-c5cccc(S(=O)(=O)[O-])c5F)c5ccc2[nH]5)C=C4)C=C3)cc1)C1=Cc2cc(S(F)(F)(F)(F)F)ccc2O[C@@H]1C(F)(F)F
REMARK SMILES IDX 6 1 5 2 4 3 3 4 1 5 2 6 74 8 75 9 89 10 76 11 88 12 77 13
REMARK SMILES IDX 87 14 78 15 86 16 85 17 90 18 91 19 92 20 93 21 79 22 80 23
REMARK SMILES IDX 81 24 82 25 83 26 84 27 7 28 8 29 9 30 10 32 11 33 12 34
REMARK SMILES IDX 73 35 13 36 72 37 14 38 15 39 16 40 66 41 17 42 71 43 65 44
REMARK SMILES IDX 67 45 18 46 70 47 64 48 63 49 19 51 51 52 31 53 50 54 32 55
REMARK SMILES IDX 35 56 49 57 68 58 33 59 34 60 48 62 69 63 36 64 20 65 21 66
REMARK SMILES IDX 29 67 22 68 24 69 30 70 23 71 25 72 26 73 27 74 28 75 52 76
REMARK SMILES IDX 53 77 61 78 54 79 56 80 62 81 55 82 57 83 58 84 59 85 60 86
REMARK SMILES IDX 37 87 38 88 46 89 39 90 41 91 47 92 40 93 42 94 43 95 44 96
REMARK SMILES IDX 45 97
REMARK H PARENT 3 7 8 31 67 50 35 61
REMARK Flexibility Score: inf
ROOT
ATOM      1  C   UNL     1       4.413  -3.003  -2.188  1.00  0.00     0.023 C 
ENDROOT
BRANCH   1   2
ATOM      2  C   UNL     1       4.919  -2.196  -1.004  1.00  0.00     0.023 C 
BRANCH   2   3
ATOM      3  C   UNL     1       4.413  -0.767  -1.111  1.00  0.00     0.116 C 
BRANCH   3   4
ATOM      4  N   UNL     1       2.943  -0.767  -1.111  1.00  0.00    -0.352 N 
ATOM      5  O   UNL     1       0.937  -0.050  -0.059  1.00  0.00    -0.270 OA
ATOM      6  C   UNL     1       2.208  -0.050  -0.059  1.00  0.00     0.251 C 
ATOM      7  H   UNL     1       2.450  -1.247  -1.815  1.00  0.00     0.163 HD
BRANCH   6   8
ATOM      8  C   UNL     1       2.968   0.691   1.029  1.00  0.00     0.067 C 
ATOM      9  C   UNL     1       4.328   0.691   1.029  1.00  0.00     0.025 C 
ATOM     10  C   UNL     1       2.208   1.433   2.116  1.00  0.00     0.314 C 
ATOM     11  C   UNL     1       5.088  -0.050  -0.059  1.00  0.00     0.019 A 
ATOM     12  O   UNL     1       3.631   0.809  -1.728  1.00  0.00    -0.475 OA
ATOM     13  C   UNL     1       6.081  -0.915   0.371  1.00  0.00     0.036 A 
ATOM     14  C   UNL     1       4.757   0.035  -1.342  1.00  0.00     0.128 A 
ATOM     15  C   UNL     1       6.872  -1.444  -0.675  1.00  0.00     0.107 A 
ATOM     16  C   UNL     1       5.494  -0.619  -2.300  1.00  0.00     0.048 A 
ATOM     17  C   UNL     1       6.527  -1.444  -1.950  1.00  0.00     0.028 A 
BRANCH  10  18
ATOM     18  C   UNL     1       2.575   2.907   2.076  1.00  0.00     0.429 C 
ATOM     19  F   UNL     1       2.253   3.412   0.888  1.00  0.00    -0.167 F 
ATOM     20  F   UNL     1       1.910   3.556   3.028  1.00  0.00    -0.167 F 
ATOM     21  F   UNL     1       3.882   3.044   2.277  1.00  0.00    -0.167 F 
ENDBRANCH  10  18
BRANCH  15  22
ATOM     22  S   UNL     1       8.470  -2.174  -0.237  1.00  0.00     0.310 S 
ATOM     23  F   UNL     1       8.114  -2.155   1.309  1.00  0.00    -0.094 F 
ATOM     24  F   UNL     1       9.062  -0.726  -0.047  1.00  0.00    -0.094 F 
ATOM     25  F   UNL     1       9.834  -2.813   0.148  1.00  0.00    -0.094 F 
ATOM     26  F   UNL     1       7.821  -3.612  -0.295  1.00  0.00    -0.094 F 
ATOM     27  F   UNL     1       7.050  -1.538  -0.518  1.00  0.00    -0.094 F 
ENDBRANCH  15  22
ENDBRANCH   6   8
ENDBRANCH   3   4
ENDBRANCH   2   3
ENDBRANCH   1   2
BRANCH   1  28
ATOM     28  C   UNL     1       4.919  -2.381  -3.479  1.00  0.00     0.116 C 
BRANCH  28  29
ATOM     29  N   UNL     1       6.389  -2.381  -3.479  1.00  0.00    -0.352 N 
ATOM     30  C   UNL     1       7.124  -3.098  -4.531  1.00  0.00     0.251 C 
ATOM     31  H   UNL     1       6.881  -1.901  -2.775  1.00  0.00     0.163 HD
ATOM     32  O   UNL     1       8.395  -3.098  -4.531  1.00  0.00    -0.269 OA
BRANCH  30  33
ATOM     33  C   UNL     1       6.364  -3.840  -5.619  1.00  0.00     0.039 A 
ATOM     34  C   UNL     1       6.643  -5.157  -5.944  1.00  0.00     0.014 A 
ATOM     35  C   UNL     1       5.341  -3.196  -6.168  1.00  0.00     0.014 A 
ATOM     36  C   UNL     1       5.949  -5.624  -7.086  1.00  0.00     0.010 A 
ATOM     37  C   UNL     1       4.621  -3.768  -7.189  1.00  0.00     0.010 A 
ATOM     38  C   UNL     1       4.880  -5.046  -7.602  1.00  0.00    -0.014 A 
BRANCH  38  39
ATOM     39  C   UNL     1       3.986  -5.761  -8.601  1.00  0.00     0.031 A 
ATOM     40  C   UNL     1       3.867  -5.148  -9.850  1.00  0.00     0.074 A 
ATOM     41  C   UNL     1       3.282  -6.892  -8.224  1.00  0.00     0.049 A 
ATOM     42  N   UNL     1       3.114  -5.538 -10.879  1.00  0.00    -0.248 NA
ATOM     43  C   UNL     1       4.587  -3.927 -10.240  1.00  0.00     0.031 C 
ATOM     44  C   UNL     1       3.403  -7.521  -6.970  1.00  0.00     0.029 A 
ATOM     45  N   UNL     1       2.362  -7.601  -8.964  1.00  0.00    -0.354 N 
ATOM     46  C   UNL     1       3.278  -4.708 -11.911  1.00  0.00     0.074 A 
ATOM     47  C   UNL     1       4.224  -3.657 -11.513  1.00  0.00     0.031 C 
ATOM     48  C   UNL     1       2.559  -8.586  -6.949  1.00  0.00     0.029 A 
ATOM     49  C   UNL     1       1.898  -8.642  -8.190  1.00  0.00     0.049 A 
ATOM     50  H   UNL     1       2.083  -7.398  -9.886  1.00  0.00     0.167 HD
ATOM     51  C   UNL     1       2.679  -4.789 -13.169  1.00  0.00     0.034 A 
ATOM     52  C   UNL     1       0.950  -9.594  -8.530  1.00  0.00     0.034 A 
ATOM     53  C   UNL     1       1.763  -5.767 -13.523  1.00  0.00     0.049 A 
ATOM     54  C   UNL     1       0.306  -9.640  -9.768  1.00  0.00     0.074 A 
ATOM     55  C   UNL     1       1.155  -5.867 -14.789  1.00  0.00     0.029 A 
ATOM     56  N   UNL     1       1.281  -6.793 -12.741  1.00  0.00    -0.354 N 
ATOM     57  N   UNL     1       0.500  -8.834 -10.813  1.00  0.00    -0.248 NA
ATOM     58  C   UNL     1      -0.723 -10.625 -10.127  1.00  0.00     0.031 C 
ATOM     59  C   UNL     1       0.311  -6.932 -14.769  1.00  0.00     0.029 A 
ATOM     60  C   UNL     1       0.377  -7.515 -13.489  1.00  0.00     0.049 A 
ATOM     61  H   UNL     1       1.538  -6.979 -11.809  1.00  0.00     0.167 HD
ATOM     62  C   UNL     1      -0.285  -9.200 -11.829  1.00  0.00     0.074 A 
ATOM     63  C   UNL     1      -1.088 -10.353 -11.400  1.00  0.00     0.031 C 
ATOM     64  C   UNL     1      -0.360  -8.622 -13.097  1.00  0.00     0.034 A 
BRANCH  51  65
ATOM     65  C   UNL     1       3.051  -3.744 -14.209  1.00  0.00     0.023 A 
ATOM     66  C   UNL     1       4.313  -3.647 -14.771  1.00  0.00     0.012 A 
ATOM     67  C   UNL     1       2.039  -3.010 -14.657  1.00  0.00     0.148 A 
ATOM     68  C   UNL     1       4.478  -2.526 -15.619  1.00  0.00     0.002 A 
ATOM     69  C   UNL     1       2.250  -2.022 -15.587  1.00  0.00     0.091 A 
ATOM     70  F   UNL     1       0.810  -3.234 -14.200  1.00  0.00    -0.205 F 
ATOM     71  C   UNL     1       3.485  -1.830 -16.142  1.00  0.00     0.022 A 
BRANCH  69  72
ATOM     72  S   UNL     1       0.873  -0.958 -16.086  1.00  0.00     0.127 S 
ATOM     73  O   UNL     1       1.210   0.499 -15.760  1.00  0.00    -0.237 OA
ATOM     74  O   UNL     1       0.637  -1.102 -17.591  1.00  0.00    -0.237 OA
ATOM     75  O   UNL     1      -0.539  -1.419 -15.240  1.00  0.00    -0.744 OA
ENDBRANCH  69  72
ENDBRANCH  51  65
BRANCH  52  76
ATOM     76  C   UNL     1       0.590 -10.648  -7.495  1.00  0.00     0.023 A 
ATOM     77  C   UNL     1       0.632 -11.987  -7.847  1.00  0.00     0.012 A 
ATOM     78  C   UNL     1       0.088 -10.258  -6.330  1.00  0.00     0.148 A 
ATOM     79  C   UNL     1      -0.152 -12.823  -7.016  1.00  0.00     0.002 A 
ATOM     80  C   UNL     1      -0.545 -11.156  -5.505  1.00  0.00     0.091 A 
ATOM     81  F   UNL     1       0.199  -8.986  -5.957  1.00  0.00    -0.205 F 
ATOM     82  C   UNL     1      -0.594 -12.486  -5.819  1.00  0.00     0.022 A 
BRANCH  80  83
ATOM     83  S   UNL     1      -1.326 -10.570  -3.981  1.00  0.00     0.127 S 
ATOM     84  O   UNL     1      -2.821 -10.893  -4.017  1.00  0.00    -0.237 OA
ATOM     85  O   UNL     1      -0.683 -11.264  -2.778  1.00  0.00    -0.237 OA
ATOM     86  O   UNL     1      -1.112  -8.879  -3.844  1.00  0.00    -0.744 OA
ENDBRANCH  80  83
ENDBRANCH  52  76
BRANCH  64  87
ATOM     87  C   UNL     1      -1.308  -9.243 -14.110  1.00  0.00     0.023 A 
ATOM     88  C   UNL     1      -2.676  -9.261 -13.893  1.00  0.00     0.012 A 
ATOM     89  C   UNL     1      -0.784  -9.703 -15.240  1.00  0.00     0.148 A 
ATOM     90  C   UNL     1      -3.393 -10.055 -14.818  1.00  0.00     0.002 A 
ATOM     91  C   UNL     1      -1.570 -10.350 -16.163  1.00  0.00     0.091 A 
ATOM     92  F   UNL     1       0.513  -9.536 -15.480  1.00  0.00    -0.205 F 
ATOM     93  C   UNL     1      -2.921 -10.456 -15.985  1.00  0.00     0.022 A 
BRANCH  91  94
ATOM     94  S   UNL     1      -0.805 -11.072 -17.636  1.00  0.00     0.127 S 
ATOM     95  O   UNL     1      -1.071 -12.579 -17.662  1.00  0.00    -0.237 OA
ATOM     96  O   UNL     1      -1.402 -10.427 -18.889  1.00  0.00    -0.237 OA
ATOM     97  O   UNL     1       0.881 -10.792 -17.598  1.00  0.00    -0.744 OA
ENDBRANCH  91  94
ENDBRANCH  64  87
ENDBRANCH  38  39
ENDBRANCH  30  33
ENDBRANCH  28  29
ENDBRANCH   1  28
TORSDOF 16
