REMARK SMILES COc1ccc(-c2[nH]nc3nc(-c4ccc(C(F)(F)F)cc4)cc(C(=O)NCCCCNC(=O)c4ccc(-c5c6nc(c(-c7cccc(S(=O)(=O)[O-])c7F)c7ccc([nH]7)c(-c7cccc(S(=O)(=O)[O-])c7F)c7nc(c(-c8cccc(S(=O)(=O)[O-])c8F)c8ccc5[nH]8)C=C7)C=C6)cc4)c23)cc1
REMARK SMILES IDX 30 1 29 2 28 3 27 4 25 5 26 6 24 8 7 9 8 10 98 11 9 12 10 14
REMARK SMILES IDX 11 15 23 16 12 17 6 18 3 19 4 20 100 21 5 22 99 23 2 24 1 25
REMARK SMILES IDX 13 26 14 27 22 28 15 29 21 30 16 31 17 32 18 33 19 34 20 35
REMARK SMILES IDX 31 36 32 37 33 38 34 40 35 41 36 42 97 43 37 44 96 45 38 46
REMARK SMILES IDX 39 47 40 48 90 49 41 50 95 51 89 52 91 53 42 54 94 55 88 56
REMARK SMILES IDX 87 57 43 59 75 60 55 61 74 62 56 63 59 64 73 65 92 66 57 67
REMARK SMILES IDX 58 68 72 70 93 71 60 72 44 73 45 74 53 75 46 76 48 77 54 78
REMARK SMILES IDX 47 79 49 80 50 81 51 82 52 83 76 84 77 85 85 86 78 87 80 88
REMARK SMILES IDX 86 89 79 90 81 91 82 92 83 93 84 94 61 95 62 96 70 97 63 98
REMARK SMILES IDX 65 99 71 100 64 101 66 102 67 103 68 104 69 105
REMARK H PARENT 27 7 8 13 32 39 91 58 59 69
REMARK Flexibility Score: inf
ROOT
ATOM      1  C   UNL     1       7.753   4.841   3.917  1.00  0.00     0.023 C 
ENDROOT
BRANCH   1   2
ATOM      2  C   UNL     1       7.221   4.580   5.337  1.00  0.00     0.023 C 
BRANCH   2   3
ATOM      3  C   UNL     1       5.808   5.105   5.593  1.00  0.00     0.116 C 
BRANCH   3   4
ATOM      4  N   UNL     1       4.803   4.298   4.938  1.00  0.00    -0.352 N 
ATOM      5  C   UNL     1       3.979   3.257   5.278  1.00  0.00     0.252 C 
ATOM      6  O   UNL     1       3.214   2.932   4.383  1.00  0.00    -0.269 OA
ATOM      7  H   UNL     1       4.677   4.567   3.999  1.00  0.00     0.163 HD
BRANCH   5   8
ATOM      8  C   UNL     1       3.948   2.578   6.597  1.00  0.00     0.055 A 
ATOM      9  C   UNL     1       2.041   0.900   6.356  1.00  0.00     0.075 A 
ATOM     10  N   UNL     1       1.430   0.124   7.314  1.00  0.00    -0.275 N 
ATOM     11  C   UNL     1       3.025   1.602   7.038  1.00  0.00     0.059 A 
ATOM     12  N   UNL     1       1.980   0.184   8.534  1.00  0.00    -0.154 NA
ATOM     13  H   UNL     1       0.645  -0.435   7.117  1.00  0.00     0.190 HD
ATOM     14  C   UNL     1       2.940   1.097   8.394  1.00  0.00     0.182 A 
ATOM     15  N   UNL     1       3.753   1.519   9.397  1.00  0.00    -0.226 NA
ATOM     16  C   UNL     1       4.821   2.889   7.646  1.00  0.00     0.043 A 
ATOM     17  C   UNL     1       4.660   2.432   8.977  1.00  0.00     0.074 A 
BRANCH   9  18
ATOM     18  C   UNL     1       1.593   0.799   4.971  1.00  0.00     0.001 A 
ATOM     19  C   UNL     1       0.774   0.712   2.279  1.00  0.00     0.118 A 
ATOM     20  C   UNL     1      -0.086   1.193   3.268  1.00  0.00     0.047 A 
ATOM     21  C   UNL     1       2.043   0.259   2.640  1.00  0.00     0.047 A 
ATOM     22  C   UNL     1       0.314   1.232   4.607  1.00  0.00     0.014 A 
ATOM     23  C   UNL     1       2.442   0.284   3.983  1.00  0.00     0.014 A 
BRANCH  19  24
ATOM     24  O   UNL     1       0.272   0.770   1.009  1.00  0.00    -0.497 OA
ATOM     25  C   UNL     1       0.987   0.074  -0.001  1.00  0.00     0.278 C 
ENDBRANCH  19  24
ENDBRANCH   9  18
BRANCH  17  26
ATOM     26  C   UNL     1       5.483   3.070  10.020  1.00  0.00     0.000 A 
ATOM     27  C   UNL     1       6.385   2.345  10.805  1.00  0.00     0.011 A 
ATOM     28  C   UNL     1       5.423   4.468  10.194  1.00  0.00     0.011 A 
ATOM     29  C   UNL     1       7.236   3.003  11.702  1.00  0.00     0.014 A 
ATOM     30  C   UNL     1       6.268   5.126  11.088  1.00  0.00     0.014 A 
ATOM     31  C   UNL     1       7.194   4.401  11.844  1.00  0.00     0.056 A 
BRANCH  31  32
ATOM     32  C   UNL     1       8.134   5.100  12.795  1.00  0.00     0.416 C 
ATOM     33  F   UNL     1       7.968   4.698  14.086  1.00  0.00    -0.166 F 
ATOM     34  F   UNL     1       9.444   4.862  12.499  1.00  0.00    -0.166 F 
ATOM     35  F   UNL     1       7.998   6.455  12.807  1.00  0.00    -0.166 F 
ENDBRANCH  31  32
ENDBRANCH  17  26
ENDBRANCH   5   8
ENDBRANCH   3   4
ENDBRANCH   2   3
ENDBRANCH   1   2
BRANCH   1  36
ATOM     36  C   UNL     1       7.834   6.313   3.513  1.00  0.00     0.116 C 
BRANCH  36  37
ATOM     37  N   UNL     1       8.678   7.095   4.413  1.00  0.00    -0.352 N 
ATOM     38  C   UNL     1       8.761   8.468   4.532  1.00  0.00     0.251 C 
ATOM     39  H   UNL     1       9.262   6.577   5.012  1.00  0.00     0.163 HD
ATOM     40  O   UNL     1       9.761   8.987   5.013  1.00  0.00    -0.269 OA
BRANCH  38  41
ATOM     41  C   UNL     1       7.630   9.304   4.089  1.00  0.00     0.039 A 
ATOM     42  C   UNL     1       7.848  10.474   3.361  1.00  0.00     0.014 A 
ATOM     43  C   UNL     1       6.335   8.902   4.411  1.00  0.00     0.014 A 
ATOM     44  C   UNL     1       6.748  11.181   2.882  1.00  0.00     0.010 A 
ATOM     45  C   UNL     1       5.249   9.537   3.851  1.00  0.00     0.010 A 
ATOM     46  C   UNL     1       5.449  10.691   3.103  1.00  0.00    -0.014 A 
BRANCH  46  47
ATOM     47  C   UNL     1       4.321  11.268   2.372  1.00  0.00     0.031 A 
ATOM     48  C   UNL     1       4.530  11.273   0.899  1.00  0.00     0.074 A 
ATOM     49  C   UNL     1       3.127  11.574   2.926  1.00  0.00     0.049 A 
ATOM     50  N   UNL     1       4.790  12.295   0.152  1.00  0.00    -0.248 NA
ATOM     51  C   UNL     1       4.671   9.982   0.205  1.00  0.00     0.031 C 
ATOM     52  C   UNL     1       2.700  11.319   4.306  1.00  0.00     0.029 A 
ATOM     53  N   UNL     1       1.988  12.053   2.343  1.00  0.00    -0.354 N 
ATOM     54  C   UNL     1       4.823  11.798  -1.148  1.00  0.00     0.074 A 
ATOM     55  C   UNL     1       5.013  10.380  -1.023  1.00  0.00     0.031 C 
ATOM     56  C   UNL     1       1.354  11.404   4.386  1.00  0.00     0.029 A 
ATOM     57  C   UNL     1       0.839  11.876   3.115  1.00  0.00     0.049 A 
ATOM     58  H   UNL     1       1.979  12.485   1.458  1.00  0.00     0.167 HD
ATOM     59  C   UNL     1       4.344  12.548  -2.181  1.00  0.00     0.034 A 
ATOM     60  C   UNL     1      -0.447  12.069   2.729  1.00  0.00     0.034 A 
ATOM     61  C   UNL     1       4.174  13.923  -1.770  1.00  0.00     0.049 A 
ATOM     62  C   UNL     1      -0.416  12.978   1.566  1.00  0.00     0.074 A 
ATOM     63  C   UNL     1       4.980  14.931  -1.284  1.00  0.00     0.029 A 
ATOM     64  N   UNL     1       2.882  14.269  -1.469  1.00  0.00    -0.354 N 
ATOM     65  N   UNL     1      -0.064  14.229   1.644  1.00  0.00    -0.248 NA
ATOM     66  C   UNL     1      -0.441  12.413   0.228  1.00  0.00     0.031 C 
ATOM     67  C   UNL     1       4.153  15.681  -0.393  1.00  0.00     0.029 A 
ATOM     68  C   UNL     1       2.864  15.146  -0.424  1.00  0.00     0.049 A 
ATOM     69  H   UNL     1       2.084  13.933  -1.938  1.00  0.00     0.167 HD
ATOM     70  C   UNL     1       0.643  14.446   0.472  1.00  0.00     0.074 A 
ATOM     71  C   UNL     1       0.218  13.375  -0.424  1.00  0.00     0.031 C 
ATOM     72  C   UNL     1       1.730  15.273   0.468  1.00  0.00     0.034 A 
BRANCH  59  73
ATOM     73  C   UNL     1       3.550  12.007  -3.368  1.00  0.00     0.023 A 
ATOM     74  C   UNL     1       3.120  12.959  -4.325  1.00  0.00     0.012 A 
ATOM     75  C   UNL     1       2.943  10.732  -3.436  1.00  0.00     0.148 A 
ATOM     76  C   UNL     1       2.080  12.692  -5.223  1.00  0.00     0.002 A 
ATOM     77  C   UNL     1       1.959  10.447  -4.378  1.00  0.00     0.091 A 
ATOM     78  F   UNL     1       3.211   9.803  -2.520  1.00  0.00    -0.205 F 
ATOM     79  C   UNL     1       1.496  11.434  -5.248  1.00  0.00     0.022 A 
BRANCH  77  80
ATOM     80  S   UNL     1       1.193   8.822  -4.485  1.00  0.00     0.127 S 
ATOM     81  O   UNL     1      -0.161   9.109  -4.021  1.00  0.00    -0.237 OA
ATOM     82  O   UNL     1       1.314   8.534  -5.914  1.00  0.00    -0.237 OA
ATOM     83  O   UNL     1       1.988   7.950  -3.630  1.00  0.00    -0.744 OA
ENDBRANCH  77  80
ENDBRANCH  59  73
BRANCH  60  84
ATOM     84  C   UNL     1      -1.709  11.421   3.158  1.00  0.00     0.023 A 
ATOM     85  C   UNL     1      -2.944  12.043   2.871  1.00  0.00     0.012 A 
ATOM     86  C   UNL     1      -1.725  10.070   3.563  1.00  0.00     0.148 A 
ATOM     87  C   UNL     1      -4.146  11.327   2.927  1.00  0.00     0.002 A 
ATOM     88  C   UNL     1      -2.924   9.363   3.621  1.00  0.00     0.091 A 
ATOM     89  F   UNL     1      -0.559   9.454   3.799  1.00  0.00    -0.205 F 
ATOM     90  C   UNL     1      -4.135   9.984   3.288  1.00  0.00     0.022 A 
BRANCH  88  91
ATOM     91  S   UNL     1      -2.987   7.617   4.047  1.00  0.00     0.127 S 
ATOM     92  O   UNL     1      -4.052   7.589   5.051  1.00  0.00    -0.237 OA
ATOM     93  O   UNL     1      -3.336   7.007   2.768  1.00  0.00    -0.237 OA
ATOM     94  O   UNL     1      -1.666   7.289   4.568  1.00  0.00    -0.744 OA
ENDBRANCH  88  91
ENDBRANCH  60  84
BRANCH  72  95
ATOM     95  C   UNL     1       1.861  16.260   1.598  1.00  0.00     0.023 A 
ATOM     96  C   UNL     1       2.006  15.881   2.948  1.00  0.00     0.012 A 
ATOM     97  C   UNL     1       1.949  17.621   1.261  1.00  0.00     0.148 A 
ATOM     98  C   UNL     1       2.200  16.845   3.942  1.00  0.00     0.002 A 
ATOM     99  C   UNL     1       2.193  18.570   2.244  1.00  0.00     0.091 A 
ATOM    100  F   UNL     1       1.802  17.967  -0.028  1.00  0.00    -0.205 F 
ATOM    101  C   UNL     1       2.306  18.188   3.589  1.00  0.00     0.022 A 
BRANCH  99 102
ATOM    102  S   UNL     1       2.456  20.293   1.824  1.00  0.00     0.127 S 
ATOM    103  O   UNL     1       1.174  20.895   2.183  1.00  0.00    -0.237 OA
ATOM    104  O   UNL     1       3.572  20.664   2.695  1.00  0.00    -0.237 OA
ATOM    105  O   UNL     1       2.784  20.311   0.403  1.00  0.00    -0.744 OA
ENDBRANCH  99 102
ENDBRANCH  72  95
ENDBRANCH  46  47
ENDBRANCH  38  41
ENDBRANCH  36  37
ENDBRANCH   1  36
TORSDOF 18
