REMARK SMILES CC(C)OC(=O)c1cccc(-c2ccc([C@H]3[NH2+][C@H](C(=O)NCCCCNC(=O)c4ccc(-c5c6nc(c(-c7cccc(S(=O)(=O)[O-])c7F)c7ccc([nH]7)c(-c7cccc(S(=O)(=O)[O-])c7F)c7nc(c(-c8cccc(S(=O)(=O)[O-])c8F)c8ccc5[nH]8)C=C7)C=C6)cc4)C(C)(C)S3)o2)c1
REMARK SMILES IDX 22 1 21 2 19 3 20 4 18 6 16 7 17 8 95 9 92 12 93 13 94 14
REMARK SMILES IDX 15 15 12 16 13 17 96 18 14 19 11 20 7 21 8 22 97 23 9 24
REMARK SMILES IDX 10 25 5 26 6 27 4 28 2 29 1 30 3 31 23 32 24 33 25 34 26 35
REMARK SMILES IDX 27 36 28 38 29 39 30 40 91 41 31 42 90 43 32 44 33 45 34 46
REMARK SMILES IDX 84 47 35 48 89 49 83 50 85 51 36 52 88 53 82 54 81 55 37 57
REMARK SMILES IDX 69 58 49 59 68 60 50 61 53 62 67 63 86 64 51 65 52 66 66 68
REMARK SMILES IDX 87 69 54 70 38 71 39 72 47 73 40 74 42 75 48 76 41 77 43 78
REMARK SMILES IDX 44 79 45 80 46 81 70 82 71 83 79 84 72 85 74 86 80 87 73 88
REMARK SMILES IDX 75 89 76 90 77 91 78 92 55 93 56 94 64 95 57 96 59 97 65 98
REMARK SMILES IDX 58 99 60 100 61 101 62 102 63 103
REMARK H PARENT 21 5 17 10 17 11 26 37 85 56 53 67
REMARK Flexibility Score: inf
ROOT
ATOM      1  C   UNL     1     -11.841   5.602   2.582  1.00  0.00     0.116 C 
ENDROOT
BRANCH   1   2
ATOM      2  N   UNL     1     -11.001   5.543   3.757  1.00  0.00    -0.351 N 
ATOM      3  C   UNL     1      -9.861   6.179   4.125  1.00  0.00     0.279 C 
ATOM      4  O   UNL     1      -9.577   6.081   5.330  1.00  0.00    -0.268 OA
ATOM      5  H   UNL     1     -11.324   4.905   4.434  1.00  0.00     0.163 HD
BRANCH   3   6
ATOM      6  C   UNL     1      -8.847   6.909   3.191  1.00  0.00     0.289 C 
ATOM      7  C   UNL     1      -8.231   5.351   1.469  1.00  0.00     0.311 C 
ATOM      8  N   UNL     1      -7.816   5.924   2.753  1.00  0.00    -0.317 N 
ATOM      9  S   UNL     1      -9.237   6.606   0.592  1.00  0.00    -0.078 SA
ATOM     10  H   UNL     1      -6.917   6.393   2.646  1.00  0.00     0.348 HD
ATOM     11  H   UNL     1      -7.723   5.185   3.450  1.00  0.00     0.348 HD
ATOM     12  C   UNL     1      -9.229   7.792   1.988  1.00  0.00     0.078 C 
ATOM     13  C   UNL     1      -8.104   8.795   1.638  1.00  0.00     0.030 C 
ATOM     14  C   UNL     1     -10.513   8.612   2.162  1.00  0.00     0.030 C 
BRANCH   7  15
ATOM     15  C   UNL     1      -7.030   4.980   0.651  1.00  0.00     0.172 A 
ATOM     16  C   UNL     1      -5.576   3.570  -0.216  1.00  0.00     0.134 A 
ATOM     17  C   UNL     1      -5.154   4.835  -0.567  1.00  0.00     0.051 A 
ATOM     18  O   UNL     1      -6.726   3.647   0.519  1.00  0.00    -0.454 OA
ATOM     19  C   UNL     1      -6.086   5.737  -0.020  1.00  0.00     0.054 A 
BRANCH  16  20
ATOM     20  C   UNL     1      -5.030   2.251  -0.501  1.00  0.00     0.018 A 
ATOM     21  C   UNL     1      -3.078   0.862  -0.939  1.00  0.00     0.060 A 
ATOM     22  C   UNL     1      -3.906  -0.176  -1.373  1.00  0.00     0.016 A 
ATOM     23  C   UNL     1      -3.638   2.069  -0.504  1.00  0.00     0.027 A 
ATOM     24  C   UNL     1      -5.293  -0.020  -1.330  1.00  0.00     0.002 A 
ATOM     25  C   UNL     1      -5.852   1.186  -0.891  1.00  0.00     0.012 A 
BRANCH  21  26
ATOM     26  C   UNL     1      -1.609   0.697  -1.031  1.00  0.00     0.338 C 
ATOM     27  O   UNL     1      -1.060   0.096  -1.937  1.00  0.00    -0.246 OA
BRANCH  26  28
ATOM     28  O   UNL     1      -1.024   1.294   0.035  1.00  0.00    -0.459 OA
BRANCH  28  29
ATOM     29  C   UNL     1       0.416   1.315   0.150  1.00  0.00     0.170 C 
ATOM     30  C   UNL     1       1.050  -0.072   0.136  1.00  0.00     0.052 C 
ATOM     31  C   UNL     1       1.030   2.262  -0.875  1.00  0.00     0.052 C 
ENDBRANCH  28  29
ENDBRANCH  26  28
ENDBRANCH  21  26
ENDBRANCH  16  20
ENDBRANCH   7  15
ENDBRANCH   3   6
ENDBRANCH   1   2
BRANCH   1  32
ATOM     32  C   UNL     1     -12.039   4.253   1.905  1.00  0.00     0.023 C 
BRANCH  32  33
ATOM     33  C   UNL     1     -13.179   3.412   2.474  1.00  0.00     0.023 C 
BRANCH  33  34
ATOM     34  C   UNL     1     -14.533   4.110   2.575  1.00  0.00     0.116 C 
BRANCH  34  35
ATOM     35  N   UNL     1     -14.960   4.771   1.348  1.00  0.00    -0.352 N 
ATOM     36  C   UNL     1     -16.247   4.979   0.909  1.00  0.00     0.251 C 
ATOM     37  H   UNL     1     -14.242   5.108   0.764  1.00  0.00     0.163 HD
ATOM     38  O   UNL     1     -16.461   5.498  -0.182  1.00  0.00    -0.269 OA
BRANCH  36  39
ATOM     39  C   UNL     1     -17.367   4.528   1.758  1.00  0.00     0.039 A 
ATOM     40  C   UNL     1     -18.332   3.679   1.213  1.00  0.00     0.014 A 
ATOM     41  C   UNL     1     -17.417   4.889   3.107  1.00  0.00     0.014 A 
ATOM     42  C   UNL     1     -19.320   3.142   2.041  1.00  0.00     0.010 A 
ATOM     43  C   UNL     1     -18.352   4.291   3.942  1.00  0.00     0.010 A 
ATOM     44  C   UNL     1     -19.321   3.423   3.417  1.00  0.00    -0.014 A 
BRANCH  44  45
ATOM     45  C   UNL     1     -20.344   2.846   4.323  1.00  0.00     0.031 A 
ATOM     46  C   UNL     1     -21.305   3.759   5.036  1.00  0.00     0.074 A 
ATOM     47  C   UNL     1     -20.354   1.521   4.572  1.00  0.00     0.049 A 
ATOM     48  N   UNL     1     -22.232   3.462   5.909  1.00  0.00    -0.248 NA
ATOM     49  C   UNL     1     -21.183   5.201   4.761  1.00  0.00     0.031 C 
ATOM     50  C   UNL     1     -19.414   0.546   4.014  1.00  0.00     0.029 A 
ATOM     51  N   UNL     1     -21.171   0.770   5.379  1.00  0.00    -0.354 N 
ATOM     52  C   UNL     1     -22.769   4.676   6.318  1.00  0.00     0.074 A 
ATOM     53  C   UNL     1     -22.037   5.717   5.631  1.00  0.00     0.031 C 
ATOM     54  C   UNL     1     -19.714  -0.675   4.489  1.00  0.00     0.029 A 
ATOM     55  C   UNL     1     -20.855  -0.569   5.394  1.00  0.00     0.049 A 
ATOM     56  H   UNL     1     -21.914   1.153   5.898  1.00  0.00     0.167 HD
ATOM     57  C   UNL     1     -23.806   4.907   7.157  1.00  0.00     0.034 A 
ATOM     58  C   UNL     1     -21.430  -1.593   6.054  1.00  0.00     0.034 A 
ATOM     59  C   UNL     1     -24.577   3.866   7.779  1.00  0.00     0.049 A 
ATOM     60  C   UNL     1     -22.642  -1.321   6.905  1.00  0.00     0.074 A 
ATOM     61  C   UNL     1     -25.702   3.986   8.574  1.00  0.00     0.029 A 
ATOM     62  N   UNL     1     -24.307   2.512   7.665  1.00  0.00    -0.354 N 
ATOM     63  N   UNL     1     -23.238  -0.179   7.151  1.00  0.00    -0.248 NA
ATOM     64  C   UNL     1     -23.291  -2.482   7.531  1.00  0.00     0.031 C 
ATOM     65  C   UNL     1     -26.114   2.699   8.940  1.00  0.00     0.029 A 
ATOM     66  C   UNL     1     -25.251   1.781   8.364  1.00  0.00     0.049 A 
ATOM     67  H   UNL     1     -23.554   2.126   7.160  1.00  0.00     0.167 HD
ATOM     68  C   UNL     1     -24.354  -0.488   7.920  1.00  0.00     0.074 A 
ATOM     69  C   UNL     1     -24.360  -1.927   8.086  1.00  0.00     0.031 C 
ATOM     70  C   UNL     1     -25.282   0.344   8.453  1.00  0.00     0.034 A 
BRANCH  57  71
ATOM     71  C   UNL     1     -24.211   6.339   7.385  1.00  0.00     0.023 A 
ATOM     72  C   UNL     1     -24.842   7.052   6.344  1.00  0.00     0.012 A 
ATOM     73  C   UNL     1     -24.004   6.969   8.627  1.00  0.00     0.148 A 
ATOM     74  C   UNL     1     -25.223   8.381   6.521  1.00  0.00     0.002 A 
ATOM     75  C   UNL     1     -24.428   8.281   8.810  1.00  0.00     0.091 A 
ATOM     76  F   UNL     1     -23.381   6.285   9.597  1.00  0.00    -0.205 F 
ATOM     77  C   UNL     1     -25.026   8.991   7.756  1.00  0.00     0.022 A 
BRANCH  75  78
ATOM     78  S   UNL     1     -24.288   9.130  10.387  1.00  0.00     0.127 S 
ATOM     79  O   UNL     1     -23.185  10.054  10.128  1.00  0.00    -0.237 OA
ATOM     80  O   UNL     1     -25.599   9.766  10.514  1.00  0.00    -0.237 OA
ATOM     81  O   UNL     1     -24.020   8.094  11.375  1.00  0.00    -0.744 OA
ENDBRANCH  75  78
ENDBRANCH  57  71
BRANCH  58  82
ATOM     82  C   UNL     1     -20.936  -2.985   5.848  1.00  0.00     0.023 A 
ATOM     83  C   UNL     1     -21.722  -3.887   5.104  1.00  0.00     0.012 A 
ATOM     84  C   UNL     1     -19.694  -3.412   6.353  1.00  0.00     0.148 A 
ATOM     85  C   UNL     1     -21.296  -5.199   4.895  1.00  0.00     0.002 A 
ATOM     86  C   UNL     1     -19.252  -4.707   6.098  1.00  0.00     0.091 A 
ATOM     87  F   UNL     1     -18.965  -2.544   7.068  1.00  0.00    -0.205 F 
ATOM     88  C   UNL     1     -20.059  -5.606   5.384  1.00  0.00     0.022 A 
BRANCH  86  89
ATOM     89  S   UNL     1     -17.618  -5.277   6.582  1.00  0.00     0.127 S 
ATOM     90  O   UNL     1     -17.927  -6.149   7.712  1.00  0.00    -0.237 OA
ATOM     91  O   UNL     1     -17.167  -5.970   5.374  1.00  0.00    -0.237 OA
ATOM     92  O   UNL     1     -16.863  -4.071   6.895  1.00  0.00    -0.744 OA
ENDBRANCH  86  89
ENDBRANCH  58  82
BRANCH  70  93
ATOM     93  C   UNL     1     -26.417  -0.274   9.225  1.00  0.00     0.023 A 
ATOM     94  C   UNL     1     -26.187  -0.787  10.516  1.00  0.00     0.012 A 
ATOM     95  C   UNL     1     -27.726  -0.265   8.704  1.00  0.00     0.148 A 
ATOM     96  C   UNL     1     -27.240  -1.308  11.267  1.00  0.00     0.002 A 
ATOM     97  C   UNL     1     -28.777  -0.743   9.477  1.00  0.00     0.091 A 
ATOM     98  F   UNL     1     -27.920   0.208   7.464  1.00  0.00    -0.205 F 
ATOM     99  C   UNL     1     -28.535  -1.274  10.754  1.00  0.00     0.022 A 
BRANCH  97 100
ATOM    100  S   UNL     1     -30.485  -0.645   8.927  1.00  0.00     0.127 S 
ATOM    101  O   UNL     1     -30.736  -2.015   8.485  1.00  0.00    -0.237 OA
ATOM    102  O   UNL     1     -31.188  -0.261  10.152  1.00  0.00    -0.237 OA
ATOM    103  O   UNL     1     -30.506   0.370   7.882  1.00  0.00    -0.744 OA
ENDBRANCH  97 100
ENDBRANCH  70  93
ENDBRANCH  44  45
ENDBRANCH  36  39
ENDBRANCH  34  35
ENDBRANCH  33  34
ENDBRANCH  32  33
ENDBRANCH   1  32
TORSDOF 19
