REMARK SMILES O=C(NCCCCNC(=O)c1cc(F)c(F)cc1NS(=O)(=O)c1ccc2c(c1)CCC2)c1ccc(-c2c3nc(c(-c4cccc(S(=O)(=O)[O-])c4F)c4ccc([nH]4)c(-c4cccc(S(=O)(=O)[O-])c4F)c4nc(c(-c5cccc(S(=O)(=O)[O-])c5F)c5ccc2[nH]5)C=C4)C=C3)cc1
REMARK SMILES IDX 5 1 4 2 3 3 1 4 2 5 32 7 33 8 94 9 34 10 93 11 35 12 36 13
REMARK SMILES IDX 37 14 87 15 38 16 92 17 86 18 88 19 39 20 91 21 85 22 84 23
REMARK SMILES IDX 40 25 72 26 52 27 71 28 53 29 56 30 70 31 89 32 54 33 55 34
REMARK SMILES IDX 69 36 90 37 57 38 41 39 42 40 50 41 43 42 45 43 51 44 44 45
REMARK SMILES IDX 46 46 47 47 48 48 49 49 73 50 74 51 82 52 75 53 77 54 83 55
REMARK SMILES IDX 76 56 78 57 79 58 80 59 81 60 58 61 59 62 67 63 60 64 62 65
REMARK SMILES IDX 68 66 61 67 63 68 64 69 65 70 66 71 6 72 7 73 8 74 9 75
REMARK SMILES IDX 10 77 11 78 12 79 18 80 13 81 17 82 14 83 15 84 16 85 19 86
REMARK SMILES IDX 20 88 21 89 22 90 23 91 24 92 28 93 25 94 27 95 26 96 29 97
REMARK SMILES IDX 31 98 30 99
REMARK H PARENT 3 6 88 24 56 35 8 76 19 87
REMARK Flexibility Score: inf
ROOT
ATOM      1  C   UNL     1       4.953  -1.831  -1.774  1.00  0.00     0.023 C 
ENDROOT
BRANCH   1   2
ATOM      2  C   UNL     1       4.578  -0.469  -1.207  1.00  0.00     0.116 C 
BRANCH   2   3
ATOM      3  N   UNL     1       3.140  -0.252  -1.133  1.00  0.00    -0.352 N 
ATOM      4  O   UNL     1       1.149   0.107  -0.136  1.00  0.00    -0.269 OA
ATOM      5  C   UNL     1       2.372   0.099  -0.044  1.00  0.00     0.251 C 
ATOM      6  H   UNL     1       2.649  -0.374  -1.977  1.00  0.00     0.163 HD
BRANCH   5   7
ATOM      7  C   UNL     1       3.035   0.427   1.237  1.00  0.00     0.039 A 
ATOM      8  C   UNL     1       4.160   1.253   1.255  1.00  0.00     0.014 A 
ATOM      9  C   UNL     1       2.555  -0.130   2.425  1.00  0.00     0.014 A 
ATOM     10  C   UNL     1       4.909   1.369   2.418  1.00  0.00     0.010 A 
ATOM     11  C   UNL     1       3.251   0.080   3.619  1.00  0.00     0.010 A 
ATOM     12  C   UNL     1       4.458   0.797   3.619  1.00  0.00    -0.014 A 
BRANCH  12  13
ATOM     13  C   UNL     1       5.236   1.029   4.865  1.00  0.00     0.031 A 
ATOM     14  C   UNL     1       5.846  -0.108   5.639  1.00  0.00     0.074 A 
ATOM     15  C   UNL     1       5.401   2.298   5.287  1.00  0.00     0.049 A 
ATOM     16  N   UNL     1       6.579  -0.061   6.723  1.00  0.00    -0.248 NA
ATOM     17  C   UNL     1       5.600  -1.472   5.145  1.00  0.00     0.031 C 
ATOM     18  C   UNL     1       4.822   3.480   4.642  1.00  0.00     0.029 A 
ATOM     19  N   UNL     1       6.100   2.811   6.349  1.00  0.00    -0.354 N 
ATOM     20  C   UNL     1       6.848  -1.381   7.065  1.00  0.00     0.074 A 
ATOM     21  C   UNL     1       6.192  -2.210   6.076  1.00  0.00     0.031 C 
ATOM     22  C   UNL     1       5.215   4.580   5.298  1.00  0.00     0.029 A 
ATOM     23  C   UNL     1       6.018   4.181   6.447  1.00  0.00     0.049 A 
ATOM     24  H   UNL     1       6.611   2.254   6.979  1.00  0.00     0.167 HD
ATOM     25  C   UNL     1       7.583  -1.857   8.100  1.00  0.00     0.034 A 
ATOM     26  C   UNL     1       6.511   5.025   7.371  1.00  0.00     0.034 A 
ATOM     27  C   UNL     1       8.255  -1.024   9.065  1.00  0.00     0.049 A 
ATOM     28  C   UNL     1       7.329   4.468   8.499  1.00  0.00     0.074 A 
ATOM     29  C   UNL     1       9.074  -1.411  10.111  1.00  0.00     0.029 A 
ATOM     30  N   UNL     1       8.175   0.359   9.113  1.00  0.00    -0.354 N 
ATOM     31  N   UNL     1       7.674   3.226   8.732  1.00  0.00    -0.248 NA
ATOM     32  C   UNL     1       7.850   5.433   9.477  1.00  0.00     0.031 C 
ATOM     33  C   UNL     1       9.462  -0.263  10.812  1.00  0.00     0.029 A 
ATOM     34  C   UNL     1       8.917   0.842  10.179  1.00  0.00     0.049 A 
ATOM     35  H   UNL     1       7.666   0.917   8.482  1.00  0.00     0.167 HD
ATOM     36  C   UNL     1       8.476   3.260   9.864  1.00  0.00     0.074 A 
ATOM     37  C   UNL     1       8.588   4.652  10.254  1.00  0.00     0.031 C 
ATOM     38  C   UNL     1       9.056   2.232  10.530  1.00  0.00     0.034 A 
BRANCH  25  39
ATOM     39  C   UNL     1       7.726  -3.353   8.237  1.00  0.00     0.023 A 
ATOM     40  C   UNL     1       8.530  -4.067   7.325  1.00  0.00     0.012 A 
ATOM     41  C   UNL     1       7.127  -4.042   9.311  1.00  0.00     0.148 A 
ATOM     42  C   UNL     1       8.709  -5.444   7.459  1.00  0.00     0.002 A 
ATOM     43  C   UNL     1       7.346  -5.407   9.464  1.00  0.00     0.091 A 
ATOM     44  F   UNL     1       6.353  -3.352  10.160  1.00  0.00    -0.205 F 
ATOM     45  C   UNL     1       8.127  -6.111   8.533  1.00  0.00     0.022 A 
BRANCH  43  46
ATOM     46  S   UNL     1       6.707  -6.342  10.859  1.00  0.00     0.127 S 
ATOM     47  O   UNL     1       5.679  -7.161  10.218  1.00  0.00    -0.237 OA
ATOM     48  O   UNL     1       7.888  -7.083  11.301  1.00  0.00    -0.237 OA
ATOM     49  O   UNL     1       6.215  -5.357  11.812  1.00  0.00    -0.744 OA
ENDBRANCH  43  46
ENDBRANCH  25  39
BRANCH  26  50
ATOM     50  C   UNL     1       6.266   6.489   7.241  1.00  0.00     0.023 A 
ATOM     51  C   UNL     1       7.338   7.351   6.944  1.00  0.00     0.012 A 
ATOM     52  C   UNL     1       4.968   7.022   7.370  1.00  0.00     0.148 A 
ATOM     53  C   UNL     1       7.127   8.723   6.807  1.00  0.00     0.002 A 
ATOM     54  C   UNL     1       4.756   8.380   7.170  1.00  0.00     0.091 A 
ATOM     55  F   UNL     1       3.963   6.185   7.663  1.00  0.00    -0.205 F 
ATOM     56  C   UNL     1       5.836   9.235   6.908  1.00  0.00     0.022 A 
BRANCH  54  57
ATOM     57  S   UNL     1       3.111   9.099   7.138  1.00  0.00     0.127 S 
ATOM     58  O   UNL     1       3.100   9.873   8.376  1.00  0.00    -0.237 OA
ATOM     59  O   UNL     1       3.155   9.897   5.912  1.00  0.00    -0.237 OA
ATOM     60  O   UNL     1       2.190   7.972   7.086  1.00  0.00    -0.744 OA
ENDBRANCH  54  57
ENDBRANCH  26  50
BRANCH  38  61
ATOM     61  C   UNL     1       9.899   2.575  11.731  1.00  0.00     0.023 A 
ATOM     62  C   UNL     1       9.287   3.027  12.917  1.00  0.00     0.012 A 
ATOM     63  C   UNL     1      11.297   2.400  11.698  1.00  0.00     0.148 A 
ATOM     64  C   UNL     1      10.056   3.337  14.038  1.00  0.00     0.002 A 
ATOM     65  C   UNL     1      12.051   2.660  12.835  1.00  0.00     0.091 A 
ATOM     66  F   UNL     1      11.863   1.988  10.554  1.00  0.00    -0.205 F 
ATOM     67  C   UNL     1      11.434   3.143  14.001  1.00  0.00     0.022 A 
BRANCH  65  68
ATOM     68  S   UNL     1      13.818   2.347  12.910  1.00  0.00     0.127 S 
ATOM     69  O   UNL     1      14.361   3.705  12.908  1.00  0.00    -0.237 OA
ATOM     70  O   UNL     1      13.953   1.638  14.183  1.00  0.00    -0.237 OA
ATOM     71  O   UNL     1      14.134   1.546  11.736  1.00  0.00    -0.744 OA
ENDBRANCH  65  68
ENDBRANCH  38  61
ENDBRANCH  12  13
ENDBRANCH   5   7
ENDBRANCH   2   3
ENDBRANCH   1   2
BRANCH   1  72
ATOM     72  C   UNL     1       4.502  -2.079  -3.209  1.00  0.00     0.023 C 
BRANCH  72  73
ATOM     73  C   UNL     1       4.946  -1.019  -4.214  1.00  0.00     0.116 C 
BRANCH  73  74
ATOM     74  N   UNL     1       6.395  -0.976  -4.381  1.00  0.00    -0.352 N 
ATOM     75  C   UNL     1       7.138  -1.271  -5.500  1.00  0.00     0.253 C 
ATOM     76  H   UNL     1       6.909  -0.698  -3.588  1.00  0.00     0.163 HD
ATOM     77  O   UNL     1       8.352  -1.412  -5.450  1.00  0.00    -0.269 OA
BRANCH  75  78
ATOM     78  C   UNL     1       6.433  -1.500  -6.771  1.00  0.00     0.067 A 
ATOM     79  C   UNL     1       5.613  -0.470  -7.262  1.00  0.00     0.058 A 
ATOM     80  C   UNL     1       6.456  -2.771  -7.375  1.00  0.00     0.065 A 
ATOM     81  C   UNL     1       4.713  -0.753  -8.276  1.00  0.00     0.159 A 
ATOM     82  C   UNL     1       5.463  -3.050  -8.316  1.00  0.00     0.070 A 
ATOM     83  F   UNL     1       3.887   0.206  -8.712  1.00  0.00    -0.204 F 
ATOM     84  C   UNL     1       4.616  -2.043  -8.776  1.00  0.00     0.160 A 
ATOM     85  F   UNL     1       3.694  -2.337  -9.703  1.00  0.00    -0.204 F 
BRANCH  80  86
ATOM     86  N   UNL     1       7.362  -3.822  -6.956  1.00  0.00    -0.279 N 
ATOM     87  H   UNL     1       7.300  -4.198  -6.048  1.00  0.00     0.180 HD
BRANCH  86  88
ATOM     88  S   UNL     1       8.551  -4.409  -8.058  1.00  0.00     0.261 S 
ATOM     89  O   UNL     1       9.513  -3.352  -8.261  1.00  0.00    -0.201 OA
ATOM     90  O   UNL     1       8.970  -5.702  -7.551  1.00  0.00    -0.201 OA
BRANCH  88  91
ATOM     91  C   UNL     1       7.735  -4.679  -9.614  1.00  0.00     0.088 A 
ATOM     92  C   UNL     1       7.585  -3.586 -10.493  1.00  0.00     0.022 A 
ATOM     93  C   UNL     1       7.244  -5.949  -9.943  1.00  0.00     0.026 A 
ATOM     94  C   UNL     1       6.805  -3.714 -11.642  1.00  0.00     0.005 A 
ATOM     95  C   UNL     1       6.522  -6.072 -11.120  1.00  0.00    -0.043 A 
ATOM     96  C   UNL     1       6.267  -4.957 -11.931  1.00  0.00    -0.045 A 
ATOM     97  C   UNL     1       5.864  -7.295 -11.683  1.00  0.00     0.036 C 
ATOM     98  C   UNL     1       5.324  -5.312 -13.037  1.00  0.00     0.036 C 
ATOM     99  C   UNL     1       5.524  -6.830 -13.109  1.00  0.00     0.010 C 
ENDBRANCH  88  91
ENDBRANCH  86  88
ENDBRANCH  80  86
ENDBRANCH  75  78
ENDBRANCH  73  74
ENDBRANCH  72  73
ENDBRANCH   1  72
TORSDOF 17
