REMARK SMILES O=C(NCCCCNC(=O)c1nnn(-c2cccc(Br)c2)c1[C@@H]1COc2ccccc2O1)c1ccc(-c2c3nc(c(-c4cccc(S(=O)(=O)[O-])c4F)c4ccc([nH]4)c(-c4cccc(S(=O)(=O)[O-])c4F)c4nc(c(-c5cccc(S(=O)(=O)[O-])c5F)c5ccc2[nH]5)C=C4)C=C3)cc1
REMARK SMILES IDX 4 1 3 2 1 3 2 4 33 6 34 7 95 8 35 9 94 10 36 11 37 12 38 13
REMARK SMILES IDX 88 14 39 15 93 16 87 17 89 18 40 19 92 20 86 21 85 22 41 24
REMARK SMILES IDX 73 25 53 26 72 27 54 28 57 29 71 30 90 31 55 32 56 33 70 35
REMARK SMILES IDX 91 36 58 37 42 38 43 39 51 40 44 41 46 42 52 43 45 44 47 45
REMARK SMILES IDX 48 46 49 47 50 48 74 49 75 50 83 51 76 52 78 53 84 54 77 55
REMARK SMILES IDX 79 56 80 57 81 58 82 59 59 60 60 61 68 62 61 63 63 64 69 65
REMARK SMILES IDX 62 66 64 67 65 68 66 69 67 70 5 71 6 72 7 73 8 74 9 75 10 77
REMARK SMILES IDX 11 78 12 79 22 80 13 81 14 82 23 83 24 84 32 85 25 86 31 87
REMARK SMILES IDX 26 88 30 89 27 90 29 91 28 92 15 93 16 94 21 95 17 96 19 97
REMARK SMILES IDX 18 98 20 99
REMARK H PARENT 3 5 89 23 57 34 8 76
REMARK Flexibility Score: inf
ROOT
ATOM      1  C   UNL     1       4.356   0.415   1.438  1.00  0.00     0.116 C 
ENDROOT
BRANCH   1   2
ATOM      2  N   UNL     1       3.009  -0.029   1.139  1.00  0.00    -0.352 N 
ATOM      3  O   UNL     1       1.279  -0.516  -0.195  1.00  0.00    -0.269 OA
ATOM      4  C   UNL     1       2.147   0.298   0.119  1.00  0.00     0.251 C 
ATOM      5  H   UNL     1       2.646  -0.680   1.782  1.00  0.00     0.163 HD
BRANCH   4   6
ATOM      6  C   UNL     1       2.125   1.652  -0.470  1.00  0.00     0.039 A 
ATOM      7  C   UNL     1       3.267   2.380  -0.789  1.00  0.00     0.014 A 
ATOM      8  C   UNL     1       0.856   2.231  -0.644  1.00  0.00     0.014 A 
ATOM      9  C   UNL     1       3.154   3.725  -1.092  1.00  0.00     0.010 A 
ATOM     10  C   UNL     1       0.736   3.567  -1.003  1.00  0.00     0.010 A 
ATOM     11  C   UNL     1       1.891   4.324  -1.168  1.00  0.00    -0.014 A 
BRANCH  11  12
ATOM     12  C   UNL     1       1.857   5.710  -1.614  1.00  0.00     0.031 A 
ATOM     13  C   UNL     1       2.448   5.915  -2.963  1.00  0.00     0.074 A 
ATOM     14  C   UNL     1       1.293   6.728  -0.938  1.00  0.00     0.049 A 
ATOM     15  N   UNL     1       3.542   6.536  -3.258  1.00  0.00    -0.248 NA
ATOM     16  C   UNL     1       1.833   5.202  -4.091  1.00  0.00     0.031 C 
ATOM     17  C   UNL     1       0.428   6.657   0.239  1.00  0.00     0.029 A 
ATOM     18  N   UNL     1       1.280   8.054  -1.259  1.00  0.00    -0.354 N 
ATOM     19  C   UNL     1       3.638   6.480  -4.647  1.00  0.00     0.074 A 
ATOM     20  C   UNL     1       2.674   5.503  -5.080  1.00  0.00     0.031 C 
ATOM     21  C   UNL     1      -0.221   7.836   0.377  1.00  0.00     0.029 A 
ATOM     22  C   UNL     1       0.283   8.773  -0.613  1.00  0.00     0.049 A 
ATOM     23  H   UNL     1       1.918   8.463  -1.888  1.00  0.00     0.167 HD
ATOM     24  C   UNL     1       4.340   7.409  -5.350  1.00  0.00     0.034 A 
ATOM     25  C   UNL     1      -0.150  10.016  -0.937  1.00  0.00     0.034 A 
ATOM     26  C   UNL     1       5.221   8.167  -4.502  1.00  0.00     0.049 A 
ATOM     27  C   UNL     1       0.910  10.670  -1.737  1.00  0.00     0.074 A 
ATOM     28  C   UNL     1       6.281   7.876  -3.668  1.00  0.00     0.029 A 
ATOM     29  N   UNL     1       4.824   9.442  -4.184  1.00  0.00    -0.354 N 
ATOM     30  N   UNL     1       2.057  11.048  -1.250  1.00  0.00    -0.248 NA
ATOM     31  C   UNL     1       0.844  10.580  -3.186  1.00  0.00     0.031 C 
ATOM     32  C   UNL     1       6.173   8.808  -2.595  1.00  0.00     0.029 A 
ATOM     33  C   UNL     1       5.080   9.636  -2.856  1.00  0.00     0.049 A 
ATOM     34  H   UNL     1       4.427  10.098  -4.802  1.00  0.00     0.167 HD
ATOM     35  C   UNL     1       2.963  10.798  -2.271  1.00  0.00     0.074 A 
ATOM     36  C   UNL     1       2.147  10.642  -3.471  1.00  0.00     0.031 C 
ATOM     37  C   UNL     1       4.254  10.451  -1.993  1.00  0.00     0.034 A 
BRANCH  24  38
ATOM     38  C   UNL     1       3.970   7.910  -6.729  1.00  0.00     0.023 A 
ATOM     39  C   UNL     1       4.880   8.789  -7.361  1.00  0.00     0.012 A 
ATOM     40  C   UNL     1       2.679   7.811  -7.295  1.00  0.00     0.148 A 
ATOM     41  C   UNL     1       4.502   9.581  -8.450  1.00  0.00     0.002 A 
ATOM     42  C   UNL     1       2.334   8.538  -8.429  1.00  0.00     0.091 A 
ATOM     43  F   UNL     1       1.722   7.122  -6.670  1.00  0.00    -0.205 F 
ATOM     44  C   UNL     1       3.229   9.452  -8.988  1.00  0.00     0.022 A 
BRANCH  42  45
ATOM     45  S   UNL     1       0.719   8.369  -9.199  1.00  0.00     0.127 S 
ATOM     46  O   UNL     1       0.084   9.629  -8.825  1.00  0.00    -0.237 OA
ATOM     47  O   UNL     1       1.076   8.249 -10.613  1.00  0.00    -0.237 OA
ATOM     48  O   UNL     1       0.137   7.161  -8.627  1.00  0.00    -0.744 OA
ENDBRANCH  42  45
ENDBRANCH  24  38
BRANCH  25  49
ATOM     49  C   UNL     1      -1.498  10.614  -0.807  1.00  0.00     0.023 A 
ATOM     50  C   UNL     1      -1.640  12.016  -0.841  1.00  0.00     0.012 A 
ATOM     51  C   UNL     1      -2.660   9.823  -0.937  1.00  0.00     0.148 A 
ATOM     52  C   UNL     1      -2.892  12.610  -1.037  1.00  0.00     0.002 A 
ATOM     53  C   UNL     1      -3.904  10.417  -1.122  1.00  0.00     0.091 A 
ATOM     54  F   UNL     1      -2.534   8.490  -0.978  1.00  0.00    -0.205 F 
ATOM     55  C   UNL     1      -4.023  11.811  -1.186  1.00  0.00     0.022 A 
BRANCH  53  56
ATOM     56  S   UNL     1      -5.401   9.447  -1.346  1.00  0.00     0.127 S 
ATOM     57  O   UNL     1      -6.334  10.114  -0.437  1.00  0.00    -0.237 OA
ATOM     58  O   UNL     1      -5.681   9.647  -2.765  1.00  0.00    -0.237 OA
ATOM     59  O   UNL     1      -5.055   8.087  -0.953  1.00  0.00    -0.744 OA
ENDBRANCH  53  56
ENDBRANCH  25  49
BRANCH  37  60
ATOM     60  C   UNL     1       4.770  10.674  -0.596  1.00  0.00     0.023 A 
ATOM     61  C   UNL     1       4.204  10.043   0.530  1.00  0.00     0.012 A 
ATOM     62  C   UNL     1       5.958  11.408  -0.440  1.00  0.00     0.148 A 
ATOM     63  C   UNL     1       4.795  10.167   1.790  1.00  0.00     0.002 A 
ATOM     64  C   UNL     1       6.572  11.484   0.803  1.00  0.00     0.091 A 
ATOM     65  F   UNL     1       6.485  12.003  -1.521  1.00  0.00    -0.205 F 
ATOM     66  C   UNL     1       5.988  10.875   1.924  1.00  0.00     0.022 A 
BRANCH  64  67
ATOM     67  S   UNL     1       8.178  12.260   1.002  1.00  0.00     0.127 S 
ATOM     68  O   UNL     1       7.823  13.557   1.571  1.00  0.00    -0.237 OA
ATOM     69  O   UNL     1       8.857  11.350   1.926  1.00  0.00    -0.237 OA
ATOM     70  O   UNL     1       8.768  12.294  -0.331  1.00  0.00    -0.744 OA
ENDBRANCH  64  67
ENDBRANCH  37  60
ENDBRANCH  11  12
ENDBRANCH   4   6
ENDBRANCH   1   2
BRANCH   1  71
ATOM     71  C   UNL     1       4.562   1.338   2.628  1.00  0.00     0.023 C 
BRANCH  71  72
ATOM     72  C   UNL     1       4.066   0.824   3.983  1.00  0.00     0.023 C 
BRANCH  72  73
ATOM     73  C   UNL     1       4.602  -0.525   4.471  1.00  0.00     0.116 C 
BRANCH  73  74
ATOM     74  N   UNL     1       6.049  -0.608   4.583  1.00  0.00    -0.351 N 
ATOM     75  C   UNL     1       6.776  -1.480   5.369  1.00  0.00     0.273 C 
ATOM     76  H   UNL     1       6.568   0.028   4.039  1.00  0.00     0.163 HD
ATOM     77  O   UNL     1       8.006  -1.450   5.351  1.00  0.00    -0.267 OA
BRANCH  75  78
ATOM     78  C   UNL     1       6.036  -2.350   6.269  1.00  0.00     0.178 A 
ATOM     79  N   UNL     1       5.809  -1.924   7.549  1.00  0.00    -0.124 NA
ATOM     80  C   UNL     1       5.412  -3.584   6.061  1.00  0.00     0.122 A 
ATOM     81  N   UNL     1       4.983  -2.771   8.123  1.00  0.00    -0.061 NA
ATOM     82  N   UNL     1       4.700  -3.761   7.248  1.00  0.00    -0.213 N 
BRANCH  80  83
ATOM     83  C   UNL     1       5.338  -4.524   4.886  1.00  0.00     0.262 C 
ATOM     84  C   UNL     1       6.556  -5.438   4.730  1.00  0.00     0.281 C 
ATOM     85  O   UNL     1       5.053  -3.815   3.673  1.00  0.00    -0.477 OA
ATOM     86  O   UNL     1       7.728  -4.707   4.359  1.00  0.00    -0.485 OA
ATOM     87  C   UNL     1       6.166  -3.527   2.928  1.00  0.00     0.162 A 
ATOM     88  C   UNL     1       7.462  -3.864   3.313  1.00  0.00     0.161 A 
ATOM     89  C   UNL     1       5.958  -2.748   1.798  1.00  0.00     0.050 A 
ATOM     90  C   UNL     1       8.547  -3.268   2.676  1.00  0.00     0.050 A 
ATOM     91  C   UNL     1       7.041  -2.139   1.164  1.00  0.00     0.004 A 
ATOM     92  C   UNL     1       8.334  -2.371   1.627  1.00  0.00     0.004 A 
ENDBRANCH  80  83
BRANCH  82  93
ATOM     93  C   UNL     1       3.670  -4.675   7.584  1.00  0.00     0.068 A 
ATOM     94  C   UNL     1       3.715  -6.025   7.229  1.00  0.00     0.028 A 
ATOM     95  C   UNL     1       2.553  -4.166   8.269  1.00  0.00     0.044 A 
ATOM     96  C   UNL     1       2.616  -6.847   7.497  1.00  0.00     0.003 A 
ATOM     97  C   UNL     1       1.457  -4.989   8.509  1.00  0.00     0.020 A 
ATOM     98  C   UNL     1       1.480  -6.324   8.117  1.00  0.00     0.016 A 
ATOM     99  Br  UNL     1      -0.086  -4.274   9.335  1.00  0.00    -0.051 Br
ENDBRANCH  82  93
ENDBRANCH  75  78
ENDBRANCH  73  74
ENDBRANCH  72  73
ENDBRANCH  71  72
ENDBRANCH   1  71
TORSDOF 16
