REMARK SMILES O=C(NCCCCNC(=O)c1ccccc1C(=O)Nc1ccc(N2C(=O)[C@H]3[C@@H]4CC[C@@H](C4)[C@@H]3C2=O)cc1)c1ccc(-c2c3nc(c(-c4cccc(S(=O)(=O)[O-])c4F)c4ccc([nH]4)c(-c4cccc(S(=O)(=O)[O-])c4F)c4nc(c(-c5cccc(S(=O)(=O)[O-])c5F)c5ccc2[nH]5)C=C4)C=C3)cc1
REMARK SMILES IDX 5 1 4 2 3 3 1 4 2 5 38 7 39 8 100 9 40 10 99 11 41 12 42 13
REMARK SMILES IDX 43 14 93 15 44 16 98 17 92 18 94 19 45 20 97 21 91 22 90 23
REMARK SMILES IDX 46 25 78 26 58 27 77 28 59 29 62 30 76 31 95 32 60 33 61 34
REMARK SMILES IDX 75 36 96 37 63 38 47 39 48 40 56 41 49 42 51 43 57 44 50 45
REMARK SMILES IDX 52 46 53 47 54 48 55 49 79 50 80 51 88 52 81 53 83 54 89 55
REMARK SMILES IDX 82 56 84 57 85 58 86 59 87 60 64 61 65 62 73 63 66 64 68 65
REMARK SMILES IDX 74 66 67 67 69 68 70 69 71 70 72 71 6 72 7 73 8 74 9 75
REMARK SMILES IDX 10 77 11 78 12 79 16 80 13 81 15 82 14 83 17 84 18 85 19 86
REMARK SMILES IDX 20 88 21 89 37 90 22 91 36 92 23 93 24 94 25 95 34 96 26 97
REMARK SMILES IDX 27 98 33 99 35 100 28 101 31 102 29 103 32 104 30 105
REMARK H PARENT 3 6 94 24 62 35 8 76 19 87
REMARK Flexibility Score: inf
ROOT
ATOM      1  C   UNL     1       4.529   1.163   2.422  1.00  0.00     0.023 C 
ENDROOT
BRANCH   1   2
ATOM      2  C   UNL     1       4.266  -0.041   1.522  1.00  0.00     0.116 C 
BRANCH   2   3
ATOM      3  N   UNL     1       2.870  -0.189   1.160  1.00  0.00    -0.352 N 
ATOM      4  O   UNL     1       1.012  -0.021  -0.088  1.00  0.00    -0.269 OA
ATOM      5  C   UNL     1       2.238   0.023  -0.041  1.00  0.00     0.251 C 
ATOM      6  H   UNL     1       2.282  -0.489   1.890  1.00  0.00     0.163 HD
BRANCH   5   7
ATOM      7  C   UNL     1       3.016   0.333  -1.263  1.00  0.00     0.039 A 
ATOM      8  C   UNL     1       4.142  -0.412  -1.621  1.00  0.00     0.014 A 
ATOM      9  C   UNL     1       2.572   1.364  -2.095  1.00  0.00     0.014 A 
ATOM     10  C   UNL     1       4.896  -0.045  -2.736  1.00  0.00     0.010 A 
ATOM     11  C   UNL     1       3.284   1.679  -3.257  1.00  0.00     0.010 A 
ATOM     12  C   UNL     1       4.467   0.995  -3.575  1.00  0.00    -0.014 A 
BRANCH  12  13
ATOM     13  C   UNL     1       5.210   1.303  -4.827  1.00  0.00     0.031 A 
ATOM     14  C   UNL     1       5.840   2.650  -5.052  1.00  0.00     0.074 A 
ATOM     15  C   UNL     1       5.266   0.369  -5.797  1.00  0.00     0.049 A 
ATOM     16  N   UNL     1       6.482   3.094  -6.103  1.00  0.00    -0.248 NA
ATOM     17  C   UNL     1       5.726   3.631  -3.962  1.00  0.00     0.031 C 
ATOM     18  C   UNL     1       4.645  -0.955  -5.724  1.00  0.00     0.029 A 
ATOM     19  N   UNL     1       5.842   0.398  -7.043  1.00  0.00    -0.354 N 
ATOM     20  C   UNL     1       6.810   4.415  -5.823  1.00  0.00     0.074 A 
ATOM     21  C   UNL     1       6.290   4.703  -4.503  1.00  0.00     0.031 C 
ATOM     22  C   UNL     1       4.867  -1.609  -6.873  1.00  0.00     0.029 A 
ATOM     23  C   UNL     1       5.594  -0.733  -7.785  1.00  0.00     0.049 A 
ATOM     24  H   UNL     1       6.380   1.154  -7.372  1.00  0.00     0.167 HD
ATOM     25  C   UNL     1       7.488   5.304  -6.590  1.00  0.00     0.034 A 
ATOM     26  C   UNL     1       5.880  -1.025  -9.068  1.00  0.00     0.034 A 
ATOM     27  C   UNL     1       8.013   5.007  -7.899  1.00  0.00     0.049 A 
ATOM     28  C   UNL     1       6.637  -0.028  -9.896  1.00  0.00     0.074 A 
ATOM     29  C   UNL     1       8.787   5.813  -8.717  1.00  0.00     0.029 A 
ATOM     30  N   UNL     1       7.796   3.827  -8.594  1.00  0.00    -0.354 N 
ATOM     31  N   UNL     1       7.071   1.162  -9.559  1.00  0.00    -0.248 NA
ATOM     32  C   UNL     1       6.974  -0.424 -11.271  1.00  0.00     0.031 C 
ATOM     33  C   UNL     1       8.997   5.138  -9.925  1.00  0.00     0.029 A 
ATOM     34  C   UNL     1       8.398   3.892  -9.840  1.00  0.00     0.049 A 
ATOM     35  H   UNL     1       7.289   3.056  -8.252  1.00  0.00     0.167 HD
ATOM     36  C   UNL     1       7.754   1.647 -10.667  1.00  0.00     0.074 A 
ATOM     37  C   UNL     1       7.695   0.612 -11.679  1.00  0.00     0.031 C 
ATOM     38  C   UNL     1       8.367   2.845 -10.831  1.00  0.00     0.034 A 
BRANCH  25  39
ATOM     39  C   UNL     1       7.714   6.687  -6.031  1.00  0.00     0.023 A 
ATOM     40  C   UNL     1       8.599   6.874  -4.949  1.00  0.00     0.012 A 
ATOM     41  C   UNL     1       7.089   7.810  -6.610  1.00  0.00     0.148 A 
ATOM     42  C   UNL     1       8.823   8.147  -4.424  1.00  0.00     0.002 A 
ATOM     43  C   UNL     1       7.354   9.081  -6.112  1.00  0.00     0.091 A 
ATOM     44  F   UNL     1       6.239   7.616  -7.628  1.00  0.00    -0.205 F 
ATOM     45  C   UNL     1       8.208   9.249  -5.010  1.00  0.00     0.022 A 
BRANCH  43  46
ATOM     46  S   UNL     1       6.677  10.572  -6.852  1.00  0.00     0.127 S 
ATOM     47  O   UNL     1       5.689  10.974  -5.852  1.00  0.00    -0.237 OA
ATOM     48  O   UNL     1       7.854  11.439  -6.928  1.00  0.00    -0.237 OA
ATOM     49  O   UNL     1       6.136  10.169  -8.142  1.00  0.00    -0.744 OA
ENDBRANCH  43  46
ENDBRANCH  25  39
BRANCH  26  50
ATOM     50  C   UNL     1       5.448  -2.333  -9.632  1.00  0.00     0.023 A 
ATOM     51  C   UNL     1       6.406  -3.322  -9.922  1.00  0.00     0.012 A 
ATOM     52  C   UNL     1       4.081  -2.620  -9.821  1.00  0.00     0.148 A 
ATOM     53  C   UNL     1       6.012  -4.568 -10.412  1.00  0.00     0.002 A 
ATOM     54  C   UNL     1       3.692  -3.881 -10.251  1.00  0.00     0.091 A 
ATOM     55  F   UNL     1       3.188  -1.659  -9.544  1.00  0.00    -0.205 F 
ATOM     56  C   UNL     1       4.656  -4.851 -10.564  1.00  0.00     0.022 A 
BRANCH  54  57
ATOM     57  S   UNL     1       1.970  -4.382 -10.339  1.00  0.00     0.127 S 
ATOM     58  O   UNL     1       1.783  -4.555 -11.777  1.00  0.00    -0.237 OA
ATOM     59  O   UNL     1       1.980  -5.623  -9.564  1.00  0.00    -0.237 OA
ATOM     60  O   UNL     1       1.210  -3.298  -9.731  1.00  0.00    -0.744 OA
ENDBRANCH  54  57
ENDBRANCH  26  50
BRANCH  38  61
ATOM     61  C   UNL     1       9.066   3.100 -12.142  1.00  0.00     0.023 A 
ATOM     62  C   UNL     1       8.315   3.320 -13.313  1.00  0.00     0.012 A 
ATOM     63  C   UNL     1      10.471   3.197 -12.193  1.00  0.00     0.148 A 
ATOM     64  C   UNL     1       8.953   3.603 -14.521  1.00  0.00     0.002 A 
ATOM     65  C   UNL     1      11.097   3.531 -13.387  1.00  0.00     0.091 A 
ATOM     66  F   UNL     1      11.168   2.965 -11.072  1.00  0.00    -0.205 F 
ATOM     67  C   UNL     1      10.341   3.721 -14.556  1.00  0.00     0.022 A 
BRANCH  65  68
ATOM     68  S   UNL     1      12.868   3.803 -13.506  1.00  0.00     0.127 S 
ATOM     69  O   UNL     1      13.290   2.665 -14.322  1.00  0.00    -0.237 OA
ATOM     70  O   UNL     1      12.937   5.098 -14.183  1.00  0.00    -0.237 OA
ATOM     71  O   UNL     1      13.370   3.806 -12.139  1.00  0.00    -0.744 OA
ENDBRANCH  65  68
ENDBRANCH  38  61
ENDBRANCH  12  13
ENDBRANCH   5   7
ENDBRANCH   2   3
ENDBRANCH   1   2
BRANCH   1  72
ATOM     72  C   UNL     1       3.966   1.044   3.844  1.00  0.00     0.023 C 
BRANCH  72  73
ATOM     73  C   UNL     1       4.595  -0.063   4.689  1.00  0.00     0.116 C 
BRANCH  73  74
ATOM     74  N   UNL     1       5.990   0.193   4.989  1.00  0.00    -0.352 N 
ATOM     75  C   UNL     1       6.804  -0.400   5.915  1.00  0.00     0.252 C 
ATOM     76  H   UNL     1       6.413   0.897   4.447  1.00  0.00     0.163 HD
ATOM     77  O   UNL     1       7.914   0.079   6.148  1.00  0.00    -0.269 OA
BRANCH  75  78
ATOM     78  C   UNL     1       6.347  -1.526   6.752  1.00  0.00     0.052 A 
ATOM     79  C   UNL     1       6.517  -1.264   8.134  1.00  0.00     0.014 A 
ATOM     80  C   UNL     1       5.774  -2.738   6.339  1.00  0.00     0.052 A 
ATOM     81  C   UNL     1       6.028  -2.128   9.107  1.00  0.00     0.001 A 
ATOM     82  C   UNL     1       5.249  -3.578   7.354  1.00  0.00     0.014 A 
ATOM     83  C   UNL     1       5.359  -3.274   8.714  1.00  0.00     0.001 A 
BRANCH  80  84
ATOM     84  C   UNL     1       5.521  -3.249   4.955  1.00  0.00     0.256 C 
ATOM     85  O   UNL     1       4.483  -3.900   4.783  1.00  0.00    -0.269 OA
ATOM     86  N   UNL     1       6.269  -3.003   3.828  1.00  0.00    -0.322 N 
ATOM     87  H   UNL     1       5.867  -3.351   2.999  1.00  0.00     0.170 HD
BRANCH  86  88
ATOM     88  C   UNL     1       7.486  -2.355   3.634  1.00  0.00     0.041 A 
ATOM     89  C   UNL     1       7.536  -1.417   2.598  1.00  0.00     0.028 A 
ATOM     90  C   UNL     1       8.588  -2.542   4.457  1.00  0.00     0.028 A 
ATOM     91  C   UNL     1       8.554  -0.469   2.570  1.00  0.00     0.029 A 
ATOM     92  C   UNL     1       9.682  -1.682   4.332  1.00  0.00     0.029 A 
ATOM     93  C   UNL     1       9.615  -0.579   3.465  1.00  0.00     0.052 A 
BRANCH  93  94
ATOM     94  N   UNL     1      10.530   0.475   3.624  1.00  0.00    -0.250 N 
ATOM     95  C   UNL     1      11.899   0.272   3.830  1.00  0.00     0.237 C 
ATOM     96  C   UNL     1      10.133   1.801   3.903  1.00  0.00     0.237 C 
ATOM     97  O   UNL     1      12.603  -0.682   3.567  1.00  0.00    -0.274 OA
ATOM     98  C   UNL     1      12.275   1.445   4.661  1.00  0.00     0.095 C 
ATOM     99  C   UNL     1      11.441   2.530   4.002  1.00  0.00     0.095 C 
ATOM    100  O   UNL     1       9.024   2.300   3.969  1.00  0.00    -0.274 OA
ATOM    101  C   UNL     1      13.584   2.167   4.968  1.00  0.00     0.002 C 
ATOM    102  C   UNL     1      11.997   3.765   4.704  1.00  0.00     0.002 C 
ATOM    103  C   UNL     1      13.390   2.676   6.413  1.00  0.00     0.005 C 
ATOM    104  C   UNL     1      13.465   3.535   4.257  1.00  0.00     0.009 C 
ATOM    105  C   UNL     1      12.171   3.631   6.245  1.00  0.00     0.005 C 
ENDBRANCH  93  94
ENDBRANCH  86  88
ENDBRANCH  80  84
ENDBRANCH  75  78
ENDBRANCH  73  74
ENDBRANCH  72  73
ENDBRANCH   1  72
TORSDOF 17
