REMARK SMILES CCCCCCCNC(=O)Oc1cccc(-c2ccc([C@@H](C)C(=O)NCCCCNC(=O)c3ccc(-c4c5nc(c(-c6cccc(S(=O)(=O)[O-])c6F)c6ccc([nH]6)c(-c6cccc(S(=O)(=O)[O-])c6F)c6nc(c(-c7cccc(S(=O)(=O)[O-])c7F)c7ccc4[nH]7)C=C6)C=C5)cc3)cc2F)c1
REMARK SMILES IDX 21 1 22 2 20 3 17 4 18 5 97 6 19 7 96 8 98 9 16 10 12 11
REMARK SMILES IDX 13 12 99 13 14 14 15 15 11 16 9 17 8 18 10 20 7 21 6 22 5 23
REMARK SMILES IDX 4 24 3 25 2 26 1 27 23 28 24 29 25 30 26 32 27 33 28 34
REMARK SMILES IDX 29 35 30 36 31 37 32 39 33 40 34 41 95 42 35 43 94 44 36 45
REMARK SMILES IDX 37 46 38 47 88 48 39 49 93 50 87 51 89 52 40 53 92 54 86 55
REMARK SMILES IDX 85 56 41 58 73 59 53 60 72 61 54 62 57 63 71 64 90 65 55 66
REMARK SMILES IDX 56 67 70 69 91 70 58 71 42 72 43 73 51 74 44 75 46 76 52 77
REMARK SMILES IDX 45 78 47 79 48 80 49 81 50 82 74 83 75 84 83 85 76 86 78 87
REMARK SMILES IDX 84 88 77 89 79 90 80 91 81 92 82 93 59 94 60 95 68 96 61 97
REMARK SMILES IDX 63 98 69 99 62 100 64 101 65 102 66 103 67 104
REMARK H PARENT 8 19 25 31 30 38 89 57 57 68
REMARK Flexibility Score: inf
ROOT
ATOM      1  C   UNL     1     -10.649  -9.773   2.599  1.00  0.00     0.105 C 
ATOM      2  C   UNL     1     -11.685 -10.846   2.267  1.00  0.00     0.023 C 
ENDROOT
BRANCH   1   3
ATOM      3  C   UNL     1      -9.404  -9.764   1.727  1.00  0.00    -0.033 A 
ATOM      4  C   UNL     1      -6.936  -9.651   0.277  1.00  0.00     0.018 A 
ATOM      5  C   UNL     1      -7.486 -10.868   0.711  1.00  0.00     0.012 A 
ATOM      6  C   UNL     1      -7.689  -8.498   0.547  1.00  0.00     0.131 A 
ATOM      7  C   UNL     1      -8.714 -10.927   1.379  1.00  0.00     0.005 A 
ATOM      8  C   UNL     1      -8.881  -8.544   1.276  1.00  0.00     0.044 A 
ATOM      9  F   UNL     1      -7.283  -7.297   0.104  1.00  0.00    -0.206 F 
BRANCH   4  10
ATOM     10  C   UNL     1      -5.622  -9.619  -0.406  1.00  0.00    -0.012 A 
ATOM     11  C   UNL     1      -3.473  -8.569  -0.847  1.00  0.00     0.133 A 
ATOM     12  C   UNL     1      -3.085  -9.616  -1.675  1.00  0.00     0.047 A 
ATOM     13  C   UNL     1      -4.721  -8.558  -0.220  1.00  0.00     0.056 A 
ATOM     14  C   UNL     1      -3.958 -10.678  -1.871  1.00  0.00     0.004 A 
ATOM     15  C   UNL     1      -5.213 -10.672  -1.252  1.00  0.00     0.009 A 
BRANCH  11  16
ATOM     16  O   UNL     1      -2.614  -7.463  -0.782  1.00  0.00    -0.410 OA
BRANCH  16  17
ATOM     17  C   UNL     1      -2.236  -6.999   0.467  1.00  0.00     0.412 C 
ATOM     18  N   UNL     1      -1.491  -5.854   0.399  1.00  0.00    -0.321 N 
ATOM     19  H   UNL     1      -1.168  -5.484   1.252  1.00  0.00     0.167 HD
ATOM     20  O   UNL     1      -2.499  -7.522   1.542  1.00  0.00    -0.224 OA
BRANCH  18  21
ATOM     21  C   UNL     1      -1.132  -5.132  -0.804  1.00  0.00     0.119 C 
BRANCH  21  22
ATOM     22  C   UNL     1      -1.646  -3.693  -0.782  1.00  0.00     0.021 C 
BRANCH  22  23
ATOM     23  C   UNL     1      -1.054  -2.822   0.332  1.00  0.00     0.002 C 
BRANCH  23  24
ATOM     24  C   UNL     1       0.474  -2.703   0.323  1.00  0.00     0.000 C 
BRANCH  24  25
ATOM     25  C   UNL     1       1.071  -2.091  -0.949  1.00  0.00    -0.000 C 
BRANCH  25  26
ATOM     26  C   UNL     1       0.615  -0.663  -1.259  1.00  0.00    -0.003 C 
ATOM     27  C   UNL     1       0.978   0.334  -0.169  1.00  0.00     0.004 C 
ENDBRANCH  25  26
ENDBRANCH  24  25
ENDBRANCH  23  24
ENDBRANCH  22  23
ENDBRANCH  21  22
ENDBRANCH  18  21
ENDBRANCH  16  17
ENDBRANCH  11  16
ENDBRANCH   4  10
ENDBRANCH   1   3
BRANCH   1  28
ATOM     28  C   UNL     1     -10.355  -9.631   4.101  1.00  0.00     0.227 C 
ATOM     29  O   UNL     1     -10.625  -8.569   4.676  1.00  0.00    -0.274 OA
ATOM     30  N   UNL     1      -9.822 -10.621   4.867  1.00  0.00    -0.356 N 
ATOM     31  H   UNL     1      -9.750 -10.396   5.823  1.00  0.00     0.163 HD
BRANCH  30  32
ATOM     32  C   UNL     1      -9.342 -11.946   4.534  1.00  0.00     0.116 C 
BRANCH  32  33
ATOM     33  C   UNL     1      -7.827 -11.976   4.330  1.00  0.00     0.023 C 
BRANCH  33  34
ATOM     34  C   UNL     1      -7.012 -12.222   5.598  1.00  0.00     0.023 C 
BRANCH  34  35
ATOM     35  C   UNL     1      -7.280 -13.552   6.292  1.00  0.00     0.116 C 
BRANCH  35  36
ATOM     36  N   UNL     1      -7.072 -14.719   5.444  1.00  0.00    -0.352 N 
ATOM     37  C   UNL     1      -6.616 -15.963   5.817  1.00  0.00     0.251 C 
ATOM     38  H   UNL     1      -7.283 -14.604   4.489  1.00  0.00     0.163 HD
ATOM     39  O   UNL     1      -6.413 -16.834   4.978  1.00  0.00    -0.269 OA
BRANCH  37  40
ATOM     40  C   UNL     1      -6.335 -16.214   7.246  1.00  0.00     0.039 A 
ATOM     41  C   UNL     1      -5.081 -16.705   7.616  1.00  0.00     0.014 A 
ATOM     42  C   UNL     1      -7.280 -15.873   8.217  1.00  0.00     0.014 A 
ATOM     43  C   UNL     1      -4.747 -16.780   8.970  1.00  0.00     0.010 A 
ATOM     44  C   UNL     1      -6.912 -15.864   9.557  1.00  0.00     0.010 A 
ATOM     45  C   UNL     1      -5.644 -16.320   9.949  1.00  0.00    -0.014 A 
BRANCH  45  46
ATOM     46  C   UNL     1      -5.276 -16.294  11.388  1.00  0.00     0.031 A 
ATOM     47  C   UNL     1      -6.073 -17.093  12.383  1.00  0.00     0.074 A 
ATOM     48  C   UNL     1      -4.290 -15.477  11.812  1.00  0.00     0.049 A 
ATOM     49  N   UNL     1      -5.949 -17.150  13.683  1.00  0.00    -0.248 NA
ATOM     50  C   UNL     1      -7.177 -17.911  11.851  1.00  0.00     0.031 C 
ATOM     51  C   UNL     1      -3.506 -14.581  10.958  1.00  0.00     0.029 A 
ATOM     52  N   UNL     1      -3.800 -15.245  13.073  1.00  0.00    -0.354 N 
ATOM     53  C   UNL     1      -6.979 -17.971  14.127  1.00  0.00     0.074 A 
ATOM     54  C   UNL     1      -7.743 -18.358  12.962  1.00  0.00     0.031 C 
ATOM     55  C   UNL     1      -2.629 -13.904  11.718  1.00  0.00     0.029 A 
ATOM     56  C   UNL     1      -2.807 -14.293  13.113  1.00  0.00     0.049 A 
ATOM     57  H   UNL     1      -4.128 -15.715  13.873  1.00  0.00     0.167 HD
ATOM     58  C   UNL     1      -7.245 -18.393  15.385  1.00  0.00     0.034 A 
ATOM     59  C   UNL     1      -2.122 -13.786  14.157  1.00  0.00     0.034 A 
ATOM     60  C   UNL     1      -6.452 -18.047  16.532  1.00  0.00     0.049 A 
ATOM     61  C   UNL     1      -2.402 -14.313  15.539  1.00  0.00     0.074 A 
ATOM     62  C   UNL     1      -6.577 -18.503  17.832  1.00  0.00     0.029 A 
ATOM     63  N   UNL     1      -5.391 -17.156  16.520  1.00  0.00    -0.354 N 
ATOM     64  N   UNL     1      -3.270 -15.221  15.915  1.00  0.00    -0.248 NA
ATOM     65  C   UNL     1      -1.584 -13.775  16.635  1.00  0.00     0.031 C 
ATOM     66  C   UNL     1      -5.606 -17.866  18.612  1.00  0.00     0.029 A 
ATOM     67  C   UNL     1      -4.858 -17.038  17.791  1.00  0.00     0.049 A 
ATOM     68  H   UNL     1      -5.065 -16.677  15.724  1.00  0.00     0.167 HD
ATOM     69  C   UNL     1      -3.078 -15.389  17.282  1.00  0.00     0.074 A 
ATOM     70  C   UNL     1      -1.997 -14.504  17.663  1.00  0.00     0.031 C 
ATOM     71  C   UNL     1      -3.746 -16.193  18.146  1.00  0.00     0.034 A 
BRANCH  58  72
ATOM     72  C   UNL     1      -8.415 -19.324  15.577  1.00  0.00     0.023 A 
ATOM     73  C   UNL     1      -8.339 -20.647  15.095  1.00  0.00     0.012 A 
ATOM     74  C   UNL     1      -9.564 -18.910  16.277  1.00  0.00     0.148 A 
ATOM     75  C   UNL     1      -9.402 -21.531  15.271  1.00  0.00     0.002 A 
ATOM     76  C   UNL     1     -10.601 -19.811  16.491  1.00  0.00     0.091 A 
ATOM     77  F   UNL     1      -9.629 -17.642  16.709  1.00  0.00    -0.205 F 
ATOM     78  C   UNL     1     -10.527 -21.116  15.978  1.00  0.00     0.022 A 
BRANCH  76  79
ATOM     79  S   UNL     1     -12.057 -19.401  17.459  1.00  0.00     0.127 S 
ATOM     80  O   UNL     1     -13.091 -19.345  16.426  1.00  0.00    -0.237 OA
ATOM     81  O   UNL     1     -12.159 -20.549  18.361  1.00  0.00    -0.237 OA
ATOM     82  O   UNL     1     -11.761 -18.136  18.115  1.00  0.00    -0.744 OA
ENDBRANCH  76  79
ENDBRANCH  58  72
BRANCH  59  83
ATOM     83  C   UNL     1      -1.056 -12.770  13.928  1.00  0.00     0.023 A 
ATOM     84  C   UNL     1       0.294 -13.128  14.116  1.00  0.00     0.012 A 
ATOM     85  C   UNL     1      -1.365 -11.463  13.506  1.00  0.00     0.148 A 
ATOM     86  C   UNL     1       1.313 -12.195  13.920  1.00  0.00     0.002 A 
ATOM     87  C   UNL     1      -0.343 -10.554  13.259  1.00  0.00     0.091 A 
ATOM     88  F   UNL     1      -2.656 -11.138  13.343  1.00  0.00    -0.205 F 
ATOM     89  C   UNL     1       0.996 -10.913  13.482  1.00  0.00     0.022 A 
BRANCH  87  90
ATOM     90  S   UNL     1      -0.647  -8.922  12.573  1.00  0.00     0.127 S 
ATOM     91  O   UNL     1      -0.343  -8.058  13.710  1.00  0.00    -0.237 OA
ATOM     92  O   UNL     1       0.325  -8.869  11.481  1.00  0.00    -0.237 OA
ATOM     93  O   UNL     1      -2.038  -8.933  12.139  1.00  0.00    -0.744 OA
ENDBRANCH  87  90
ENDBRANCH  59  83
BRANCH  71  94
ATOM     94  C   UNL     1      -3.307 -16.191  19.587  1.00  0.00     0.023 A 
ATOM     95  C   UNL     1      -3.588 -15.079  20.405  1.00  0.00     0.012 A 
ATOM     96  C   UNL     1      -2.687 -17.325  20.148  1.00  0.00     0.148 A 
ATOM     97  C   UNL     1      -3.230 -15.084  21.753  1.00  0.00     0.002 A 
ATOM     98  C   UNL     1      -2.379 -17.342  21.502  1.00  0.00     0.091 A 
ATOM     99  F   UNL     1      -2.412 -18.365  19.348  1.00  0.00    -0.205 F 
ATOM    100  C   UNL     1      -2.638 -16.218  22.303  1.00  0.00     0.022 A 
BRANCH  98 101
ATOM    101  S   UNL     1      -1.708 -18.795  22.318  1.00  0.00     0.127 S 
ATOM    102  O   UNL     1      -0.329 -18.384  22.572  1.00  0.00    -0.237 OA
ATOM    103  O   UNL     1      -2.546 -18.894  23.514  1.00  0.00    -0.237 OA
ATOM    104  O   UNL     1      -1.869 -19.895  21.377  1.00  0.00    -0.744 OA
ENDBRANCH  98 101
ENDBRANCH  71  94
ENDBRANCH  45  46
ENDBRANCH  37  40
ENDBRANCH  35  36
ENDBRANCH  34  35
ENDBRANCH  33  34
ENDBRANCH  32  33
ENDBRANCH  30  32
ENDBRANCH   1  28
TORSDOF 24
