REMARK SMILES C[C@H]1[C@H](C(=O)NCCCCNC(=O)c2ccc(-c3c4nc(c(-c5cccc(S(=O)(=O)[O-])c5F)c5ccc([nH]5)c(-c5cccc(S(=O)(=O)[O-])c5F)c5nc(c(-c6cccc(S(=O)(=O)[O-])c6F)c6ccc3[nH]6)C=C5)C=C4)cc2)CCN1C(=O)CC[NH2+]C1CC1
REMARK SMILES IDX 7 1 6 2 4 3 5 4 3 6 1 7 2 8 79 9 77 10 78 11 80 12 81 13
REMARK SMILES IDX 82 14 83 15 84 16 85 19 86 20 87 21 8 22 9 23 10 24 11 25
REMARK SMILES IDX 12 26 13 28 14 29 15 30 76 31 16 32 75 33 17 34 18 35 19 36
REMARK SMILES IDX 69 37 20 38 74 39 68 40 70 41 21 42 73 43 67 44 66 45 22 47
REMARK SMILES IDX 54 48 34 49 53 50 35 51 38 52 52 53 71 54 36 55 37 56 51 58
REMARK SMILES IDX 72 59 39 60 23 61 24 62 32 63 25 64 27 65 33 66 26 67 28 68
REMARK SMILES IDX 29 69 30 70 31 71 55 72 56 73 64 74 57 75 59 76 65 77 58 78
REMARK SMILES IDX 60 79 61 80 62 81 63 82 40 83 41 84 49 85 42 86 44 87 50 88
REMARK SMILES IDX 43 89 45 90 46 91 47 92 48 93
REMARK H PARENT 6 5 84 17 84 18 11 27 70 46 38 57
REMARK Flexibility Score: inf
ROOT
ATOM      1  C   UNL     1      -1.059   0.418   3.038  1.00  0.00     0.116 C 
ENDROOT
BRANCH   1   2
ATOM      2  N   UNL     1      -0.785   1.760   2.565  1.00  0.00    -0.356 N 
ATOM      3  C   UNL     1      -0.652   2.255   1.308  1.00  0.00     0.225 C 
ATOM      4  O   UNL     1      -0.425   3.463   1.192  1.00  0.00    -0.275 OA
ATOM      5  H   UNL     1      -0.677   2.429   3.279  1.00  0.00     0.163 HD
BRANCH   3   6
ATOM      6  C   UNL     1      -0.730   1.388   0.063  1.00  0.00     0.102 C 
ATOM      7  C   UNL     1       1.207   0.597  -1.305  1.00  0.00     0.032 C 
ATOM      8  C   UNL     1       0.421   0.374  -0.011  1.00  0.00     0.094 C 
ATOM      9  N   UNL     1      -0.232  -0.935  -0.037  1.00  0.00    -0.339 N 
ATOM     10  C   UNL     1      -2.026   0.596  -0.124  1.00  0.00     0.037 C 
ATOM     11  C   UNL     1      -1.590  -0.807  -0.527  1.00  0.00     0.120 C 
BRANCH   9  12
ATOM     12  C   UNL     1       0.286  -2.170   0.296  1.00  0.00     0.228 C 
ATOM     13  O   UNL     1      -0.322  -3.212   0.039  1.00  0.00    -0.275 OA
BRANCH  12  14
ATOM     14  C   UNL     1       1.613  -2.238   1.034  1.00  0.00     0.161 C 
BRANCH  14  15
ATOM     15  C   UNL     1       2.800  -2.418   0.090  1.00  0.00     0.270 C 
BRANCH  15  16
ATOM     16  N   UNL     1       3.723  -1.282   0.178  1.00  0.00    -0.343 N 
ATOM     17  H   UNL     1       4.158  -1.294   1.101  1.00  0.00     0.346 HD
ATOM     18  H   UNL     1       3.168  -0.442   0.013  1.00  0.00     0.346 HD
BRANCH  16  19
ATOM     19  C   UNL     1       4.785  -1.286  -0.830  1.00  0.00     0.182 C 
ATOM     20  C   UNL     1       4.495  -1.282  -2.306  1.00  0.00     0.071 C 
ATOM     21  C   UNL     1       4.996  -0.035  -1.645  1.00  0.00     0.071 C 
ENDBRANCH  16  19
ENDBRANCH  15  16
ENDBRANCH  14  15
ENDBRANCH  12  14
ENDBRANCH   9  12
ENDBRANCH   3   6
ENDBRANCH   1   2
BRANCH   1  22
ATOM     22  C   UNL     1       0.040  -0.108   3.955  1.00  0.00     0.023 C 
BRANCH  22  23
ATOM     23  C   UNL     1       0.164   0.609   5.300  1.00  0.00     0.023 C 
BRANCH  23  24
ATOM     24  C   UNL     1      -1.134   0.764   6.084  1.00  0.00     0.116 C 
BRANCH  24  25
ATOM     25  N   UNL     1      -1.834  -0.494   6.302  1.00  0.00    -0.352 N 
ATOM     26  C   UNL     1      -2.543  -0.893   7.410  1.00  0.00     0.251 C 
ATOM     27  H   UNL     1      -1.795  -1.141   5.561  1.00  0.00     0.163 HD
ATOM     28  O   UNL     1      -3.010  -2.027   7.472  1.00  0.00    -0.269 OA
BRANCH  26  29
ATOM     29  C   UNL     1      -2.698   0.043   8.542  1.00  0.00     0.039 A 
ATOM     30  C   UNL     1      -2.354  -0.389   9.825  1.00  0.00     0.014 A 
ATOM     31  C   UNL     1      -3.128   1.355   8.326  1.00  0.00     0.014 A 
ATOM     32  C   UNL     1      -2.374   0.520  10.884  1.00  0.00     0.010 A 
ATOM     33  C   UNL     1      -3.080   2.274   9.369  1.00  0.00     0.010 A 
ATOM     34  C   UNL     1      -2.702   1.867  10.657  1.00  0.00    -0.014 A 
BRANCH  34  35
ATOM     35  C   UNL     1      -2.636   2.871  11.748  1.00  0.00     0.031 A 
ATOM     36  C   UNL     1      -3.884   3.578  12.200  1.00  0.00     0.074 A 
ATOM     37  C   UNL     1      -1.439   3.215  12.263  1.00  0.00     0.049 A 
ATOM     38  N   UNL     1      -4.016   4.524  13.093  1.00  0.00    -0.248 NA
ATOM     39  C   UNL     1      -5.144   3.195  11.541  1.00  0.00     0.031 C 
ATOM     40  C   UNL     1      -0.147   2.666  11.844  1.00  0.00     0.029 A 
ATOM     41  N   UNL     1      -1.110   4.132  13.231  1.00  0.00    -0.354 N 
ATOM     42  C   UNL     1      -5.361   4.875  13.077  1.00  0.00     0.074 A 
ATOM     43  C   UNL     1      -5.997   4.064  12.063  1.00  0.00     0.031 C 
ATOM     44  C   UNL     1       0.831   3.254  12.550  1.00  0.00     0.029 A 
ATOM     45  C   UNL     1       0.243   4.235  13.456  1.00  0.00     0.049 A 
ATOM     46  H   UNL     1      -1.780   4.665  13.717  1.00  0.00     0.167 HD
ATOM     47  C   UNL     1      -6.014   5.766  13.859  1.00  0.00     0.034 A 
ATOM     48  C   UNL     1       0.931   5.032  14.298  1.00  0.00     0.034 A 
ATOM     49  C   UNL     1      -5.388   6.528  14.905  1.00  0.00     0.049 A 
ATOM     50  C   UNL     1       0.173   5.968  15.200  1.00  0.00     0.074 A 
ATOM     51  C   UNL     1      -5.979   7.382  15.820  1.00  0.00     0.029 A 
ATOM     52  N   UNL     1      -4.029   6.530  15.177  1.00  0.00    -0.354 N 
ATOM     53  N   UNL     1      -1.121   6.159  15.291  1.00  0.00    -0.248 NA
ATOM     54  C   UNL     1       0.966   6.770  16.143  1.00  0.00     0.031 C 
ATOM     55  C   UNL     1      -4.974   7.908  16.638  1.00  0.00     0.029 A 
ATOM     56  C   UNL     1      -3.760   7.372  16.242  1.00  0.00     0.049 A 
ATOM     57  H   UNL     1      -3.354   6.008  14.685  1.00  0.00     0.167 HD
ATOM     58  C   UNL     1      -1.300   7.075  16.320  1.00  0.00     0.074 A 
ATOM     59  C   UNL     1       0.017   7.385  16.838  1.00  0.00     0.031 C 
ATOM     60  C   UNL     1      -2.449   7.625  16.784  1.00  0.00     0.034 A 
BRANCH  47  61
ATOM     61  C   UNL     1      -7.499   5.914  13.659  1.00  0.00     0.023 A 
ATOM     62  C   UNL     1      -8.359   4.881  14.084  1.00  0.00     0.012 A 
ATOM     63  C   UNL     1      -8.048   7.086  13.103  1.00  0.00     0.148 A 
ATOM     64  C   UNL     1      -9.739   4.996  13.930  1.00  0.00     0.002 A 
ATOM     65  C   UNL     1      -9.428   7.211  12.991  1.00  0.00     0.091 A 
ATOM     66  F   UNL     1      -7.214   8.047  12.681  1.00  0.00    -0.205 F 
ATOM     67  C   UNL     1     -10.274   6.164  13.393  1.00  0.00     0.022 A 
BRANCH  65  68
ATOM     68  S   UNL     1     -10.217   8.706  12.381  1.00  0.00     0.127 S 
ATOM     69  O   UNL     1     -10.661   8.284  11.053  1.00  0.00    -0.237 OA
ATOM     70  O   UNL     1     -11.296   8.904  13.350  1.00  0.00    -0.237 OA
ATOM     71  O   UNL     1      -9.188   9.736  12.402  1.00  0.00    -0.744 OA
ENDBRANCH  65  68
ENDBRANCH  47  61
BRANCH  48  72
ATOM     72  C   UNL     1       2.414   4.915  14.385  1.00  0.00     0.023 A 
ATOM     73  C   UNL     1       2.991   4.336  15.532  1.00  0.00     0.012 A 
ATOM     74  C   UNL     1       3.251   5.338  13.334  1.00  0.00     0.148 A 
ATOM     75  C   UNL     1       4.375   4.205  15.644  1.00  0.00     0.002 A 
ATOM     76  C   UNL     1       4.626   5.157  13.430  1.00  0.00     0.091 A 
ATOM     77  F   UNL     1       2.684   5.899  12.257  1.00  0.00    -0.205 F 
ATOM     78  C   UNL     1       5.192   4.606  14.590  1.00  0.00     0.022 A 
BRANCH  76  79
ATOM     79  S   UNL     1       5.738   5.522  12.066  1.00  0.00     0.127 S 
ATOM     80  O   UNL     1       6.380   6.750  12.524  1.00  0.00    -0.237 OA
ATOM     81  O   UNL     1       6.604   4.341  12.054  1.00  0.00    -0.237 OA
ATOM     82  O   UNL     1       4.885   5.648  10.892  1.00  0.00    -0.744 OA
ENDBRANCH  76  79
ENDBRANCH  48  72
BRANCH  60  83
ATOM     83  C   UNL     1      -2.346   8.600  17.926  1.00  0.00     0.023 A 
ATOM     84  C   UNL     1      -1.850   9.897  17.692  1.00  0.00     0.012 A 
ATOM     85  C   UNL     1      -2.816   8.259  19.210  1.00  0.00     0.148 A 
ATOM     86  C   UNL     1      -1.797  10.833  18.724  1.00  0.00     0.002 A 
ATOM     87  C   UNL     1      -2.802   9.211  20.223  1.00  0.00     0.091 A 
ATOM     88  F   UNL     1      -3.265   7.013  19.418  1.00  0.00    -0.205 F 
ATOM     89  C   UNL     1      -2.284  10.494  19.985  1.00  0.00     0.022 A 
BRANCH  87  90
ATOM     90  S   UNL     1      -3.495   8.890  21.849  1.00  0.00     0.127 S 
ATOM     91  O   UNL     1      -2.290   8.707  22.656  1.00  0.00    -0.237 OA
ATOM     92  O   UNL     1      -4.231  10.125  22.125  1.00  0.00    -0.237 OA
ATOM     93  O   UNL     1      -4.336   7.711  21.698  1.00  0.00    -0.744 OA
ENDBRANCH  87  90
ENDBRANCH  60  83
ENDBRANCH  34  35
ENDBRANCH  26  29
ENDBRANCH  24  25
ENDBRANCH  23  24
ENDBRANCH  22  23
ENDBRANCH   1  22
TORSDOF 19
