REMARK SMILES O=C(CCC(=O)/[NH+]=C1\S[C@H]2CS(=O)(=O)C[C@@H]2N1c1ccc2c(c1)OCO2)NCCCCNC(=O)c1ccc(-c2c3nc(c(-c4cccc(S(=O)(=O)[O-])c4F)c4ccc([nH]4)c(-c4cccc(S(=O)(=O)[O-])c4F)c4nc(c(-c5cccc(S(=O)(=O)[O-])c5F)c5ccc2[nH]5)C=C4)C=C3)cc1
REMARK SMILES IDX 29 1 28 2 27 3 2 4 1 5 3 7 4 8 5 9 6 10 7 11 8 12 9 14 17 15
REMARK SMILES IDX 10 16 16 17 11 18 15 19 12 20 13 21 14 22 18 23 19 24 23 25
REMARK SMILES IDX 20 26 22 27 21 28 24 29 26 30 25 31 30 32 31 33 32 34 33 35
REMARK SMILES IDX 34 37 35 38 36 39 97 40 37 41 96 42 38 43 39 44 40 45 90 46
REMARK SMILES IDX 41 47 95 48 89 49 91 50 42 51 94 52 88 53 87 54 43 56 75 57
REMARK SMILES IDX 55 58 74 59 56 60 59 61 73 62 92 63 57 64 58 65 72 67 93 68
REMARK SMILES IDX 60 69 44 70 45 71 53 72 46 73 48 74 54 75 47 76 49 77 50 78
REMARK SMILES IDX 51 79 52 80 76 81 77 82 85 83 78 84 80 85 86 86 79 87 81 88
REMARK SMILES IDX 82 89 83 90 84 91 61 92 62 93 70 94 63 95 65 96 71 97 64 98
REMARK SMILES IDX 66 99 67 100 68 101 69 102
REMARK H PARENT 27 6 7 13 32 36 91 55 59 66
REMARK Flexibility Score: inf
ROOT
ATOM      1  C   UNL     1       1.569   2.186  -0.901  1.00  0.00     0.023 C 
ENDROOT
BRANCH   1   2
ATOM      2  C   UNL     1       2.094   1.370  -2.083  1.00  0.00     0.116 C 
BRANCH   2   3
ATOM      3  N   UNL     1       3.530   1.157  -2.074  1.00  0.00    -0.356 N 
ATOM      4  C   UNL     1       4.254   0.051  -1.763  1.00  0.00     0.220 C 
ATOM      5  O   UNL     1       5.477   0.074  -1.912  1.00  0.00    -0.275 OA
ATOM      6  H   UNL     1       4.066   1.941  -2.336  1.00  0.00     0.163 HD
BRANCH   4   7
ATOM      7  C   UNL     1       3.566  -1.186  -1.251  1.00  0.00     0.112 C 
BRANCH   7   8
ATOM      8  C   UNL     1       3.324  -1.312   0.248  1.00  0.00     0.138 C 
BRANCH   8   9
ATOM      9  C   UNL     1       3.310  -0.125   1.207  1.00  0.00     0.308 C 
ATOM     10  O   UNL     1       2.569  -0.180   2.189  1.00  0.00    -0.247 OA
ATOM     11  N   UNL     1       4.062   0.984   0.952  1.00  0.00    -0.204 N 
ATOM     12  C   UNL     1       5.352   0.978   0.997  1.00  0.00     0.319 C 
ATOM     13  H   UNL     1       3.602   1.824   0.723  1.00  0.00     0.316 HD
ATOM     14  S   UNL     1       6.346  -0.469   1.337  1.00  0.00    -0.029 SA
ATOM     15  N   UNL     1       6.188   2.054   0.698  1.00  0.00    -0.216 N 
ATOM     16  C   UNL     1       7.861   0.506   1.199  1.00  0.00     0.120 C 
ATOM     17  C   UNL     1       7.495   1.634   0.227  1.00  0.00     0.212 C 
ATOM     18  C   UNL     1       9.108  -0.103   0.624  1.00  0.00     0.156 C 
ATOM     19  C   UNL     1       8.694   2.556   0.268  1.00  0.00     0.188 C 
ATOM     20  S   UNL     1      10.058   1.371   0.222  1.00  0.00     0.155 S 
ATOM     21  O   UNL     1      10.950   1.634   1.335  1.00  0.00    -0.229 OA
ATOM     22  O   UNL     1      10.530   1.238  -1.135  1.00  0.00    -0.229 OA
BRANCH  15  23
ATOM     23  C   UNL     1       5.830   3.394   0.821  1.00  0.00     0.132 A 
ATOM     24  C   UNL     1       6.018   4.322  -0.231  1.00  0.00     0.056 A 
ATOM     25  C   UNL     1       5.237   3.839   2.015  1.00  0.00     0.102 A 
ATOM     26  C   UNL     1       5.590   5.651  -0.113  1.00  0.00     0.055 A 
ATOM     27  C   UNL     1       4.814   5.145   2.101  1.00  0.00     0.170 A 
ATOM     28  C   UNL     1       4.967   6.020   1.058  1.00  0.00     0.166 A 
ATOM     29  O   UNL     1       4.175   5.701   3.164  1.00  0.00    -0.453 OA
ATOM     30  O   UNL     1       4.402   7.225   1.316  1.00  0.00    -0.454 OA
ATOM     31  C   UNL     1       3.838   6.993   2.622  1.00  0.00     0.468 C 
ENDBRANCH  15  23
ENDBRANCH   8   9
ENDBRANCH   7   8
ENDBRANCH   4   7
ENDBRANCH   2   3
ENDBRANCH   1   2
BRANCH   1  32
ATOM     32  C   UNL     1       2.352   3.461  -0.593  1.00  0.00     0.023 C 
BRANCH  32  33
ATOM     33  C   UNL     1       2.414   4.468  -1.729  1.00  0.00     0.116 C 
BRANCH  33  34
ATOM     34  N   UNL     1       1.116   5.058  -1.991  1.00  0.00    -0.352 N 
ATOM     35  C   UNL     1       0.740   6.377  -1.922  1.00  0.00     0.251 C 
ATOM     36  H   UNL     1       0.408   4.427  -2.255  1.00  0.00     0.163 HD
ATOM     37  O   UNL     1      -0.456   6.659  -1.901  1.00  0.00    -0.269 OA
BRANCH  35  38
ATOM     38  C   UNL     1       1.758   7.454  -1.880  1.00  0.00     0.039 A 
ATOM     39  C   UNL     1       1.511   8.583  -1.094  1.00  0.00     0.014 A 
ATOM     40  C   UNL     1       2.919   7.390  -2.655  1.00  0.00     0.014 A 
ATOM     41  C   UNL     1       2.432   9.634  -1.073  1.00  0.00     0.010 A 
ATOM     42  C   UNL     1       3.877   8.399  -2.563  1.00  0.00     0.010 A 
ATOM     43  C   UNL     1       3.633   9.547  -1.796  1.00  0.00    -0.014 A 
BRANCH  43  44
ATOM     44  C   UNL     1       4.625  10.658  -1.791  1.00  0.00     0.031 A 
ATOM     45  C   UNL     1       4.990  11.350  -3.080  1.00  0.00     0.074 A 
ATOM     46  C   UNL     1       5.251  11.003  -0.648  1.00  0.00     0.049 A 
ATOM     47  N   UNL     1       5.867  12.299  -3.286  1.00  0.00    -0.248 NA
ATOM     48  C   UNL     1       4.296  10.906  -4.302  1.00  0.00     0.031 C 
ATOM     49  C   UNL     1       5.026  10.380   0.655  1.00  0.00     0.029 A 
ATOM     50  N   UNL     1       6.224  11.939  -0.398  1.00  0.00    -0.354 N 
ATOM     51  C   UNL     1       5.851  12.542  -4.654  1.00  0.00     0.074 A 
ATOM     52  C   UNL     1       4.915  11.609  -5.239  1.00  0.00     0.031 C 
ATOM     53  C   UNL     1       5.852  10.924   1.561  1.00  0.00     0.029 A 
ATOM     54  C   UNL     1       6.670  11.936   0.905  1.00  0.00     0.049 A 
ATOM     55  H   UNL     1       6.570  12.553  -1.085  1.00  0.00     0.167 HD
ATOM     56  C   UNL     1       6.525  13.484  -5.357  1.00  0.00     0.034 A 
ATOM     57  C   UNL     1       7.630  12.665   1.506  1.00  0.00     0.034 A 
ATOM     58  C   UNL     1       7.417  14.442  -4.764  1.00  0.00     0.049 A 
ATOM     59  C   UNL     1       8.345  13.720   0.709  1.00  0.00     0.074 A 
ATOM     60  C   UNL     1       8.078  15.494  -5.375  1.00  0.00     0.029 A 
ATOM     61  N   UNL     1       7.781  14.464  -3.427  1.00  0.00    -0.354 N 
ATOM     62  N   UNL     1       8.196  14.039  -0.554  1.00  0.00    -0.248 NA
ATOM     63  C   UNL     1       9.321  14.550   1.428  1.00  0.00     0.031 C 
ATOM     64  C   UNL     1       8.864  16.133  -4.412  1.00  0.00     0.029 A 
ATOM     65  C   UNL     1       8.666  15.502  -3.194  1.00  0.00     0.049 A 
ATOM     66  H   UNL     1       7.457  13.833  -2.744  1.00  0.00     0.167 HD
ATOM     67  C   UNL     1       9.025  15.132  -0.770  1.00  0.00     0.074 A 
ATOM     68  C   UNL     1       9.659  15.432   0.497  1.00  0.00     0.031 C 
ATOM     69  C   UNL     1       9.250  15.819  -1.917  1.00  0.00     0.034 A 
BRANCH  56  70
ATOM     70  C   UNL     1       6.279  13.561  -6.842  1.00  0.00     0.023 A 
ATOM     71  C   UNL     1       5.037  14.027  -7.320  1.00  0.00     0.012 A 
ATOM     72  C   UNL     1       7.294  13.235  -7.763  1.00  0.00     0.148 A 
ATOM     73  C   UNL     1       4.795  14.133  -8.689  1.00  0.00     0.002 A 
ATOM     74  C   UNL     1       7.062  13.389  -9.125  1.00  0.00     0.091 A 
ATOM     75  F   UNL     1       8.462  12.776  -7.291  1.00  0.00    -0.205 F 
ATOM     76  C   UNL     1       5.811  13.825  -9.590  1.00  0.00     0.022 A 
BRANCH  74  77
ATOM     77  S   UNL     1       8.329  13.096 -10.365  1.00  0.00     0.127 S 
ATOM     78  O   UNL     1       7.808  11.910 -11.043  1.00  0.00    -0.237 OA
ATOM     79  O   UNL     1       8.272  14.326 -11.156  1.00  0.00    -0.237 OA
ATOM     80  O   UNL     1       9.572  12.898  -9.633  1.00  0.00    -0.744 OA
ENDBRANCH  74  77
ENDBRANCH  56  70
BRANCH  57  81
ATOM     81  C   UNL     1       7.918  12.474   2.957  1.00  0.00     0.023 A 
ATOM     82  C   UNL     1       7.560  13.481   3.874  1.00  0.00     0.012 A 
ATOM     83  C   UNL     1       8.527  11.296   3.433  1.00  0.00     0.148 A 
ATOM     84  C   UNL     1       7.841  13.339   5.233  1.00  0.00     0.002 A 
ATOM     85  C   UNL     1       8.755  11.138   4.795  1.00  0.00     0.091 A 
ATOM     86  F   UNL     1       8.863  10.351   2.545  1.00  0.00    -0.205 F 
ATOM     87  C   UNL     1       8.431  12.166   5.695  1.00  0.00     0.022 A 
BRANCH  85  88
ATOM     88  S   UNL     1       9.394   9.612   5.496  1.00  0.00     0.127 S 
ATOM     89  O   UNL     1      10.730  10.017   5.923  1.00  0.00    -0.237 OA
ATOM     90  O   UNL     1       8.447   9.362   6.584  1.00  0.00    -0.237 OA
ATOM     91  O   UNL     1       9.342   8.633   4.419  1.00  0.00    -0.744 OA
ENDBRANCH  85  88
ENDBRANCH  57  81
BRANCH  69  92
ATOM     92  C   UNL     1      10.190  16.994  -1.853  1.00  0.00     0.023 A 
ATOM     93  C   UNL     1      11.573  16.780  -1.693  1.00  0.00     0.012 A 
ATOM     94  C   UNL     1       9.706  18.306  -2.022  1.00  0.00     0.148 A 
ATOM     95  C   UNL     1      12.457  17.858  -1.668  1.00  0.00     0.002 A 
ATOM     96  C   UNL     1      10.598  19.370  -2.050  1.00  0.00     0.091 A 
ATOM     97  F   UNL     1       8.384  18.488  -2.154  1.00  0.00    -0.205 F 
ATOM     98  C   UNL     1      11.972  19.149  -1.859  1.00  0.00     0.022 A 
BRANCH  96  99
ATOM     99  S   UNL     1      10.078  21.055  -2.392  1.00  0.00     0.127 S 
ATOM    100  O   UNL     1      10.252  21.690  -1.087  1.00  0.00    -0.237 OA
ATOM    101  O   UNL     1      11.041  21.475  -3.409  1.00  0.00    -0.237 OA
ATOM    102  O   UNL     1       8.702  20.964  -2.862  1.00  0.00    -0.744 OA
ENDBRANCH  96  99
ENDBRANCH  69  92
ENDBRANCH  43  44
ENDBRANCH  35  38
ENDBRANCH  33  34
ENDBRANCH  32  33
ENDBRANCH   1  32
TORSDOF 17
