REMARK SMILES C[C@@H]1C[C@@H]1C(=O)NCCC(=O)N[C@@](C)(C(=O)NCCCCNC(=O)c1ccc(-c2c3nc(c(-c4cccc(S(=O)(=O)[O-])c4F)c4ccc([nH]4)c(-c4cccc(S(=O)(=O)[O-])c4F)c4nc(c(-c5cccc(S(=O)(=O)[O-])c5F)c5ccc2[nH]5)C=C4)C=C3)cc1)C(F)(F)F
REMARK SMILES IDX 18 1 17 2 15 3 16 4 13 6 14 7 12 8 10 9 11 10 9 12 8 13 7 14
REMARK SMILES IDX 5 15 6 16 4 18 1 19 2 20 3 21 88 22 89 23 90 24 91 25 19 26
REMARK SMILES IDX 20 27 21 28 22 29 23 30 24 32 25 33 26 34 87 35 27 36 86 37
REMARK SMILES IDX 28 38 29 39 30 40 80 41 31 42 85 43 79 44 81 45 32 46 84 47
REMARK SMILES IDX 78 48 77 49 33 51 65 52 45 53 64 54 46 55 49 56 63 57 82 58
REMARK SMILES IDX 47 59 48 60 62 62 83 63 50 64 34 65 35 66 43 67 36 68 38 69
REMARK SMILES IDX 44 70 37 71 39 72 40 73 41 74 42 75 66 76 67 77 75 78 68 79
REMARK SMILES IDX 70 80 76 81 69 82 71 83 72 84 73 85 74 86 51 87 52 88 60 89
REMARK SMILES IDX 53 90 55 91 61 92 54 93 56 94 57 95 58 96 59 97
REMARK H PARENT 17 5 12 11 7 17 22 31 81 50 49 61
REMARK Flexibility Score: inf
ROOT
ATOM      1  C   UNL     1       5.122   6.549   4.847  1.00  0.00     0.116 C 
ENDROOT
BRANCH   1   2
ATOM      2  N   UNL     1       3.756   6.394   5.314  1.00  0.00    -0.354 N 
ATOM      3  C   UNL     1       2.589   6.022   4.727  1.00  0.00     0.254 C 
ATOM      4  O   UNL     1       1.621   5.998   5.490  1.00  0.00    -0.272 OA
ATOM      5  H   UNL     1       3.653   6.607   6.270  1.00  0.00     0.163 HD
BRANCH   3   6
ATOM      6  C   UNL     1       2.521   5.528   3.267  1.00  0.00     0.212 C 
ATOM      7  C   UNL     1       3.369   4.242   3.204  1.00  0.00     0.056 C 
BRANCH   6   8
ATOM      8  N   UNL     1       3.126   6.585   2.369  1.00  0.00    -0.335 N 
ATOM      9  C   UNL     1       3.162   6.793   1.025  1.00  0.00     0.222 C 
ATOM     10  O   UNL     1       4.094   7.480   0.594  1.00  0.00    -0.275 OA
ATOM     11  H   UNL     1       3.603   7.283   2.873  1.00  0.00     0.164 HD
BRANCH   9  12
ATOM     12  C   UNL     1       2.083   6.320   0.077  1.00  0.00     0.121 C 
BRANCH  12  13
ATOM     13  C   UNL     1       2.411   5.095  -0.773  1.00  0.00     0.125 C 
BRANCH  13  14
ATOM     14  N   UNL     1       2.870   3.932  -0.044  1.00  0.00    -0.355 N 
ATOM     15  C   UNL     1       2.194   2.813   0.356  1.00  0.00     0.223 C 
ATOM     16  O   UNL     1       2.760   1.996   1.081  1.00  0.00    -0.275 OA
ATOM     17  H   UNL     1       3.822   3.949   0.204  1.00  0.00     0.163 HD
BRANCH  15  18
ATOM     18  C   UNL     1       0.786   2.611  -0.063  1.00  0.00     0.081 C 
ATOM     19  C   UNL     1       1.093   0.003  -0.309  1.00  0.00     0.008 C 
ATOM     20  C   UNL     1       0.247   1.229  -0.390  1.00  0.00    -0.001 C 
ATOM     21  C   UNL     1       0.457   2.233  -1.487  1.00  0.00     0.018 C 
ENDBRANCH  15  18
ENDBRANCH  13  14
ENDBRANCH  12  13
ENDBRANCH   9  12
ENDBRANCH   6   8
BRANCH   6  22
ATOM     22  C   UNL     1       1.025   5.220   3.053  1.00  0.00     0.420 C 
ATOM     23  F   UNL     1       0.262   6.336   3.096  1.00  0.00    -0.168 F 
ATOM     24  F   UNL     1       0.814   4.674   1.837  1.00  0.00    -0.168 F 
ATOM     25  F   UNL     1       0.525   4.318   3.926  1.00  0.00    -0.168 F 
ENDBRANCH   6  22
ENDBRANCH   3   6
ENDBRANCH   1   2
BRANCH   1  26
ATOM     26  C   UNL     1       5.577   7.994   5.038  1.00  0.00     0.023 C 
BRANCH  26  27
ATOM     27  C   UNL     1       5.432   8.506   6.476  1.00  0.00     0.023 C 
BRANCH  27  28
ATOM     28  C   UNL     1       6.033   7.598   7.543  1.00  0.00     0.116 C 
BRANCH  28  29
ATOM     29  N   UNL     1       7.455   7.383   7.340  1.00  0.00    -0.352 N 
ATOM     30  C   UNL     1       8.474   7.501   8.252  1.00  0.00     0.251 C 
ATOM     31  H   UNL     1       7.723   7.118   6.431  1.00  0.00     0.163 HD
ATOM     32  O   UNL     1       9.642   7.462   7.875  1.00  0.00    -0.269 OA
BRANCH  30  33
ATOM     33  C   UNL     1       8.150   7.699   9.679  1.00  0.00     0.039 A 
ATOM     34  C   UNL     1       8.818   8.698  10.387  1.00  0.00     0.014 A 
ATOM     35  C   UNL     1       7.175   6.917  10.306  1.00  0.00     0.014 A 
ATOM     36  C   UNL     1       8.477   8.940  11.718  1.00  0.00     0.010 A 
ATOM     37  C   UNL     1       6.778   7.219  11.605  1.00  0.00     0.010 A 
ATOM     38  C   UNL     1       7.436   8.221  12.331  1.00  0.00    -0.014 A 
BRANCH  38  39
ATOM     39  C   UNL     1       7.035   8.515  13.731  1.00  0.00     0.031 A 
ATOM     40  C   UNL     1       7.157   7.460  14.798  1.00  0.00     0.074 A 
ATOM     41  C   UNL     1       6.509   9.719  14.032  1.00  0.00     0.049 A 
ATOM     42  N   UNL     1       6.878   7.544  16.073  1.00  0.00    -0.248 NA
ATOM     43  C   UNL     1       7.626   6.129  14.377  1.00  0.00     0.031 C 
ATOM     44  C   UNL     1       6.250  10.792  13.069  1.00  0.00     0.029 A 
ATOM     45  N   UNL     1       6.083  10.238  15.229  1.00  0.00    -0.354 N 
ATOM     46  C   UNL     1       7.103   6.277  16.597  1.00  0.00     0.074 A 
ATOM     47  C   UNL     1       7.503   5.430  15.495  1.00  0.00     0.031 C 
ATOM     48  C   UNL     1       5.725  11.845  13.715  1.00  0.00     0.029 A 
ATOM     49  C   UNL     1       5.584  11.515  15.130  1.00  0.00     0.049 A 
ATOM     50  H   UNL     1       6.130   9.742  16.078  1.00  0.00     0.167 HD
ATOM     51  C   UNL     1       7.015   5.861  17.882  1.00  0.00     0.034 A 
ATOM     52  C   UNL     1       5.068  12.330  16.071  1.00  0.00     0.034 A 
ATOM     53  C   UNL     1       6.652   6.716  18.980  1.00  0.00     0.049 A 
ATOM     54  C   UNL     1       5.033  11.863  17.501  1.00  0.00     0.074 A 
ATOM     55  C   UNL     1       6.630   6.418  20.331  1.00  0.00     0.029 A 
ATOM     56  N   UNL     1       6.232   8.030  18.853  1.00  0.00    -0.354 N 
ATOM     57  N   UNL     1       5.417  10.715  18.003  1.00  0.00    -0.248 NA
ATOM     58  C   UNL     1       4.534  12.818  18.500  1.00  0.00     0.031 C 
ATOM     59  C   UNL     1       6.158   7.541  21.017  1.00  0.00     0.029 A 
ATOM     60  C   UNL     1       5.933   8.554  20.099  1.00  0.00     0.049 A 
ATOM     61  H   UNL     1       6.157   8.520  18.002  1.00  0.00     0.167 HD
ATOM     62  C   UNL     1       5.243  10.822  19.378  1.00  0.00     0.074 A 
ATOM     63  C   UNL     1       4.737  12.156  19.630  1.00  0.00     0.031 C 
ATOM     64  C   UNL     1       5.473   9.898  20.342  1.00  0.00     0.034 A 
BRANCH  51  65
ATOM     65  C   UNL     1       7.354   4.422  18.180  1.00  0.00     0.023 A 
ATOM     66  C   UNL     1       8.688   3.977  18.065  1.00  0.00     0.012 A 
ATOM     67  C   UNL     1       6.365   3.524  18.625  1.00  0.00     0.148 A 
ATOM     68  C   UNL     1       9.024   2.655  18.350  1.00  0.00     0.002 A 
ATOM     69  C   UNL     1       6.716   2.221  18.957  1.00  0.00     0.091 A 
ATOM     70  F   UNL     1       5.099   3.958  18.709  1.00  0.00    -0.205 F 
ATOM     71  C   UNL     1       8.041   1.781  18.806  1.00  0.00     0.022 A 
BRANCH  69  72
ATOM     72  S   UNL     1       5.542   1.043  19.635  1.00  0.00     0.127 S 
ATOM     73  O   UNL     1       5.403   0.096  18.529  1.00  0.00    -0.237 OA
ATOM     74  O   UNL     1       6.265   0.523  20.796  1.00  0.00    -0.237 OA
ATOM     75  O   UNL     1       4.345   1.807  19.956  1.00  0.00    -0.744 OA
ENDBRANCH  69  72
ENDBRANCH  51  65
BRANCH  52  76
ATOM     76  C   UNL     1       4.600  13.694  15.697  1.00  0.00     0.023 A 
ATOM     77  C   UNL     1       5.324  14.824  16.128  1.00  0.00     0.012 A 
ATOM     78  C   UNL     1       3.460  13.876  14.892  1.00  0.00     0.148 A 
ATOM     79  C   UNL     1       4.900  16.110  15.793  1.00  0.00     0.002 A 
ATOM     80  C   UNL     1       3.077  15.156  14.512  1.00  0.00     0.091 A 
ATOM     81  F   UNL     1       2.782  12.789  14.498  1.00  0.00    -0.205 F 
ATOM     82  C   UNL     1       3.784  16.276  14.977  1.00  0.00     0.022 A 
BRANCH  80  83
ATOM     83  S   UNL     1       1.736  15.458  13.356  1.00  0.00     0.127 S 
ATOM     84  O   UNL     1       0.736  16.086  14.215  1.00  0.00    -0.237 OA
ATOM     85  O   UNL     1       2.370  16.355  12.389  1.00  0.00    -0.237 OA
ATOM     86  O   UNL     1       1.378  14.152  12.818  1.00  0.00    -0.744 OA
ENDBRANCH  80  83
ENDBRANCH  52  76
BRANCH  64  87
ATOM     87  C   UNL     1       5.229  10.303  21.773  1.00  0.00     0.023 A 
ATOM     88  C   UNL     1       3.914  10.494  22.241  1.00  0.00     0.012 A 
ATOM     89  C   UNL     1       6.308  10.428  22.671  1.00  0.00     0.148 A 
ATOM     90  C   UNL     1       3.680  10.843  23.572  1.00  0.00     0.002 A 
ATOM     91  C   UNL     1       6.064  10.721  24.006  1.00  0.00     0.091 A 
ATOM     92  F   UNL     1       7.553  10.260  22.202  1.00  0.00    -0.205 F 
ATOM     93  C   UNL     1       4.752  10.944  24.456  1.00  0.00     0.022 A 
BRANCH  91  94
ATOM     94  S   UNL     1       7.373  10.770  25.235  1.00  0.00     0.127 S 
ATOM     95  O   UNL     1       7.467  12.202  25.513  1.00  0.00    -0.237 OA
ATOM     96  O   UNL     1       6.805   9.973  26.324  1.00  0.00    -0.237 OA
ATOM     97  O   UNL     1       8.543  10.178  24.601  1.00  0.00    -0.744 OA
ENDBRANCH  91  94
ENDBRANCH  64  87
ENDBRANCH  38  39
ENDBRANCH  30  33
ENDBRANCH  28  29
ENDBRANCH  27  28
ENDBRANCH  26  27
ENDBRANCH   1  26
TORSDOF 20
