REMARK SMILES Cc1c(Br)c(C)c2c(c1Br)O[C@H](C(F)(F)F)C(C(=O)NCCCCNC(=O)c1ccc(-c3c4nc(c(-c5cccc(S(=O)(=O)[O-])c5F)c5ccc([nH]5)c(-c5cccc(S(=O)(=O)[O-])c5F)c5nc(c(-c6cccc(S(=O)(=O)[O-])c6F)c6ccc3[nH]6)C=C5)C=C4)cc1)=C2
REMARK SMILES IDX 23 1 22 2 21 3 20 4 18 5 19 6 17 8 1 9 2 10 3 11 9 12 4 13
REMARK SMILES IDX 5 14 8 15 10 16 6 17 7 18 11 19 91 20 12 21 13 22 14 23
REMARK SMILES IDX 15 24 16 25 24 26 25 27 26 28 27 30 28 31 29 32 90 33 30 34
REMARK SMILES IDX 89 35 31 36 32 37 33 38 83 39 34 40 88 41 82 42 84 43 35 44
REMARK SMILES IDX 87 45 81 46 80 47 36 49 68 50 48 51 67 52 49 53 52 54 66 55
REMARK SMILES IDX 85 56 50 57 51 58 65 60 86 61 53 62 37 63 38 64 46 65 39 66
REMARK SMILES IDX 41 67 47 68 40 69 42 70 43 71 44 72 45 73 69 74 70 75 78 76
REMARK SMILES IDX 71 77 73 78 79 79 72 80 74 81 75 82 76 83 77 84 54 85 55 86
REMARK SMILES IDX 63 87 56 88 58 89 64 90 57 91 59 92 60 93 61 94 62 95
REMARK H PARENT 20 7 25 29 84 48 52 59
REMARK Flexibility Score: inf
ROOT
ATOM      1  C   UNL     1      -5.630   7.592   4.514  1.00  0.00     0.023 C 
ENDROOT
BRANCH   1   2
ATOM      2  C   UNL     1      -4.982   6.358   3.878  1.00  0.00     0.023 C 
BRANCH   2   3
ATOM      3  C   UNL     1      -4.836   6.439   2.361  1.00  0.00     0.116 C 
BRANCH   3   4
ATOM      4  N   UNL     1      -3.611   7.110   1.967  1.00  0.00    -0.352 N 
ATOM      5  C   UNL     1      -2.389   6.749   1.514  1.00  0.00     0.251 C 
ATOM      6  O   UNL     1      -1.610   7.682   1.291  1.00  0.00    -0.270 OA
ATOM      7  H   UNL     1      -3.691   8.088   2.052  1.00  0.00     0.163 HD
BRANCH   5   8
ATOM      8  C   UNL     1      -1.937   5.347   1.267  1.00  0.00     0.067 C 
ATOM      9  C   UNL     1       1.357  -0.179  -0.041  1.00  0.00     0.047 C 
ATOM     10  C   UNL     1       0.871   1.233   0.194  1.00  0.00    -0.019 A 
ATOM     11  C   UNL     1       1.654   2.363  -0.152  1.00  0.00     0.025 A 
ATOM     12  C   UNL     1      -0.419   1.456   0.716  1.00  0.00     0.064 A 
ATOM     13  Br  UNL     1       3.367   2.087  -0.977  1.00  0.00    -0.050 Br
ATOM     14  C   UNL     1       1.192   3.687   0.078  1.00  0.00    -0.026 A 
ATOM     15  C   UNL     1      -0.889   2.759   0.942  1.00  0.00     0.142 A 
ATOM     16  Br  UNL     1      -1.602  -0.004   1.093  1.00  0.00    -0.046 Br
ATOM     17  C   UNL     1       2.021   4.909  -0.256  1.00  0.00     0.046 C 
ATOM     18  C   UNL     1      -0.092   3.871   0.647  1.00  0.00     0.022 A 
ATOM     19  O   UNL     1      -2.129   2.896   1.511  1.00  0.00    -0.474 OA
ATOM     20  C   UNL     1      -0.632   5.199   0.968  1.00  0.00     0.026 C 
ATOM     21  C   UNL     1      -2.829   4.147   1.290  1.00  0.00     0.314 C 
BRANCH  21  22
ATOM     22  C   UNL     1      -3.715   4.032   0.036  1.00  0.00     0.429 C 
ATOM     23  F   UNL     1      -4.696   3.116   0.230  1.00  0.00    -0.167 F 
ATOM     24  F   UNL     1      -4.330   5.196  -0.274  1.00  0.00    -0.167 F 
ATOM     25  F   UNL     1      -3.017   3.650  -1.058  1.00  0.00    -0.167 F 
ENDBRANCH  21  22
ENDBRANCH   5   8
ENDBRANCH   3   4
ENDBRANCH   2   3
ENDBRANCH   1   2
BRANCH   1  26
ATOM     26  C   UNL     1      -6.998   7.980   3.955  1.00  0.00     0.116 C 
BRANCH  26  27
ATOM     27  N   UNL     1      -7.952   6.879   3.910  1.00  0.00    -0.352 N 
ATOM     28  C   UNL     1      -9.322   6.946   4.012  1.00  0.00     0.251 C 
ATOM     29  H   UNL     1      -7.570   5.979   3.793  1.00  0.00     0.163 HD
ATOM     30  O   UNL     1     -10.001   5.925   4.027  1.00  0.00    -0.269 OA
BRANCH  28  31
ATOM     31  C   UNL     1      -9.953   8.272   4.151  1.00  0.00     0.039 A 
ATOM     32  C   UNL     1     -10.741   8.527   5.275  1.00  0.00     0.014 A 
ATOM     33  C   UNL     1      -9.684   9.278   3.220  1.00  0.00     0.014 A 
ATOM     34  C   UNL     1     -11.198   9.823   5.508  1.00  0.00     0.010 A 
ATOM     35  C   UNL     1     -10.092  10.581   3.485  1.00  0.00     0.010 A 
ATOM     36  C   UNL     1     -10.843  10.866   4.636  1.00  0.00    -0.014 A 
BRANCH  36  37
ATOM     37  C   UNL     1     -11.219  12.270   4.929  1.00  0.00     0.031 A 
ATOM     38  C   UNL     1     -12.178  12.997   4.031  1.00  0.00     0.074 A 
ATOM     39  C   UNL     1     -10.633  12.909   5.961  1.00  0.00     0.049 A 
ATOM     40  N   UNL     1     -12.600  14.231   4.110  1.00  0.00    -0.248 NA
ATOM     41  C   UNL     1     -12.714  12.250   2.881  1.00  0.00     0.031 C 
ATOM     42  C   UNL     1      -9.628  12.328   6.854  1.00  0.00     0.029 A 
ATOM     43  N   UNL     1     -10.784  14.192   6.423  1.00  0.00    -0.354 N 
ATOM     44  C   UNL     1     -13.432  14.416   3.014  1.00  0.00     0.074 A 
ATOM     45  C   UNL     1     -13.423  13.181   2.261  1.00  0.00     0.031 C 
ATOM     46  C   UNL     1      -9.268  13.244   7.766  1.00  0.00     0.029 A 
ATOM     47  C   UNL     1      -9.998  14.483   7.514  1.00  0.00     0.049 A 
ATOM     48  H   UNL     1     -11.398  14.844   6.013  1.00  0.00     0.167 HD
ATOM     49  C   UNL     1     -14.169  15.502   2.687  1.00  0.00     0.034 A 
ATOM     50  C   UNL     1      -9.890  15.616   8.238  1.00  0.00     0.034 A 
ATOM     51  C   UNL     1     -14.214  16.707   3.468  1.00  0.00     0.049 A 
ATOM     52  C   UNL     1     -10.752  16.795   7.877  1.00  0.00     0.074 A 
ATOM     53  C   UNL     1     -14.984  17.837   3.260  1.00  0.00     0.029 A 
ATOM     54  N   UNL     1     -13.463  16.937   4.610  1.00  0.00    -0.354 N 
ATOM     55  N   UNL     1     -11.645  16.900   6.923  1.00  0.00    -0.248 NA
ATOM     56  C   UNL     1     -10.621  17.999   8.710  1.00  0.00     0.031 C 
ATOM     57  C   UNL     1     -14.697  18.752   4.277  1.00  0.00     0.029 A 
ATOM     58  C   UNL     1     -13.753  18.190   5.121  1.00  0.00     0.049 A 
ATOM     59  H   UNL     1     -12.819  16.303   5.000  1.00  0.00     0.167 HD
ATOM     60  C   UNL     1     -12.203  18.166   7.058  1.00  0.00     0.074 A 
ATOM     61  C   UNL     1     -11.561  18.785   8.199  1.00  0.00     0.031 C 
ATOM     62  C   UNL     1     -13.148  18.767   6.294  1.00  0.00     0.034 A 
BRANCH  49  63
ATOM     63  C   UNL     1     -15.058  15.404   1.477  1.00  0.00     0.023 A 
ATOM     64  C   UNL     1     -16.234  14.630   1.556  1.00  0.00     0.012 A 
ATOM     65  C   UNL     1     -14.777  16.120   0.298  1.00  0.00     0.148 A 
ATOM     66  C   UNL     1     -17.105  14.549   0.471  1.00  0.00     0.002 A 
ATOM     67  C   UNL     1     -15.671  16.065  -0.766  1.00  0.00     0.091 A 
ATOM     68  F   UNL     1     -13.642  16.831   0.234  1.00  0.00    -0.205 F 
ATOM     69  C   UNL     1     -16.830  15.274  -0.684  1.00  0.00     0.022 A 
BRANCH  67  70
ATOM     70  S   UNL     1     -15.443  17.019  -2.272  1.00  0.00     0.127 S 
ATOM     71  O   UNL     1     -15.062  15.978  -3.225  1.00  0.00    -0.237 OA
ATOM     72  O   UNL     1     -16.776  17.583  -2.486  1.00  0.00    -0.237 OA
ATOM     73  O   UNL     1     -14.411  18.001  -1.970  1.00  0.00    -0.744 OA
ENDBRANCH  67  70
ENDBRANCH  49  63
BRANCH  50  74
ATOM     74  C   UNL     1      -9.011  15.640   9.441  1.00  0.00     0.023 A 
ATOM     75  C   UNL     1      -9.606  15.648  10.718  1.00  0.00     0.012 A 
ATOM     76  C   UNL     1      -7.607  15.589   9.339  1.00  0.00     0.148 A 
ATOM     77  C   UNL     1      -8.821  15.622  11.871  1.00  0.00     0.002 A 
ATOM     78  C   UNL     1      -6.832  15.511  10.492  1.00  0.00     0.091 A 
ATOM     79  F   UNL     1      -7.058  15.598   8.117  1.00  0.00    -0.205 F 
ATOM     80  C   UNL     1      -7.436  15.541  11.758  1.00  0.00     0.022 A 
BRANCH  78  81
ATOM     81  S   UNL     1      -5.053  15.265  10.438  1.00  0.00     0.127 S 
ATOM     82  O   UNL     1      -4.555  16.584  10.818  1.00  0.00    -0.237 OA
ATOM     83  O   UNL     1      -4.859  14.219  11.443  1.00  0.00    -0.237 OA
ATOM     84  O   UNL     1      -4.760  14.842   9.074  1.00  0.00    -0.744 OA
ENDBRANCH  78  81
ENDBRANCH  50  74
BRANCH  62  85
ATOM     85  C   UNL     1     -13.569  20.165   6.659  1.00  0.00     0.023 A 
ATOM     86  C   UNL     1     -12.724  21.244   6.338  1.00  0.00     0.012 A 
ATOM     87  C   UNL     1     -14.849  20.418   7.190  1.00  0.00     0.148 A 
ATOM     88  C   UNL     1     -13.142  22.557   6.551  1.00  0.00     0.002 A 
ATOM     89  C   UNL     1     -15.275  21.730   7.360  1.00  0.00     0.091 A 
ATOM     90  F   UNL     1     -15.630  19.374   7.505  1.00  0.00    -0.205 F 
ATOM     91  C   UNL     1     -14.421  22.800   7.047  1.00  0.00     0.022 A 
BRANCH  89  92
ATOM     92  S   UNL     1     -16.941  22.139   7.898  1.00  0.00     0.127 S 
ATOM     93  O   UNL     1     -16.709  22.582   9.271  1.00  0.00    -0.237 OA
ATOM     94  O   UNL     1     -17.316  23.205   6.968  1.00  0.00    -0.237 OA
ATOM     95  O   UNL     1     -17.718  20.915   7.756  1.00  0.00    -0.744 OA
ENDBRANCH  89  92
ENDBRANCH  62  85
ENDBRANCH  36  37
ENDBRANCH  28  31
ENDBRANCH  26  27
ENDBRANCH   1  26
TORSDOF 15
