REMARK SMILES O=C(NCCCCNC(=O)c1cn(C2C[NH+](CC(F)(F)F)C2)nn1)c1ccc(-c2c3nc(c(-c4cccc(S(=O)(=O)[O-])c4F)c4ccc([nH]4)c(-c4cccc(S(=O)(=O)[O-])c4F)c4nc(c(-c5cccc(S(=O)(=O)[O-])c5F)c5ccc2[nH]5)C=C4)C=C3)cc1
REMARK SMILES IDX 5 1 4 2 3 3 1 4 2 5 25 7 26 8 87 9 27 10 86 11 28 12 29 13
REMARK SMILES IDX 30 14 80 15 31 16 85 17 79 18 81 19 32 20 84 21 78 22 77 23
REMARK SMILES IDX 33 25 65 26 45 27 64 28 46 29 49 30 63 31 82 32 47 33 48 34
REMARK SMILES IDX 62 36 83 37 50 38 34 39 35 40 43 41 36 42 38 43 44 44 37 45
REMARK SMILES IDX 39 46 40 47 41 48 42 49 66 50 67 51 75 52 68 53 70 54 76 55
REMARK SMILES IDX 69 56 71 57 72 58 73 59 74 60 51 61 52 62 60 63 53 64 55 65
REMARK SMILES IDX 61 66 54 67 56 68 57 69 58 70 59 71 6 72 7 73 8 74 9 75
REMARK SMILES IDX 10 77 11 78 12 79 24 80 13 81 23 82 14 83 15 84 22 85 16 86
REMARK SMILES IDX 17 88 18 89 19 90 20 91 21 92
REMARK H PARENT 3 6 81 24 49 35 8 76 16 87
REMARK Flexibility Score: inf
ROOT
ATOM      1  C   UNL     1       5.024   1.325  -1.867  1.00  0.00     0.023 C 
ENDROOT
BRANCH   1   2
ATOM      2  C   UNL     1       4.703   1.043  -0.400  1.00  0.00     0.116 C 
BRANCH   2   3
ATOM      3  N   UNL     1       3.295   1.114  -0.079  1.00  0.00    -0.352 N 
ATOM      4  O   UNL     1       1.233   0.621   0.498  1.00  0.00    -0.269 OA
ATOM      5  C   UNL     1       2.270   0.210  -0.033  1.00  0.00     0.251 C 
ATOM      6  H   UNL     1       3.008   2.024   0.164  1.00  0.00     0.163 HD
BRANCH   5   7
ATOM      7  C   UNL     1       2.287  -1.155  -0.627  1.00  0.00     0.039 A 
ATOM      8  C   UNL     1       3.398  -1.799  -1.176  1.00  0.00     0.014 A 
ATOM      9  C   UNL     1       1.040  -1.808  -0.680  1.00  0.00     0.014 A 
ATOM     10  C   UNL     1       3.247  -3.013  -1.843  1.00  0.00     0.010 A 
ATOM     11  C   UNL     1       0.884  -3.020  -1.341  1.00  0.00     0.010 A 
ATOM     12  C   UNL     1       1.984  -3.600  -1.962  1.00  0.00    -0.014 A 
BRANCH  12  13
ATOM     13  C   UNL     1       1.880  -4.910  -2.600  1.00  0.00     0.031 A 
ATOM     14  C   UNL     1       2.576  -5.998  -1.852  1.00  0.00     0.074 A 
ATOM     15  C   UNL     1       1.113  -5.151  -3.685  1.00  0.00     0.049 A 
ATOM     16  N   UNL     1       3.575  -6.722  -2.241  1.00  0.00    -0.248 NA
ATOM     17  C   UNL     1       2.210  -6.202  -0.441  1.00  0.00     0.031 C 
ATOM     18  C   UNL     1       0.161  -4.240  -4.329  1.00  0.00     0.029 A 
ATOM     19  N   UNL     1       0.921  -6.318  -4.368  1.00  0.00    -0.354 N 
ATOM     20  C   UNL     1       3.814  -7.628  -1.205  1.00  0.00     0.074 A 
ATOM     21  C   UNL     1       3.077  -7.145  -0.070  1.00  0.00     0.031 C 
ATOM     22  C   UNL     1      -0.675  -4.953  -5.118  1.00  0.00     0.029 A 
ATOM     23  C   UNL     1      -0.238  -6.337  -5.143  1.00  0.00     0.049 A 
ATOM     24  H   UNL     1       1.545  -7.078  -4.317  1.00  0.00     0.167 HD
ATOM     25  C   UNL     1       4.408  -8.832  -1.435  1.00  0.00     0.034 A 
ATOM     26  C   UNL     1      -0.837  -7.426  -5.694  1.00  0.00     0.034 A 
ATOM     27  C   UNL     1       5.088  -8.844  -2.703  1.00  0.00     0.049 A 
ATOM     28  C   UNL     1       0.174  -8.504  -5.753  1.00  0.00     0.074 A 
ATOM     29  C   UNL     1       6.126  -8.133  -3.269  1.00  0.00     0.029 A 
ATOM     30  N   UNL     1       4.444  -9.468  -3.741  1.00  0.00    -0.354 N 
ATOM     31  N   UNL     1       1.233  -8.453  -6.509  1.00  0.00    -0.248 NA
ATOM     32  C   UNL     1       0.234  -9.435  -4.639  1.00  0.00     0.031 C 
ATOM     33  C   UNL     1       5.752  -7.973  -4.634  1.00  0.00     0.029 A 
ATOM     34  C   UNL     1       4.550  -8.655  -4.834  1.00  0.00     0.049 A 
ATOM     35  H   UNL     1       3.990 -10.341  -3.706  1.00  0.00     0.167 HD
ATOM     36  C   UNL     1       2.241  -8.971  -5.710  1.00  0.00     0.074 A 
ATOM     37  C   UNL     1       1.552  -9.647  -4.612  1.00  0.00     0.031 C 
ATOM     38  C   UNL     1       3.532  -8.554  -5.853  1.00  0.00     0.034 A 
BRANCH  25  39
ATOM     39  C   UNL     1       4.061 -10.129  -0.729  1.00  0.00     0.023 A 
ATOM     40  C   UNL     1       4.822 -11.272  -1.075  1.00  0.00     0.012 A 
ATOM     41  C   UNL     1       2.868 -10.357  -0.005  1.00  0.00     0.148 A 
ATOM     42  C   UNL     1       4.376 -12.569  -0.799  1.00  0.00     0.002 A 
ATOM     43  C   UNL     1       2.461 -11.645   0.326  1.00  0.00     0.091 A 
ATOM     44  F   UNL     1       2.044  -9.344   0.268  1.00  0.00    -0.205 F 
ATOM     45  C   UNL     1       3.192 -12.756  -0.100  1.00  0.00     0.022 A 
BRANCH  43  46
ATOM     46  S   UNL     1       0.954 -11.951   1.258  1.00  0.00     0.127 S 
ATOM     47  O   UNL     1       0.088 -12.521   0.230  1.00  0.00    -0.237 OA
ATOM     48  O   UNL     1       1.420 -12.897   2.272  1.00  0.00    -0.237 OA
ATOM     49  O   UNL     1       0.549 -10.656   1.790  1.00  0.00    -0.744 OA
ENDBRANCH  43  46
ENDBRANCH  25  39
BRANCH  26  50
ATOM     50  C   UNL     1      -2.280  -7.718  -5.887  1.00  0.00     0.023 A 
ATOM     51  C   UNL     1      -2.687  -8.715  -6.801  1.00  0.00     0.012 A 
ATOM     52  C   UNL     1      -3.235  -7.237  -4.965  1.00  0.00     0.148 A 
ATOM     53  C   UNL     1      -3.991  -9.230  -6.778  1.00  0.00     0.002 A 
ATOM     54  C   UNL     1      -4.530  -7.747  -4.949  1.00  0.00     0.091 A 
ATOM     55  F   UNL     1      -2.845  -6.348  -4.043  1.00  0.00    -0.205 F 
ATOM     56  C   UNL     1      -4.910  -8.753  -5.848  1.00  0.00     0.022 A 
BRANCH  54  57
ATOM     57  S   UNL     1      -5.760  -7.204  -3.755  1.00  0.00     0.127 S 
ATOM     58  O   UNL     1      -6.894  -6.876  -4.620  1.00  0.00    -0.237 OA
ATOM     59  O   UNL     1      -5.938  -8.401  -2.938  1.00  0.00    -0.237 OA
ATOM     60  O   UNL     1      -5.174  -6.057  -3.073  1.00  0.00    -0.744 OA
ENDBRANCH  54  57
ENDBRANCH  26  50
BRANCH  38  61
ATOM     61  C   UNL     1       3.883  -7.714  -7.051  1.00  0.00     0.023 A 
ATOM     62  C   UNL     1       3.383  -6.409  -7.241  1.00  0.00     0.012 A 
ATOM     63  C   UNL     1       4.906  -8.183  -7.890  1.00  0.00     0.148 A 
ATOM     64  C   UNL     1       3.894  -5.592  -8.255  1.00  0.00     0.002 A 
ATOM     65  C   UNL     1       5.446  -7.352  -8.859  1.00  0.00     0.091 A 
ATOM     66  F   UNL     1       5.365  -9.428  -7.688  1.00  0.00    -0.205 F 
ATOM     67  C   UNL     1       4.938  -6.058  -9.052  1.00  0.00     0.022 A 
BRANCH  65  68
ATOM     68  S   UNL     1       6.882  -7.842  -9.814  1.00  0.00     0.127 S 
ATOM     69  O   UNL     1       6.311  -8.040 -11.144  1.00  0.00    -0.237 OA
ATOM     70  O   UNL     1       7.753  -6.672  -9.688  1.00  0.00    -0.237 OA
ATOM     71  O   UNL     1       7.404  -9.044  -9.174  1.00  0.00    -0.744 OA
ENDBRANCH  65  68
ENDBRANCH  38  61
ENDBRANCH  12  13
ENDBRANCH   5   7
ENDBRANCH   2   3
ENDBRANCH   1   2
BRANCH   1  72
ATOM     72  C   UNL     1       4.550   2.686  -2.391  1.00  0.00     0.023 C 
BRANCH  72  73
ATOM     73  C   UNL     1       4.963   3.902  -1.563  1.00  0.00     0.116 C 
BRANCH  73  74
ATOM     74  N   UNL     1       6.404   4.064  -1.476  1.00  0.00    -0.351 N 
ATOM     75  C   UNL     1       7.199   5.126  -1.852  1.00  0.00     0.273 C 
ATOM     76  H   UNL     1       6.887   3.298  -1.089  1.00  0.00     0.163 HD
ATOM     77  O   UNL     1       8.416   4.991  -1.808  1.00  0.00    -0.267 OA
BRANCH  75  78
ATOM     78  C   UNL     1       6.568   6.359  -2.295  1.00  0.00     0.170 A 
ATOM     79  C   UNL     1       5.533   7.070  -1.716  1.00  0.00     0.145 A 
ATOM     80  N   UNL     1       6.982   7.024  -3.423  1.00  0.00    -0.125 NA
ATOM     81  N   UNL     1       5.271   8.059  -2.620  1.00  0.00    -0.237 N 
ATOM     82  N   UNL     1       6.173   8.055  -3.615  1.00  0.00    -0.066 NA
BRANCH  81  83
ATOM     83  C   UNL     1       4.164   8.963  -2.660  1.00  0.00     0.218 C 
ATOM     84  C   UNL     1       2.799   8.352  -2.254  1.00  0.00     0.296 C 
ATOM     85  C   UNL     1       3.986   9.827  -1.391  1.00  0.00     0.296 C 
ATOM     86  N   UNL     1       2.536   9.535  -1.409  1.00  0.00    -0.323 N 
ATOM     87  H   UNL     1       2.014   9.457  -0.536  1.00  0.00     0.348 HD
BRANCH  86  88
ATOM     88  C   UNL     1       1.727  10.572  -2.112  1.00  0.00     0.379 C 
BRANCH  88  89
ATOM     89  C   UNL     1       2.066  11.152  -3.502  1.00  0.00     0.438 C 
ATOM     90  F   UNL     1       2.069  10.200  -4.460  1.00  0.00    -0.165 F 
ATOM     91  F   UNL     1       1.150  12.081  -3.864  1.00  0.00    -0.165 F 
ATOM     92  F   UNL     1       3.273  11.761  -3.512  1.00  0.00    -0.165 F 
ENDBRANCH  88  89
ENDBRANCH  86  88
ENDBRANCH  81  83
ENDBRANCH  75  78
ENDBRANCH  73  74
ENDBRANCH  72  73
ENDBRANCH   1  72
TORSDOF 17
