REMARK SMILES CS(=O)(=O)c1ccc(-c2cc(Cl)cnc2-c2ccc(C(=O)NCCCCNC(=O)c3ccc(-c4c5nc(c(-c6cccc(S(=O)(=O)[O-])c6F)c6ccc([nH]6)c(-c6cccc(S(=O)(=O)[O-])c6F)c6nc(c(-c7cccc(S(=O)(=O)[O-])c7F)c7ccc4[nH]7)C=C6)C=C5)cc3)nc2)cc1
REMARK SMILES IDX 24 1 23 2 22 3 20 4 21 5 19 7 16 8 17 9 94 10 18 11 93 12
REMARK SMILES IDX 15 13 9 14 10 15 11 16 14 17 12 18 13 19 8 20 5 21 6 22
REMARK SMILES IDX 96 23 7 24 95 25 2 26 1 27 3 28 4 29 25 30 26 31 27 32 28 33
REMARK SMILES IDX 29 35 30 36 31 37 92 38 32 39 91 40 33 41 34 42 35 43 85 44
REMARK SMILES IDX 36 45 90 46 84 47 86 48 37 49 89 50 83 51 82 52 38 54 70 55
REMARK SMILES IDX 50 56 69 57 51 58 54 59 68 60 87 61 52 62 53 63 67 65 88 66
REMARK SMILES IDX 55 67 39 68 40 69 48 70 41 71 43 72 49 73 42 74 44 75 45 76
REMARK SMILES IDX 46 77 47 78 71 79 72 80 80 81 73 82 75 83 81 84 74 85 76 86
REMARK SMILES IDX 77 87 78 88 79 89 56 90 57 91 65 92 58 93 60 94 66 95 59 96
REMARK SMILES IDX 61 97 62 98 63 99 64 100
REMARK H PARENT 22 6 27 34 86 53 54 64
REMARK Flexibility Score: inf
ROOT
ATOM      1  C   UNL     1       7.608   2.233   1.004  1.00  0.00     0.023 C 
ENDROOT
BRANCH   1   2
ATOM      2  C   UNL     1       6.495   1.184   1.051  1.00  0.00     0.116 C 
BRANCH   2   3
ATOM      3  N   UNL     1       6.860   0.075   1.910  1.00  0.00    -0.351 N 
ATOM      4  C   UNL     1       6.575  -0.219   3.226  1.00  0.00     0.269 C 
ATOM      5  O   UNL     1       6.990  -1.299   3.651  1.00  0.00    -0.268 OA
ATOM      6  H   UNL     1       7.421  -0.601   1.466  1.00  0.00     0.163 HD
BRANCH   4   7
ATOM      7  C   UNL     1       5.759   0.671   4.129  1.00  0.00     0.128 A 
ATOM      8  C   UNL     1       4.079   2.089   5.822  1.00  0.00     0.019 A 
ATOM      9  C   UNL     1       4.768   2.750   4.803  1.00  0.00     0.014 A 
ATOM     10  C   UNL     1       4.351   0.737   5.981  1.00  0.00     0.122 A 
ATOM     11  C   UNL     1       5.634   2.043   3.968  1.00  0.00     0.035 A 
ATOM     12  N   UNL     1       5.139   0.017   5.150  1.00  0.00    -0.250 NA
BRANCH   8  13
ATOM     13  C   UNL     1       3.064   2.768   6.626  1.00  0.00     0.080 A 
ATOM     14  C   UNL     1       1.794   3.105   6.106  1.00  0.00     0.010 A 
ATOM     15  C   UNL     1       0.931   3.828   6.945  1.00  0.00     0.033 A 
ATOM     16  C   UNL     1       1.335   4.171   8.231  1.00  0.00     0.060 A 
ATOM     17  N   UNL     1       3.461   3.081   7.888  1.00  0.00    -0.254 NA
ATOM     18  Cl  UNL     1       0.297   5.068   9.261  1.00  0.00    -0.083 Cl
ATOM     19  C   UNL     1       2.591   3.776   8.657  1.00  0.00     0.132 A 
BRANCH  14  20
ATOM     20  C   UNL     1       1.369   2.739   4.742  1.00  0.00    -0.016 A 
ATOM     21  C   UNL     1       0.664   2.039   2.108  1.00  0.00     0.067 A 
ATOM     22  C   UNL     1       0.897   1.037   3.047  1.00  0.00     0.021 A 
ATOM     23  C   UNL     1       0.766   3.385   2.471  1.00  0.00     0.021 A 
ATOM     24  C   UNL     1       1.240   1.391   4.357  1.00  0.00     0.010 A 
ATOM     25  C   UNL     1       1.113   3.730   3.781  1.00  0.00     0.010 A 
BRANCH  21  26
ATOM     26  S   UNL     1       0.245   1.655   0.423  1.00  0.00     0.175 S 
ATOM     27  C   UNL     1       1.005   0.101   0.043  1.00  0.00     0.163 C 
ATOM     28  O   UNL     1       0.892   2.658  -0.399  1.00  0.00    -0.224 OA
ATOM     29  O   UNL     1      -1.196   1.478   0.397  1.00  0.00    -0.224 OA
ENDBRANCH  21  26
ENDBRANCH  14  20
ENDBRANCH   8  13
ENDBRANCH   4   7
ENDBRANCH   2   3
ENDBRANCH   1   2
BRANCH   1  30
ATOM     30  C   UNL     1       8.776   1.880   0.079  1.00  0.00     0.023 C 
BRANCH  30  31
ATOM     31  C   UNL     1       8.417   1.724  -1.396  1.00  0.00     0.116 C 
BRANCH  31  32
ATOM     32  N   UNL     1       7.741   2.887  -1.956  1.00  0.00    -0.352 N 
ATOM     33  C   UNL     1       7.828   3.389  -3.234  1.00  0.00     0.251 C 
ATOM     34  H   UNL     1       7.147   3.376  -1.342  1.00  0.00     0.163 HD
ATOM     35  O   UNL     1       7.268   4.439  -3.529  1.00  0.00    -0.269 OA
BRANCH  33  36
ATOM     36  C   UNL     1       8.645   2.668  -4.230  1.00  0.00     0.039 A 
ATOM     37  C   UNL     1       9.652   3.362  -4.904  1.00  0.00     0.014 A 
ATOM     38  C   UNL     1       8.465   1.298  -4.434  1.00  0.00     0.014 A 
ATOM     39  C   UNL     1      10.541   2.660  -5.720  1.00  0.00     0.010 A 
ATOM     40  C   UNL     1       9.389   0.591  -5.197  1.00  0.00     0.010 A 
ATOM     41  C   UNL     1      10.445   1.262  -5.833  1.00  0.00    -0.014 A 
BRANCH  41  42
ATOM     42  C   UNL     1      11.476   0.475  -6.554  1.00  0.00     0.031 A 
ATOM     43  C   UNL     1      11.111  -0.321  -7.775  1.00  0.00     0.074 A 
ATOM     44  C   UNL     1      12.717   0.387  -6.035  1.00  0.00     0.049 A 
ATOM     45  N   UNL     1      11.858  -1.124  -8.486  1.00  0.00    -0.248 NA
ATOM     46  C   UNL     1       9.718  -0.225  -8.243  1.00  0.00     0.031 C 
ATOM     47  C   UNL     1      13.166   1.040  -4.803  1.00  0.00     0.029 A 
ATOM     48  N   UNL     1      13.819  -0.314  -6.458  1.00  0.00    -0.354 N 
ATOM     49  C   UNL     1      11.024  -1.655  -9.461  1.00  0.00     0.074 A 
ATOM     50  C   UNL     1       9.705  -1.104  -9.235  1.00  0.00     0.031 C 
ATOM     51  C   UNL     1      14.445   0.705  -4.568  1.00  0.00     0.029 A 
ATOM     52  C   UNL     1      14.900  -0.205  -5.614  1.00  0.00     0.049 A 
ATOM     53  H   UNL     1      13.834  -0.845  -7.286  1.00  0.00     0.167 HD
ATOM     54  C   UNL     1      11.334  -2.501 -10.472  1.00  0.00     0.034 A 
ATOM     55  C   UNL     1      16.117  -0.781  -5.669  1.00  0.00     0.034 A 
ATOM     56  C   UNL     1      12.657  -3.007 -10.722  1.00  0.00     0.049 A 
ATOM     57  C   UNL     1      16.446  -1.683  -6.827  1.00  0.00     0.074 A 
ATOM     58  C   UNL     1      13.095  -3.780 -11.783  1.00  0.00     0.029 A 
ATOM     59  N   UNL     1      13.752  -2.801  -9.899  1.00  0.00    -0.354 N 
ATOM     60  N   UNL     1      15.694  -2.025  -7.844  1.00  0.00    -0.248 NA
ATOM     61  C   UNL     1      17.801  -2.252  -6.863  1.00  0.00     0.031 C 
ATOM     62  C   UNL     1      14.452  -4.058 -11.591  1.00  0.00     0.029 A 
ATOM     63  C   UNL     1      14.863  -3.444 -10.418  1.00  0.00     0.049 A 
ATOM     64  H   UNL     1      13.742  -2.275  -9.066  1.00  0.00     0.167 HD
ATOM     65  C   UNL     1      16.490  -2.826  -8.654  1.00  0.00     0.074 A 
ATOM     66  C   UNL     1      17.792  -2.896  -8.023  1.00  0.00     0.031 C 
ATOM     67  C   UNL     1      16.166  -3.464  -9.806  1.00  0.00     0.034 A 
BRANCH  54  68
ATOM     68  C   UNL     1      10.236  -2.884 -11.427  1.00  0.00     0.023 A 
ATOM     69  C   UNL     1       9.768  -1.935 -12.358  1.00  0.00     0.012 A 
ATOM     70  C   UNL     1       9.718  -4.193 -11.454  1.00  0.00     0.148 A 
ATOM     71  C   UNL     1       8.781  -2.273 -13.283  1.00  0.00     0.002 A 
ATOM     72  C   UNL     1       8.762  -4.534 -12.405  1.00  0.00     0.091 A 
ATOM     73  F   UNL     1      10.159  -5.075 -10.546  1.00  0.00    -0.205 F 
ATOM     74  C   UNL     1       8.287  -3.574 -13.313  1.00  0.00     0.022 A 
BRANCH  72  75
ATOM     75  S   UNL     1       8.116  -6.202 -12.575  1.00  0.00     0.127 S 
ATOM     76  O   UNL     1       6.751  -6.040 -12.074  1.00  0.00    -0.237 OA
ATOM     77  O   UNL     1       8.213  -6.425 -14.018  1.00  0.00    -0.237 OA
ATOM     78  O   UNL     1       8.981  -7.052 -11.769  1.00  0.00    -0.744 OA
ENDBRANCH  72  75
ENDBRANCH  54  68
BRANCH  55  79
ATOM     79  C   UNL     1      17.136  -0.470  -4.627  1.00  0.00     0.023 A 
ATOM     80  C   UNL     1      18.255   0.314  -4.968  1.00  0.00     0.012 A 
ATOM     81  C   UNL     1      16.991  -0.918  -3.299  1.00  0.00     0.148 A 
ATOM     82  C   UNL     1      19.226   0.621  -4.016  1.00  0.00     0.002 A 
ATOM     83  C   UNL     1      17.935  -0.562  -2.342  1.00  0.00     0.091 A 
ATOM     84  F   UNL     1      15.928  -1.677  -2.996  1.00  0.00    -0.205 F 
ATOM     85  C   UNL     1      19.062   0.193  -2.701  1.00  0.00     0.022 A 
BRANCH  83  86
ATOM     86  S   UNL     1      17.728  -0.956  -0.602  1.00  0.00     0.127 S 
ATOM     87  O   UNL     1      18.686  -2.043  -0.424  1.00  0.00    -0.237 OA
ATOM     88  O   UNL     1      18.099   0.305   0.043  1.00  0.00    -0.237 OA
ATOM     89  O   UNL     1      16.323  -1.312  -0.450  1.00  0.00    -0.744 OA
ENDBRANCH  83  86
ENDBRANCH  55  79
BRANCH  67  90
ATOM     90  C   UNL     1      17.238  -4.285 -10.474  1.00  0.00     0.023 A 
ATOM     91  C   UNL     1      17.615  -5.521  -9.915  1.00  0.00     0.012 A 
ATOM     92  C   UNL     1      17.811  -3.871 -11.692  1.00  0.00     0.148 A 
ATOM     93  C   UNL     1      18.566  -6.323 -10.544  1.00  0.00     0.002 A 
ATOM     94  C   UNL     1      18.725  -4.696 -12.337  1.00  0.00     0.091 A 
ATOM     95  F   UNL     1      17.453  -2.682 -12.198  1.00  0.00    -0.205 F 
ATOM     96  C   UNL     1      19.112  -5.917 -11.759  1.00  0.00     0.022 A 
BRANCH  94  97
ATOM     97  S   UNL     1      19.410  -4.299 -13.950  1.00  0.00     0.127 S 
ATOM     98  O   UNL     1      20.786  -3.940 -13.609  1.00  0.00    -0.237 OA
ATOM     99  O   UNL     1      19.271  -5.567 -14.668  1.00  0.00    -0.237 OA
ATOM    100  O   UNL     1      18.593  -3.215 -14.477  1.00  0.00    -0.744 OA
ENDBRANCH  94  97
ENDBRANCH  67  90
ENDBRANCH  41  42
ENDBRANCH  33  36
ENDBRANCH  31  32
ENDBRANCH  30  31
ENDBRANCH   1  30
TORSDOF 17
