REMARK SMILES CC[C@H]([NH2+]C1c2ccccc2-c2ccccc21)C(=O)NCCCCNC(=O)c1ccc(-c2c3nc(c(-c4cccc(S(=O)(=O)[O-])c4F)c4ccc([nH]4)c(-c4cccc(S(=O)(=O)[O-])c4F)c4nc(c(-c5cccc(S(=O)(=O)[O-])c5F)c5ccc2[nH]5)C=C4)C=C3)cc1
REMARK SMILES IDX 23 1 22 2 21 3 20 4 18 5 19 6 3 8 2 9 1 10 4 11 5 14 6 15
REMARK SMILES IDX 17 16 7 17 11 18 12 19 16 20 8 21 10 22 13 23 15 24 9 25
REMARK SMILES IDX 14 26 24 27 25 28 26 29 27 31 28 32 29 33 90 34 30 35 89 36
REMARK SMILES IDX 31 37 32 38 33 39 83 40 34 41 88 42 82 43 84 44 35 45 87 46
REMARK SMILES IDX 81 47 80 48 36 50 68 51 48 52 67 53 49 54 52 55 66 56 85 57
REMARK SMILES IDX 50 58 51 59 65 61 86 62 53 63 37 64 38 65 46 66 39 67 41 68
REMARK SMILES IDX 47 69 40 70 42 71 43 72 44 73 45 74 69 75 70 76 78 77 71 78
REMARK SMILES IDX 73 79 79 80 72 81 74 82 75 83 76 84 77 85 54 86 55 87 63 88
REMARK SMILES IDX 56 89 58 90 64 91 57 92 59 93 60 94 61 95 62 96
REMARK H PARENT 20 7 4 12 4 13 25 30 84 49 52 60
REMARK Flexibility Score: inf
ROOT
ATOM      1  C   UNL     1      -3.700   4.365  -1.342  1.00  0.00     0.023 C 
ENDROOT
BRANCH   1   2
ATOM      2  C   UNL     1      -2.753   3.180  -1.224  1.00  0.00     0.023 C 
BRANCH   2   3
ATOM      3  C   UNL     1      -1.940   2.864  -2.474  1.00  0.00     0.116 C 
BRANCH   3   4
ATOM      4  N   UNL     1      -0.640   3.494  -2.422  1.00  0.00    -0.351 N 
ATOM      5  C   UNL     1       0.586   3.033  -2.075  1.00  0.00     0.278 C 
ATOM      6  O   UNL     1       1.457   3.899  -1.915  1.00  0.00    -0.268 OA
ATOM      7  H   UNL     1      -0.647   4.441  -2.691  1.00  0.00     0.163 HD
BRANCH   5   8
ATOM      8  C   UNL     1       0.961   1.540  -1.873  1.00  0.00     0.273 C 
BRANCH   8   9
ATOM      9  C   UNL     1       0.861   0.626  -3.117  1.00  0.00     0.072 C 
ATOM     10  C   UNL     1      -0.458   0.029  -3.581  1.00  0.00     0.011 C 
ENDBRANCH   8   9
BRANCH   8  11
ATOM     11  N   UNL     1       0.737   1.044  -0.488  1.00  0.00    -0.326 N 
ATOM     12  H   UNL     1       0.903   1.825   0.146  1.00  0.00     0.347 HD
ATOM     13  H   UNL     1       1.377   0.256  -0.390  1.00  0.00     0.347 HD
BRANCH  11  14
ATOM     14  C   UNL     1      -0.564   0.501  -0.172  1.00  0.00     0.246 C 
ATOM     15  C   UNL     1      -0.616  -1.017  -0.030  1.00  0.00     0.022 A 
ATOM     16  C   UNL     1      -1.190   0.940   1.153  1.00  0.00     0.022 A 
ATOM     17  C   UNL     1      -0.000  -2.001  -0.787  1.00  0.00     0.011 A 
ATOM     18  C   UNL     1      -1.508  -1.361   1.010  1.00  0.00    -0.008 A 
ATOM     19  C   UNL     1      -1.869  -0.158   1.731  1.00  0.00    -0.008 A 
ATOM     20  C   UNL     1      -1.270   2.201   1.728  1.00  0.00     0.011 A 
ATOM     21  C   UNL     1      -0.336  -3.335  -0.551  1.00  0.00     0.001 A 
ATOM     22  C   UNL     1      -1.853  -2.683   1.238  1.00  0.00     0.009 A 
ATOM     23  C   UNL     1      -2.690   0.014   2.835  1.00  0.00     0.009 A 
ATOM     24  C   UNL     1      -2.100   2.375   2.840  1.00  0.00     0.001 A 
ATOM     25  C   UNL     1      -1.272  -3.671   0.438  1.00  0.00     0.001 A 
ATOM     26  C   UNL     1      -2.817   1.295   3.377  1.00  0.00     0.001 A 
ENDBRANCH  11  14
ENDBRANCH   8  11
ENDBRANCH   5   8
ENDBRANCH   3   4
ENDBRANCH   2   3
ENDBRANCH   1   2
BRANCH   1  27
ATOM     27  C   UNL     1      -4.775   4.222  -2.406  1.00  0.00     0.116 C 
BRANCH  27  28
ATOM     28  N   UNL     1      -5.598   3.027  -2.267  1.00  0.00    -0.352 N 
ATOM     29  C   UNL     1      -6.943   2.893  -2.546  1.00  0.00     0.251 C 
ATOM     30  H   UNL     1      -5.140   2.221  -1.936  1.00  0.00     0.163 HD
ATOM     31  O   UNL     1      -7.532   1.848  -2.331  1.00  0.00    -0.269 OA
BRANCH  29  32
ATOM     32  C   UNL     1      -7.660   4.078  -3.062  1.00  0.00     0.039 A 
ATOM     33  C   UNL     1      -8.753   4.567  -2.345  1.00  0.00     0.014 A 
ATOM     34  C   UNL     1      -7.156   4.775  -4.163  1.00  0.00     0.014 A 
ATOM     35  C   UNL     1      -9.283   5.815  -2.676  1.00  0.00     0.010 A 
ATOM     36  C   UNL     1      -7.630   6.052  -4.435  1.00  0.00     0.010 A 
ATOM     37  C   UNL     1      -8.689   6.590  -3.687  1.00  0.00    -0.014 A 
BRANCH  37  38
ATOM     38  C   UNL     1      -9.127   7.984  -3.950  1.00  0.00     0.031 A 
ATOM     39  C   UNL     1      -9.678   8.360  -5.298  1.00  0.00     0.074 A 
ATOM     40  C   UNL     1      -8.922   8.934  -3.015  1.00  0.00     0.049 A 
ATOM     41  N   UNL     1     -10.043   9.534  -5.739  1.00  0.00    -0.248 NA
ATOM     42  C   UNL     1      -9.802   7.281  -6.295  1.00  0.00     0.031 C 
ATOM     43  C   UNL     1      -8.298   8.716  -1.706  1.00  0.00     0.029 A 
ATOM     44  N   UNL     1      -9.186  10.281  -3.032  1.00  0.00    -0.354 N 
ATOM     45  C   UNL     1     -10.399   9.347  -7.068  1.00  0.00     0.074 A 
ATOM     46  C   UNL     1     -10.175   7.952  -7.375  1.00  0.00     0.031 C 
ATOM     47  C   UNL     1      -8.233   9.885  -1.048  1.00  0.00     0.029 A 
ATOM     48  C   UNL     1      -8.786  10.939  -1.891  1.00  0.00     0.049 A 
ATOM     49  H   UNL     1      -9.622  10.734  -3.789  1.00  0.00     0.167 HD
ATOM     50  C   UNL     1     -10.901  10.247  -7.945  1.00  0.00     0.034 A 
ATOM     51  C   UNL     1      -8.854  12.245  -1.564  1.00  0.00     0.034 A 
ATOM     52  C   UNL     1     -11.188  11.616  -7.617  1.00  0.00     0.049 A 
ATOM     53  C   UNL     1      -9.485  13.208  -2.533  1.00  0.00     0.074 A 
ATOM     54  C   UNL     1     -11.809  12.574  -8.398  1.00  0.00     0.029 A 
ATOM     55  N   UNL     1     -10.873  12.222  -6.412  1.00  0.00    -0.354 N 
ATOM     56  N   UNL     1      -9.993  12.970  -3.718  1.00  0.00    -0.248 NA
ATOM     57  C   UNL     1      -9.586  14.612  -2.108  1.00  0.00     0.031 C 
ATOM     58  C   UNL     1     -11.859  13.766  -7.668  1.00  0.00     0.029 A 
ATOM     59  C   UNL     1     -11.279  13.545  -6.429  1.00  0.00     0.049 A 
ATOM     60  H   UNL     1     -10.427  11.778  -5.655  1.00  0.00     0.167 HD
ATOM     61  C   UNL     1     -10.500  14.184  -4.166  1.00  0.00     0.074 A 
ATOM     62  C   UNL     1     -10.263  15.150  -3.113  1.00  0.00     0.031 C 
ATOM     63  C   UNL     1     -11.089  14.479  -5.351  1.00  0.00     0.034 A 
BRANCH  50  64
ATOM     64  C   UNL     1     -11.248   9.762  -9.327  1.00  0.00     0.023 A 
ATOM     65  C   UNL     1     -12.387   8.953  -9.508  1.00  0.00     0.012 A 
ATOM     66  C   UNL     1     -10.497  10.164 -10.448  1.00  0.00     0.148 A 
ATOM     67  C   UNL     1     -12.762   8.529 -10.782  1.00  0.00     0.002 A 
ATOM     68  C   UNL     1     -10.899   9.770 -11.719  1.00  0.00     0.091 A 
ATOM     69  F   UNL     1      -9.404  10.914 -10.251  1.00  0.00    -0.205 F 
ATOM     70  C   UNL     1     -12.025   8.947 -11.887  1.00  0.00     0.022 A 
BRANCH  68  71
ATOM     71  S   UNL     1     -10.063  10.313 -13.214  1.00  0.00     0.127 S 
ATOM     72  O   UNL     1      -9.443   9.070 -13.672  1.00  0.00    -0.237 OA
ATOM     73  O   UNL     1     -11.179  10.777 -14.039  1.00  0.00    -0.237 OA
ATOM     74  O   UNL     1      -9.137  11.357 -12.800  1.00  0.00    -0.744 OA
ENDBRANCH  68  71
ENDBRANCH  50  64
BRANCH  51  75
ATOM     75  C   UNL     1      -8.379  12.709  -0.229  1.00  0.00     0.023 A 
ATOM     76  C   UNL     1      -9.322  13.135   0.727  1.00  0.00     0.012 A 
ATOM     77  C   UNL     1      -7.012  12.717   0.107  1.00  0.00     0.148 A 
ATOM     78  C   UNL     1      -8.910  13.594   1.979  1.00  0.00     0.002 A 
ATOM     79  C   UNL     1      -6.612  13.124   1.376  1.00  0.00     0.091 A 
ATOM     80  F   UNL     1      -6.125  12.326  -0.819  1.00  0.00    -0.205 F 
ATOM     81  C   UNL     1      -7.558  13.579   2.308  1.00  0.00     0.022 A 
BRANCH  79  82
ATOM     82  S   UNL     1      -4.904  13.002   1.918  1.00  0.00     0.127 S 
ATOM     83  O   UNL     1      -4.446  14.382   1.779  1.00  0.00    -0.237 OA
ATOM     84  O   UNL     1      -5.049  12.536   3.298  1.00  0.00    -0.237 OA
ATOM     85  O   UNL     1      -4.288  12.029   1.025  1.00  0.00    -0.744 OA
ENDBRANCH  79  82
ENDBRANCH  51  75
BRANCH  63  86
ATOM     86  C   UNL     1     -11.541  15.898  -5.572  1.00  0.00     0.023 A 
ATOM     87  C   UNL     1     -10.583  16.899  -5.825  1.00  0.00     0.012 A 
ATOM     88  C   UNL     1     -12.910  16.223  -5.611  1.00  0.00     0.148 A 
ATOM     89  C   UNL     1     -10.980  18.209  -6.086  1.00  0.00     0.002 A 
ATOM     90  C   UNL     1     -13.301  17.521  -5.916  1.00  0.00     0.091 A 
ATOM     91  F   UNL     1     -13.805  15.259  -5.347  1.00  0.00    -0.205 F 
ATOM     92  C   UNL     1     -12.337  18.517  -6.144  1.00  0.00     0.022 A 
BRANCH  90  93
ATOM     93  S   UNL     1     -15.026  17.984  -6.104  1.00  0.00     0.127 S 
ATOM     94  O   UNL     1     -15.277  18.710  -4.861  1.00  0.00    -0.237 OA
ATOM     95  O   UNL     1     -14.997  18.821  -7.304  1.00  0.00    -0.237 OA
ATOM     96  O   UNL     1     -15.759  16.734  -6.261  1.00  0.00    -0.744 OA
ENDBRANCH  90  93
ENDBRANCH  63  86
ENDBRANCH  37  38
ENDBRANCH  29  32
ENDBRANCH  27  28
ENDBRANCH   1  27
TORSDOF 17
