REMARK SMILES O=C(NCCCCNC(=O)c1cc(Cl)ncc1-c1cccc(C(F)(F)F)c1)c1ccc(-c2c3nc(c(-c4cccc(S(=O)(=O)[O-])c4F)c4ccc([nH]4)c(-c4cccc(S(=O)(=O)[O-])c4F)c4nc(c(-c5cccc(S(=O)(=O)[O-])c5F)c5ccc2[nH]5)C=C4)C=C3)cc1
REMARK SMILES IDX 5 1 4 2 3 3 1 4 2 5 28 7 29 8 90 9 30 10 89 11 31 12 32 13
REMARK SMILES IDX 33 14 83 15 34 16 88 17 82 18 84 19 35 20 87 21 81 22 80 23
REMARK SMILES IDX 36 25 68 26 48 27 67 28 49 29 52 30 66 31 85 32 50 33 51 34
REMARK SMILES IDX 65 36 86 37 53 38 37 39 38 40 46 41 39 42 41 43 47 44 40 45
REMARK SMILES IDX 42 46 43 47 44 48 45 49 69 50 70 51 78 52 71 53 73 54 79 55
REMARK SMILES IDX 72 56 74 57 75 58 76 59 77 60 54 61 55 62 63 63 56 64 58 65
REMARK SMILES IDX 64 66 57 67 59 68 60 69 61 70 62 71 6 72 7 73 8 74 9 75
REMARK SMILES IDX 10 77 11 78 12 79 17 80 13 81 16 82 14 83 15 84 18 85 19 86
REMARK SMILES IDX 27 87 20 88 22 89 21 90 23 91 24 92 25 93 26 94
REMARK H PARENT 3 6 84 24 52 35 8 76
REMARK Flexibility Score: inf
ROOT
ATOM      1  C   UNL     1       5.105  -0.322   2.432  1.00  0.00     0.023 C 
ENDROOT
BRANCH   1   2
ATOM      2  C   UNL     1       4.723  -0.675   0.999  1.00  0.00     0.116 C 
BRANCH   2   3
ATOM      3  N   UNL     1       3.286  -0.774   0.804  1.00  0.00    -0.352 N 
ATOM      4  O   UNL     1       1.253  -0.219   0.023  1.00  0.00    -0.269 OA
ATOM      5  C   UNL     1       2.471  -0.095  -0.070  1.00  0.00     0.251 C 
ATOM      6  H   UNL     1       2.828  -1.424   1.384  1.00  0.00     0.163 HD
BRANCH   5   7
ATOM      7  C   UNL     1       3.057   0.800  -1.091  1.00  0.00     0.039 A 
ATOM      8  C   UNL     1       4.147   0.397  -1.867  1.00  0.00     0.014 A 
ATOM      9  C   UNL     1       2.491   2.064  -1.280  1.00  0.00     0.014 A 
ATOM     10  C   UNL     1       4.756   1.302  -2.734  1.00  0.00     0.010 A 
ATOM     11  C   UNL     1       3.060   2.946  -2.201  1.00  0.00     0.010 A 
ATOM     12  C   UNL     1       4.217   2.585  -2.911  1.00  0.00    -0.014 A 
BRANCH  12  13
ATOM     13  C   UNL     1       4.827   3.532  -3.876  1.00  0.00     0.031 A 
ATOM     14  C   UNL     1       5.428   4.827  -3.407  1.00  0.00     0.074 A 
ATOM     15  C   UNL     1       4.777   3.247  -5.191  1.00  0.00     0.049 A 
ATOM     16  N   UNL     1       5.919   5.811  -4.115  1.00  0.00    -0.248 NA
ATOM     17  C   UNL     1       5.472   5.053  -1.954  1.00  0.00     0.031 C 
ATOM     18  C   UNL     1       4.182   2.040  -5.766  1.00  0.00     0.029 A 
ATOM     19  N   UNL     1       5.196   3.966  -6.282  1.00  0.00    -0.354 N 
ATOM     20  C   UNL     1       6.287   6.792  -3.202  1.00  0.00     0.074 A 
ATOM     21  C   UNL     1       5.960   6.284  -1.886  1.00  0.00     0.031 C 
ATOM     22  C   UNL     1       4.254   2.109  -7.103  1.00  0.00     0.029 A 
ATOM     23  C   UNL     1       4.854   3.385  -7.480  1.00  0.00     0.049 A 
ATOM     24  H   UNL     1       5.692   4.814  -6.213  1.00  0.00     0.167 HD
ATOM     25  C   UNL     1       6.854   7.999  -3.439  1.00  0.00     0.034 A 
ATOM     26  C   UNL     1       4.973   3.840  -8.742  1.00  0.00     0.034 A 
ATOM     27  C   UNL     1       7.205   8.481  -4.748  1.00  0.00     0.049 A 
ATOM     28  C   UNL     1       5.619   5.173  -8.982  1.00  0.00     0.074 A 
ATOM     29  C   UNL     1       7.859   9.653  -5.086  1.00  0.00     0.029 A 
ATOM     30  N   UNL     1       6.918   7.827  -5.937  1.00  0.00    -0.354 N 
ATOM     31  N   UNL     1       6.087   6.027  -8.105  1.00  0.00    -0.248 NA
ATOM     32  C   UNL     1       5.783   5.595 -10.380  1.00  0.00     0.031 C 
ATOM     33  C   UNL     1       7.944   9.719  -6.481  1.00  0.00     0.029 A 
ATOM     34  C   UNL     1       7.368   8.575  -7.011  1.00  0.00     0.049 A 
ATOM     35  H   UNL     1       6.462   6.957  -6.006  1.00  0.00     0.167 HD
ATOM     36  C   UNL     1       6.631   7.072  -8.842  1.00  0.00     0.074 A 
ATOM     37  C   UNL     1       6.442   6.738 -10.239  1.00  0.00     0.031 C 
ATOM     38  C   UNL     1       7.224   8.207  -8.397  1.00  0.00     0.034 A 
BRANCH  25  39
ATOM     39  C   UNL     1       7.157   8.875  -2.251  1.00  0.00     0.023 A 
ATOM     40  C   UNL     1       8.218   8.538  -1.386  1.00  0.00     0.012 A 
ATOM     41  C   UNL     1       6.423  10.054  -2.014  1.00  0.00     0.148 A 
ATOM     42  C   UNL     1       8.520   9.338  -0.284  1.00  0.00     0.002 A 
ATOM     43  C   UNL     1       6.756  10.869  -0.937  1.00  0.00     0.091 A 
ATOM     44  F   UNL     1       5.402  10.350  -2.830  1.00  0.00    -0.205 F 
ATOM     45  C   UNL     1       7.795  10.507  -0.065  1.00  0.00     0.022 A 
BRANCH  43  46
ATOM     46  S   UNL     1       5.924  12.431  -0.627  1.00  0.00     0.127 S 
ATOM     47  O   UNL     1       4.987  12.062   0.433  1.00  0.00    -0.237 OA
ATOM     48  O   UNL     1       7.025  13.293  -0.194  1.00  0.00    -0.237 OA
ATOM     49  O   UNL     1       5.326  12.816  -1.898  1.00  0.00    -0.744 OA
ENDBRANCH  43  46
ENDBRANCH  25  39
BRANCH  26  50
ATOM     50  C   UNL     1       4.489   2.988  -9.863  1.00  0.00     0.023 A 
ATOM     51  C   UNL     1       5.421   2.334 -10.689  1.00  0.00     0.012 A 
ATOM     52  C   UNL     1       3.113   2.743 -10.044  1.00  0.00     0.148 A 
ATOM     53  C   UNL     1       4.991   1.457 -11.685  1.00  0.00     0.002 A 
ATOM     54  C   UNL     1       2.695   1.825 -11.000  1.00  0.00     0.091 A 
ATOM     55  F   UNL     1       2.245   3.382  -9.248  1.00  0.00    -0.205 F 
ATOM     56  C   UNL     1       3.631   1.192 -11.831  1.00  0.00     0.022 A 
BRANCH  54  57
ATOM     57  S   UNL     1       0.981   1.310 -11.161  1.00  0.00     0.127 S 
ATOM     58  O   UNL     1       0.631   1.845 -12.474  1.00  0.00    -0.237 OA
ATOM     59  O   UNL     1       1.101  -0.148 -11.100  1.00  0.00    -0.237 OA
ATOM     60  O   UNL     1       0.281   1.904 -10.031  1.00  0.00    -0.744 OA
ENDBRANCH  54  57
ENDBRANCH  26  50
BRANCH  38  61
ATOM     61  C   UNL     1       7.759   9.170  -9.423  1.00  0.00     0.023 A 
ATOM     62  C   UNL     1       6.870   9.996 -10.138  1.00  0.00     0.012 A 
ATOM     63  C   UNL     1       9.148   9.334  -9.591  1.00  0.00     0.148 A 
ATOM     64  C   UNL     1       7.358  10.963 -11.018  1.00  0.00     0.002 A 
ATOM     65  C   UNL     1       9.627  10.329 -10.434  1.00  0.00     0.091 A 
ATOM     66  F   UNL     1       9.973   8.524  -8.913  1.00  0.00    -0.205 F 
ATOM     67  C   UNL     1       8.733  11.139 -11.155  1.00  0.00     0.022 A 
BRANCH  65  68
ATOM     68  S   UNL     1      11.378  10.694 -10.601  1.00  0.00     0.127 S 
ATOM     69  O   UNL     1      11.646  10.249 -11.968  1.00  0.00    -0.237 OA
ATOM     70  O   UNL     1      11.411  12.144 -10.414  1.00  0.00    -0.237 OA
ATOM     71  O   UNL     1      12.050   9.932  -9.557  1.00  0.00    -0.744 OA
ENDBRANCH  65  68
ENDBRANCH  38  61
ENDBRANCH  12  13
ENDBRANCH   5   7
ENDBRANCH   2   3
ENDBRANCH   1   2
BRANCH   1  72
ATOM     72  C   UNL     1       4.612  -1.292   3.505  1.00  0.00     0.023 C 
BRANCH  72  73
ATOM     73  C   UNL     1       4.924  -2.763   3.252  1.00  0.00     0.116 C 
BRANCH  73  74
ATOM     74  N   UNL     1       6.351  -3.038   3.167  1.00  0.00    -0.352 N 
ATOM     75  C   UNL     1       7.126  -3.873   3.931  1.00  0.00     0.252 C 
ATOM     76  H   UNL     1       6.830  -2.553   2.457  1.00  0.00     0.163 HD
ATOM     77  O   UNL     1       8.328  -3.990   3.717  1.00  0.00    -0.269 OA
BRANCH  75  78
ATOM     78  C   UNL     1       6.497  -4.648   5.016  1.00  0.00     0.052 A 
ATOM     79  C   UNL     1       5.534  -5.596   4.652  1.00  0.00     0.055 A 
ATOM     80  C   UNL     1       6.876  -4.472   6.357  1.00  0.00     0.013 A 
ATOM     81  C   UNL     1       4.916  -6.292   5.665  1.00  0.00     0.129 A 
ATOM     82  C   UNL     1       6.170  -5.246   7.279  1.00  0.00     0.122 A 
ATOM     83  Cl  UNL     1       3.679  -7.428   5.325  1.00  0.00    -0.062 Cl
ATOM     84  N   UNL     1       5.197  -6.137   6.971  1.00  0.00    -0.244 NA
BRANCH  80  85
ATOM     85  C   UNL     1       7.945  -3.569   6.817  1.00  0.00    -0.015 A 
ATOM     86  C   UNL     1       9.042  -4.084   7.530  1.00  0.00     0.009 A 
ATOM     87  C   UNL     1       7.909  -2.186   6.572  1.00  0.00     0.021 A 
ATOM     88  C   UNL     1      10.067  -3.252   7.984  1.00  0.00     0.001 A 
ATOM     89  C   UNL     1       8.941  -1.338   7.012  1.00  0.00     0.056 A 
ATOM     90  C   UNL     1      10.017  -1.885   7.726  1.00  0.00     0.013 A 
BRANCH  89  91
ATOM     91  C   UNL     1       8.908   0.145   6.732  1.00  0.00     0.416 C 
ATOM     92  F   UNL     1       8.814   0.880   7.876  1.00  0.00    -0.166 F 
ATOM     93  F   UNL     1      10.030   0.584   6.098  1.00  0.00    -0.166 F 
ATOM     94  F   UNL     1       7.859   0.530   5.954  1.00  0.00    -0.166 F 
ENDBRANCH  89  91
ENDBRANCH  80  85
ENDBRANCH  75  78
ENDBRANCH  73  74
ENDBRANCH  72  73
ENDBRANCH   1  72
TORSDOF 16
