REMARK SMILES Cc1nc(CCC(F)(F)F)[nH]c(=O)c1CCC(=O)NCCCCNC(=O)c1ccc(-c2c3nc(c(-c4cccc(S(=O)(=O)[O-])c4F)c4ccc([nH]4)c(-c4cccc(S(=O)(=O)[O-])c4F)c4nc(c(-c5cccc(S(=O)(=O)[O-])c5F)c5ccc2[nH]5)C=C4)C=C3)cc1
REMARK SMILES IDX 20 1 19 2 17 3 18 4 16 6 15 7 14 8 1 9 2 10 3 11 4 12 12 13
REMARK SMILES IDX 11 14 13 15 5 17 6 18 7 19 8 20 9 21 10 22 21 23 22 24 23 25
REMARK SMILES IDX 24 26 25 27 26 29 27 30 28 31 89 32 29 33 88 34 30 35 31 36
REMARK SMILES IDX 32 37 82 38 33 39 87 40 81 41 83 42 34 43 86 44 80 45 79 46
REMARK SMILES IDX 35 48 67 49 47 50 66 51 48 52 51 53 65 54 84 55 49 56 50 57
REMARK SMILES IDX 64 59 85 60 52 61 36 62 37 63 45 64 38 65 40 66 46 67 39 68
REMARK SMILES IDX 41 69 42 70 43 71 44 72 68 73 69 74 77 75 70 76 72 77 78 78
REMARK SMILES IDX 71 79 73 80 74 81 75 82 76 83 53 84 54 85 62 86 55 87 57 88
REMARK SMILES IDX 63 89 56 90 58 91 59 92 60 93 61 94
REMARK H PARENT 19 5 11 16 24 28 83 47 51 58
REMARK Flexibility Score: inf
ROOT
ATOM      1  C   UNL     1       2.613  -0.596  -1.520  1.00  0.00     0.116 C 
ENDROOT
BRANCH   1   2
ATOM      2  N   UNL     1       2.672  -2.018  -1.221  1.00  0.00    -0.356 N 
ATOM      3  C   UNL     1       1.711  -2.970  -1.102  1.00  0.00     0.220 C 
ATOM      4  O   UNL     1       2.057  -4.124  -0.839  1.00  0.00    -0.275 OA
ATOM      5  H   UNL     1       3.585  -2.356  -1.077  1.00  0.00     0.163 HD
BRANCH   3   6
ATOM      6  C   UNL     1       0.248  -2.649  -1.320  1.00  0.00     0.105 C 
BRANCH   6   7
ATOM      7  C   UNL     1      -0.553  -2.646  -0.007  1.00  0.00     0.053 C 
BRANCH   7   8
ATOM      8  C   UNL     1      -0.879  -1.238   0.411  1.00  0.00     0.039 A 
ATOM      9  C   UNL     1      -3.256  -1.239  -0.336  1.00  0.00     0.067 C 
ATOM     10  C   UNL     1      -2.026  -0.561   0.204  1.00  0.00     0.048 A 
ATOM     11  N   UNL     1      -2.144   0.805   0.359  1.00  0.00    -0.240 NA
ATOM     12  C   UNL     1      -1.103   1.466   0.754  1.00  0.00     0.109 A 
ATOM     13  C   UNL     1       0.187  -0.502   1.115  1.00  0.00     0.254 A 
ATOM     14  N   UNL     1       0.042   0.849   1.140  1.00  0.00    -0.310 N 
ATOM     15  O   UNL     1       1.149  -1.067   1.616  1.00  0.00    -0.269 OA
ATOM     16  H   UNL     1       0.797   1.400   1.450  1.00  0.00     0.171 HD
BRANCH  12  17
ATOM     17  C   UNL     1      -1.098   2.982   0.673  1.00  0.00     0.084 C 
BRANCH  17  18
ATOM     18  C   UNL     1      -0.706   3.776   1.914  1.00  0.00     0.123 C 
BRANCH  18  19
ATOM     19  C   UNL     1       0.766   3.736   2.264  1.00  0.00     0.389 C 
ATOM     20  F   UNL     1       1.550   4.029   1.212  1.00  0.00    -0.171 F 
ATOM     21  F   UNL     1       1.047   4.609   3.252  1.00  0.00    -0.171 F 
ATOM     22  F   UNL     1       1.122   2.506   2.695  1.00  0.00    -0.171 F 
ENDBRANCH  18  19
ENDBRANCH  17  18
ENDBRANCH  12  17
ENDBRANCH   7   8
ENDBRANCH   6   7
ENDBRANCH   3   6
ENDBRANCH   1   2
BRANCH   1  23
ATOM     23  C   UNL     1       3.213   0.234  -0.381  1.00  0.00     0.023 C 
BRANCH  23  24
ATOM     24  C   UNL     1       4.089   1.413  -0.786  1.00  0.00     0.023 C 
BRANCH  24  25
ATOM     25  C   UNL     1       3.619   2.243  -1.971  1.00  0.00     0.116 C 
BRANCH  25  26
ATOM     26  N   UNL     1       2.391   3.002  -1.757  1.00  0.00    -0.352 N 
ATOM     27  C   UNL     1       2.191   4.367  -1.655  1.00  0.00     0.251 C 
ATOM     28  H   UNL     1       1.575   2.457  -1.673  1.00  0.00     0.163 HD
ATOM     29  O   UNL     1       1.058   4.812  -1.483  1.00  0.00    -0.269 OA
BRANCH  27  30
ATOM     30  C   UNL     1       3.347   5.290  -1.702  1.00  0.00     0.039 A 
ATOM     31  C   UNL     1       3.497   6.266  -0.714  1.00  0.00     0.014 A 
ATOM     32  C   UNL     1       4.325   5.138  -2.679  1.00  0.00     0.014 A 
ATOM     33  C   UNL     1       4.694   6.989  -0.629  1.00  0.00     0.010 A 
ATOM     34  C   UNL     1       5.562   5.741  -2.501  1.00  0.00     0.010 A 
ATOM     35  C   UNL     1       5.771   6.675  -1.474  1.00  0.00    -0.014 A 
BRANCH  35  36
ATOM     36  C   UNL     1       7.130   7.274  -1.327  1.00  0.00     0.031 A 
ATOM     37  C   UNL     1       7.811   7.869  -2.537  1.00  0.00     0.074 A 
ATOM     38  C   UNL     1       7.820   7.139  -0.174  1.00  0.00     0.049 A 
ATOM     39  N   UNL     1       9.069   8.181  -2.710  1.00  0.00    -0.248 NA
ATOM     40  C   UNL     1       6.978   8.070  -3.736  1.00  0.00     0.031 C 
ATOM     41  C   UNL     1       7.329   6.500   1.049  1.00  0.00     0.029 A 
ATOM     42  N   UNL     1       9.109   7.498   0.142  1.00  0.00    -0.354 N 
ATOM     43  C   UNL     1       9.192   8.521  -4.053  1.00  0.00     0.074 A 
ATOM     44  C   UNL     1       7.890   8.341  -4.656  1.00  0.00     0.031 C 
ATOM     45  C   UNL     1       8.294   6.523   1.982  1.00  0.00     0.029 A 
ATOM     46  C   UNL     1       9.490   7.136   1.415  1.00  0.00     0.049 A 
ATOM     47  H   UNL     1       9.705   7.971  -0.483  1.00  0.00     0.167 HD
ATOM     48  C   UNL     1      10.277   8.980  -4.721  1.00  0.00     0.034 A 
ATOM     49  C   UNL     1      10.671   7.270   2.051  1.00  0.00     0.034 A 
ATOM     50  C   UNL     1      11.531   9.287  -4.092  1.00  0.00     0.049 A 
ATOM     51  C   UNL     1      11.821   7.918   1.326  1.00  0.00     0.074 A 
ATOM     52  C   UNL     1      12.654   9.872  -4.649  1.00  0.00     0.029 A 
ATOM     53  N   UNL     1      11.816   9.065  -2.754  1.00  0.00    -0.354 N 
ATOM     54  N   UNL     1      11.878   8.350   0.090  1.00  0.00    -0.248 NA
ATOM     55  C   UNL     1      13.059   8.128   2.092  1.00  0.00     0.031 C 
ATOM     56  C   UNL     1      13.614  10.018  -3.643  1.00  0.00     0.029 A 
ATOM     57  C   UNL     1      13.087   9.524  -2.460  1.00  0.00     0.049 A 
ATOM     58  H   UNL     1      11.204   8.643  -2.108  1.00  0.00     0.167 HD
ATOM     59  C   UNL     1      13.140   8.914  -0.059  1.00  0.00     0.074 A 
ATOM     60  C   UNL     1      13.808   8.789   1.220  1.00  0.00     0.031 C 
ATOM     61  C   UNL     1      13.705   9.463  -1.162  1.00  0.00     0.034 A 
BRANCH  48  62
ATOM     62  C   UNL     1      10.124   9.270  -6.192  1.00  0.00     0.023 A 
ATOM     63  C   UNL     1       9.345  10.372  -6.603  1.00  0.00     0.012 A 
ATOM     64  C   UNL     1      10.779   8.489  -7.164  1.00  0.00     0.148 A 
ATOM     65  C   UNL     1       9.181  10.664  -7.955  1.00  0.00     0.002 A 
ATOM     66  C   UNL     1      10.650   8.815  -8.510  1.00  0.00     0.091 A 
ATOM     67  F   UNL     1      11.501   7.434  -6.759  1.00  0.00    -0.205 F 
ATOM     68  C   UNL     1       9.841   9.893  -8.907  1.00  0.00     0.022 A 
BRANCH  66  69
ATOM     69  S   UNL     1      11.524   7.936  -9.811  1.00  0.00     0.127 S 
ATOM     70  O   UNL     1      10.437   7.189 -10.443  1.00  0.00    -0.237 OA
ATOM     71  O   UNL     1      12.059   9.033 -10.618  1.00  0.00    -0.237 OA
ATOM     72  O   UNL     1      12.533   7.129  -9.140  1.00  0.00    -0.744 OA
ENDBRANCH  66  69
ENDBRANCH  48  62
BRANCH  49  73
ATOM     73  C   UNL     1      10.805   6.862   3.479  1.00  0.00     0.023 A 
ATOM     74  C   UNL     1      10.910   7.864   4.466  1.00  0.00     0.012 A 
ATOM     75  C   UNL     1      10.807   5.511   3.873  1.00  0.00     0.148 A 
ATOM     76  C   UNL     1      11.050   7.527   5.813  1.00  0.00     0.002 A 
ATOM     77  C   UNL     1      10.896   5.184   5.223  1.00  0.00     0.091 A 
ATOM     78  F   UNL     1      10.721   4.570   2.922  1.00  0.00    -0.205 F 
ATOM     79  C   UNL     1      11.034   6.189   6.192  1.00  0.00     0.022 A 
BRANCH  77  80
ATOM     80  S   UNL     1      10.754   3.490   5.808  1.00  0.00     0.127 S 
ATOM     81  O   UNL     1      12.145   3.156   6.099  1.00  0.00    -0.237 OA
ATOM     82  O   UNL     1       9.897   3.643   6.985  1.00  0.00    -0.237 OA
ATOM     83  O   UNL     1      10.135   2.756   4.712  1.00  0.00    -0.744 OA
ENDBRANCH  77  80
ENDBRANCH  49  73
BRANCH  61  84
ATOM     84  C   UNL     1      15.098  10.016  -1.034  1.00  0.00     0.023 A 
ATOM     85  C   UNL     1      16.195   9.135  -0.978  1.00  0.00     0.012 A 
ATOM     86  C   UNL     1      15.325  11.406  -1.065  1.00  0.00     0.148 A 
ATOM     87  C   UNL     1      17.497   9.629  -0.932  1.00  0.00     0.002 A 
ATOM     88  C   UNL     1      16.627  11.891  -1.063  1.00  0.00     0.091 A 
ATOM     89  F   UNL     1      14.265  12.228  -1.097  1.00  0.00    -0.205 F 
ATOM     90  C   UNL     1      17.714  11.004  -0.988  1.00  0.00     0.022 A 
BRANCH  88  91
ATOM     91  S   UNL     1      16.997  13.641  -1.226  1.00  0.00     0.127 S 
ATOM     92  O   UNL     1      17.348  14.001   0.146  1.00  0.00    -0.237 OA
ATOM     93  O   UNL     1      18.121  13.638  -2.163  1.00  0.00    -0.237 OA
ATOM     94  O   UNL     1      15.783  14.256  -1.747  1.00  0.00    -0.744 OA
ENDBRANCH  88  91
ENDBRANCH  61  84
ENDBRANCH  35  36
ENDBRANCH  27  30
ENDBRANCH  25  26
ENDBRANCH  24  25
ENDBRANCH  23  24
ENDBRANCH   1  23
TORSDOF 19
