REMARK SMILES CCC[C@@H](C(=O)N1CC[C@@](C)(C(=O)NCCCCNC(=O)c2ccc(-c3c4nc(c(-c5cccc(S(=O)(=O)[O-])c5F)c5ccc([nH]5)c(-c5cccc(S(=O)(=O)[O-])c5F)c5nc(c(-c6cccc(S(=O)(=O)[O-])c6F)c6ccc3[nH]6)C=C5)C=C4)cc2)C1)c1ccccc1
REMARK SMILES IDX 16 1 15 2 14 3 12 4 13 5 10 7 7 8 8 9 85 10 9 11 11 12 5 13
REMARK SMILES IDX 6 14 4 15 3 16 2 17 1 18 86 19 87 20 91 21 88 22 90 23 89 24
REMARK SMILES IDX 17 25 18 26 19 27 20 28 21 30 22 31 23 32 84 33 24 34 83 35
REMARK SMILES IDX 25 36 26 37 27 38 77 39 28 40 82 41 76 42 78 43 29 44 81 45
REMARK SMILES IDX 75 46 74 47 30 49 62 50 42 51 61 52 43 53 46 54 60 55 79 56
REMARK SMILES IDX 44 57 45 58 59 60 80 61 47 62 31 63 32 64 40 65 33 66 35 67
REMARK SMILES IDX 41 68 34 69 36 70 37 71 38 72 39 73 63 74 64 75 72 76 65 77
REMARK SMILES IDX 67 78 73 79 66 80 68 81 69 82 70 83 71 84 48 85 49 86 57 87
REMARK SMILES IDX 50 88 52 89 58 90 51 91 53 92 54 93 55 94 56 95
REMARK H PARENT 14 6 19 29 78 48 46 59
REMARK Flexibility Score: inf
ROOT
ATOM      1  C   UNL     1      -5.975   0.844   2.049  1.00  0.00     0.023 C 
ENDROOT
BRANCH   1   2
ATOM      2  C   UNL     1      -5.535   1.665   0.839  1.00  0.00     0.116 C 
BRANCH   2   3
ATOM      3  N   UNL     1      -4.135   2.007   0.942  1.00  0.00    -0.356 N 
ATOM      4  C   UNL     1      -3.031   1.481   0.354  1.00  0.00     0.227 C 
ATOM      5  O   UNL     1      -1.954   1.933   0.753  1.00  0.00    -0.274 OA
ATOM      6  H   UNL     1      -3.947   2.758   1.550  1.00  0.00     0.163 HD
BRANCH   4   7
ATOM      7  C   UNL     1      -3.113   0.483  -0.817  1.00  0.00     0.066 C 
ATOM      8  N   UNL     1      -1.594  -1.416  -0.742  1.00  0.00    -0.341 N 
ATOM      9  C   UNL     1      -2.798  -1.777  -0.025  1.00  0.00     0.120 C 
ATOM     10  C   UNL     1      -1.688  -0.023  -1.150  1.00  0.00     0.136 C 
ATOM     11  C   UNL     1      -3.865  -0.829  -0.547  1.00  0.00     0.040 C 
ATOM     12  C   UNL     1      -3.678   1.227  -2.038  1.00  0.00     0.024 C 
BRANCH   8  13
ATOM     13  C   UNL     1      -1.012  -2.318  -1.626  1.00  0.00     0.230 C 
ATOM     14  O   UNL     1      -1.706  -2.956  -2.418  1.00  0.00    -0.274 OA
BRANCH  13  15
ATOM     15  C   UNL     1       0.522  -2.531  -1.451  1.00  0.00     0.108 C 
BRANCH  15  16
ATOM     16  C   UNL     1       1.396  -1.442  -2.129  1.00  0.00     0.018 C 
BRANCH  16  17
ATOM     17  C   UNL     1       1.519  -0.039  -1.527  1.00  0.00    -0.002 C 
ATOM     18  C   UNL     1       1.716   0.006  -0.021  1.00  0.00     0.004 C 
ENDBRANCH  16  17
ENDBRANCH  15  16
BRANCH  15  19
ATOM     19  C   UNL     1       0.927  -3.962  -1.897  1.00  0.00    -0.036 A 
ATOM     20  C   UNL     1       0.295  -5.073  -1.306  1.00  0.00     0.004 A 
ATOM     21  C   UNL     1       1.923  -4.225  -2.857  1.00  0.00     0.004 A 
ATOM     22  C   UNL     1       0.640  -6.381  -1.665  1.00  0.00     0.000 A 
ATOM     23  C   UNL     1       2.287  -5.532  -3.194  1.00  0.00     0.000 A 
ATOM     24  C   UNL     1       1.643  -6.611  -2.602  1.00  0.00     0.000 A 
ENDBRANCH  15  19
ENDBRANCH  13  15
ENDBRANCH   8  13
ENDBRANCH   4   7
ENDBRANCH   2   3
ENDBRANCH   1   2
BRANCH   1  25
ATOM     25  C   UNL     1      -6.015   1.627   3.363  1.00  0.00     0.023 C 
BRANCH  25  26
ATOM     26  C   UNL     1      -6.896   2.870   3.350  1.00  0.00     0.116 C 
BRANCH  26  27
ATOM     27  N   UNL     1      -8.259   2.597   2.914  1.00  0.00    -0.352 N 
ATOM     28  C   UNL     1      -9.437   3.087   3.430  1.00  0.00     0.251 C 
ATOM     29  H   UNL     1      -8.350   1.982   2.151  1.00  0.00     0.163 HD
ATOM     30  O   UNL     1     -10.515   2.677   3.025  1.00  0.00    -0.269 OA
BRANCH  28  31
ATOM     31  C   UNL     1      -9.368   4.092   4.508  1.00  0.00     0.039 A 
ATOM     32  C   UNL     1     -10.027   3.837   5.713  1.00  0.00     0.014 A 
ATOM     33  C   UNL     1      -8.583   5.236   4.348  1.00  0.00     0.014 A 
ATOM     34  C   UNL     1      -9.829   4.696   6.794  1.00  0.00     0.010 A 
ATOM     35  C   UNL     1      -8.338   6.053   5.444  1.00  0.00     0.010 A 
ATOM     36  C   UNL     1      -8.949   5.784   6.679  1.00  0.00    -0.014 A 
BRANCH  36  37
ATOM     37  C   UNL     1      -8.608   6.635   7.845  1.00  0.00     0.031 A 
ATOM     38  C   UNL     1      -8.972   8.091   7.845  1.00  0.00     0.074 A 
ATOM     39  C   UNL     1      -7.865   6.119   8.844  1.00  0.00     0.049 A 
ATOM     40  N   UNL     1      -8.677   9.013   8.723  1.00  0.00    -0.248 NA
ATOM     41  C   UNL     1      -9.745   8.582   6.692  1.00  0.00     0.031 C 
ATOM     42  C   UNL     1      -7.389   4.735   8.918  1.00  0.00     0.029 A 
ATOM     43  N   UNL     1      -7.352   6.706   9.973  1.00  0.00    -0.354 N 
ATOM     44  C   UNL     1      -9.191  10.198   8.213  1.00  0.00     0.074 A 
ATOM     45  C   UNL     1      -9.792   9.884   6.934  1.00  0.00     0.031 C 
ATOM     46  C   UNL     1      -6.662   4.579  10.035  1.00  0.00     0.029 A 
ATOM     47  C   UNL     1      -6.590   5.855  10.739  1.00  0.00     0.049 A 
ATOM     48  H   UNL     1      -7.514   7.647  10.212  1.00  0.00     0.167 HD
ATOM     49  C   UNL     1      -9.191  11.431   8.772  1.00  0.00     0.034 A 
ATOM     50  C   UNL     1      -5.906   6.080  11.878  1.00  0.00     0.034 A 
ATOM     51  C   UNL     1      -8.637  11.726  10.065  1.00  0.00     0.049 A 
ATOM     52  C   UNL     1      -5.935   7.456  12.486  1.00  0.00     0.074 A 
ATOM     53  C   UNL     1      -8.683  12.915  10.770  1.00  0.00     0.029 A 
ATOM     54  N   UNL     1      -7.928  10.825  10.845  1.00  0.00    -0.354 N 
ATOM     55  N   UNL     1      -6.572   8.526  12.075  1.00  0.00    -0.248 NA
ATOM     56  C   UNL     1      -5.172   7.650  13.727  1.00  0.00     0.031 C 
ATOM     57  C   UNL     1      -7.985  12.738  11.970  1.00  0.00     0.029 A 
ATOM     58  C   UNL     1      -7.514  11.435  12.016  1.00  0.00     0.049 A 
ATOM     59  H   UNL     1      -7.745   9.889  10.601  1.00  0.00     0.167 HD
ATOM     60  C   UNL     1      -6.315   9.510  13.022  1.00  0.00     0.074 A 
ATOM     61  C   UNL     1      -5.477   8.904  14.037  1.00  0.00     0.031 C 
ATOM     62  C   UNL     1      -6.723  10.803  13.042  1.00  0.00     0.034 A 
BRANCH  49  63
ATOM     63  C   UNL     1      -9.866  12.538   8.008  1.00  0.00     0.023 A 
ATOM     64  C   UNL     1     -11.273  12.555   7.912  1.00  0.00     0.012 A 
ATOM     65  C   UNL     1      -9.121  13.574   7.413  1.00  0.00     0.148 A 
ATOM     66  C   UNL     1     -11.925  13.563   7.204  1.00  0.00     0.002 A 
ATOM     67  C   UNL     1      -9.781  14.598   6.743  1.00  0.00     0.091 A 
ATOM     68  F   UNL     1      -7.783  13.528   7.488  1.00  0.00    -0.205 F 
ATOM     69  C   UNL     1     -11.181  14.588   6.628  1.00  0.00     0.022 A 
BRANCH  67  70
ATOM     70  S   UNL     1      -8.906  15.996   6.031  1.00  0.00     0.127 S 
ATOM     71  O   UNL     1      -8.871  15.634   4.615  1.00  0.00    -0.237 OA
ATOM     72  O   UNL     1      -9.793  17.116   6.351  1.00  0.00    -0.237 OA
ATOM     73  O   UNL     1      -7.617  16.038   6.707  1.00  0.00    -0.744 OA
ENDBRANCH  67  70
ENDBRANCH  49  63
BRANCH  50  74
ATOM     74  C   UNL     1      -5.208   4.955  12.560  1.00  0.00     0.023 A 
ATOM     75  C   UNL     1      -5.743   4.452  13.763  1.00  0.00     0.012 A 
ATOM     76  C   UNL     1      -4.058   4.353  12.015  1.00  0.00     0.148 A 
ATOM     77  C   UNL     1      -5.134   3.384  14.421  1.00  0.00     0.002 A 
ATOM     78  C   UNL     1      -3.484   3.257  12.651  1.00  0.00     0.091 A 
ATOM     79  F   UNL     1      -3.557   4.854  10.877  1.00  0.00    -0.205 F 
ATOM     80  C   UNL     1      -4.012   2.780  13.861  1.00  0.00     0.022 A 
BRANCH  78  81
ATOM     81  S   UNL     1      -2.115   2.336  11.939  1.00  0.00     0.127 S 
ATOM     82  O   UNL     1      -1.016   2.697  12.830  1.00  0.00    -0.237 OA
ATOM     83  O   UNL     1      -2.583   0.955  12.064  1.00  0.00    -0.237 OA
ATOM     84  O   UNL     1      -2.000   2.806  10.565  1.00  0.00    -0.744 OA
ENDBRANCH  78  81
ENDBRANCH  50  74
BRANCH  62  85
ATOM     85  C   UNL     1      -6.289  11.654  14.205  1.00  0.00     0.023 A 
ATOM     86  C   UNL     1      -4.959  12.116  14.269  1.00  0.00     0.012 A 
ATOM     87  C   UNL     1      -7.215  12.068  15.182  1.00  0.00     0.148 A 
ATOM     88  C   UNL     1      -4.552  12.960  15.301  1.00  0.00     0.002 A 
ATOM     89  C   UNL     1      -6.812  12.945  16.183  1.00  0.00     0.091 A 
ATOM     90  F   UNL     1      -8.470  11.602  15.113  1.00  0.00    -0.205 F 
ATOM     91  C   UNL     1      -5.480  13.384  16.249  1.00  0.00     0.022 A 
BRANCH  89  92
ATOM     92  S   UNL     1      -7.958  13.618  17.392  1.00  0.00     0.127 S 
ATOM     93  O   UNL     1      -7.556  12.913  18.608  1.00  0.00    -0.237 OA
ATOM     94  O   UNL     1      -7.626  15.043  17.376  1.00  0.00    -0.237 OA
ATOM     95  O   UNL     1      -9.292  13.303  16.899  1.00  0.00    -0.744 OA
ENDBRANCH  89  92
ENDBRANCH  62  85
ENDBRANCH  36  37
ENDBRANCH  28  31
ENDBRANCH  26  27
ENDBRANCH  25  26
ENDBRANCH   1  25
TORSDOF 19
