REMARK SMILES CC1=C(CC(=O)NCCCCNC(=O)c2ccc(-c3c4nc(c(-c5cccc(S(=O)(=O)[O-])c5F)c5ccc([nH]5)c(-c5cccc(S(=O)(=O)[O-])c5F)c5nc(c(-c6cccc(S(=O)(=O)[O-])c6F)c6ccc3[nH]6)C=C5)C=C4)cc2)c2cc(F)ccc2/C1=C\c1ccc([S@@+](C)[O-])cc1
REMARK SMILES IDX 9 1 8 2 7 3 5 4 6 5 4 7 3 8 1 9 2 10 85 11 78 12 84 13 86 14
REMARK SMILES IDX 79 15 83 16 80 17 82 18 81 19 87 20 88 21 95 22 89 23 94 24
REMARK SMILES IDX 90 25 91 26 92 27 93 28 10 29 11 30 12 31 13 32 14 34 15 35
REMARK SMILES IDX 16 36 77 37 17 38 76 39 18 40 19 41 20 42 70 43 21 44 75 45
REMARK SMILES IDX 69 46 71 47 22 48 74 49 68 50 67 51 23 53 55 54 35 55 54 56
REMARK SMILES IDX 36 57 39 58 53 59 72 60 37 61 38 62 52 64 73 65 40 66 24 67
REMARK SMILES IDX 25 68 33 69 26 70 28 71 34 72 27 73 29 74 30 75 31 76 32 77
REMARK SMILES IDX 56 78 57 79 65 80 58 81 60 82 66 83 59 84 61 85 62 86 63 87
REMARK SMILES IDX 64 88 41 89 42 90 50 91 43 92 45 93 51 94 44 95 46 96 47 97
REMARK SMILES IDX 48 98 49 99
REMARK H PARENT 7 6 12 33 71 52 39 63
REMARK Flexibility Score: inf
ROOT
ATOM      1  C   UNL     1       1.591   1.248   3.341  1.00  0.00     0.023 C 
ENDROOT
BRANCH   1   2
ATOM      2  C   UNL     1       0.555   0.124   3.303  1.00  0.00     0.116 C 
BRANCH   2   3
ATOM      3  N   UNL     1      -0.775   0.591   3.634  1.00  0.00    -0.356 N 
ATOM      4  C   UNL     1      -1.795   0.932   2.795  1.00  0.00     0.224 C 
ATOM      5  O   UNL     1      -2.855   1.325   3.287  1.00  0.00    -0.275 OA
ATOM      6  H   UNL     1      -0.970   0.673   4.596  1.00  0.00     0.163 HD
BRANCH   4   7
ATOM      7  C   UNL     1      -1.637   0.788   1.282  1.00  0.00     0.136 C 
BRANCH   7   8
ATOM      8  C   UNL     1      -0.665   1.756   0.685  1.00  0.00    -0.027 C 
ATOM      9  C   UNL     1       1.026   0.194  -0.437  1.00  0.00     0.045 C 
ATOM     10  C   UNL     1       0.465   1.514  -0.022  1.00  0.00    -0.039 C 
ATOM     11  C   UNL     1       1.135   2.789  -0.333  1.00  0.00    -0.014 C 
ATOM     12  C   UNL     1      -0.831   3.218   0.783  1.00  0.00    -0.011 A 
ATOM     13  C   UNL     1       0.234   3.863   0.128  1.00  0.00    -0.010 A 
ATOM     14  C   UNL     1       2.371   2.888  -0.862  1.00  0.00     0.017 C 
ATOM     15  C   UNL     1      -1.845   3.955   1.381  1.00  0.00     0.048 A 
ATOM     16  C   UNL     1       0.258   5.248   0.017  1.00  0.00     0.012 A 
ATOM     17  C   UNL     1      -1.783   5.344   1.307  1.00  0.00     0.123 A 
ATOM     18  C   UNL     1      -0.753   5.992   0.627  1.00  0.00     0.040 A 
ATOM     19  F   UNL     1      -2.744   6.077   1.885  1.00  0.00    -0.207 F 
BRANCH  14  20
ATOM     20  C   UNL     1       3.088   4.140  -1.111  1.00  0.00    -0.025 A 
ATOM     21  C   UNL     1       3.551   4.928  -0.051  1.00  0.00     0.013 A 
ATOM     22  C   UNL     1       3.216   4.606  -2.421  1.00  0.00     0.013 A 
ATOM     23  C   UNL     1       4.021   6.224  -0.290  1.00  0.00     0.061 A 
ATOM     24  C   UNL     1       3.707   5.891  -2.661  1.00  0.00     0.061 A 
ATOM     25  C   UNL     1       4.077   6.724  -1.597  1.00  0.00     0.152 A 
BRANCH  25  26
ATOM     26  S   UNL     1       4.440   8.469  -1.920  1.00  0.00    -0.018 S 
ATOM     27  C   UNL     1       5.960   8.652  -0.969  1.00  0.00     0.346 C 
ATOM     28  O   UNL     1       4.802   8.588  -3.444  1.00  0.00    -0.612 OA
ENDBRANCH  25  26
ENDBRANCH  14  20
ENDBRANCH   7   8
ENDBRANCH   4   7
ENDBRANCH   2   3
ENDBRANCH   1   2
BRANCH   1  29
ATOM     29  C   UNL     1       1.910   1.788   4.735  1.00  0.00     0.023 C 
BRANCH  29  30
ATOM     30  C   UNL     1       2.417   0.755   5.733  1.00  0.00     0.116 C 
BRANCH  30  31
ATOM     31  N   UNL     1       3.621   0.062   5.299  1.00  0.00    -0.352 N 
ATOM     32  C   UNL     1       4.652  -0.420   6.076  1.00  0.00     0.251 C 
ATOM     33  H   UNL     1       3.711  -0.080   4.329  1.00  0.00     0.163 HD
ATOM     34  O   UNL     1       5.647  -0.906   5.547  1.00  0.00    -0.269 OA
BRANCH  32  35
ATOM     35  C   UNL     1       4.564  -0.292   7.548  1.00  0.00     0.039 A 
ATOM     36  C   UNL     1       3.394  -0.653   8.218  1.00  0.00     0.014 A 
ATOM     37  C   UNL     1       5.634   0.268   8.250  1.00  0.00     0.014 A 
ATOM     38  C   UNL     1       3.226  -0.284   9.547  1.00  0.00     0.010 A 
ATOM     39  C   UNL     1       5.492   0.561   9.610  1.00  0.00     0.010 A 
ATOM     40  C   UNL     1       4.266   0.343  10.255  1.00  0.00    -0.014 A 
BRANCH  40  41
ATOM     41  C   UNL     1       4.025   0.771  11.658  1.00  0.00     0.031 A 
ATOM     42  C   UNL     1       4.017   2.229  12.035  1.00  0.00     0.074 A 
ATOM     43  C   UNL     1       3.730  -0.163  12.583  1.00  0.00     0.049 A 
ATOM     44  N   UNL     1       3.727   2.773  13.189  1.00  0.00    -0.248 NA
ATOM     45  C   UNL     1       4.379   3.203  10.992  1.00  0.00     0.031 C 
ATOM     46  C   UNL     1       3.728  -1.607  12.345  1.00  0.00     0.029 A 
ATOM     47  N   UNL     1       3.345  -0.039  13.894  1.00  0.00    -0.354 N 
ATOM     48  C   UNL     1       3.903   4.141  13.023  1.00  0.00     0.074 A 
ATOM     49  C   UNL     1       4.334   4.349  11.658  1.00  0.00     0.031 C 
ATOM     50  C   UNL     1       3.299  -2.233  13.451  1.00  0.00     0.029 A 
ATOM     51  C   UNL     1       3.037  -1.240  14.489  1.00  0.00     0.049 A 
ATOM     52  H   UNL     1       3.295   0.825  14.363  1.00  0.00     0.167 HD
ATOM     53  C   UNL     1       3.696   5.137  13.916  1.00  0.00     0.034 A 
ATOM     54  C   UNL     1       2.584  -1.516  15.727  1.00  0.00     0.034 A 
ATOM     55  C   UNL     1       3.209   4.940  15.254  1.00  0.00     0.049 A 
ATOM     56  C   UNL     1       2.335  -0.393  16.690  1.00  0.00     0.074 A 
ATOM     57  C   UNL     1       2.936   5.898  16.215  1.00  0.00     0.029 A 
ATOM     58  N   UNL     1       2.911   3.710  15.815  1.00  0.00    -0.354 N 
ATOM     59  N   UNL     1       2.440   0.897  16.486  1.00  0.00    -0.248 NA
ATOM     60  C   UNL     1       1.896  -0.757  18.044  1.00  0.00     0.031 C 
ATOM     61  C   UNL     1       2.466   5.245  17.358  1.00  0.00     0.029 A 
ATOM     62  C   UNL     1       2.452   3.883  17.108  1.00  0.00     0.049 A 
ATOM     63  H   UNL     1       3.012   2.842  15.362  1.00  0.00     0.167 HD
ATOM     64  C   UNL     1       2.078   1.501  17.684  1.00  0.00     0.074 A 
ATOM     65  C   UNL     1       1.726   0.437  18.602  1.00  0.00     0.031 C 
ATOM     66  C   UNL     1       2.063   2.819  17.997  1.00  0.00     0.034 A 
BRANCH  53  67
ATOM     67  C   UNL     1       3.927   6.552  13.462  1.00  0.00     0.023 A 
ATOM     68  C   UNL     1       2.921   7.202  12.720  1.00  0.00     0.012 A 
ATOM     69  C   UNL     1       5.077   7.265  13.850  1.00  0.00     0.148 A 
ATOM     70  C   UNL     1       3.060   8.541  12.361  1.00  0.00     0.002 A 
ATOM     71  C   UNL     1       5.197   8.608  13.510  1.00  0.00     0.091 A 
ATOM     72  F   UNL     1       6.026   6.620  14.543  1.00  0.00    -0.205 F 
ATOM     73  C   UNL     1       4.191   9.246  12.764  1.00  0.00     0.022 A 
BRANCH  71  74
ATOM     74  S   UNL     1       6.591   9.621  14.020  1.00  0.00     0.127 S 
ATOM     75  O   UNL     1       7.261   9.862  12.742  1.00  0.00    -0.237 OA
ATOM     76  O   UNL     1       5.927  10.793  14.591  1.00  0.00    -0.237 OA
ATOM     77  O   UNL     1       7.342   8.819  14.975  1.00  0.00    -0.744 OA
ENDBRANCH  71  74
ENDBRANCH  53  67
BRANCH  54  78
ATOM     78  C   UNL     1       2.272  -2.927  16.079  1.00  0.00     0.023 A 
ATOM     79  C   UNL     1       0.928  -3.341  16.125  1.00  0.00     0.012 A 
ATOM     80  C   UNL     1       3.297  -3.877  16.254  1.00  0.00     0.148 A 
ATOM     81  C   UNL     1       0.608  -4.683  16.336  1.00  0.00     0.002 A 
ATOM     82  C   UNL     1       2.972  -5.218  16.419  1.00  0.00     0.091 A 
ATOM     83  F   UNL     1       4.567  -3.452  16.209  1.00  0.00    -0.205 F 
ATOM     84  C   UNL     1       1.629  -5.621  16.469  1.00  0.00     0.022 A 
BRANCH  82  85
ATOM     85  S   UNL     1       4.214  -6.515  16.471  1.00  0.00     0.127 S 
ATOM     86  O   UNL     1       4.040  -7.040  17.823  1.00  0.00    -0.237 OA
ATOM     87  O   UNL     1       3.760  -7.403  15.400  1.00  0.00    -0.237 OA
ATOM     88  O   UNL     1       5.487  -5.856  16.213  1.00  0.00    -0.744 OA
ENDBRANCH  82  85
ENDBRANCH  54  78
BRANCH  66  89
ATOM     89  C   UNL     1       1.667   3.211  19.392  1.00  0.00     0.023 A 
ATOM     90  C   UNL     1       2.632   3.150  20.415  1.00  0.00     0.012 A 
ATOM     91  C   UNL     1       0.402   3.770  19.656  1.00  0.00     0.148 A 
ATOM     92  C   UNL     1       2.344   3.642  21.686  1.00  0.00     0.002 A 
ATOM     93  C   UNL     1       0.132   4.285  20.918  1.00  0.00     0.091 A 
ATOM     94  F   UNL     1      -0.496   3.812  18.661  1.00  0.00    -0.205 F 
ATOM     95  C   UNL     1       1.100   4.219  21.934  1.00  0.00     0.022 A 
BRANCH  93  96
ATOM     96  S   UNL     1      -1.412   5.109  21.321  1.00  0.00     0.127 S 
ATOM     97  O   UNL     1      -1.959   4.229  22.353  1.00  0.00    -0.237 OA
ATOM     98  O   UNL     1      -0.948   6.407  21.810  1.00  0.00    -0.237 OA
ATOM     99  O   UNL     1      -2.180   5.159  20.085  1.00  0.00    -0.744 OA
ENDBRANCH  93  96
ENDBRANCH  66  89
ENDBRANCH  40  41
ENDBRANCH  32  35
ENDBRANCH  30  31
ENDBRANCH  29  30
ENDBRANCH   1  29
TORSDOF 17
