REMARK SMILES CC(=O)C1=C(NCCCCNC(=O)c2ccc(-c3c4nc(c(-c5cccc(S(=O)(=O)[O-])c5F)c5ccc([nH]5)c(-c5cccc(S(=O)(=O)[O-])c5F)c5nc(c(-c6cccc(S(=O)(=O)[O-])c6F)c6ccc3[nH]6)C=C5)C=C4)cc2)C(=O)N(c2cccc(C(=O)[O-])c2)[C@@H]1c1ccc([N+](=O)[O-])cc1
REMARK SMILES IDX 9 1 8 2 7 3 6 4 5 6 4 7 89 8 77 9 79 10 78 11 2 12 1 13 3 14
REMARK SMILES IDX 90 15 91 16 98 17 92 18 97 19 93 20 94 21 95 22 96 23 80 24
REMARK SMILES IDX 81 25 88 26 82 27 84 28 83 29 85 30 86 31 87 32 10 33 11 34
REMARK SMILES IDX 12 35 13 37 14 38 15 39 76 40 16 41 75 42 17 43 18 44 19 45
REMARK SMILES IDX 69 46 20 47 74 48 68 49 70 50 21 51 73 52 67 53 66 54 22 56
REMARK SMILES IDX 54 57 34 58 53 59 35 60 38 61 52 62 71 63 36 64 37 65 51 67
REMARK SMILES IDX 72 68 39 69 23 70 24 71 32 72 25 73 27 74 33 75 26 76 28 77
REMARK SMILES IDX 29 78 30 79 31 80 55 81 56 82 64 83 57 84 59 85 65 86 58 87
REMARK SMILES IDX 60 88 61 89 62 90 63 91 40 92 41 93 49 94 42 95 44 96 50 97
REMARK SMILES IDX 43 98 45 99 46 100 47 101 48 102
REMARK H PARENT 6 5 11 36 70 55 38 66
REMARK Flexibility Score: inf
ROOT
ATOM      1  C   UNL     1      -4.255   2.271   1.322  1.00  0.00     0.023 C 
ENDROOT
BRANCH   1   2
ATOM      2  C   UNL     1      -3.107   1.504   0.667  1.00  0.00     0.023 C 
BRANCH   2   3
ATOM      3  C   UNL     1      -2.034   2.385   0.039  1.00  0.00     0.113 C 
BRANCH   3   4
ATOM      4  N   UNL     1      -1.255   3.034   1.069  1.00  0.00    -0.380 N 
ATOM      5  H   UNL     1      -1.774   3.517   1.752  1.00  0.00     0.160 HD
BRANCH   4   6
ATOM      6  C   UNL     1       0.104   3.070   1.226  1.00  0.00     0.110 C 
ATOM      7  C   UNL     1       1.147   2.404   0.720  1.00  0.00     0.051 C 
ATOM      8  C   UNL     1       2.480   2.865   1.217  1.00  0.00     0.157 C 
ATOM      9  C   UNL     1       0.711   4.048   2.193  1.00  0.00     0.275 C 
ATOM     10  N   UNL     1       2.088   3.987   2.050  1.00  0.00    -0.295 N 
ATOM     11  O   UNL     1       0.047   4.769   2.921  1.00  0.00    -0.267 OA
BRANCH   7  12
ATOM     12  C   UNL     1       1.050   1.293  -0.240  1.00  0.00     0.160 C 
ATOM     13  C   UNL     1       1.299  -0.095   0.273  1.00  0.00     0.093 C 
ATOM     14  O   UNL     1       0.838   1.512  -1.431  1.00  0.00    -0.295 OA
ENDBRANCH   7  12
BRANCH   8  15
ATOM     15  C   UNL     1       3.528   3.164   0.155  1.00  0.00    -0.020 A 
ATOM     16  C   UNL     1       3.192   3.591  -1.143  1.00  0.00     0.013 A 
ATOM     17  C   UNL     1       4.893   3.061   0.493  1.00  0.00     0.013 A 
ATOM     18  C   UNL     1       4.182   3.887  -2.083  1.00  0.00     0.086 A 
ATOM     19  C   UNL     1       5.889   3.409  -0.422  1.00  0.00     0.086 A 
ATOM     20  C   UNL     1       5.526   3.814  -1.710  1.00  0.00     0.269 A 
BRANCH  20  21
ATOM     21  N   UNL     1       6.564   4.185  -2.672  1.00  0.00     0.062 N 
ATOM     22  O   UNL     1       6.261   4.194  -3.874  1.00  0.00    -0.258 OA
ATOM     23  O   UNL     1       7.686   4.467  -2.227  1.00  0.00    -0.258 OA
ENDBRANCH  20  21
ENDBRANCH   8  15
BRANCH  10  24
ATOM     24  C   UNL     1       2.983   4.742   2.833  1.00  0.00     0.046 A 
ATOM     25  C   UNL     1       2.909   4.731   4.229  1.00  0.00     0.026 A 
ATOM     26  C   UNL     1       3.943   5.541   2.208  1.00  0.00     0.036 A 
ATOM     27  C   UNL     1       3.838   5.452   4.988  1.00  0.00     0.003 A 
ATOM     28  C   UNL     1       4.878   6.260   2.959  1.00  0.00    -0.001 A 
ATOM     29  C   UNL     1       4.829   6.206   4.355  1.00  0.00     0.010 A 
BRANCH  28  30
ATOM     30  C   UNL     1       5.929   7.074   2.304  1.00  0.00     0.072 C 
ATOM     31  O   UNL     1       6.760   7.760   2.871  1.00  0.00    -0.545 OA
ATOM     32  O   UNL     1       5.914   6.959   0.963  1.00  0.00    -0.545 OA
ENDBRANCH  28  30
ENDBRANCH  10  24
ENDBRANCH   4   6
ENDBRANCH   3   4
ENDBRANCH   2   3
ENDBRANCH   1   2
BRANCH   1  33
ATOM     33  C   UNL     1      -4.980   3.256   0.410  1.00  0.00     0.116 C 
BRANCH  33  34
ATOM     34  N   UNL     1      -5.482   2.636  -0.809  1.00  0.00    -0.352 N 
ATOM     35  C   UNL     1      -6.736   2.695  -1.366  1.00  0.00     0.251 C 
ATOM     36  H   UNL     1      -4.827   2.096  -1.306  1.00  0.00     0.163 HD
ATOM     37  O   UNL     1      -7.012   1.978  -2.324  1.00  0.00    -0.269 OA
BRANCH  35  38
ATOM     38  C   UNL     1      -7.757   3.600  -0.796  1.00  0.00     0.039 A 
ATOM     39  C   UNL     1      -9.054   3.118  -0.612  1.00  0.00     0.014 A 
ATOM     40  C   UNL     1      -7.436   4.911  -0.431  1.00  0.00     0.014 A 
ATOM     41  C   UNL     1     -10.011   3.929   0.001  1.00  0.00     0.010 A 
ATOM     42  C   UNL     1      -8.367   5.686   0.256  1.00  0.00     0.010 A 
ATOM     43  C   UNL     1      -9.665   5.206   0.477  1.00  0.00    -0.014 A 
BRANCH  43  44
ATOM     44  C   UNL     1     -10.646   6.023   1.237  1.00  0.00     0.031 A 
ATOM     45  C   UNL     1     -11.102   7.361   0.719  1.00  0.00     0.074 A 
ATOM     46  C   UNL     1     -11.084   5.582   2.434  1.00  0.00     0.049 A 
ATOM     47  N   UNL     1     -11.966   8.193   1.240  1.00  0.00    -0.248 NA
ATOM     48  C   UNL     1     -10.493   7.839  -0.534  1.00  0.00     0.031 C 
ATOM     49  C   UNL     1     -10.649   4.346   3.089  1.00  0.00     0.029 A 
ATOM     50  N   UNL     1     -11.980   6.127   3.320  1.00  0.00    -0.354 N 
ATOM     51  C   UNL     1     -11.984   9.301   0.402  1.00  0.00     0.074 A 
ATOM     52  C   UNL     1     -11.017   9.052  -0.645  1.00  0.00     0.031 C 
ATOM     53  C   UNL     1     -11.295   4.215   4.258  1.00  0.00     0.029 A 
ATOM     54  C   UNL     1     -12.164   5.370   4.454  1.00  0.00     0.049 A 
ATOM     55  H   UNL     1     -12.446   6.978   3.158  1.00  0.00     0.167 HD
ATOM     56  C   UNL     1     -12.754  10.413   0.479  1.00  0.00     0.034 A 
ATOM     57  C   UNL     1     -12.944   5.582   5.532  1.00  0.00     0.034 A 
ATOM     58  C   UNL     1     -13.736  10.643   1.504  1.00  0.00     0.049 A 
ATOM     59  C   UNL     1     -13.815   6.809   5.572  1.00  0.00     0.074 A 
ATOM     60  C   UNL     1     -14.632  11.692   1.616  1.00  0.00     0.029 A 
ATOM     61  N   UNL     1     -13.941   9.825   2.604  1.00  0.00    -0.354 N 
ATOM     62  N   UNL     1     -13.946   7.758   4.678  1.00  0.00    -0.248 NA
ATOM     63  C   UNL     1     -14.673   6.973   6.754  1.00  0.00     0.031 C 
ATOM     64  C   UNL     1     -15.351  11.529   2.805  1.00  0.00     0.029 A 
ATOM     65  C   UNL     1     -14.934  10.355   3.412  1.00  0.00     0.049 A 
ATOM     66  H   UNL     1     -13.452   8.990   2.786  1.00  0.00     0.167 HD
ATOM     67  C   UNL     1     -14.924   8.614   5.173  1.00  0.00     0.074 A 
ATOM     68  C   UNL     1     -15.372   8.051   6.431  1.00  0.00     0.031 C 
ATOM     69  C   UNL     1     -15.399   9.768   4.642  1.00  0.00     0.034 A 
BRANCH  56  70
ATOM     70  C   UNL     1     -12.595  11.455  -0.600  1.00  0.00     0.023 A 
ATOM     71  C   UNL     1     -13.041  11.181  -1.909  1.00  0.00     0.012 A 
ATOM     72  C   UNL     1     -12.066  12.727  -0.304  1.00  0.00     0.148 A 
ATOM     73  C   UNL     1     -12.933  12.141  -2.914  1.00  0.00     0.002 A 
ATOM     74  C   UNL     1     -12.006  13.696  -1.299  1.00  0.00     0.091 A 
ATOM     75  F   UNL     1     -11.629  12.964   0.941  1.00  0.00    -0.205 F 
ATOM     76  C   UNL     1     -12.427  13.401  -2.606  1.00  0.00     0.022 A 
BRANCH  74  77
ATOM     77  S   UNL     1     -11.450  15.375  -0.987  1.00  0.00     0.127 S 
ATOM     78  O   UNL     1     -10.189  15.410  -1.726  1.00  0.00    -0.237 OA
ATOM     79  O   UNL     1     -12.526  16.169  -1.579  1.00  0.00    -0.237 OA
ATOM     80  O   UNL     1     -11.327  15.497   0.459  1.00  0.00    -0.744 OA
ENDBRANCH  74  77
ENDBRANCH  56  70
BRANCH  57  81
ATOM     81  C   UNL     1     -12.987   4.579   6.634  1.00  0.00     0.023 A 
ATOM     82  C   UNL     1     -14.160   3.828   6.843  1.00  0.00     0.012 A 
ATOM     83  C   UNL     1     -11.873   4.357   7.466  1.00  0.00     0.148 A 
ATOM     84  C   UNL     1     -14.237   2.902   7.884  1.00  0.00     0.002 A 
ATOM     85  C   UNL     1     -11.936   3.392   8.464  1.00  0.00     0.091 A 
ATOM     86  F   UNL     1     -10.770   5.089   7.258  1.00  0.00    -0.205 F 
ATOM     87  C   UNL     1     -13.123   2.677   8.688  1.00  0.00     0.022 A 
BRANCH  85  88
ATOM     88  S   UNL     1     -10.511   2.942   9.460  1.00  0.00     0.127 S 
ATOM     89  O   UNL     1     -10.891   3.453  10.774  1.00  0.00    -0.237 OA
ATOM     90  O   UNL     1     -10.510   1.483   9.341  1.00  0.00    -0.237 OA
ATOM     91  O   UNL     1      -9.370   3.595   8.833  1.00  0.00    -0.744 OA
ENDBRANCH  85  88
ENDBRANCH  57  81
BRANCH  69  92
ATOM     92  C   UNL     1     -16.483  10.488   5.403  1.00  0.00     0.023 A 
ATOM     93  C   UNL     1     -16.184  11.120   6.627  1.00  0.00     0.012 A 
ATOM     94  C   UNL     1     -17.788  10.579   4.881  1.00  0.00     0.148 A 
ATOM     95  C   UNL     1     -17.178  11.789   7.342  1.00  0.00     0.002 A 
ATOM     96  C   UNL     1     -18.759  11.294   5.571  1.00  0.00     0.091 A 
ATOM     97  F   UNL     1     -18.060   9.958   3.724  1.00  0.00    -0.205 F 
ATOM     98  C   UNL     1     -18.461  11.885   6.809  1.00  0.00     0.022 A 
BRANCH  96  99
ATOM     99  S   UNL     1     -20.411  11.555   4.915  1.00  0.00     0.127 S 
ATOM    100  O   UNL     1     -21.214  10.691   5.779  1.00  0.00    -0.237 OA
ATOM    101  O   UNL     1     -20.608  12.988   5.134  1.00  0.00    -0.237 OA
ATOM    102  O   UNL     1     -20.355  11.160   3.515  1.00  0.00    -0.744 OA
ENDBRANCH  96  99
ENDBRANCH  69  92
ENDBRANCH  43  44
ENDBRANCH  35  38
ENDBRANCH  33  34
ENDBRANCH   1  33
TORSDOF 19
