REMARK SMILES C[C@H](C(=O)NCCCCNC(=O)c1ccc(-c2c3nc(c(-c4cccc(S(=O)(=O)[O-])c4F)c4ccc([nH]4)c(-c4cccc(S(=O)(=O)[O-])c4F)c4nc(c(-c5cccc(S(=O)(=O)[O-])c5F)c5ccc2[nH]5)C=C4)C=C3)cc1)[C@@H](C)Nc1ccccc1Oc1ccccc1
REMARK SMILES IDX 6 1 5 2 3 3 4 4 2 6 1 7 76 8 77 9 78 10 79 12 80 13 84 14
REMARK SMILES IDX 81 15 83 16 82 17 85 18 86 19 87 20 91 21 88 22 90 23 89 24
REMARK SMILES IDX 7 25 8 26 9 27 10 28 11 29 12 31 13 32 14 33 75 34 15 35
REMARK SMILES IDX 74 36 16 37 17 38 18 39 68 40 19 41 73 42 67 43 69 44 20 45
REMARK SMILES IDX 72 46 66 47 65 48 21 50 53 51 33 52 52 53 34 54 37 55 51 56
REMARK SMILES IDX 70 57 35 58 36 59 50 61 71 62 38 63 22 64 23 65 31 66 24 67
REMARK SMILES IDX 26 68 32 69 25 70 27 71 28 72 29 73 30 74 54 75 55 76 63 77
REMARK SMILES IDX 56 78 58 79 64 80 57 81 59 82 60 83 61 84 62 85 39 86 40 87
REMARK SMILES IDX 48 88 41 89 43 90 49 91 42 92 44 93 45 94 46 95 47 96
REMARK H PARENT 5 5 78 11 10 30 69 49 37 60
REMARK Flexibility Score: inf
ROOT
ATOM      1  C   UNL     1      -0.350  -1.804  -1.188  1.00  0.00     0.116 C 
ENDROOT
BRANCH   1   2
ATOM      2  N   UNL     1       0.946  -1.347  -0.722  1.00  0.00    -0.356 N 
ATOM      3  C   UNL     1       1.515  -0.111  -0.780  1.00  0.00     0.224 C 
ATOM      4  O   UNL     1       2.560   0.072  -0.149  1.00  0.00    -0.275 OA
ATOM      5  H   UNL     1       1.502  -2.040  -0.297  1.00  0.00     0.163 HD
BRANCH   3   6
ATOM      6  C   UNL     1       0.910   1.029  -1.594  1.00  0.00     0.097 C 
ATOM      7  C   UNL     1       0.916   0.687  -3.084  1.00  0.00     0.020 C 
BRANCH   6   8
ATOM      8  C   UNL     1      -0.429   1.498  -0.983  1.00  0.00     0.088 C 
ATOM      9  C   UNL     1      -0.151   2.259   0.325  1.00  0.00     0.031 C 
BRANCH   8  10
ATOM     10  N   UNL     1      -1.139   2.410  -1.873  1.00  0.00    -0.379 N 
ATOM     11  H   UNL     1      -0.816   3.340  -1.882  1.00  0.00     0.160 HD
BRANCH  10  12
ATOM     12  C   UNL     1      -2.210   2.134  -2.708  1.00  0.00     0.078 A 
ATOM     13  C   UNL     1      -2.190   2.827  -3.943  1.00  0.00     0.029 A 
ATOM     14  C   UNL     1      -3.260   1.212  -2.528  1.00  0.00     0.150 A 
ATOM     15  C   UNL     1      -3.136   2.619  -4.951  1.00  0.00     0.002 A 
ATOM     16  C   UNL     1      -4.224   1.020  -3.543  1.00  0.00     0.049 A 
ATOM     17  C   UNL     1      -4.165   1.717  -4.747  1.00  0.00     0.004 A 
BRANCH  14  18
ATOM     18  O   UNL     1      -3.423   0.306  -1.504  1.00  0.00    -0.455 OA
BRANCH  18  19
ATOM     19  C   UNL     1      -3.481   0.672  -0.184  1.00  0.00     0.127 A 
ATOM     20  C   UNL     1      -3.224  -0.385   0.699  1.00  0.00     0.047 A 
ATOM     21  C   UNL     1      -3.720   1.945   0.321  1.00  0.00     0.047 A 
ATOM     22  C   UNL     1      -3.063  -0.155   2.062  1.00  0.00     0.004 A 
ATOM     23  C   UNL     1      -3.590   2.172   1.698  1.00  0.00     0.004 A 
ATOM     24  C   UNL     1      -3.229   1.132   2.560  1.00  0.00     0.000 A 
ENDBRANCH  18  19
ENDBRANCH  14  18
ENDBRANCH  10  12
ENDBRANCH   8  10
ENDBRANCH   6   8
ENDBRANCH   3   6
ENDBRANCH   1   2
BRANCH   1  25
ATOM     25  C   UNL     1      -0.303  -3.152  -1.895  1.00  0.00     0.023 C 
BRANCH  25  26
ATOM     26  C   UNL     1       0.016  -4.343  -0.992  1.00  0.00     0.023 C 
BRANCH  26  27
ATOM     27  C   UNL     1      -0.942  -4.559   0.178  1.00  0.00     0.116 C 
BRANCH  27  28
ATOM     28  N   UNL     1      -2.311  -4.833  -0.239  1.00  0.00    -0.352 N 
ATOM     29  C   UNL     1      -3.097  -5.944  -0.017  1.00  0.00     0.251 C 
ATOM     30  H   UNL     1      -2.741  -4.115  -0.758  1.00  0.00     0.163 HD
ATOM     31  O   UNL     1      -4.188  -6.040  -0.558  1.00  0.00    -0.269 OA
BRANCH  29  32
ATOM     32  C   UNL     1      -2.599  -7.037   0.851  1.00  0.00     0.039 A 
ATOM     33  C   UNL     1      -2.683  -8.355   0.391  1.00  0.00     0.014 A 
ATOM     34  C   UNL     1      -2.029  -6.765   2.095  1.00  0.00     0.014 A 
ATOM     35  C   UNL     1      -2.105  -9.387   1.137  1.00  0.00     0.010 A 
ATOM     36  C   UNL     1      -1.385  -7.781   2.797  1.00  0.00     0.010 A 
ATOM     37  C   UNL     1      -1.406  -9.102   2.322  1.00  0.00    -0.014 A 
BRANCH  37  38
ATOM     38  C   UNL     1      -0.654 -10.155   3.056  1.00  0.00     0.031 A 
ATOM     39  C   UNL     1      -1.013 -10.498   4.477  1.00  0.00     0.074 A 
ATOM     40  C   UNL     1       0.426 -10.723   2.482  1.00  0.00     0.049 A 
ATOM     41  N   UNL     1      -0.416 -11.317   5.303  1.00  0.00    -0.248 NA
ATOM     42  C   UNL     1      -2.179  -9.809   5.054  1.00  0.00     0.031 C 
ATOM     43  C   UNL     1       0.932 -10.419   1.142  1.00  0.00     0.029 A 
ATOM     44  N   UNL     1       1.314 -11.653   2.966  1.00  0.00    -0.354 N 
ATOM     45  C   UNL     1      -1.104 -11.213   6.506  1.00  0.00     0.074 A 
ATOM     46  C   UNL     1      -2.146 -10.228   6.311  1.00  0.00     0.031 C 
ATOM     47  C   UNL     1       2.036 -11.147   0.910  1.00  0.00     0.029 A 
ATOM     48  C   UNL     1       2.337 -11.946   2.093  1.00  0.00     0.049 A 
ATOM     49  H   UNL     1       1.226 -12.071   3.853  1.00  0.00     0.167 HD
ATOM     50  C   UNL     1      -0.909 -11.897   7.659  1.00  0.00     0.034 A 
ATOM     51  C   UNL     1       3.404 -12.759   2.231  1.00  0.00     0.034 A 
ATOM     52  C   UNL     1       0.093 -12.912   7.836  1.00  0.00     0.049 A 
ATOM     53  C   UNL     1       3.572 -13.539   3.507  1.00  0.00     0.074 A 
ATOM     54  C   UNL     1       0.307 -13.727   8.934  1.00  0.00     0.029 A 
ATOM     55  N   UNL     1       1.053 -13.251   6.895  1.00  0.00    -0.354 N 
ATOM     56  N   UNL     1       2.811 -13.548   4.575  1.00  0.00    -0.248 NA
ATOM     57  C   UNL     1       4.727 -14.447   3.586  1.00  0.00     0.031 C 
ATOM     58  C   UNL     1       1.408 -14.547   8.663  1.00  0.00     0.029 A 
ATOM     59  C   UNL     1       1.867 -14.256   7.389  1.00  0.00     0.049 A 
ATOM     60  H   UNL     1       1.143 -12.837   6.006  1.00  0.00     0.167 HD
ATOM     61  C   UNL     1       3.373 -14.484   5.436  1.00  0.00     0.074 A 
ATOM     62  C   UNL     1       4.526 -15.037   4.757  1.00  0.00     0.031 C 
ATOM     63  C   UNL     1       2.977 -14.841   6.682  1.00  0.00     0.034 A 
BRANCH  50  64
ATOM     64  C   UNL     1      -1.843 -11.613   8.807  1.00  0.00     0.023 A 
ATOM     65  C   UNL     1      -3.179 -12.058   8.738  1.00  0.00     0.012 A 
ATOM     66  C   UNL     1      -1.391 -10.963   9.972  1.00  0.00     0.148 A 
ATOM     67  C   UNL     1      -4.060 -11.832   9.794  1.00  0.00     0.002 A 
ATOM     68  C   UNL     1      -2.263 -10.780  11.039  1.00  0.00     0.091 A 
ATOM     69  F   UNL     1      -0.123 -10.528  10.012  1.00  0.00    -0.205 F 
ATOM     70  C   UNL     1      -3.600 -11.203  10.947  1.00  0.00     0.022 A 
BRANCH  68  71
ATOM     71  S   UNL     1      -1.747 -10.050  12.597  1.00  0.00     0.127 S 
ATOM     72  O   UNL     1      -2.397  -8.741  12.539  1.00  0.00    -0.237 OA
ATOM     73  O   UNL     1      -2.323 -10.973  13.576  1.00  0.00    -0.237 OA
ATOM     74  O   UNL     1      -0.292 -10.029  12.567  1.00  0.00    -0.744 OA
ENDBRANCH  68  71
ENDBRANCH  50  64
BRANCH  51  75
ATOM     75  C   UNL     1       4.360 -12.931   1.101  1.00  0.00     0.023 A 
ATOM     76  C   UNL     1       4.385 -14.153   0.400  1.00  0.00     0.012 A 
ATOM     77  C   UNL     1       5.220 -11.891   0.697  1.00  0.00     0.148 A 
ATOM     78  C   UNL     1       5.268 -14.348  -0.662  1.00  0.00     0.002 A 
ATOM     79  C   UNL     1       6.059 -12.073  -0.397  1.00  0.00     0.091 A 
ATOM     80  F   UNL     1       5.192 -10.740   1.383  1.00  0.00    -0.205 F 
ATOM     81  C   UNL     1       6.098 -13.306  -1.067  1.00  0.00     0.022 A 
BRANCH  79  82
ATOM     82  S   UNL     1       7.065 -10.745  -1.070  1.00  0.00     0.127 S 
ATOM     83  O   UNL     1       8.409 -11.157  -0.674  1.00  0.00    -0.237 OA
ATOM     84  O   UNL     1       6.785 -10.849  -2.502  1.00  0.00    -0.237 OA
ATOM     85  O   UNL     1       6.566  -9.525  -0.450  1.00  0.00    -0.744 OA
ENDBRANCH  79  82
ENDBRANCH  51  75
BRANCH  63  86
ATOM     86  C   UNL     1       3.772 -15.905   7.393  1.00  0.00     0.023 A 
ATOM     87  C   UNL     1       5.047 -15.598   7.907  1.00  0.00     0.012 A 
ATOM     88  C   UNL     1       3.221 -17.181   7.624  1.00  0.00     0.148 A 
ATOM     89  C   UNL     1       5.773 -16.553   8.617  1.00  0.00     0.002 A 
ATOM     90  C   UNL     1       3.930 -18.112   8.373  1.00  0.00     0.091 A 
ATOM     91  F   UNL     1       2.014 -17.459   7.110  1.00  0.00    -0.205 F 
ATOM     92  C   UNL     1       5.211 -17.804   8.861  1.00  0.00     0.022 A 
BRANCH  90  93
ATOM     93  S   UNL     1       3.247 -19.713   8.818  1.00  0.00     0.127 S 
ATOM     94  O   UNL     1       4.018 -20.614   7.963  1.00  0.00    -0.237 OA
ATOM     95  O   UNL     1       3.565 -19.803  10.243  1.00  0.00    -0.237 OA
ATOM     96  O   UNL     1       1.822 -19.637   8.521  1.00  0.00    -0.744 OA
ENDBRANCH  90  93
ENDBRANCH  63  86
ENDBRANCH  37  38
ENDBRANCH  29  32
ENDBRANCH  27  28
ENDBRANCH  26  27
ENDBRANCH  25  26
ENDBRANCH   1  25
TORSDOF 19
