REMARK SMILES O=C(NCCCCNC(=O)[C@@]12C[C@H]3C[C@@H](C1)C[C@](n1cc([N+](=O)[O-])cn1)(C3)C2)c1ccc(-c2c3nc(c(-c4cccc(S(=O)(=O)[O-])c4F)c4ccc([nH]4)c(-c4cccc(S(=O)(=O)[O-])c4F)c4nc(c(-c5cccc(S(=O)(=O)[O-])c5F)c5ccc2[nH]5)C=C4)C=C3)cc1
REMARK SMILES IDX 5 1 4 2 3 3 1 4 2 5 29 7 30 8 91 9 31 10 90 11 32 12 33 13
REMARK SMILES IDX 34 14 84 15 35 16 89 17 83 18 85 19 36 20 88 21 82 22 81 23
REMARK SMILES IDX 37 25 69 26 49 27 68 28 50 29 53 30 67 31 86 32 51 33 52 34
REMARK SMILES IDX 66 36 87 37 54 38 38 39 39 40 47 41 40 42 42 43 48 44 41 45
REMARK SMILES IDX 43 46 44 47 45 48 46 49 70 50 71 51 79 52 72 53 74 54 80 55
REMARK SMILES IDX 73 56 75 57 76 58 77 59 78 60 55 61 56 62 64 63 57 64 59 65
REMARK SMILES IDX 65 66 58 67 60 68 61 69 62 70 63 71 6 72 7 73 8 74 9 75
REMARK SMILES IDX 10 77 11 78 12 79 16 80 28 81 13 82 15 83 18 84 14 85 27 86
REMARK SMILES IDX 17 87 19 88 20 89 26 90 21 91 25 92 22 93 23 94 24 95
REMARK H PARENT 3 6 85 24 53 35 8 76
REMARK Flexibility Score: inf
ROOT
ATOM      1  C   UNL     1       4.892  -1.867  -0.715  1.00  0.00     0.023 C 
ENDROOT
BRANCH   1   2
ATOM      2  C   UNL     1       4.784  -0.347  -0.893  1.00  0.00     0.116 C 
BRANCH   2   3
ATOM      3  N   UNL     1       3.447   0.149  -1.151  1.00  0.00    -0.352 N 
ATOM      4  O   UNL     1       1.362   0.846  -0.941  1.00  0.00    -0.269 OA
ATOM      5  C   UNL     1       2.330   0.324  -0.383  1.00  0.00     0.251 C 
ATOM      6  H   UNL     1       3.314   0.421  -2.088  1.00  0.00     0.163 HD
BRANCH   5   7
ATOM      7  C   UNL     1       2.206  -0.140   1.021  1.00  0.00     0.039 A 
ATOM      8  C   UNL     1       3.272  -0.573   1.809  1.00  0.00     0.014 A 
ATOM      9  C   UNL     1       0.909  -0.174   1.560  1.00  0.00     0.014 A 
ATOM     10  C   UNL     1       3.046  -1.179   3.031  1.00  0.00     0.010 A 
ATOM     11  C   UNL     1       0.681  -0.716   2.817  1.00  0.00     0.010 A 
ATOM     12  C   UNL     1       1.748  -1.266   3.522  1.00  0.00    -0.014 A 
BRANCH  12  13
ATOM     13  C   UNL     1       1.593  -1.828   4.854  1.00  0.00     0.031 A 
ATOM     14  C   UNL     1       2.247  -1.049   5.944  1.00  0.00     0.074 A 
ATOM     15  C   UNL     1       0.819  -2.901   5.099  1.00  0.00     0.049 A 
ATOM     16  N   UNL     1       3.151  -1.439   6.785  1.00  0.00    -0.248 NA
ATOM     17  C   UNL     1       1.930   0.386   6.026  1.00  0.00     0.031 C 
ATOM     18  C   UNL     1      -0.099  -3.566   4.171  1.00  0.00     0.029 A 
ATOM     19  N   UNL     1       0.571  -3.518   6.287  1.00  0.00    -0.354 N 
ATOM     20  C   UNL     1       3.357  -0.356   7.642  1.00  0.00     0.074 A 
ATOM     21  C   UNL     1       2.712   0.776   7.032  1.00  0.00     0.031 C 
ATOM     22  C   UNL     1      -0.989  -4.288   4.884  1.00  0.00     0.029 A 
ATOM     23  C   UNL     1      -0.618  -4.236   6.287  1.00  0.00     0.049 A 
ATOM     24  H   UNL     1       1.172  -3.461   7.065  1.00  0.00     0.167 HD
ATOM     25  C   UNL     1       3.845  -0.512   8.903  1.00  0.00     0.034 A 
ATOM     26  C   UNL     1      -1.304  -4.650   7.377  1.00  0.00     0.034 A 
ATOM     27  C   UNL     1       4.509  -1.776   9.072  1.00  0.00     0.049 A 
ATOM     28  C   UNL     1      -0.374  -4.647   8.528  1.00  0.00     0.074 A 
ATOM     29  C   UNL     1       5.590  -2.409   8.492  1.00  0.00     0.029 A 
ATOM     30  N   UNL     1       3.844  -2.746   9.780  1.00  0.00    -0.354 N 
ATOM     31  N   UNL     1       0.643  -5.455   8.642  1.00  0.00    -0.248 NA
ATOM     32  C   UNL     1      -0.338  -3.473   9.384  1.00  0.00     0.031 C 
ATOM     33  C   UNL     1       5.247  -3.793   8.489  1.00  0.00     0.029 A 
ATOM     34  C   UNL     1       3.994  -3.918   9.092  1.00  0.00     0.049 A 
ATOM     35  H   UNL     1       3.352  -2.622  10.624  1.00  0.00     0.167 HD
ATOM     36  C   UNL     1       1.634  -4.688   9.238  1.00  0.00     0.074 A 
ATOM     37  C   UNL     1       0.935  -3.527   9.784  1.00  0.00     0.031 C 
ATOM     38  C   UNL     1       2.956  -4.919   8.980  1.00  0.00     0.034 A 
BRANCH  25  39
ATOM     39  C   UNL     1       3.410   0.310  10.099  1.00  0.00     0.023 A 
ATOM     40  C   UNL     1       4.099   0.099  11.316  1.00  0.00     0.012 A 
ATOM     41  C   UNL     1       2.198   1.035  10.171  1.00  0.00     0.148 A 
ATOM     42  C   UNL     1       3.573   0.518  12.543  1.00  0.00     0.002 A 
ATOM     43  C   UNL     1       1.719   1.518  11.385  1.00  0.00     0.091 A 
ATOM     44  F   UNL     1       1.417   1.152   9.094  1.00  0.00    -0.205 F 
ATOM     45  C   UNL     1       2.383   1.232  12.578  1.00  0.00     0.022 A 
BRANCH  43  46
ATOM     46  S   UNL     1       0.212   2.494  11.460  1.00  0.00     0.127 S 
ATOM     47  O   UNL     1      -0.758   1.490  11.908  1.00  0.00    -0.237 OA
ATOM     48  O   UNL     1       0.558   3.504  12.468  1.00  0.00    -0.237 OA
ATOM     49  O   UNL     1       0.028   3.024  10.127  1.00  0.00    -0.744 OA
ENDBRANCH  43  46
ENDBRANCH  25  39
BRANCH  26  50
ATOM     50  C   UNL     1      -2.768  -4.776   7.543  1.00  0.00     0.023 A 
ATOM     51  C   UNL     1      -3.288  -5.618   8.542  1.00  0.00     0.012 A 
ATOM     52  C   UNL     1      -3.652  -3.885   6.890  1.00  0.00     0.148 A 
ATOM     53  C   UNL     1      -4.643  -5.564   8.892  1.00  0.00     0.002 A 
ATOM     54  C   UNL     1      -4.999  -3.848   7.229  1.00  0.00     0.091 A 
ATOM     55  F   UNL     1      -3.154  -3.013   6.003  1.00  0.00    -0.205 F 
ATOM     56  C   UNL     1      -5.497  -4.679   8.239  1.00  0.00     0.022 A 
BRANCH  54  57
ATOM     57  S   UNL     1      -6.155  -2.728   6.426  1.00  0.00     0.127 S 
ATOM     58  O   UNL     1      -7.274  -3.619   6.117  1.00  0.00    -0.237 OA
ATOM     59  O   UNL     1      -6.419  -1.757   7.484  1.00  0.00    -0.237 OA
ATOM     60  O   UNL     1      -5.460  -2.215   5.252  1.00  0.00    -0.744 OA
ENDBRANCH  54  57
ENDBRANCH  26  50
BRANCH  38  61
ATOM     61  C   UNL     1       3.327  -6.178   8.238  1.00  0.00     0.023 A 
ATOM     62  C   UNL     1       2.888  -6.416   6.918  1.00  0.00     0.012 A 
ATOM     63  C   UNL     1       4.277  -7.045   8.803  1.00  0.00     0.148 A 
ATOM     64  C   UNL     1       3.361  -7.509   6.189  1.00  0.00     0.002 A 
ATOM     65  C   UNL     1       4.780  -8.106   8.059  1.00  0.00     0.091 A 
ATOM     66  F   UNL     1       4.697  -6.799  10.053  1.00  0.00    -0.205 F 
ATOM     67  C   UNL     1       4.317  -8.348   6.755  1.00  0.00     0.022 A 
BRANCH  65  68
ATOM     68  S   UNL     1       6.108  -9.145   8.676  1.00  0.00     0.127 S 
ATOM     69  O   UNL     1       5.398 -10.373   9.026  1.00  0.00    -0.237 OA
ATOM     70  O   UNL     1       6.987  -9.258   7.511  1.00  0.00    -0.237 OA
ATOM     71  O   UNL     1       6.697  -8.418   9.794  1.00  0.00    -0.744 OA
ENDBRANCH  65  68
ENDBRANCH  38  61
ENDBRANCH  12  13
ENDBRANCH   5   7
ENDBRANCH   2   3
ENDBRANCH   1   2
BRANCH   1  72
ATOM     72  C   UNL     1       4.198  -2.694  -1.796  1.00  0.00     0.023 C 
BRANCH  72  73
ATOM     73  C   UNL     1       4.498  -2.228  -3.207  1.00  0.00     0.116 C 
BRANCH  73  74
ATOM     74  N   UNL     1       5.921  -2.264  -3.446  1.00  0.00    -0.356 N 
ATOM     75  C   UNL     1       6.641  -2.911  -4.380  1.00  0.00     0.226 C 
ATOM     76  H   UNL     1       6.454  -1.722  -2.821  1.00  0.00     0.163 HD
ATOM     77  O   UNL     1       7.863  -2.933  -4.204  1.00  0.00    -0.274 OA
BRANCH  75  78
ATOM     78  C   UNL     1       5.981  -3.551  -5.605  1.00  0.00     0.052 C 
ATOM     79  C   UNL     1       5.270  -4.883  -5.301  1.00  0.00     0.020 C 
ATOM     80  C   UNL     1       5.065  -2.569  -6.375  1.00  0.00     0.020 C 
ATOM     81  C   UNL     1       7.142  -3.883  -6.547  1.00  0.00     0.047 C 
ATOM     82  C   UNL     1       4.755  -5.514  -6.612  1.00  0.00    -0.007 C 
ATOM     83  C   UNL     1       4.506  -3.228  -7.645  1.00  0.00    -0.007 C 
ATOM     84  C   UNL     1       6.687  -4.476  -7.900  1.00  0.00     0.065 C 
ATOM     85  C   UNL     1       3.777  -4.528  -7.271  1.00  0.00     0.007 C 
ATOM     86  C   UNL     1       5.938  -5.798  -7.572  1.00  0.00     0.034 C 
ATOM     87  C   UNL     1       5.673  -3.536  -8.592  1.00  0.00     0.034 C 
BRANCH  84  88
ATOM     88  N   UNL     1       7.925  -4.616  -8.700  1.00  0.00    -0.259 N 
ATOM     89  C   UNL     1       8.801  -3.546  -8.851  1.00  0.00     0.195 A 
ATOM     90  N   UNL     1       8.603  -5.792  -8.690  1.00  0.00    -0.173 NA
ATOM     91  C   UNL     1       9.991  -4.027  -8.337  1.00  0.00     0.307 A 
ATOM     92  C   UNL     1       9.851  -5.423  -8.366  1.00  0.00     0.220 A 
BRANCH  91  93
ATOM     93  N   UNL     1      11.056  -3.251  -7.784  1.00  0.00     0.066 N 
ATOM     94  O   UNL     1      12.080  -3.861  -7.454  1.00  0.00    -0.258 OA
ATOM     95  O   UNL     1      10.855  -2.036  -7.648  1.00  0.00    -0.258 OA
ENDBRANCH  91  93
ENDBRANCH  84  88
ENDBRANCH  75  78
ENDBRANCH  73  74
ENDBRANCH  72  73
ENDBRANCH   1  72
TORSDOF 16
