REMARK SMILES C=CCN(CC(=O)NCCCCNC(=O)c1ccc(-c2c3nc(c(-c4cccc(S(=O)(=O)[O-])c4F)c4ccc([nH]4)c(-c4cccc(S(=O)(=O)[O-])c4F)c4nc(c(-c5cccc(S(=O)(=O)[O-])c5F)c5ccc2[nH]5)C=C4)C=C3)cc1)C(=O)NCC(C)C
REMARK SMILES IDX 10 1 9 2 8 3 6 4 7 5 5 7 4 8 3 9 2 10 1 11 79 12 80 13 81 14
REMARK SMILES IDX 82 16 83 17 84 18 85 19 11 20 12 21 13 22 14 23 15 25 16 26
REMARK SMILES IDX 17 27 78 28 18 29 77 30 19 31 20 32 21 33 71 34 22 35 76 36
REMARK SMILES IDX 70 37 72 38 23 39 75 40 69 41 68 42 24 44 56 45 36 46 55 47
REMARK SMILES IDX 37 48 40 49 54 50 73 51 38 52 39 53 53 55 74 56 41 57 25 58
REMARK SMILES IDX 26 59 34 60 27 61 29 62 35 63 28 64 30 65 31 66 32 67 33 68
REMARK SMILES IDX 57 69 58 70 66 71 59 72 61 73 67 74 60 75 62 76 63 77 64 78
REMARK SMILES IDX 65 79 42 80 43 81 51 82 44 83 46 84 52 85 45 86 47 87 48 88
REMARK SMILES IDX 49 89 50 90
REMARK H PARENT 8 6 81 15 13 24 72 43 40 54
REMARK Flexibility Score: inf
ROOT
ATOM      1  C   UNL     1      -4.192  -0.633   0.349  1.00  0.00     0.023 C 
ENDROOT
BRANCH   1   2
ATOM      2  C   UNL     1      -4.401   0.857   0.102  1.00  0.00     0.116 C 
BRANCH   2   3
ATOM      3  N   UNL     1      -4.726   1.607   1.294  1.00  0.00    -0.355 N 
ATOM      4  C   UNL     1      -3.967   2.522   1.960  1.00  0.00     0.239 C 
ATOM      5  O   UNL     1      -4.569   3.374   2.623  1.00  0.00    -0.273 OA
ATOM      6  H   UNL     1      -5.616   1.434   1.676  1.00  0.00     0.163 HD
BRANCH   4   7
ATOM      7  C   UNL     1      -2.443   2.631   1.771  1.00  0.00     0.221 C 
BRANCH   7   8
ATOM      8  N   UNL     1      -1.695   1.377   1.772  1.00  0.00    -0.312 N 
BRANCH   8   9
ATOM      9  C   UNL     1      -1.064   0.995   0.507  1.00  0.00     0.149 C 
BRANCH   9  10
ATOM     10  C   UNL     1       0.422   1.195   0.554  1.00  0.00    -0.013 C 
ATOM     11  C   UNL     1       1.294   0.249   0.174  1.00  0.00     0.006 C 
ENDBRANCH   9  10
ENDBRANCH   8   9
BRANCH   8  12
ATOM     12  C   UNL     1      -1.511   0.534   2.831  1.00  0.00     0.318 C 
ATOM     13  O   UNL     1      -0.918  -0.544   2.698  1.00  0.00    -0.249 OA
ATOM     14  N   UNL     1      -1.939   0.773   4.079  1.00  0.00    -0.338 N 
ATOM     15  H   UNL     1      -1.703   0.019   4.667  1.00  0.00     0.165 HD
BRANCH  14  16
ATOM     16  C   UNL     1      -2.644   1.798   4.842  1.00  0.00     0.120 C 
BRANCH  16  17
ATOM     17  C   UNL     1      -4.018   1.300   5.327  1.00  0.00     0.002 C 
ATOM     18  C   UNL     1      -3.873   0.237   6.421  1.00  0.00     0.009 C 
ATOM     19  C   UNL     1      -4.858   2.460   5.868  1.00  0.00     0.009 C 
ENDBRANCH  16  17
ENDBRANCH  14  16
ENDBRANCH   8  12
ENDBRANCH   7   8
ENDBRANCH   4   7
ENDBRANCH   2   3
ENDBRANCH   1   2
BRANCH   1  20
ATOM     20  C   UNL     1      -5.449  -1.421   0.722  1.00  0.00     0.023 C 
BRANCH  20  21
ATOM     21  C   UNL     1      -6.657  -1.219  -0.186  1.00  0.00     0.116 C 
BRANCH  21  22
ATOM     22  N   UNL     1      -6.375  -1.448  -1.596  1.00  0.00    -0.352 N 
ATOM     23  C   UNL     1      -7.185  -2.006  -2.556  1.00  0.00     0.251 C 
ATOM     24  H   UNL     1      -5.484  -1.164  -1.904  1.00  0.00     0.163 HD
ATOM     25  O   UNL     1      -6.754  -2.189  -3.692  1.00  0.00    -0.269 OA
BRANCH  23  26
ATOM     26  C   UNL     1      -8.560  -2.422  -2.204  1.00  0.00     0.039 A 
ATOM     27  C   UNL     1      -8.989  -3.700  -2.572  1.00  0.00     0.014 A 
ATOM     28  C   UNL     1      -9.409  -1.572  -1.491  1.00  0.00     0.014 A 
ATOM     29  C   UNL     1     -10.246  -4.152  -2.161  1.00  0.00     0.010 A 
ATOM     30  C   UNL     1     -10.632  -2.049  -1.026  1.00  0.00     0.010 A 
ATOM     31  C   UNL     1     -11.063  -3.343  -1.355  1.00  0.00    -0.014 A 
BRANCH  31  32
ATOM     32  C   UNL     1     -12.366  -3.834  -0.835  1.00  0.00     0.031 A 
ATOM     33  C   UNL     1     -13.646  -3.159  -1.250  1.00  0.00     0.074 A 
ATOM     34  C   UNL     1     -12.389  -4.832   0.071  1.00  0.00     0.049 A 
ATOM     35  N   UNL     1     -14.868  -3.393  -0.849  1.00  0.00    -0.248 NA
ATOM     36  C   UNL     1     -13.536  -2.062  -2.226  1.00  0.00     0.031 C 
ATOM     37  C   UNL     1     -11.212  -5.521   0.606  1.00  0.00     0.029 A 
ATOM     38  N   UNL     1     -13.442  -5.424   0.724  1.00  0.00    -0.354 N 
ATOM     39  C   UNL     1     -15.667  -2.462  -1.500  1.00  0.00     0.074 A 
ATOM     40  C   UNL     1     -14.787  -1.631  -2.292  1.00  0.00     0.031 C 
ATOM     41  C   UNL     1     -11.608  -6.443   1.499  1.00  0.00     0.029 A 
ATOM     42  C   UNL     1     -13.061  -6.395   1.622  1.00  0.00     0.049 A 
ATOM     43  H   UNL     1     -14.382  -5.178   0.564  1.00  0.00     0.167 HD
ATOM     44  C   UNL     1     -17.015  -2.332  -1.474  1.00  0.00     0.034 A 
ATOM     45  C   UNL     1     -13.801  -7.157   2.452  1.00  0.00     0.034 A 
ATOM     46  C   UNL     1     -17.893  -3.186  -0.721  1.00  0.00     0.049 A 
ATOM     47  C   UNL     1     -15.300  -7.007   2.439  1.00  0.00     0.074 A 
ATOM     48  C   UNL     1     -19.275  -3.167  -0.667  1.00  0.00     0.029 A 
ATOM     49  N   UNL     1     -17.475  -4.218   0.104  1.00  0.00    -0.354 N 
ATOM     50  N   UNL     1     -16.044  -6.211   1.711  1.00  0.00    -0.248 NA
ATOM     51  C   UNL     1     -16.063  -7.889   3.335  1.00  0.00     0.031 C 
ATOM     52  C   UNL     1     -19.694  -4.187   0.194  1.00  0.00     0.029 A 
ATOM     53  C   UNL     1     -18.572  -4.849   0.665  1.00  0.00     0.049 A 
ATOM     54  H   UNL     1     -16.536  -4.466   0.268  1.00  0.00     0.167 HD
ATOM     55  C   UNL     1     -17.361  -6.526   2.027  1.00  0.00     0.074 A 
ATOM     56  C   UNL     1     -17.312  -7.600   2.998  1.00  0.00     0.031 C 
ATOM     57  C   UNL     1     -18.507  -5.966   1.571  1.00  0.00     0.034 A 
BRANCH  44  58
ATOM     58  C   UNL     1     -17.633  -1.273  -2.349  1.00  0.00     0.023 A 
ATOM     59  C   UNL     1     -17.661  -1.469  -3.745  1.00  0.00     0.012 A 
ATOM     60  C   UNL     1     -18.243  -0.129  -1.799  1.00  0.00     0.148 A 
ATOM     61  C   UNL     1     -18.260  -0.530  -4.584  1.00  0.00     0.002 A 
ATOM     62  C   UNL     1     -18.875   0.782  -2.638  1.00  0.00     0.091 A 
ATOM     63  F   UNL     1     -18.191   0.049  -0.471  1.00  0.00    -0.205 F 
ATOM     64  C   UNL     1     -18.875   0.588  -4.030  1.00  0.00     0.022 A 
BRANCH  62  65
ATOM     65  S   UNL     1     -19.762   2.219  -2.024  1.00  0.00     0.127 S 
ATOM     66  O   UNL     1     -18.907   3.312  -2.483  1.00  0.00    -0.237 OA
ATOM     67  O   UNL     1     -21.043   2.112  -2.724  1.00  0.00    -0.237 OA
ATOM     68  O   UNL     1     -19.843   2.055  -0.579  1.00  0.00    -0.744 OA
ENDBRANCH  62  65
ENDBRANCH  44  58
BRANCH  45  69
ATOM     69  C   UNL     1     -13.151  -8.187   3.312  1.00  0.00     0.023 A 
ATOM     70  C   UNL     1     -13.366  -9.551   3.032  1.00  0.00     0.012 A 
ATOM     71  C   UNL     1     -12.333  -7.833   4.402  1.00  0.00     0.148 A 
ATOM     72  C   UNL     1     -12.815 -10.542   3.845  1.00  0.00     0.002 A 
ATOM     73  C   UNL     1     -11.742  -8.826   5.176  1.00  0.00     0.091 A 
ATOM     74  F   UNL     1     -12.152  -6.531   4.667  1.00  0.00    -0.205 F 
ATOM     75  C   UNL     1     -11.997 -10.181   4.912  1.00  0.00     0.022 A 
BRANCH  73  76
ATOM     76  S   UNL     1     -10.576  -8.443   6.488  1.00  0.00     0.127 S 
ATOM     77  O   UNL     1     -11.406  -8.592   7.680  1.00  0.00    -0.237 OA
ATOM     78  O   UNL     1      -9.560  -9.481   6.311  1.00  0.00    -0.237 OA
ATOM     79  O   UNL     1     -10.105  -7.094   6.200  1.00  0.00    -0.744 OA
ENDBRANCH  73  76
ENDBRANCH  45  69
BRANCH  57  80
ATOM     80  C   UNL     1     -19.810  -6.533   2.070  1.00  0.00     0.023 A 
ATOM     81  C   UNL     1     -20.227  -6.270   3.389  1.00  0.00     0.012 A 
ATOM     82  C   UNL     1     -20.652  -7.263   1.209  1.00  0.00     0.148 A 
ATOM     83  C   UNL     1     -21.450  -6.753   3.854  1.00  0.00     0.002 A 
ATOM     84  C   UNL     1     -21.890  -7.700   1.664  1.00  0.00     0.091 A 
ATOM     85  F   UNL     1     -20.227  -7.519  -0.037  1.00  0.00    -0.205 F 
ATOM     86  C   UNL     1     -22.285  -7.457   2.990  1.00  0.00     0.022 A 
BRANCH  84  87
ATOM     87  S   UNL     1     -23.069  -8.531   0.593  1.00  0.00     0.127 S 
ATOM     88  O   UNL     1     -22.972  -9.913   1.059  1.00  0.00    -0.237 OA
ATOM     89  O   UNL     1     -24.325  -7.860   0.932  1.00  0.00    -0.237 OA
ATOM     90  O   UNL     1     -22.608  -8.294  -0.768  1.00  0.00    -0.744 OA
ENDBRANCH  84  87
ENDBRANCH  57  80
ENDBRANCH  31  32
ENDBRANCH  23  26
ENDBRANCH  21  22
ENDBRANCH  20  21
ENDBRANCH   1  20
TORSDOF 20
