REMARK SMILES NC(=O)c1c(-c2ccc(Cl)cc2)csc1NC(=O)[C@H]1[C@@H](C(=O)NCCCCNC(=O)c2ccc(-c3c4nc(c(-c5cccc(S(=O)(=O)[O-])c5F)c5ccc([nH]5)c(-c5cccc(S(=O)(=O)[O-])c5F)c5nc(c(-c6cccc(S(=O)(=O)[O-])c6F)c6ccc3[nH]6)C=C5)C=C4)cc2)[C@@H]2CC[C@H]1O2
REMARK SMILES IDX 25 1 24 2 23 3 21 4 22 5 20 7 19 8 97 9 94 10 96 11 98 12
REMARK SMILES IDX 95 13 17 14 16 15 18 17 15 18 4 19 5 20 13 21 14 22 2 23
REMARK SMILES IDX 1 24 3 27 6 28 7 29 12 30 8 31 11 32 9 33 10 34 26 35 27 36
REMARK SMILES IDX 28 37 29 38 30 40 31 41 32 42 93 43 33 44 92 45 34 46 35 47
REMARK SMILES IDX 36 48 86 49 37 50 91 51 85 52 87 53 38 54 90 55 84 56 83 57
REMARK SMILES IDX 39 59 71 60 51 61 70 62 52 63 55 64 69 65 88 66 53 67 54 68
REMARK SMILES IDX 68 70 89 71 56 72 40 73 41 74 49 75 42 76 44 77 50 78 43 79
REMARK SMILES IDX 45 80 46 81 47 82 48 83 72 84 73 85 81 86 74 87 76 88 82 89
REMARK SMILES IDX 75 90 77 91 78 92 79 93 80 94 57 95 58 96 66 97 59 98 61 99
REMARK SMILES IDX 67 100 60 101 62 102 63 103 64 104 65 105
REMARK H PARENT 23 6 16 16 1 25 1 26 28 39 87 58 55 69
REMARK Flexibility Score: inf
ROOT
ATOM      1  C   UNL     1       3.752   8.160  -1.047  1.00  0.00     0.023 C 
ENDROOT
BRANCH   1   2
ATOM      2  C   UNL     1       2.613   7.372  -0.419  1.00  0.00     0.116 C 
BRANCH   2   3
ATOM      3  N   UNL     1       2.639   7.254   1.011  1.00  0.00    -0.356 N 
ATOM      4  C   UNL     1       1.617   6.989   1.861  1.00  0.00     0.226 C 
ATOM      5  O   UNL     1       1.938   6.756   3.035  1.00  0.00    -0.275 OA
ATOM      6  H   UNL     1       3.519   7.383   1.432  1.00  0.00     0.163 HD
BRANCH   4   7
ATOM      7  C   UNL     1       0.130   7.111   1.536  1.00  0.00     0.122 C 
ATOM      8  C   UNL     1      -0.649   6.514   0.343  1.00  0.00     0.123 C 
ATOM      9  C   UNL     1      -1.554   7.673  -0.024  1.00  0.00     0.132 C 
ATOM     10  C   UNL     1      -0.300   8.589   1.500  1.00  0.00     0.132 C 
ATOM     11  C   UNL     1      -2.563   8.026   1.076  1.00  0.00     0.035 C 
ATOM     12  O   UNL     1      -0.639   8.785   0.110  1.00  0.00    -0.373 OA
ATOM     13  C   UNL     1      -1.694   8.758   2.101  1.00  0.00     0.035 C 
BRANCH   8  14
ATOM     14  C   UNL     1       0.109   5.687  -0.692  1.00  0.00     0.231 C 
ATOM     15  N   UNL     1       0.377   5.873  -2.011  1.00  0.00    -0.317 N 
ATOM     16  H   UNL     1       0.780   5.058  -2.387  1.00  0.00     0.170 HD
ATOM     17  O   UNL     1       0.577   4.618  -0.249  1.00  0.00    -0.274 OA
BRANCH  15  18
ATOM     18  C   UNL     1       0.266   6.843  -3.002  1.00  0.00     0.108 A 
ATOM     19  C   UNL     1       0.779   6.758  -4.306  1.00  0.00     0.082 A 
ATOM     20  C   UNL     1       0.419   7.929  -5.092  1.00  0.00     0.007 A 
ATOM     21  C   UNL     1      -0.289   8.836  -4.335  1.00  0.00     0.076 A 
ATOM     22  S   UNL     1      -0.418   8.352  -2.738  1.00  0.00    -0.125 S 
BRANCH  19  23
ATOM     23  C   UNL     1       1.599   5.619  -4.713  1.00  0.00     0.252 C 
ATOM     24  N   UNL     1       2.562   5.869  -5.639  1.00  0.00    -0.365 N 
ATOM     25  H   UNL     1       3.146   5.141  -5.952  1.00  0.00     0.159 HD
ATOM     26  H   UNL     1       2.676   6.779  -5.997  1.00  0.00     0.159 HD
ATOM     27  O   UNL     1       1.516   4.525  -4.161  1.00  0.00    -0.269 OA
ENDBRANCH  19  23
BRANCH  20  28
ATOM     28  C   UNL     1       0.634   8.271  -6.494  1.00  0.00    -0.017 A 
ATOM     29  C   UNL     1       1.161   9.534  -6.818  1.00  0.00     0.010 A 
ATOM     30  C   UNL     1       0.199   7.426  -7.519  1.00  0.00     0.010 A 
ATOM     31  C   UNL     1       1.209   9.966  -8.143  1.00  0.00     0.021 A 
ATOM     32  C   UNL     1       0.257   7.857  -8.849  1.00  0.00     0.021 A 
ATOM     33  C   UNL     1       0.748   9.127  -9.153  1.00  0.00     0.041 A 
ATOM     34  Cl  UNL     1       0.760   9.677 -10.783  1.00  0.00    -0.084 Cl
ENDBRANCH  20  28
ENDBRANCH  15  18
ENDBRANCH   8  14
ENDBRANCH   4   7
ENDBRANCH   2   3
ENDBRANCH   1   2
BRANCH   1  35
ATOM     35  C   UNL     1       5.147   7.549  -0.923  1.00  0.00     0.023 C 
BRANCH  35  36
ATOM     36  C   UNL     1       5.298   6.075  -1.294  1.00  0.00     0.116 C 
BRANCH  36  37
ATOM     37  N   UNL     1       4.884   5.745  -2.655  1.00  0.00    -0.352 N 
ATOM     38  C   UNL     1       5.584   5.122  -3.667  1.00  0.00     0.251 C 
ATOM     39  H   UNL     1       3.963   6.007  -2.885  1.00  0.00     0.163 HD
ATOM     40  O   UNL     1       5.079   4.995  -4.781  1.00  0.00    -0.269 OA
BRANCH  38  41
ATOM     41  C   UNL     1       6.969   4.654  -3.433  1.00  0.00     0.039 A 
ATOM     42  C   UNL     1       7.957   4.979  -4.368  1.00  0.00     0.014 A 
ATOM     43  C   UNL     1       7.306   3.940  -2.282  1.00  0.00     0.014 A 
ATOM     44  C   UNL     1       9.296   4.690  -4.090  1.00  0.00     0.010 A 
ATOM     45  C   UNL     1       8.646   3.734  -1.966  1.00  0.00     0.010 A 
ATOM     46  C   UNL     1       9.658   4.121  -2.858  1.00  0.00    -0.014 A 
BRANCH  46  47
ATOM     47  C   UNL     1      11.084   3.970  -2.461  1.00  0.00     0.031 A 
ATOM     48  C   UNL     1      11.650   2.611  -2.149  1.00  0.00     0.074 A 
ATOM     49  C   UNL     1      11.839   5.072  -2.268  1.00  0.00     0.049 A 
ATOM     50  N   UNL     1      12.841   2.297  -1.709  1.00  0.00    -0.248 NA
ATOM     51  C   UNL     1      10.752   1.457  -2.321  1.00  0.00     0.031 C 
ATOM     52  C   UNL     1      11.380   6.453  -2.436  1.00  0.00     0.029 A 
ATOM     53  N   UNL     1      13.143   5.207  -1.858  1.00  0.00    -0.354 N 
ATOM     54  C   UNL     1      12.822   0.922  -1.508  1.00  0.00     0.074 A 
ATOM     55  C   UNL     1      11.491   0.465  -1.844  1.00  0.00     0.031 C 
ATOM     56  C   UNL     1      12.385   7.292  -2.138  1.00  0.00     0.029 A 
ATOM     57  C   UNL     1      13.552   6.515  -1.734  1.00  0.00     0.049 A 
ATOM     58  H   UNL     1      13.730   4.439  -1.671  1.00  0.00     0.167 HD
ATOM     59  C   UNL     1      13.828   0.107  -1.112  1.00  0.00     0.034 A 
ATOM     60  C   UNL     1      14.732   7.032  -1.339  1.00  0.00     0.034 A 
ATOM     61  C   UNL     1      15.168   0.552  -0.842  1.00  0.00     0.049 A 
ATOM     62  C   UNL     1      15.858   6.099  -0.985  1.00  0.00     0.074 A 
ATOM     63  C   UNL     1      16.283  -0.209  -0.538  1.00  0.00     0.029 A 
ATOM     64  N   UNL     1      15.577   1.876  -0.846  1.00  0.00    -0.354 N 
ATOM     65  N   UNL     1      15.867   4.788  -0.971  1.00  0.00    -0.248 NA
ATOM     66  C   UNL     1      17.146   6.713  -0.630  1.00  0.00     0.031 C 
ATOM     67  C   UNL     1      17.366   0.656  -0.353  1.00  0.00     0.029 A 
ATOM     68  C   UNL     1      16.927   1.956  -0.552  1.00  0.00     0.049 A 
ATOM     69  H   UNL     1      14.993   2.647  -1.031  1.00  0.00     0.167 HD
ATOM     70  C   UNL     1      17.166   4.420  -0.640  1.00  0.00     0.074 A 
ATOM     71  C   UNL     1      17.921   5.646  -0.483  1.00  0.00     0.031 C 
ATOM     72  C   UNL     1      17.681   3.179  -0.462  1.00  0.00     0.034 A 
BRANCH  59  73
ATOM     73  C   UNL     1      13.537  -1.368  -1.023  1.00  0.00     0.023 A 
ATOM     74  C   UNL     1      13.377  -2.112  -2.210  1.00  0.00     0.012 A 
ATOM     75  C   UNL     1      13.478  -2.029   0.220  1.00  0.00     0.148 A 
ATOM     76  C   UNL     1      13.129  -3.482  -2.163  1.00  0.00     0.002 A 
ATOM     77  C   UNL     1      13.271  -3.404   0.257  1.00  0.00     0.091 A 
ATOM     78  F   UNL     1      13.611  -1.302   1.339  1.00  0.00    -0.205 F 
ATOM     79  C   UNL     1      13.086  -4.129  -0.931  1.00  0.00     0.022 A 
BRANCH  77  80
ATOM     80  S   UNL     1      13.276  -4.341   1.790  1.00  0.00     0.127 S 
ATOM     81  O   UNL     1      11.856  -4.648   1.953  1.00  0.00    -0.237 OA
ATOM     82  O   UNL     1      14.112  -5.492   1.445  1.00  0.00    -0.237 OA
ATOM     83  O   UNL     1      13.848  -3.459   2.797  1.00  0.00    -0.744 OA
ENDBRANCH  77  80
ENDBRANCH  59  73
BRANCH  60  84
ATOM     84  C   UNL     1      14.935   8.509  -1.344  1.00  0.00     0.023 A 
ATOM     85  C   UNL     1      15.766   9.083  -2.326  1.00  0.00     0.012 A 
ATOM     86  C   UNL     1      14.287   9.349  -0.417  1.00  0.00     0.148 A 
ATOM     87  C   UNL     1      15.973  10.463  -2.367  1.00  0.00     0.002 A 
ATOM     88  C   UNL     1      14.456  10.727  -0.497  1.00  0.00     0.091 A 
ATOM     89  F   UNL     1      13.511   8.784   0.518  1.00  0.00    -0.205 F 
ATOM     90  C   UNL     1      15.310  11.285  -1.461  1.00  0.00     0.022 A 
BRANCH  88  91
ATOM     91  S   UNL     1      13.536  11.867   0.543  1.00  0.00     0.127 S 
ATOM     92  O   UNL     1      14.558  12.298   1.493  1.00  0.00    -0.237 OA
ATOM     93  O   UNL     1      13.118  12.889  -0.418  1.00  0.00    -0.237 OA
ATOM     94  O   UNL     1      12.438  11.087   1.097  1.00  0.00    -0.744 OA
ENDBRANCH  88  91
ENDBRANCH  60  84
BRANCH  72  95
ATOM     95  C   UNL     1      19.140   3.071  -0.106  1.00  0.00     0.023 A 
ATOM     96  C   UNL     1      19.563   3.396   1.198  1.00  0.00     0.012 A 
ATOM     97  C   UNL     1      20.074   2.569  -1.033  1.00  0.00     0.148 A 
ATOM     98  C   UNL     1      20.900   3.247   1.566  1.00  0.00     0.002 A 
ATOM     99  C   UNL     1      21.396   2.382  -0.646  1.00  0.00     0.091 A 
ATOM    100  F   UNL     1      19.655   2.287  -2.276  1.00  0.00    -0.205 F 
ATOM    101  C   UNL     1      21.812   2.729   0.649  1.00  0.00     0.022 A 
BRANCH  99 102
ATOM    102  S   UNL     1      22.614   1.634  -1.734  1.00  0.00     0.127 S 
ATOM    103  O   UNL     1      23.380   2.800  -2.171  1.00  0.00    -0.237 OA
ATOM    104  O   UNL     1      23.334   0.736  -0.830  1.00  0.00    -0.237 OA
ATOM    105  O   UNL     1      21.854   0.956  -2.775  1.00  0.00    -0.744 OA
ENDBRANCH  99 102
ENDBRANCH  72  95
ENDBRANCH  46  47
ENDBRANCH  38  41
ENDBRANCH  36  37
ENDBRANCH  35  36
ENDBRANCH   1  35
TORSDOF 18
