REMARK SMILES CC1(C)CC[C@@]2(C(=O)NCCCCNC(=O)c3ccc(-c4c5nc(c(-c6cccc(S(=O)(=O)[O-])c6F)c6ccc([nH]6)c(-c6cccc(S(=O)(=O)[O-])c6F)c6nc(c(-c7cccc(S(=O)(=O)[O-])c7F)c7ccc4[nH]7)C=C6)C=C5)cc3)CC[C@@]3(C)C(=CC[C@H]4[C@@]5(C)CC[C@H](O)C(C)(C)[C@@H]5CC[C@]43C)[C@@H]2C1
REMARK SMILES IDX 12 1 11 2 10 3 9 4 7 5 8 6 6 8 1 9 2 10 3 11 4 12 103 13
REMARK SMILES IDX 5 14 102 15 84 16 80 17 82 18 85 19 81 20 83 21 100 22 86 23
REMARK SMILES IDX 87 24 99 25 101 26 88 27 98 28 89 29 90 30 97 31 91 32 94 33
REMARK SMILES IDX 92 34 95 35 96 36 93 37 13 39 14 40 15 41 16 43 17 44 18 45
REMARK SMILES IDX 79 46 19 47 78 48 20 49 21 50 22 51 72 52 23 53 77 54 71 55
REMARK SMILES IDX 73 56 24 57 76 58 70 59 69 60 25 62 57 63 37 64 56 65 38 66
REMARK SMILES IDX 41 67 55 68 74 69 39 70 40 71 54 73 75 74 42 75 26 76 27 77
REMARK SMILES IDX 35 78 28 79 30 80 36 81 29 82 31 83 32 84 33 85 34 86 58 87
REMARK SMILES IDX 59 88 67 89 60 90 62 91 68 92 61 93 63 94 64 95 65 96 66 97
REMARK SMILES IDX 43 98 44 99 52 100 45 101 47 102 53 103 46 104 48 105 49 106
REMARK SMILES IDX 50 107 51 108
REMARK H PARENT 9 7 93 38 14 42 73 61 41 72
REMARK Flexibility Score: inf
ROOT
ATOM      1  C   UNL     1       2.961  -0.362  -4.285  1.00  0.00     0.023 C 
ENDROOT
BRANCH   1   2
ATOM      2  C   UNL     1       1.617  -0.878  -3.745  1.00  0.00     0.023 C 
BRANCH   2   3
ATOM      3  C   UNL     1       0.874  -0.115  -2.651  1.00  0.00     0.116 C 
BRANCH   3   4
ATOM      4  N   UNL     1      -0.098   0.913  -2.906  1.00  0.00    -0.356 N 
ATOM      5  C   UNL     1      -1.325   1.088  -2.312  1.00  0.00     0.226 C 
ATOM      6  O   UNL     1      -2.349   0.739  -2.896  1.00  0.00    -0.274 OA
ATOM      7  H   UNL     1       0.145   1.574  -3.594  1.00  0.00     0.163 HD
BRANCH   5   8
ATOM      8  C   UNL     1      -1.378   1.798  -0.920  1.00  0.00     0.056 C 
ATOM      9  C   UNL     1       0.455  -0.283   2.115  1.00  0.00     0.011 C 
ATOM     10  C   UNL     1       0.411  -0.146   0.575  1.00  0.00    -0.035 C 
ATOM     11  C   UNL     1       1.364  -1.294   0.087  1.00  0.00     0.011 C 
ATOM     12  C   UNL     1      -1.040  -0.469   0.150  1.00  0.00     0.007 C 
ATOM     13  C   UNL     1       0.930   1.329   0.182  1.00  0.00     0.015 C 
ATOM     14  C   UNL     1      -1.921   0.760   0.076  1.00  0.00     0.018 C 
ATOM     15  C   UNL     1      -0.039   2.419  -0.471  1.00  0.00     0.031 C 
ATOM     16  C   UNL     1       0.411   3.405  -1.645  1.00  0.00    -0.064 C 
ATOM     17  C   UNL     1      -2.396   2.962  -0.923  1.00  0.00     0.018 C 
ATOM     18  C   UNL     1      -0.639   4.441  -2.216  1.00  0.00    -0.006 C 
ATOM     19  C   UNL     1       1.617   3.310  -2.234  1.00  0.00    -0.027 C 
ATOM     20  C   UNL     1      -2.112   3.980  -2.015  1.00  0.00     0.013 C 
ATOM     21  C   UNL     1      -0.445   5.641  -1.216  1.00  0.00     0.017 C 
ATOM     22  C   UNL     1      -0.391   4.935  -3.835  1.00  0.00    -0.020 C 
ATOM     23  C   UNL     1       1.918   3.748  -3.643  1.00  0.00     0.032 C 
ATOM     24  C   UNL     1       0.705   4.071  -4.579  1.00  0.00     0.006 C 
ATOM     25  C   UNL     1      -1.680   5.124  -4.758  1.00  0.00     0.008 C 
ATOM     26  C   UNL     1       0.228   6.392  -3.808  1.00  0.00     0.012 C 
ATOM     27  C   UNL     1       0.305   3.045  -5.813  1.00  0.00    -0.025 C 
ATOM     28  C   UNL     1      -1.692   4.493  -6.181  1.00  0.00     0.005 C 
ATOM     29  C   UNL     1       1.257   3.465  -6.971  1.00  0.00     0.012 C 
ATOM     30  C   UNL     1       0.576   1.572  -5.584  1.00  0.00     0.010 C 
ATOM     31  C   UNL     1      -1.219   3.047  -6.146  1.00  0.00     0.003 C 
ATOM     32  C   UNL     1       0.330   0.576  -6.704  1.00  0.00     0.033 C 
ATOM     33  C   UNL     1      -1.686   2.014  -7.307  1.00  0.00    -0.006 C 
ATOM     34  C   UNL     1      -1.170   0.569  -6.976  1.00  0.00     0.120 C 
ATOM     35  C   UNL     1      -1.232   2.369  -8.736  1.00  0.00     0.014 C 
ATOM     36  C   UNL     1      -3.231   1.925  -7.351  1.00  0.00     0.014 C 
BRANCH  34  37
ATOM     37  O   UNL     1      -1.447  -0.379  -8.007  1.00  0.00    -0.393 OA
ATOM     38  H   UNL     1      -0.973  -0.127  -8.815  1.00  0.00     0.210 HD
ENDBRANCH  34  37
ENDBRANCH   5   8
ENDBRANCH   3   4
ENDBRANCH   2   3
ENDBRANCH   1   2
BRANCH   1  39
ATOM     39  C   UNL     1       4.019  -0.062  -3.235  1.00  0.00     0.116 C 
BRANCH  39  40
ATOM     40  N   UNL     1       4.790  -1.261  -2.982  1.00  0.00    -0.352 N 
ATOM     41  C   UNL     1       5.751  -1.787  -3.826  1.00  0.00     0.251 C 
ATOM     42  H   UNL     1       4.617  -1.741  -2.140  1.00  0.00     0.163 HD
ATOM     43  O   UNL     1       5.984  -2.985  -3.827  1.00  0.00    -0.269 OA
BRANCH  41  44
ATOM     44  C   UNL     1       6.474  -0.864  -4.735  1.00  0.00     0.039 A 
ATOM     45  C   UNL     1       6.740  -1.228  -6.058  1.00  0.00     0.014 A 
ATOM     46  C   UNL     1       6.903   0.372  -4.249  1.00  0.00     0.014 A 
ATOM     47  C   UNL     1       7.441  -0.345  -6.889  1.00  0.00     0.010 A 
ATOM     48  C   UNL     1       7.481   1.293  -5.107  1.00  0.00     0.010 A 
ATOM     49  C   UNL     1       7.821   0.922  -6.416  1.00  0.00    -0.014 A 
BRANCH  49  50
ATOM     50  C   UNL     1       8.689   1.847  -7.191  1.00  0.00     0.031 A 
ATOM     51  C   UNL     1      10.010   2.268  -6.589  1.00  0.00     0.074 A 
ATOM     52  C   UNL     1       8.266   2.388  -8.349  1.00  0.00     0.049 A 
ATOM     53  N   UNL     1      10.839   3.201  -6.974  1.00  0.00    -0.248 NA
ATOM     54  C   UNL     1      10.421   1.587  -5.346  1.00  0.00     0.031 C 
ATOM     55  C   UNL     1       6.984   2.112  -9.000  1.00  0.00     0.029 A 
ATOM     56  N   UNL     1       8.861   3.316  -9.167  1.00  0.00    -0.354 N 
ATOM     57  C   UNL     1      11.819   3.265  -5.989  1.00  0.00     0.074 A 
ATOM     58  C   UNL     1      11.453   2.319  -4.962  1.00  0.00     0.031 C 
ATOM     59  C   UNL     1       6.892   2.850 -10.118  1.00  0.00     0.029 A 
ATOM     60  C   UNL     1       8.086   3.680 -10.244  1.00  0.00     0.049 A 
ATOM     61  H   UNL     1       9.758   3.685  -8.999  1.00  0.00     0.167 HD
ATOM     62  C   UNL     1      12.946   4.014  -5.957  1.00  0.00     0.034 A 
ATOM     63  C   UNL     1       8.312   4.591 -11.211  1.00  0.00     0.034 A 
ATOM     64  C   UNL     1      13.344   4.884  -7.025  1.00  0.00     0.049 A 
ATOM     65  C   UNL     1       9.605   5.364 -11.193  1.00  0.00     0.074 A 
ATOM     66  C   UNL     1      14.514   5.610  -7.154  1.00  0.00     0.029 A 
ATOM     67  N   UNL     1      12.584   5.138  -8.156  1.00  0.00    -0.354 N 
ATOM     68  N   UNL     1      10.580   5.321 -10.317  1.00  0.00    -0.248 NA
ATOM     69  C   UNL     1       9.848   6.285 -12.313  1.00  0.00     0.031 C 
ATOM     70  C   UNL     1      14.448   6.325  -8.353  1.00  0.00     0.029 A 
ATOM     71  C   UNL     1      13.256   6.011  -8.989  1.00  0.00     0.049 A 
ATOM     72  H   UNL     1      11.696   4.753  -8.338  1.00  0.00     0.167 HD
ATOM     73  C   UNL     1      11.570   6.168 -10.803  1.00  0.00     0.074 A 
ATOM     74  C   UNL     1      11.079   6.705 -12.055  1.00  0.00     0.031 C 
ATOM     75  C   UNL     1      12.773   6.478 -10.262  1.00  0.00     0.034 A 
BRANCH  62  76
ATOM     76  C   UNL     1      13.848   3.881  -4.756  1.00  0.00     0.023 A 
ATOM     77  C   UNL     1      14.543   2.675  -4.526  1.00  0.00     0.012 A 
ATOM     78  C   UNL     1      14.038   4.963  -3.873  1.00  0.00     0.148 A 
ATOM     79  C   UNL     1      15.370   2.529  -3.413  1.00  0.00     0.002 A 
ATOM     80  C   UNL     1      14.907   4.829  -2.797  1.00  0.00     0.091 A 
ATOM     81  F   UNL     1      13.356   6.096  -4.093  1.00  0.00    -0.205 F 
ATOM     82  C   UNL     1      15.560   3.609  -2.556  1.00  0.00     0.022 A 
BRANCH  80  83
ATOM     83  S   UNL     1      15.290   6.185  -1.684  1.00  0.00     0.127 S 
ATOM     84  O   UNL     1      14.661   5.735  -0.443  1.00  0.00    -0.237 OA
ATOM     85  O   UNL     1      16.753   6.164  -1.668  1.00  0.00    -0.237 OA
ATOM     86  O   UNL     1      14.704   7.376  -2.283  1.00  0.00    -0.744 OA
ENDBRANCH  80  83
ENDBRANCH  62  76
BRANCH  63  87
ATOM     87  C   UNL     1       7.324   4.776 -12.312  1.00  0.00     0.023 A 
ATOM     88  C   UNL     1       7.649   4.347 -13.614  1.00  0.00     0.012 A 
ATOM     89  C   UNL     1       6.059   5.346 -12.075  1.00  0.00     0.148 A 
ATOM     90  C   UNL     1       6.749   4.516 -14.666  1.00  0.00     0.002 A 
ATOM     91  C   UNL     1       5.145   5.462 -13.116  1.00  0.00     0.091 A 
ATOM     92  F   UNL     1       5.769   5.754 -10.831  1.00  0.00    -0.205 F 
ATOM     93  C   UNL     1       5.494   5.064 -14.416  1.00  0.00     0.022 A 
BRANCH  91  94
ATOM     94  S   UNL     1       3.462   6.038 -12.864  1.00  0.00     0.127 S 
ATOM     95  O   UNL     1       3.480   7.324 -13.558  1.00  0.00    -0.237 OA
ATOM     96  O   UNL     1       2.684   4.991 -13.526  1.00  0.00    -0.237 OA
ATOM     97  O   UNL     1       3.280   6.102 -11.420  1.00  0.00    -0.744 OA
ENDBRANCH  91  94
ENDBRANCH  63  87
BRANCH  75  98
ATOM     98  C   UNL     1      13.686   7.384 -11.043  1.00  0.00     0.023 A 
ATOM     99  C   UNL     1      13.413   8.762 -11.131  1.00  0.00     0.012 A 
ATOM    100  C   UNL     1      14.879   6.874 -11.593  1.00  0.00     0.148 A 
ATOM    101  C   UNL     1      14.304   9.617 -11.777  1.00  0.00     0.002 A 
ATOM    102  C   UNL     1      15.788   7.740 -12.185  1.00  0.00     0.091 A 
ATOM    103  F   UNL     1      15.108   5.556 -11.509  1.00  0.00    -0.205 F 
ATOM    104  C   UNL     1      15.497   9.109 -12.290  1.00  0.00     0.022 A 
BRANCH 102 105
ATOM    105  S   UNL     1      17.395   7.194 -12.773  1.00  0.00     0.127 S 
ATOM    106  O   UNL     1      17.246   7.337 -14.220  1.00  0.00    -0.237 OA
ATOM    107  O   UNL     1      18.296   8.165 -12.153  1.00  0.00    -0.237 OA
ATOM    108  O   UNL     1      17.556   5.827 -12.297  1.00  0.00    -0.744 OA
ENDBRANCH 102 105
ENDBRANCH  75  98
ENDBRANCH  49  50
ENDBRANCH  41  44
ENDBRANCH  39  40
ENDBRANCH   1  39
TORSDOF 15
