REMARK SMILES C[C@@H](C(=O)NCCCCNC(=O)c1ccc(-c2c3nc(c(-c4cccc(S(=O)(=O)[O-])c4F)c4ccc([nH]4)c(-c4cccc(S(=O)(=O)[O-])c4F)c4nc(c(-c5cccc(S(=O)(=O)[O-])c5F)c5ccc2[nH]5)C=C4)C=C3)cc1)c1ccc(-c2ccn(C(F)F)c(=O)c2)cc1
REMARK SMILES IDX 7 1 6 2 5 3 3 4 4 5 2 7 1 8 76 9 77 10 91 11 78 12 90 13
REMARK SMILES IDX 79 14 80 15 81 16 89 17 82 18 87 19 83 20 88 21 84 22 85 23
REMARK SMILES IDX 86 24 8 25 9 26 10 27 11 28 12 30 13 31 14 32 75 33 15 34
REMARK SMILES IDX 74 35 16 36 17 37 18 38 68 39 19 40 73 41 67 42 69 43 20 44
REMARK SMILES IDX 72 45 66 46 65 47 21 49 53 50 33 51 52 52 34 53 37 54 51 55
REMARK SMILES IDX 70 56 35 57 36 58 50 60 71 61 38 62 22 63 23 64 31 65 24 66
REMARK SMILES IDX 26 67 32 68 25 69 27 70 28 71 29 72 30 73 54 74 55 75 63 76
REMARK SMILES IDX 56 77 58 78 64 79 57 80 59 81 60 82 61 83 62 84 39 85 40 86
REMARK SMILES IDX 48 87 41 88 43 89 49 90 42 91 44 92 45 93 46 94 47 95
REMARK H PARENT 5 6 10 29 69 48 37 59
REMARK Flexibility Score: inf
ROOT
ATOM      1  C   UNL     1       4.207   0.748  -1.050  1.00  0.00     0.023 C 
ENDROOT
BRANCH   1   2
ATOM      2  C   UNL     1       3.377   1.897  -0.472  1.00  0.00     0.116 C 
BRANCH   2   3
ATOM      3  N   UNL     1       2.277   2.244  -1.349  1.00  0.00    -0.356 N 
ATOM      4  C   UNL     1       0.955   1.901  -1.288  1.00  0.00     0.227 C 
ATOM      5  O   UNL     1       0.245   2.255  -2.231  1.00  0.00    -0.274 OA
ATOM      6  H   UNL     1       2.520   2.819  -2.110  1.00  0.00     0.163 HD
BRANCH   4   7
ATOM      7  C   UNL     1       0.402   1.149  -0.061  1.00  0.00     0.105 C 
ATOM      8  C   UNL     1       0.934  -0.290  -0.024  1.00  0.00     0.023 C 
BRANCH   7   9
ATOM      9  C   UNL     1      -1.130   1.218   0.012  1.00  0.00    -0.036 A 
ATOM     10  C   UNL     1      -1.763   2.466   0.166  1.00  0.00     0.005 A 
ATOM     11  C   UNL     1      -1.942   0.079  -0.088  1.00  0.00     0.005 A 
ATOM     12  C   UNL     1      -3.160   2.570   0.203  1.00  0.00     0.009 A 
ATOM     13  C   UNL     1      -3.331   0.178  -0.034  1.00  0.00     0.009 A 
ATOM     14  C   UNL     1      -3.952   1.423   0.104  1.00  0.00    -0.018 A 
BRANCH  14  15
ATOM     15  C   UNL     1      -5.423   1.468   0.115  1.00  0.00    -0.011 A 
ATOM     16  C   UNL     1      -6.204   0.874   1.182  1.00  0.00     0.027 A 
ATOM     17  C   UNL     1      -6.053   1.969  -0.962  1.00  0.00     0.080 A 
ATOM     18  C   UNL     1      -7.531   0.760   1.068  1.00  0.00     0.095 A 
ATOM     19  C   UNL     1      -7.535   1.881  -1.085  1.00  0.00     0.255 A 
ATOM     20  N   UNL     1      -8.192   1.234  -0.049  1.00  0.00    -0.258 N 
ATOM     21  O   UNL     1      -8.075   2.350  -2.082  1.00  0.00    -0.269 OA
BRANCH  20  22
ATOM     22  C   UNL     1      -9.611   1.049  -0.191  1.00  0.00     0.451 C 
ATOM     23  F   UNL     1     -10.259   2.233  -0.308  1.00  0.00    -0.185 F 
ATOM     24  F   UNL     1      -9.900   0.300  -1.284  1.00  0.00    -0.185 F 
ENDBRANCH  20  22
ENDBRANCH  14  15
ENDBRANCH   7   9
ENDBRANCH   4   7
ENDBRANCH   2   3
ENDBRANCH   1   2
BRANCH   1  25
ATOM     25  C   UNL     1       5.007   1.100  -2.305  1.00  0.00     0.023 C 
BRANCH  25  26
ATOM     26  C   UNL     1       6.037   2.206  -2.126  1.00  0.00     0.116 C 
BRANCH  26  27
ATOM     27  N   UNL     1       7.043   1.893  -1.118  1.00  0.00    -0.352 N 
ATOM     28  C   UNL     1       8.389   2.173  -1.149  1.00  0.00     0.251 C 
ATOM     29  H   UNL     1       6.718   1.424  -0.316  1.00  0.00     0.163 HD
ATOM     30  O   UNL     1       9.136   1.748  -0.272  1.00  0.00    -0.269 OA
BRANCH  28  31
ATOM     31  C   UNL     1       8.926   2.961  -2.276  1.00  0.00     0.039 A 
ATOM     32  C   UNL     1       9.992   2.447  -3.020  1.00  0.00     0.014 A 
ATOM     33  C   UNL     1       8.322   4.167  -2.635  1.00  0.00     0.014 A 
ATOM     34  C   UNL     1      10.402   3.109  -4.180  1.00  0.00     0.010 A 
ATOM     35  C   UNL     1       8.687   4.786  -3.824  1.00  0.00     0.010 A 
ATOM     36  C   UNL     1       9.725   4.260  -4.611  1.00  0.00    -0.014 A 
BRANCH  36  37
ATOM     37  C   UNL     1      10.050   4.934  -5.892  1.00  0.00     0.031 A 
ATOM     38  C   UNL     1      10.535   6.355  -5.884  1.00  0.00     0.074 A 
ATOM     39  C   UNL     1       9.755   4.325  -7.058  1.00  0.00     0.049 A 
ATOM     40  N   UNL     1      10.702   7.176  -6.886  1.00  0.00    -0.248 NA
ATOM     41  C   UNL     1      10.830   6.944  -4.567  1.00  0.00     0.031 C 
ATOM     42  C   UNL     1       9.192   2.980  -7.191  1.00  0.00     0.029 A 
ATOM     43  N   UNL     1       9.835   4.782  -8.350  1.00  0.00    -0.354 N 
ATOM     44  C   UNL     1      11.064   8.392  -6.321  1.00  0.00     0.074 A 
ATOM     45  C   UNL     1      11.074   8.206  -4.886  1.00  0.00     0.031 C 
ATOM     46  C   UNL     1       8.953   2.731  -8.488  1.00  0.00     0.029 A 
ATOM     47  C   UNL     1       9.316   3.906  -9.275  1.00  0.00     0.049 A 
ATOM     48  H   UNL     1      10.226   5.653  -8.592  1.00  0.00     0.167 HD
ATOM     49  C   UNL     1      11.382   9.553  -6.941  1.00  0.00     0.034 A 
ATOM     50  C   UNL     1       9.131   4.041 -10.604  1.00  0.00     0.034 A 
ATOM     51  C   UNL     1      11.436   9.711  -8.368  1.00  0.00     0.049 A 
ATOM     52  C   UNL     1       9.570   5.310 -11.280  1.00  0.00     0.074 A 
ATOM     53  C   UNL     1      11.870  10.804  -9.096  1.00  0.00     0.029 A 
ATOM     54  N   UNL     1      11.040   8.750  -9.285  1.00  0.00    -0.354 N 
ATOM     55  N   UNL     1      10.083   6.391 -10.745  1.00  0.00    -0.248 NA
ATOM     56  C   UNL     1       9.442   5.368 -12.744  1.00  0.00     0.031 C 
ATOM     57  C   UNL     1      11.727  10.506 -10.456  1.00  0.00     0.029 A 
ATOM     58  C   UNL     1      11.214   9.224 -10.573  1.00  0.00     0.049 A 
ATOM     59  H   UNL     1      10.687   7.860  -9.054  1.00  0.00     0.167 HD
ATOM     60  C   UNL     1      10.368   7.245 -11.804  1.00  0.00     0.074 A 
ATOM     61  C   UNL     1       9.985   6.548 -13.015  1.00  0.00     0.031 C 
ATOM     62  C   UNL     1      10.887   8.497 -11.773  1.00  0.00     0.034 A 
BRANCH  49  63
ATOM     63  C   UNL     1      11.754  10.724  -6.073  1.00  0.00     0.023 A 
ATOM     64  C   UNL     1      12.992  10.722  -5.398  1.00  0.00     0.012 A 
ATOM     65  C   UNL     1      10.901  11.837  -5.948  1.00  0.00     0.148 A 
ATOM     66  C   UNL     1      13.357  11.789  -4.580  1.00  0.00     0.002 A 
ATOM     67  C   UNL     1      11.291  12.917  -5.163  1.00  0.00     0.091 A 
ATOM     68  F   UNL     1       9.715  11.812  -6.573  1.00  0.00    -0.205 F 
ATOM     69  C   UNL     1      12.512  12.890  -4.470  1.00  0.00     0.022 A 
BRANCH  67  70
ATOM     70  S   UNL     1      10.294  14.405  -5.029  1.00  0.00     0.127 S 
ATOM     71  O   UNL     1       9.598  14.183  -3.763  1.00  0.00    -0.237 OA
ATOM     72  O   UNL     1      11.307  15.461  -4.989  1.00  0.00    -0.237 OA
ATOM     73  O   UNL     1       9.457  14.423  -6.221  1.00  0.00    -0.744 OA
ENDBRANCH  67  70
ENDBRANCH  49  63
BRANCH  50  74
ATOM     74  C   UNL     1       8.556   2.906 -11.379  1.00  0.00     0.023 A 
ATOM     75  C   UNL     1       9.399   2.141 -12.207  1.00  0.00     0.012 A 
ATOM     76  C   UNL     1       7.205   2.534 -11.241  1.00  0.00     0.148 A 
ATOM     77  C   UNL     1       8.903   1.035 -12.898  1.00  0.00     0.002 A 
ATOM     78  C   UNL     1       6.730   1.400 -11.891  1.00  0.00     0.091 A 
ATOM     79  F   UNL     1       6.418   3.282 -10.454  1.00  0.00    -0.205 F 
ATOM     80  C   UNL     1       7.574   0.657 -12.730  1.00  0.00     0.022 A 
BRANCH  78  81
ATOM     81  S   UNL     1       5.073   0.757 -11.624  1.00  0.00     0.127 S 
ATOM     82  O   UNL     1       4.437   1.027 -12.911  1.00  0.00    -0.237 OA
ATOM     83  O   UNL     1       5.339  -0.656 -11.351  1.00  0.00    -0.237 OA
ATOM     84  O   UNL     1       4.543   1.497 -10.487  1.00  0.00    -0.744 OA
ENDBRANCH  78  81
ENDBRANCH  50  74
BRANCH  62  85
ATOM     85  C   UNL     1      11.108   9.201 -13.084  1.00  0.00     0.023 A 
ATOM     86  C   UNL     1      10.010   9.753 -13.771  1.00  0.00     0.012 A 
ATOM     87  C   UNL     1      12.412   9.415 -13.573  1.00  0.00     0.148 A 
ATOM     88  C   UNL     1      10.205  10.495 -14.935  1.00  0.00     0.002 A 
ATOM     89  C   UNL     1      12.602  10.192 -14.710  1.00  0.00     0.091 A 
ATOM     90  F   UNL     1      13.441   8.864 -12.913  1.00  0.00    -0.205 F 
ATOM     91  C   UNL     1      11.499  10.727 -15.396  1.00  0.00     0.022 A 
BRANCH  89  92
ATOM     92  S   UNL     1      14.237  10.620 -15.321  1.00  0.00     0.127 S 
ATOM     93  O   UNL     1      14.333   9.791 -16.522  1.00  0.00    -0.237 OA
ATOM     94  O   UNL     1      14.107  12.055 -15.579  1.00  0.00    -0.237 OA
ATOM     95  O   UNL     1      15.166  10.281 -14.251  1.00  0.00    -0.744 OA
ENDBRANCH  89  92
ENDBRANCH  62  85
ENDBRANCH  36  37
ENDBRANCH  28  31
ENDBRANCH  26  27
ENDBRANCH  25  26
ENDBRANCH   1  25
TORSDOF 17
