REMARK SMILES Cc1noc(C)c1C[NH2+][C@H](C)[C@H](C)C(=O)NCCCCNC(=O)c1ccc(-c2c3nc(c(-c4cccc(S(=O)(=O)[O-])c4F)c4ccc([nH]4)c(-c4cccc(S(=O)(=O)[O-])c4F)c4nc(c(-c5cccc(S(=O)(=O)[O-])c5F)c5ccc2[nH]5)C=C4)C=C3)cc1
REMARK SMILES IDX 18 1 17 2 16 3 14 4 15 5 12 7 13 8 10 9 11 10 9 11 8 14 7 15
REMARK SMILES IDX 1 16 2 17 3 18 4 19 5 20 6 21 19 22 20 23 21 24 22 25 23 27
REMARK SMILES IDX 24 28 25 29 86 30 26 31 85 32 27 33 28 34 29 35 79 36 30 37
REMARK SMILES IDX 84 38 78 39 80 40 31 41 83 42 77 43 76 44 32 46 64 47 44 48
REMARK SMILES IDX 63 49 45 50 48 51 62 52 81 53 46 54 47 55 61 57 82 58 49 59
REMARK SMILES IDX 33 60 34 61 42 62 35 63 37 64 43 65 36 66 38 67 39 68 40 69
REMARK SMILES IDX 41 70 65 71 66 72 74 73 67 74 69 75 75 76 68 77 70 78 71 79
REMARK SMILES IDX 72 80 73 81 50 82 51 83 59 84 52 85 54 86 60 87 53 88 55 89
REMARK SMILES IDX 56 90 57 91 58 92
REMARK H PARENT 16 6 9 12 9 13 21 26 80 45 48 56
REMARK Flexibility Score: inf
ROOT
ATOM      1  C   UNL     1      -1.838   6.917   1.312  1.00  0.00     0.023 C 
ENDROOT
BRANCH   1   2
ATOM      2  C   UNL     1      -2.546   6.498   0.029  1.00  0.00     0.116 C 
BRANCH   2   3
ATOM      3  N   UNL     1      -1.927   7.065  -1.153  1.00  0.00    -0.356 N 
ATOM      4  C   UNL     1      -1.460   6.479  -2.287  1.00  0.00     0.228 C 
ATOM      5  O   UNL     1      -1.004   7.211  -3.168  1.00  0.00    -0.275 OA
ATOM      6  H   UNL     1      -1.827   8.045  -1.130  1.00  0.00     0.163 HD
BRANCH   4   7
ATOM      7  C   UNL     1      -1.507   4.968  -2.497  1.00  0.00     0.133 C 
ATOM      8  C   UNL     1      -0.650   4.242  -1.454  1.00  0.00     0.024 C 
BRANCH   7   9
ATOM      9  C   UNL     1      -2.964   4.458  -2.628  1.00  0.00     0.191 C 
ATOM     10  C   UNL     1      -3.667   5.096  -3.834  1.00  0.00     0.076 C 
BRANCH   9  11
ATOM     11  N   UNL     1      -3.048   2.998  -2.813  1.00  0.00    -0.339 N 
ATOM     12  H   UNL     1      -3.494   2.805  -3.710  1.00  0.00     0.346 HD
ATOM     13  H   UNL     1      -2.102   2.620  -2.784  1.00  0.00     0.346 HD
BRANCH  11  14
ATOM     14  C   UNL     1      -3.824   2.361  -1.754  1.00  0.00     0.303 C 
BRANCH  14  15
ATOM     15  C   UNL     1      -3.981   0.924  -2.086  1.00  0.00     0.071 A 
ATOM     16  C   UNL     1      -5.466   1.052  -4.228  1.00  0.00     0.071 C 
ATOM     17  C   UNL     1      -4.710   0.349  -3.164  1.00  0.00     0.090 A 
ATOM     18  N   UNL     1      -4.657  -0.988  -3.137  1.00  0.00    -0.085 NA
ATOM     19  O   UNL     1      -3.888  -1.310  -2.035  1.00  0.00    -0.361 OA
ATOM     20  C   UNL     1      -3.490  -0.172  -1.409  1.00  0.00     0.142 A 
ATOM     21  C   UNL     1      -2.670  -0.344  -0.195  1.00  0.00     0.091 C 
ENDBRANCH  14  15
ENDBRANCH  11  14
ENDBRANCH   9  11
ENDBRANCH   7   9
ENDBRANCH   4   7
ENDBRANCH   2   3
ENDBRANCH   1   2
BRANCH   1  22
ATOM     22  C   UNL     1      -1.925   8.408   1.637  1.00  0.00     0.023 C 
BRANCH  22  23
ATOM     23  C   UNL     1      -3.333   8.993   1.657  1.00  0.00     0.116 C 
BRANCH  23  24
ATOM     24  N   UNL     1      -4.221   8.315   2.594  1.00  0.00    -0.352 N 
ATOM     25  C   UNL     1      -5.035   8.861   3.558  1.00  0.00     0.251 C 
ATOM     26  H   UNL     1      -4.239   7.333   2.528  1.00  0.00     0.163 HD
ATOM     27  O   UNL     1      -5.634   8.132   4.345  1.00  0.00    -0.269 OA
BRANCH  25  28
ATOM     28  C   UNL     1      -5.153  10.329   3.660  1.00  0.00     0.039 A 
ATOM     29  C   UNL     1      -4.933  10.942   4.896  1.00  0.00     0.014 A 
ATOM     30  C   UNL     1      -5.420  11.098   2.524  1.00  0.00     0.014 A 
ATOM     31  C   UNL     1      -4.894  12.336   4.974  1.00  0.00     0.010 A 
ATOM     32  C   UNL     1      -5.313  12.483   2.592  1.00  0.00     0.010 A 
ATOM     33  C   UNL     1      -5.040  13.116   3.814  1.00  0.00    -0.014 A 
BRANCH  33  34
ATOM     34  C   UNL     1      -4.868  14.591   3.847  1.00  0.00     0.031 A 
ATOM     35  C   UNL     1      -6.014  15.496   3.492  1.00  0.00     0.074 A 
ATOM     36  C   UNL     1      -3.648  15.110   4.089  1.00  0.00     0.049 A 
ATOM     37  N   UNL     1      -6.033  16.800   3.395  1.00  0.00    -0.248 NA
ATOM     38  C   UNL     1      -7.300  14.852   3.174  1.00  0.00     0.031 C 
ATOM     39  C   UNL     1      -2.434  14.334   4.354  1.00  0.00     0.029 A 
ATOM     40  N   UNL     1      -3.219  16.414   4.119  1.00  0.00    -0.354 N 
ATOM     41  C   UNL     1      -7.314  17.130   2.970  1.00  0.00     0.074 A 
ATOM     42  C   UNL     1      -8.035  15.888   2.797  1.00  0.00     0.031 C 
ATOM     43  C   UNL     1      -1.401  15.175   4.521  1.00  0.00     0.029 A 
ATOM     44  C   UNL     1      -1.869  16.547   4.352  1.00  0.00     0.049 A 
ATOM     45  H   UNL     1      -3.820  17.182   3.985  1.00  0.00     0.167 HD
ATOM     46  C   UNL     1      -7.853  18.356   2.774  1.00  0.00     0.034 A 
ATOM     47  C   UNL     1      -1.096  17.648   4.422  1.00  0.00     0.034 A 
ATOM     48  C   UNL     1      -7.153  19.590   3.006  1.00  0.00     0.049 A 
ATOM     49  C   UNL     1      -1.734  19.001   4.257  1.00  0.00     0.074 A 
ATOM     50  C   UNL     1      -7.645  20.882   2.947  1.00  0.00     0.029 A 
ATOM     51  N   UNL     1      -5.812  19.688   3.341  1.00  0.00    -0.354 N 
ATOM     52  N   UNL     1      -2.991  19.298   4.035  1.00  0.00    -0.248 NA
ATOM     53  C   UNL     1      -0.854  20.172   4.386  1.00  0.00     0.031 C 
ATOM     54  C   UNL     1      -6.597  21.762   3.237  1.00  0.00     0.029 A 
ATOM     55  C   UNL     1      -5.455  21.017   3.483  1.00  0.00     0.049 A 
ATOM     56  H   UNL     1      -5.202  18.924   3.459  1.00  0.00     0.167 HD
ATOM     57  C   UNL     1      -3.059  20.686   4.026  1.00  0.00     0.074 A 
ATOM     58  C   UNL     1      -1.720  21.172   4.288  1.00  0.00     0.031 C 
ATOM     59  C   UNL     1      -4.130  21.486   3.800  1.00  0.00     0.034 A 
BRANCH  46  60
ATOM     60  C   UNL     1      -9.297  18.424   2.356  1.00  0.00     0.023 A 
ATOM     61  C   UNL     1     -10.301  18.133   3.302  1.00  0.00     0.012 A 
ATOM     62  C   UNL     1      -9.665  18.824   1.057  1.00  0.00     0.148 A 
ATOM     63  C   UNL     1     -11.648  18.209   2.955  1.00  0.00     0.002 A 
ATOM     64  C   UNL     1     -11.012  18.935   0.729  1.00  0.00     0.091 A 
ATOM     65  F   UNL     1      -8.696  19.072   0.164  1.00  0.00    -0.205 F 
ATOM     66  C   UNL     1     -12.003  18.619   1.673  1.00  0.00     0.022 A 
BRANCH  64  67
ATOM     67  S   UNL     1     -11.569  19.521  -0.875  1.00  0.00     0.127 S 
ATOM     68  O   UNL     1     -12.010  18.279  -1.506  1.00  0.00    -0.237 OA
ATOM     69  O   UNL     1     -12.651  20.438  -0.512  1.00  0.00    -0.237 OA
ATOM     70  O   UNL     1     -10.414  20.163  -1.486  1.00  0.00    -0.744 OA
ENDBRANCH  64  67
ENDBRANCH  46  60
BRANCH  47  71
ATOM     71  C   UNL     1       0.353  17.519   4.742  1.00  0.00     0.023 A 
ATOM     72  C   UNL     1       0.813  17.924   6.011  1.00  0.00     0.012 A 
ATOM     73  C   UNL     1       1.267  16.967   3.825  1.00  0.00     0.148 A 
ATOM     74  C   UNL     1       2.161  17.805   6.351  1.00  0.00     0.002 A 
ATOM     75  C   UNL     1       2.600  16.804   4.189  1.00  0.00     0.091 A 
ATOM     76  F   UNL     1       0.815  16.602   2.616  1.00  0.00    -0.205 F 
ATOM     77  C   UNL     1       3.052  17.236   5.445  1.00  0.00     0.022 A 
BRANCH  75  78
ATOM     78  S   UNL     1       3.782  15.958   3.133  1.00  0.00     0.127 S 
ATOM     79  O   UNL     1       4.556  17.073   2.595  1.00  0.00    -0.237 OA
ATOM     80  O   UNL     1       4.500  15.114   4.090  1.00  0.00    -0.237 OA
ATOM     81  O   UNL     1       2.979  15.214   2.172  1.00  0.00    -0.744 OA
ENDBRANCH  75  78
ENDBRANCH  47  71
BRANCH  59  82
ATOM     82  C   UNL     1      -3.912  22.975   3.839  1.00  0.00     0.023 A 
ATOM     83  C   UNL     1      -3.264  23.607   2.759  1.00  0.00     0.012 A 
ATOM     84  C   UNL     1      -4.421  23.755   4.895  1.00  0.00     0.148 A 
ATOM     85  C   UNL     1      -3.108  24.992   2.741  1.00  0.00     0.002 A 
ATOM     86  C   UNL     1      -4.299  25.139   4.849  1.00  0.00     0.091 A 
ATOM     87  F   UNL     1      -5.016  23.131   5.923  1.00  0.00    -0.205 F 
ATOM     88  C   UNL     1      -3.635  25.758   3.777  1.00  0.00     0.022 A 
BRANCH  86  89
ATOM     89  S   UNL     1      -5.026  26.209   6.096  1.00  0.00     0.127 S 
ATOM     90  O   UNL     1      -3.850  26.617   6.861  1.00  0.00    -0.237 OA
ATOM     91  O   UNL     1      -5.626  27.270   5.286  1.00  0.00    -0.237 OA
ATOM     92  O   UNL     1      -5.989  25.385   6.816  1.00  0.00    -0.744 OA
ENDBRANCH  86  89
ENDBRANCH  59  82
ENDBRANCH  33  34
ENDBRANCH  25  28
ENDBRANCH  23  24
ENDBRANCH  22  23
ENDBRANCH   1  22
TORSDOF 18
