REMARK SMILES O=C(NCCCCNC(=O)c1ccccc1/C=N\NC(=S)NCc1ccccc1)c1ccc(-c2c3nc(c(-c4cccc(S(=O)(=O)[O-])c4F)c4ccc([nH]4)c(-c4cccc(S(=O)(=O)[O-])c4F)c4nc(c(-c5cccc(S(=O)(=O)[O-])c5F)c5ccc2[nH]5)C=C4)C=C3)cc1
REMARK SMILES IDX 7 1 6 2 5 3 4 4 3 5 1 6 2 7 30 9 31 10 92 11 32 12 91 13
REMARK SMILES IDX 33 14 34 15 35 16 85 17 36 18 90 19 84 20 86 21 37 22 89 23
REMARK SMILES IDX 83 24 82 25 38 27 70 28 50 29 69 30 51 31 54 32 68 33 87 34
REMARK SMILES IDX 52 35 53 36 67 38 88 39 55 40 39 41 40 42 48 43 41 44 43 45
REMARK SMILES IDX 49 46 42 47 44 48 45 49 46 50 47 51 71 52 72 53 80 54 73 55
REMARK SMILES IDX 75 56 81 57 74 58 76 59 77 60 78 61 79 62 56 63 57 64 65 65
REMARK SMILES IDX 58 66 60 67 66 68 59 69 61 70 62 71 63 72 64 73 8 74 9 75
REMARK SMILES IDX 10 77 11 78 12 79 16 80 13 81 15 82 14 83 17 84 18 85 19 86
REMARK SMILES IDX 20 88 21 89 22 90 23 92 24 93 25 94 29 95 26 96 28 97 27 98
REMARK H PARENT 3 8 86 26 54 37 8 76 19 87 22 91
REMARK Flexibility Score: inf
ROOT
ATOM      1  C   UNL     1       5.311   2.765  -2.499  1.00  0.00     0.116 C 
ENDROOT
BRANCH   1   2
ATOM      2  C   UNL     1       5.067   1.412  -3.176  1.00  0.00     0.023 C 
BRANCH   2   3
ATOM      3  C   UNL     1       5.312   0.171  -2.327  1.00  0.00     0.023 C 
BRANCH   3   4
ATOM      4  C   UNL     1       4.690   0.190  -0.944  1.00  0.00     0.116 C 
BRANCH   4   5
ATOM      5  N   UNL     1       3.245   0.384  -0.901  1.00  0.00    -0.352 N 
ATOM      6  O   UNL     1       1.184   0.124   0.026  1.00  0.00    -0.269 OA
ATOM      7  C   UNL     1       2.396  -0.024   0.115  1.00  0.00     0.251 C 
ATOM      8  H   UNL     1       2.835   0.848  -1.666  1.00  0.00     0.163 HD
BRANCH   7   9
ATOM      9  C   UNL     1       3.009  -0.694   1.284  1.00  0.00     0.039 A 
ATOM     10  C   UNL     1       4.115  -0.101   1.888  1.00  0.00     0.014 A 
ATOM     11  C   UNL     1       2.608  -1.981   1.648  1.00  0.00     0.014 A 
ATOM     12  C   UNL     1       4.958  -0.879   2.661  1.00  0.00     0.010 A 
ATOM     13  C   UNL     1       3.383  -2.711   2.559  1.00  0.00     0.010 A 
ATOM     14  C   UNL     1       4.595  -2.186   3.033  1.00  0.00    -0.014 A 
BRANCH  14  15
ATOM     15  C   UNL     1       5.483  -2.913   3.982  1.00  0.00     0.031 A 
ATOM     16  C   UNL     1       6.122  -4.234   3.644  1.00  0.00     0.074 A 
ATOM     17  C   UNL     1       5.758  -2.312   5.159  1.00  0.00     0.049 A 
ATOM     18  N   UNL     1       6.968  -4.936   4.354  1.00  0.00    -0.248 NA
ATOM     19  C   UNL     1       5.766  -4.857   2.359  1.00  0.00     0.031 C 
ATOM     20  C   UNL     1       5.155  -1.056   5.618  1.00  0.00     0.029 A 
ATOM     21  N   UNL     1       6.624  -2.646   6.166  1.00  0.00    -0.354 N 
ATOM     22  C   UNL     1       7.217  -6.097   3.630  1.00  0.00     0.074 A 
ATOM     23  C   UNL     1       6.423  -6.009   2.421  1.00  0.00     0.031 C 
ATOM     24  C   UNL     1       5.714  -0.693   6.777  1.00  0.00     0.029 A 
ATOM     25  C   UNL     1       6.644  -1.732   7.194  1.00  0.00     0.049 A 
ATOM     26  H   UNL     1       7.177  -3.461   6.156  1.00  0.00     0.167 HD
ATOM     27  C   UNL     1       8.039  -7.131   3.937  1.00  0.00     0.034 A 
ATOM     28  C   UNL     1       7.310  -1.735   8.362  1.00  0.00     0.034 A 
ATOM     29  C   UNL     1       8.845  -7.194   5.131  1.00  0.00     0.049 A 
ATOM     30  C   UNL     1       8.237  -2.874   8.654  1.00  0.00     0.074 A 
ATOM     31  C   UNL     1       9.733  -8.184   5.518  1.00  0.00     0.029 A 
ATOM     32  N   UNL     1       8.865  -6.233   6.131  1.00  0.00    -0.354 N 
ATOM     33  N   UNL     1       8.524  -3.913   7.909  1.00  0.00    -0.248 NA
ATOM     34  C   UNL     1       8.950  -2.832   9.936  1.00  0.00     0.031 C 
ATOM     35  C   UNL     1      10.274  -7.830   6.759  1.00  0.00     0.029 A 
ATOM     36  C   UNL     1       9.747  -6.605   7.133  1.00  0.00     0.049 A 
ATOM     37  H   UNL     1       8.330  -5.406   6.129  1.00  0.00     0.167 HD
ATOM     38  C   UNL     1       9.458  -4.646   8.626  1.00  0.00     0.074 A 
ATOM     39  C   UNL     1       9.724  -3.904   9.843  1.00  0.00     0.031 C 
ATOM     40  C   UNL     1      10.025  -5.838   8.320  1.00  0.00     0.034 A 
BRANCH  27  41
ATOM     41  C   UNL     1       8.149  -8.270   2.952  1.00  0.00     0.023 A 
ATOM     42  C   UNL     1       8.851  -8.079   1.745  1.00  0.00     0.012 A 
ATOM     43  C   UNL     1       7.640  -9.550   3.257  1.00  0.00     0.148 A 
ATOM     44  C   UNL     1       9.024  -9.133   0.847  1.00  0.00     0.002 A 
ATOM     45  C   UNL     1       7.852 -10.605   2.376  1.00  0.00     0.091 A 
ATOM     46  F   UNL     1       6.963  -9.712   4.403  1.00  0.00    -0.205 F 
ATOM     47  C   UNL     1       8.535 -10.396   1.166  1.00  0.00     0.022 A 
BRANCH  45  48
ATOM     48  S   UNL     1       7.331 -12.290   2.726  1.00  0.00     0.127 S 
ATOM     49  O   UNL     1       6.273 -12.482   1.736  1.00  0.00    -0.237 OA
ATOM     50  O   UNL     1       8.554 -13.050   2.466  1.00  0.00    -0.237 OA
ATOM     51  O   UNL     1       6.893 -12.295   4.115  1.00  0.00    -0.744 OA
ENDBRANCH  45  48
ENDBRANCH  27  41
BRANCH  28  52
ATOM     52  C   UNL     1       7.114  -0.617   9.326  1.00  0.00     0.023 A 
ATOM     53  C   UNL     1       8.170   0.271   9.600  1.00  0.00     0.012 A 
ATOM     54  C   UNL     1       5.860  -0.402   9.931  1.00  0.00     0.148 A 
ATOM     55  C   UNL     1       7.988   1.336  10.483  1.00  0.00     0.002 A 
ATOM     56  C   UNL     1       5.665   0.701  10.751  1.00  0.00     0.091 A 
ATOM     57  F   UNL     1       4.870  -1.269   9.672  1.00  0.00    -0.205 F 
ATOM     58  C   UNL     1       6.733   1.560  11.046  1.00  0.00     0.022 A 
BRANCH  56  59
ATOM     59  S   UNL     1       4.039   1.145  11.370  1.00  0.00     0.127 S 
ATOM     60  O   UNL     1       4.116   0.702  12.758  1.00  0.00    -0.237 OA
ATOM     61  O   UNL     1       4.026   2.596  11.183  1.00  0.00    -0.237 OA
ATOM     62  O   UNL     1       3.095   0.429  10.521  1.00  0.00    -0.744 OA
ENDBRANCH  56  59
ENDBRANCH  28  52
BRANCH  40  63
ATOM     63  C   UNL     1      11.004  -6.399   9.317  1.00  0.00     0.023 A 
ATOM     64  C   UNL     1      10.539  -6.891  10.553  1.00  0.00     0.012 A 
ATOM     65  C   UNL     1      12.380  -6.456   9.022  1.00  0.00     0.148 A 
ATOM     66  C   UNL     1      11.434  -7.387  11.500  1.00  0.00     0.002 A 
ATOM     67  C   UNL     1      13.259  -7.000   9.950  1.00  0.00     0.091 A 
ATOM     68  F   UNL     1      12.805  -5.963   7.850  1.00  0.00    -0.205 F 
ATOM     69  C   UNL     1      12.791  -7.450  11.195  1.00  0.00     0.022 A 
BRANCH  67  70
ATOM     70  S   UNL     1      15.010  -7.203   9.606  1.00  0.00     0.127 S 
ATOM     71  O   UNL     1      15.598  -6.139  10.417  1.00  0.00    -0.237 OA
ATOM     72  O   UNL     1      15.267  -8.558  10.096  1.00  0.00    -0.237 OA
ATOM     73  O   UNL     1      15.154  -7.047   8.165  1.00  0.00    -0.744 OA
ENDBRANCH  67  70
ENDBRANCH  40  63
ENDBRANCH  14  15
ENDBRANCH   7   9
ENDBRANCH   4   5
ENDBRANCH   3   4
ENDBRANCH   2   3
ENDBRANCH   1   2
BRANCH   1  74
ATOM     74  N   UNL     1       6.634   3.352  -2.693  1.00  0.00    -0.352 N 
ATOM     75  C   UNL     1       7.108   4.358  -3.514  1.00  0.00     0.251 C 
ATOM     76  H   UNL     1       7.329   2.950  -2.124  1.00  0.00     0.163 HD
ATOM     77  O   UNL     1       8.280   4.713  -3.431  1.00  0.00    -0.269 OA
BRANCH  75  78
ATOM     78  C   UNL     1       6.310   4.859  -4.657  1.00  0.00     0.048 A 
ATOM     79  C   UNL     1       7.074   4.502  -6.267  1.00  0.00     0.014 A 
ATOM     80  C   UNL     1       4.515   5.013  -4.556  1.00  0.00     0.007 A 
ATOM     81  C   UNL     1       6.052   4.350  -7.762  1.00  0.00     0.001 A 
ATOM     82  C   UNL     1       3.469   4.885  -6.058  1.00  0.00     0.010 A 
ATOM     83  C   UNL     1       4.256   4.557  -7.651  1.00  0.00     0.001 A 
BRANCH  80  84
ATOM     84  C   UNL     1       4.020   5.906  -3.550  1.00  0.00     0.142 C 
ATOM     85  N   UNL     1       3.755   7.113  -3.898  1.00  0.00    -0.181 NA
BRANCH  85  86
ATOM     86  N   UNL     1       4.117   7.503  -5.165  1.00  0.00    -0.254 N 
ATOM     87  H   UNL     1       3.676   8.333  -5.460  1.00  0.00     0.193 HD
BRANCH  86  88
ATOM     88  C   UNL     1       4.961   6.977  -6.096  1.00  0.00     0.187 C 
ATOM     89  S   UNL     1       5.600   8.095  -7.192  1.00  0.00    -0.039 S 
BRANCH  88  90
ATOM     90  N   UNL     1       5.345   5.630  -6.294  1.00  0.00    -0.357 N 
ATOM     91  H   UNL     1       6.106   5.694  -6.914  1.00  0.00     0.163 HD
BRANCH  90  92
ATOM     92  C   UNL     1       5.148   3.584  -5.964  1.00  0.00     0.151 C 
BRANCH  92  93
ATOM     93  C   UNL     1       5.218   2.172  -6.862  1.00  0.00    -0.029 A 
ATOM     94  C   UNL     1       4.008   1.471  -7.040  1.00  0.00     0.005 A 
ATOM     95  C   UNL     1       6.431   1.438  -6.866  1.00  0.00     0.005 A 
ATOM     96  C   UNL     1       4.009   0.076  -7.099  1.00  0.00     0.000 A 
ATOM     97  C   UNL     1       6.418   0.045  -6.929  1.00  0.00     0.000 A 
ATOM     98  C   UNL     1       5.206  -0.634  -7.011  1.00  0.00     0.000 A 
ENDBRANCH  92  93
ENDBRANCH  90  92
ENDBRANCH  88  90
ENDBRANCH  86  88
ENDBRANCH  85  86
ENDBRANCH  80  84
ENDBRANCH  75  78
ENDBRANCH   1  74
TORSDOF 20
