REMARK SMILES O=C(NCCCCNC(=O)[C@H]1CCCN(C(=O)c2ccc(NC(=O)c3ccccc3)cc2)C1)c1ccc(-c2c3nc(c(-c4cccc(S(=O)(=O)[O-])c4F)c4ccc([nH]4)c(-c4cccc(S(=O)(=O)[O-])c4F)c4nc(c(-c5cccc(S(=O)(=O)[O-])c5F)c5ccc2[nH]5)C=C4)C=C3)cc1
REMARK SMILES IDX 6 1 5 2 4 3 3 4 1 5 2 6 34 8 35 9 96 10 36 11 95 12 37 13
REMARK SMILES IDX 38 14 39 15 89 16 40 17 94 18 88 19 90 20 41 21 93 22 87 23
REMARK SMILES IDX 86 24 42 26 74 27 54 28 73 29 55 30 58 31 72 32 91 33 56 34
REMARK SMILES IDX 57 35 71 37 92 38 59 39 43 40 44 41 52 42 45 43 47 44 53 45
REMARK SMILES IDX 46 46 48 47 49 48 50 49 51 50 75 51 76 52 84 53 77 54 79 55
REMARK SMILES IDX 85 56 78 57 80 58 81 59 82 60 83 61 60 62 61 63 69 64 62 65
REMARK SMILES IDX 64 66 70 67 63 68 65 69 66 70 67 71 68 72 7 73 8 74 9 75
REMARK SMILES IDX 10 77 11 78 12 79 33 80 13 81 15 82 14 83 16 84 17 85 18 86
REMARK SMILES IDX 19 87 32 88 20 89 31 90 21 91 22 92 23 93 24 95 25 96 26 97
REMARK SMILES IDX 30 98 27 99 29 100 28 101
REMARK H PARENT 3 7 90 25 58 36 8 76 22 94
REMARK Flexibility Score: inf
ROOT
ATOM      1  C   UNL     1       5.261   0.225   3.157  1.00  0.00     0.023 C 
ENDROOT
BRANCH   1   2
ATOM      2  C   UNL     1       3.823   0.270   2.628  1.00  0.00     0.023 C 
BRANCH   2   3
ATOM      3  C   UNL     1       3.400   1.587   1.986  1.00  0.00     0.116 C 
BRANCH   3   4
ATOM      4  N   UNL     1       4.193   1.931   0.818  1.00  0.00    -0.352 N 
ATOM      5  O   UNL     1       4.578   2.516  -1.322  1.00  0.00    -0.269 OA
ATOM      6  C   UNL     1       3.771   2.405  -0.403  1.00  0.00     0.251 C 
ATOM      7  H   UNL     1       5.165   1.807   0.913  1.00  0.00     0.163 HD
BRANCH   6   8
ATOM      8  C   UNL     1       2.346   2.748  -0.610  1.00  0.00     0.039 A 
ATOM      9  C   UNL     1       1.643   3.495   0.338  1.00  0.00     0.014 A 
ATOM     10  C   UNL     1       1.704   2.313  -1.774  1.00  0.00     0.014 A 
ATOM     11  C   UNL     1       0.274   3.696   0.186  1.00  0.00     0.010 A 
ATOM     12  C   UNL     1       0.344   2.578  -1.960  1.00  0.00     0.010 A 
ATOM     13  C   UNL     1      -0.391   3.245  -0.967  1.00  0.00    -0.014 A 
BRANCH  13  14
ATOM     14  C   UNL     1      -1.836   3.542  -1.143  1.00  0.00     0.031 A 
ATOM     15  C   UNL     1      -2.862   2.443  -1.180  1.00  0.00     0.074 A 
ATOM     16  C   UNL     1      -2.219   4.828  -1.268  1.00  0.00     0.049 A 
ATOM     17  N   UNL     1      -4.163   2.539  -1.294  1.00  0.00    -0.248 NA
ATOM     18  C   UNL     1      -2.372   1.059  -1.084  1.00  0.00     0.031 C 
ATOM     19  C   UNL     1      -1.310   5.976  -1.291  1.00  0.00     0.029 A 
ATOM     20  N   UNL     1      -3.464   5.388  -1.398  1.00  0.00    -0.354 N 
ATOM     21  C   UNL     1      -4.645   1.236  -1.315  1.00  0.00     0.074 A 
ATOM     22  C   UNL     1      -3.494   0.363  -1.213  1.00  0.00     0.031 C 
ATOM     23  C   UNL     1      -2.028   7.104  -1.400  1.00  0.00     0.029 A 
ATOM     24  C   UNL     1      -3.442   6.759  -1.499  1.00  0.00     0.049 A 
ATOM     25  H   UNL     1      -4.295   4.859  -1.417  1.00  0.00     0.167 HD
ATOM     26  C   UNL     1      -5.928   0.807  -1.393  1.00  0.00     0.034 A 
ATOM     27  C   UNL     1      -4.444   7.643  -1.662  1.00  0.00     0.034 A 
ATOM     28  C   UNL     1      -7.071   1.680  -1.457  1.00  0.00     0.049 A 
ATOM     29  C   UNL     1      -5.857   7.139  -1.723  1.00  0.00     0.074 A 
ATOM     30  C   UNL     1      -8.413   1.340  -1.479  1.00  0.00     0.029 A 
ATOM     31  N   UNL     1      -7.011   3.064  -1.515  1.00  0.00    -0.354 N 
ATOM     32  N   UNL     1      -6.298   5.910  -1.612  1.00  0.00    -0.248 NA
ATOM     33  C   UNL     1      -6.913   8.144  -1.905  1.00  0.00     0.031 C 
ATOM     34  C   UNL     1      -9.163   2.518  -1.563  1.00  0.00     0.029 A 
ATOM     35  C   UNL     1      -8.289   3.593  -1.579  1.00  0.00     0.049 A 
ATOM     36  H   UNL     1      -6.181   3.594  -1.511  1.00  0.00     0.167 HD
ATOM     37  C   UNL     1      -7.683   5.994  -1.687  1.00  0.00     0.074 A 
ATOM     38  C   UNL     1      -8.008   7.400  -1.825  1.00  0.00     0.031 C 
ATOM     39  C   UNL     1      -8.600   4.997  -1.666  1.00  0.00     0.034 A 
BRANCH  26  40
ATOM     40  C   UNL     1      -6.178  -0.679  -1.360  1.00  0.00     0.023 A 
ATOM     41  C   UNL     1      -6.057  -1.372  -0.139  1.00  0.00     0.012 A 
ATOM     42  C   UNL     1      -6.608  -1.372  -2.508  1.00  0.00     0.148 A 
ATOM     43  C   UNL     1      -6.337  -2.736  -0.065  1.00  0.00     0.002 A 
ATOM     44  C   UNL     1      -6.920  -2.725  -2.420  1.00  0.00     0.091 A 
ATOM     45  F   UNL     1      -6.697  -0.701  -3.666  1.00  0.00    -0.205 F 
ATOM     46  C   UNL     1      -6.779  -3.409  -1.201  1.00  0.00     0.022 A 
BRANCH  44  47
ATOM     47  S   UNL     1      -7.565  -3.662  -3.811  1.00  0.00     0.127 S 
ATOM     48  O   UNL     1      -6.405  -4.469  -4.186  1.00  0.00    -0.237 OA
ATOM     49  O   UNL     1      -8.659  -4.417  -3.198  1.00  0.00    -0.237 OA
ATOM     50  O   UNL     1      -7.989  -2.675  -4.794  1.00  0.00    -0.744 OA
ENDBRANCH  44  47
ENDBRANCH  26  40
BRANCH  27  51
ATOM     51  C   UNL     1      -4.139   9.100  -1.715  1.00  0.00     0.023 A 
ATOM     52  C   UNL     1      -4.514   9.923  -0.636  1.00  0.00     0.012 A 
ATOM     53  C   UNL     1      -3.429   9.661  -2.794  1.00  0.00     0.148 A 
ATOM     54  C   UNL     1      -4.205  11.284  -0.640  1.00  0.00     0.002 A 
ATOM     55  C   UNL     1      -3.074  11.004  -2.765  1.00  0.00     0.091 A 
ATOM     56  F   UNL     1      -3.098   8.865  -3.821  1.00  0.00    -0.205 F 
ATOM     57  C   UNL     1      -3.474  11.821  -1.696  1.00  0.00     0.022 A 
BRANCH  55  58
ATOM     58  S   UNL     1      -2.007  11.736  -4.012  1.00  0.00     0.127 S 
ATOM     59  O   UNL     1      -2.962  12.498  -4.812  1.00  0.00    -0.237 OA
ATOM     60  O   UNL     1      -1.097  12.545  -3.200  1.00  0.00    -0.237 OA
ATOM     61  O   UNL     1      -1.367  10.611  -4.681  1.00  0.00    -0.744 OA
ENDBRANCH  55  58
ENDBRANCH  27  51
BRANCH  39  62
ATOM     62  C   UNL     1     -10.049   5.388  -1.779  1.00  0.00     0.023 A 
ATOM     63  C   UNL     1     -10.562   5.802  -3.024  1.00  0.00     0.012 A 
ATOM     64  C   UNL     1     -10.915   5.286  -0.673  1.00  0.00     0.148 A 
ATOM     65  C   UNL     1     -11.908   6.136  -3.161  1.00  0.00     0.002 A 
ATOM     66  C   UNL     1     -12.265   5.581  -0.827  1.00  0.00     0.091 A 
ATOM     67  F   UNL     1     -10.404   4.912   0.509  1.00  0.00    -0.205 F 
ATOM     68  C   UNL     1     -12.761   6.015  -2.066  1.00  0.00     0.022 A 
BRANCH  66  69
ATOM     69  S   UNL     1     -13.449   5.369   0.508  1.00  0.00     0.127 S 
ATOM     70  O   UNL     1     -13.672   6.750   0.931  1.00  0.00    -0.237 OA
ATOM     71  O   UNL     1     -14.586   4.751  -0.176  1.00  0.00    -0.237 OA
ATOM     72  O   UNL     1     -12.797   4.509   1.486  1.00  0.00    -0.744 OA
ENDBRANCH  66  69
ENDBRANCH  39  62
ENDBRANCH  13  14
ENDBRANCH   6   8
ENDBRANCH   3   4
ENDBRANCH   2   3
ENDBRANCH   1   2
BRANCH   1  73
ATOM     73  C   UNL     1       5.614   1.339   4.143  1.00  0.00     0.116 C 
BRANCH  73  74
ATOM     74  N   UNL     1       4.787   1.283   5.336  1.00  0.00    -0.356 N 
ATOM     75  C   UNL     1       5.040   0.706   6.545  1.00  0.00     0.224 C 
ATOM     76  H   UNL     1       3.913   1.730   5.260  1.00  0.00     0.163 HD
ATOM     77  O   UNL     1       4.146   0.694   7.391  1.00  0.00    -0.275 OA
BRANCH  75  78
ATOM     78  C   UNL     1       6.429   0.183   6.846  1.00  0.00     0.098 C 
ATOM     79  C   UNL     1       7.207   1.256   7.622  1.00  0.00     0.017 C 
ATOM     80  C   UNL     1       6.348  -1.098   7.678  1.00  0.00     0.133 C 
ATOM     81  C   UNL     1       8.586   0.745   8.036  1.00  0.00     0.022 C 
ATOM     82  N   UNL     1       7.704  -1.564   7.994  1.00  0.00    -0.338 N 
ATOM     83  C   UNL     1       8.509  -0.604   8.753  1.00  0.00     0.120 C 
BRANCH  82  84
ATOM     84  C   UNL     1       8.143  -2.753   7.411  1.00  0.00     0.253 C 
ATOM     85  O   UNL     1       7.464  -3.393   6.609  1.00  0.00    -0.269 OA
BRANCH  84  86
ATOM     86  C   UNL     1       9.500  -3.274   7.698  1.00  0.00     0.040 A 
ATOM     87  C   UNL     1      10.263  -3.732   6.623  1.00  0.00     0.016 A 
ATOM     88  C   UNL     1      10.010  -3.383   8.993  1.00  0.00     0.016 A 
ATOM     89  C   UNL     1      11.566  -4.192   6.829  1.00  0.00     0.027 A 
ATOM     90  C   UNL     1      11.331  -3.804   9.187  1.00  0.00     0.027 A 
ATOM     91  C   UNL     1      12.141  -4.156   8.099  1.00  0.00     0.041 A 
BRANCH  91  92
ATOM     92  N   UNL     1      13.486  -4.465   8.377  1.00  0.00    -0.322 N 
ATOM     93  C   UNL     1      14.595  -4.620   7.574  1.00  0.00     0.255 C 
ATOM     94  H   UNL     1      13.671  -4.597   9.335  1.00  0.00     0.170 HD
ATOM     95  O   UNL     1      15.642  -5.051   8.055  1.00  0.00    -0.269 OA
BRANCH  93  96
ATOM     96  C   UNL     1      14.583  -4.243   6.149  1.00  0.00     0.040 A 
ATOM     97  C   UNL     1      14.914  -5.216   5.200  1.00  0.00     0.014 A 
ATOM     98  C   UNL     1      14.239  -2.946   5.746  1.00  0.00     0.014 A 
ATOM     99  C   UNL     1      14.824  -4.912   3.842  1.00  0.00     0.001 A 
ATOM    100  C   UNL     1      14.143  -2.652   4.385  1.00  0.00     0.001 A 
ATOM    101  C   UNL     1      14.424  -3.638   3.437  1.00  0.00     0.000 A 
ENDBRANCH  93  96
ENDBRANCH  91  92
ENDBRANCH  84  86
ENDBRANCH  82  84
ENDBRANCH  75  78
ENDBRANCH  73  74
ENDBRANCH   1  73
TORSDOF 18
