REMARK SMILES Cc1cc(C[N@@H+]2CC[C@@H](C(=O)NCCCCNC(=O)c3ccc(-c4c5nc(c(-c6cccc(S(=O)(=O)[O-])c6F)c6ccc([nH]6)c(-c6cccc(S(=O)(=O)[O-])c6F)c6nc(c(-c7cccc(S(=O)(=O)[O-])c7F)c7ccc4[nH]7)C=C6)C=C5)cc3)C2)ccc1Br
REMARK SMILES IDX 15 1 14 2 13 3 12 4 10 5 11 6 9 8 6 9 7 10 83 11 8 13 5 14
REMARK SMILES IDX 4 15 1 16 2 17 3 18 86 19 85 20 87 21 84 22 16 23 17 24
REMARK SMILES IDX 18 25 19 27 20 28 21 29 82 30 22 31 81 32 23 33 24 34 25 35
REMARK SMILES IDX 75 36 26 37 80 38 74 39 76 40 27 41 79 42 73 43 72 44 28 46
REMARK SMILES IDX 60 47 40 48 59 49 41 50 44 51 58 52 77 53 42 54 43 55 57 57
REMARK SMILES IDX 78 58 45 59 29 60 30 61 38 62 31 63 33 64 39 65 32 66 34 67
REMARK SMILES IDX 35 68 36 69 37 70 61 71 62 72 70 73 63 74 65 75 71 76 64 77
REMARK SMILES IDX 66 78 67 79 68 80 69 81 46 82 47 83 55 84 48 85 50 86 56 87
REMARK SMILES IDX 49 88 51 89 52 90 53 91 54 92
REMARK H PARENT 12 7 6 12 17 26 76 45 44 56
REMARK Flexibility Score: inf
ROOT
ATOM      1  C   UNL     1       7.544   4.805  -4.601  1.00  0.00     0.023 C 
ENDROOT
BRANCH   1   2
ATOM      2  C   UNL     1       6.966   3.751  -3.663  1.00  0.00     0.023 C 
BRANCH   2   3
ATOM      3  C   UNL     1       5.447   3.756  -3.566  1.00  0.00     0.116 C 
BRANCH   3   4
ATOM      4  N   UNL     1       4.797   2.774  -4.402  1.00  0.00    -0.356 N 
ATOM      5  C   UNL     1       3.890   1.808  -4.085  1.00  0.00     0.229 C 
ATOM      6  O   UNL     1       3.403   1.168  -5.024  1.00  0.00    -0.275 OA
ATOM      7  H   UNL     1       5.049   2.808  -5.353  1.00  0.00     0.163 HD
BRANCH   5   8
ATOM      8  C   UNL     1       3.520   1.429  -2.651  1.00  0.00     0.139 C 
ATOM      9  N   UNL     1       4.718   1.038  -0.597  1.00  0.00    -0.330 N 
ATOM     10  C   UNL     1       4.218   2.406  -0.541  1.00  0.00     0.263 C 
ATOM     11  C   UNL     1       4.608   0.591  -1.990  1.00  0.00     0.276 C 
ATOM     12  H   UNL     1       5.701   1.026  -0.324  1.00  0.00     0.348 HD
ATOM     13  C   UNL     1       3.185   2.537  -1.660  1.00  0.00     0.081 C 
BRANCH   9  14
ATOM     14  C   UNL     1       4.199   0.123   0.423  1.00  0.00     0.299 C 
BRANCH  14  15
ATOM     15  C   UNL     1       2.698  -0.065   0.503  1.00  0.00     0.007 A 
ATOM     16  C   UNL     1       0.112  -2.716  -0.391  1.00  0.00     0.045 C 
ATOM     17  C   UNL     1       0.700  -1.417   0.079  1.00  0.00    -0.036 A 
ATOM     18  C   UNL     1       2.094  -1.234   0.018  1.00  0.00     0.014 A 
ATOM     19  C   UNL     1      -0.096  -0.370   0.568  1.00  0.00     0.020 A 
ATOM     20  C   UNL     1       0.493   0.783   1.081  1.00  0.00     0.016 A 
ATOM     21  Br  UNL     1      -1.993  -0.452   0.564  1.00  0.00    -0.051 Br
ATOM     22  C   UNL     1       1.880   0.912   1.088  1.00  0.00     0.011 A 
ENDBRANCH  14  15
ENDBRANCH   9  14
ENDBRANCH   5   8
ENDBRANCH   3   4
ENDBRANCH   2   3
ENDBRANCH   1   2
BRANCH   1  23
ATOM     23  C   UNL     1       7.101   6.242  -4.341  1.00  0.00     0.116 C 
BRANCH  23  24
ATOM     24  N   UNL     1       7.333   6.716  -2.980  1.00  0.00    -0.352 N 
ATOM     25  C   UNL     1       7.671   7.994  -2.590  1.00  0.00     0.251 C 
ATOM     26  H   UNL     1       7.238   6.049  -2.262  1.00  0.00     0.163 HD
ATOM     27  O   UNL     1       7.888   8.263  -1.412  1.00  0.00    -0.269 OA
BRANCH  25  28
ATOM     28  C   UNL     1       7.813   9.025  -3.637  1.00  0.00     0.039 A 
ATOM     29  C   UNL     1       9.047   9.658  -3.804  1.00  0.00     0.014 A 
ATOM     30  C   UNL     1       6.768   9.245  -4.537  1.00  0.00     0.014 A 
ATOM     31  C   UNL     1       9.262  10.449  -4.935  1.00  0.00     0.010 A 
ATOM     32  C   UNL     1       7.012   9.966  -5.700  1.00  0.00     0.010 A 
ATOM     33  C   UNL     1       8.263  10.568  -5.915  1.00  0.00    -0.014 A 
BRANCH  33  34
ATOM     34  C   UNL     1       8.501  11.299  -7.187  1.00  0.00     0.031 A 
ATOM     35  C   UNL     1       7.663  12.500  -7.528  1.00  0.00     0.074 A 
ATOM     36  C   UNL     1       9.386  10.817  -8.083  1.00  0.00     0.049 A 
ATOM     37  N   UNL     1       7.649  13.211  -8.624  1.00  0.00    -0.248 NA
ATOM     38  C   UNL     1       6.683  12.936  -6.517  1.00  0.00     0.031 C 
ATOM     39  C   UNL     1      10.194   9.606  -7.913  1.00  0.00     0.029 A 
ATOM     40  N   UNL     1       9.732  11.269  -9.333  1.00  0.00    -0.354 N 
ATOM     41  C   UNL     1       6.633  14.144  -8.456  1.00  0.00     0.074 A 
ATOM     42  C   UNL     1       6.029  13.887  -7.167  1.00  0.00     0.031 C 
ATOM     43  C   UNL     1      10.941   9.416  -9.013  1.00  0.00     0.029 A 
ATOM     44  C   UNL     1      10.650  10.472  -9.977  1.00  0.00     0.049 A 
ATOM     45  H   UNL     1       9.357  12.088  -9.731  1.00  0.00     0.167 HD
ATOM     46  C   UNL     1       6.259  15.149  -9.282  1.00  0.00     0.034 A 
ATOM     47  C   UNL     1      11.196  10.581 -11.205  1.00  0.00     0.034 A 
ATOM     48  C   UNL     1       6.906  15.446 -10.530  1.00  0.00     0.049 A 
ATOM     49  C   UNL     1      10.816  11.752 -12.072  1.00  0.00     0.074 A 
ATOM     50  C   UNL     1       6.672  16.504 -11.389  1.00  0.00     0.029 A 
ATOM     51  N   UNL     1       7.917  14.686 -11.095  1.00  0.00    -0.354 N 
ATOM     52  N   UNL     1       9.974  12.724 -11.821  1.00  0.00    -0.248 NA
ATOM     53  C   UNL     1      11.490  11.863 -13.374  1.00  0.00     0.031 C 
ATOM     54  C   UNL     1       7.538  16.379 -12.480  1.00  0.00     0.029 A 
ATOM     55  C   UNL     1       8.320  15.250 -12.292  1.00  0.00     0.049 A 
ATOM     56  H   UNL     1       8.293  13.865 -10.703  1.00  0.00     0.167 HD
ATOM     57  C   UNL     1      10.043  13.581 -12.913  1.00  0.00     0.074 A 
ATOM     58  C   UNL     1      11.025  13.023 -13.820  1.00  0.00     0.031 C 
ATOM     59  C   UNL     1       9.346  14.719 -13.152  1.00  0.00     0.034 A 
BRANCH  46  60
ATOM     60  C   UNL     1       5.140  16.047  -8.824  1.00  0.00     0.023 A 
ATOM     61  C   UNL     1       5.372  16.959  -7.774  1.00  0.00     0.012 A 
ATOM     62  C   UNL     1       3.882  16.025  -9.456  1.00  0.00     0.148 A 
ATOM     63  C   UNL     1       4.360  17.810  -7.335  1.00  0.00     0.002 A 
ATOM     64  C   UNL     1       2.891  16.907  -9.042  1.00  0.00     0.091 A 
ATOM     65  F   UNL     1       3.673  15.134 -10.436  1.00  0.00    -0.205 F 
ATOM     66  C   UNL     1       3.124  17.791  -7.975  1.00  0.00     0.022 A 
BRANCH  64  67
ATOM     67  S   UNL     1       1.292  17.013  -9.853  1.00  0.00     0.127 S 
ATOM     68  O   UNL     1       0.419  16.376  -8.868  1.00  0.00    -0.237 OA
ATOM     69  O   UNL     1       1.107  18.459  -9.986  1.00  0.00    -0.237 OA
ATOM     70  O   UNL     1       1.437  16.303 -11.116  1.00  0.00    -0.744 OA
ENDBRANCH  64  67
ENDBRANCH  46  60
BRANCH  47  71
ATOM     71  C   UNL     1      12.225   9.600 -11.653  1.00  0.00     0.023 A 
ATOM     72  C   UNL     1      13.568  10.012 -11.755  1.00  0.00     0.012 A 
ATOM     73  C   UNL     1      11.894   8.264 -11.950  1.00  0.00     0.148 A 
ATOM     74  C   UNL     1      14.558   9.122 -12.173  1.00  0.00     0.002 A 
ATOM     75  C   UNL     1      12.893   7.368 -12.316  1.00  0.00     0.091 A 
ATOM     76  F   UNL     1      10.609   7.892 -11.861  1.00  0.00    -0.205 F 
ATOM     77  C   UNL     1      14.223   7.798 -12.444  1.00  0.00     0.022 A 
BRANCH  75  78
ATOM     78  S   UNL     1      12.572   5.616 -12.556  1.00  0.00     0.127 S 
ATOM     79  O   UNL     1      12.649   5.494 -14.009  1.00  0.00    -0.237 OA
ATOM     80  O   UNL     1      13.681   5.000 -11.826  1.00  0.00    -0.237 OA
ATOM     81  O   UNL     1      11.262   5.377 -11.964  1.00  0.00    -0.744 OA
ENDBRANCH  75  78
ENDBRANCH  47  71
BRANCH  59  82
ATOM     82  C   UNL     1       9.637  15.468 -14.424  1.00  0.00     0.023 A 
ATOM     83  C   UNL     1       9.165  14.967 -15.653  1.00  0.00     0.012 A 
ATOM     84  C   UNL     1      10.296  16.713 -14.390  1.00  0.00     0.148 A 
ATOM     85  C   UNL     1       9.365  15.683 -16.832  1.00  0.00     0.002 A 
ATOM     86  C   UNL     1      10.451  17.442 -15.562  1.00  0.00     0.091 A 
ATOM     87  F   UNL     1      10.755  17.162 -13.212  1.00  0.00    -0.205 F 
ATOM     88  C   UNL     1       9.995  16.925 -16.786  1.00  0.00     0.022 A 
BRANCH  86  89
ATOM     89  S   UNL     1      11.165  19.091 -15.579  1.00  0.00     0.127 S 
ATOM     90  O   UNL     1      12.491  18.837 -16.138  1.00  0.00    -0.237 OA
ATOM     91  O   UNL     1      10.256  19.816 -16.468  1.00  0.00    -0.237 OA
ATOM     92  O   UNL     1      11.143  19.549 -14.196  1.00  0.00    -0.744 OA
ENDBRANCH  86  89
ENDBRANCH  59  82
ENDBRANCH  33  34
ENDBRANCH  25  28
ENDBRANCH  23  24
ENDBRANCH   1  23
TORSDOF 16
