REMARK SMILES O=C(NCCCCNC(=O)c1cc(Cl)ccc1NC(=O)c1ccc2c(c1)C(=O)N(Cc1ccco1)C2=O)c1ccc(-c2c3nc(c(-c4cccc(S(=O)(=O)[O-])c4F)c4ccc([nH]4)c(-c4cccc(S(=O)(=O)[O-])c4F)c4nc(c(-c5cccc(S(=O)(=O)[O-])c5F)c5ccc2[nH]5)C=C4)C=C3)cc1
REMARK SMILES IDX 6 1 5 2 4 3 3 4 1 5 2 6 38 8 39 9 100 10 40 11 99 12 41 13
REMARK SMILES IDX 42 14 43 15 93 16 44 17 98 18 92 19 94 20 45 21 97 22 91 23
REMARK SMILES IDX 90 24 46 26 78 27 58 28 77 29 59 30 62 31 76 32 95 33 60 34
REMARK SMILES IDX 61 35 75 37 96 38 63 39 47 40 48 41 56 42 49 43 51 44 57 45
REMARK SMILES IDX 50 46 52 47 53 48 54 49 55 50 79 51 80 52 88 53 81 54 83 55
REMARK SMILES IDX 89 56 82 57 84 58 85 59 86 60 87 61 64 62 65 63 73 64 66 65
REMARK SMILES IDX 68 66 74 67 67 68 69 69 70 70 71 71 72 72 7 73 8 74 9 75
REMARK SMILES IDX 10 77 11 78 12 79 17 80 13 81 16 82 14 83 15 84 18 85 19 86
REMARK SMILES IDX 20 88 21 89 22 90 26 91 23 92 25 93 24 94 27 95 36 96 28 97
REMARK SMILES IDX 29 98 37 99 30 100 31 101 32 102 35 103 33 104 34 105
REMARK H PARENT 3 7 94 25 62 36 8 76 18 87
REMARK Flexibility Score: inf
ROOT
ATOM      1  C   UNL     1       4.426  -1.845  -3.362  1.00  0.00     0.023 C 
ENDROOT
BRANCH   1   2
ATOM      2  C   UNL     1       4.878  -1.699  -1.915  1.00  0.00     0.023 C 
BRANCH   2   3
ATOM      3  C   UNL     1       4.492  -0.384  -1.256  1.00  0.00     0.116 C 
BRANCH   3   4
ATOM      4  N   UNL     1       3.052  -0.189  -1.165  1.00  0.00    -0.352 N 
ATOM      5  O   UNL     1       1.055   0.033  -0.137  1.00  0.00    -0.269 OA
ATOM      6  C   UNL     1       2.279   0.037  -0.048  1.00  0.00     0.251 C 
ATOM      7  H   UNL     1       2.564  -0.224  -2.019  1.00  0.00     0.163 HD
BRANCH   6   8
ATOM      8  C   UNL     1       2.942   0.247   1.258  1.00  0.00     0.039 A 
ATOM      9  C   UNL     1       4.053   1.087   1.350  1.00  0.00     0.014 A 
ATOM     10  C   UNL     1       2.481  -0.436   2.385  1.00  0.00     0.014 A 
ATOM     11  C   UNL     1       4.812   1.095   2.510  1.00  0.00     0.010 A 
ATOM     12  C   UNL     1       3.183  -0.331   3.590  1.00  0.00     0.010 A 
ATOM     13  C   UNL     1       4.377   0.404   3.653  1.00  0.00    -0.014 A 
BRANCH  13  14
ATOM     14  C   UNL     1       5.149   0.545   4.915  1.00  0.00     0.031 A 
ATOM     15  C   UNL     1       5.777  -0.639   5.597  1.00  0.00     0.074 A 
ATOM     16  C   UNL     1       5.286   1.779   5.441  1.00  0.00     0.049 A 
ATOM     17  N   UNL     1       6.494  -0.667   6.691  1.00  0.00    -0.248 NA
ATOM     18  C   UNL     1       5.571  -1.961   4.984  1.00  0.00     0.031 C 
ATOM     19  C   UNL     1       4.687   2.999   4.890  1.00  0.00     0.029 A 
ATOM     20  N   UNL     1       5.963   2.216   6.550  1.00  0.00    -0.354 N 
ATOM     21  C   UNL     1       6.789  -2.005   6.925  1.00  0.00     0.074 A 
ATOM     22  C   UNL     1       6.170  -2.761   5.857  1.00  0.00     0.031 C 
ATOM     23  C   UNL     1       5.044   4.046   5.644  1.00  0.00     0.029 A 
ATOM     24  C   UNL     1       5.833   3.567   6.771  1.00  0.00     0.049 A 
ATOM     25  H   UNL     1       6.490   1.621   7.131  1.00  0.00     0.167 HD
ATOM     26  C   UNL     1       7.515  -2.549   7.932  1.00  0.00     0.034 A 
ATOM     27  C   UNL     1       6.268   4.338   7.784  1.00  0.00     0.034 A 
ATOM     28  C   UNL     1       8.144  -1.786   8.979  1.00  0.00     0.049 A 
ATOM     29  C   UNL     1       7.072   3.706   8.881  1.00  0.00     0.074 A 
ATOM     30  C   UNL     1       8.956  -2.241  10.004  1.00  0.00     0.029 A 
ATOM     31  N   UNL     1       8.018  -0.415   9.152  1.00  0.00    -0.354 N 
ATOM     32  N   UNL     1       7.443   2.457   9.015  1.00  0.00    -0.248 NA
ATOM     33  C   UNL     1       7.543   4.594   9.951  1.00  0.00     0.031 C 
ATOM     34  C   UNL     1       9.282  -1.154  10.821  1.00  0.00     0.029 A 
ATOM     35  C   UNL     1       8.718  -0.012  10.277  1.00  0.00     0.049 A 
ATOM     36  H   UNL     1       7.505   0.183   8.561  1.00  0.00     0.167 HD
ATOM     37  C   UNL     1       8.215   2.412  10.168  1.00  0.00     0.074 A 
ATOM     38  C   UNL     1       8.280   3.767  10.679  1.00  0.00     0.031 C 
ATOM     39  C   UNL     1       8.807   1.344  10.756  1.00  0.00     0.034 A 
BRANCH  26  40
ATOM     40  C   UNL     1       7.686  -4.048   7.955  1.00  0.00     0.023 A 
ATOM     41  C   UNL     1       8.514  -4.678   7.004  1.00  0.00     0.012 A 
ATOM     42  C   UNL     1       7.091  -4.823   8.972  1.00  0.00     0.148 A 
ATOM     43  C   UNL     1       8.722  -6.057   7.045  1.00  0.00     0.002 A 
ATOM     44  C   UNL     1       7.341  -6.189   9.034  1.00  0.00     0.091 A 
ATOM     45  F   UNL     1       6.295  -4.210   9.859  1.00  0.00    -0.205 F 
ATOM     46  C   UNL     1       8.145  -6.809   8.065  1.00  0.00     0.022 A 
BRANCH  44  47
ATOM     47  S   UNL     1       6.713  -7.232  10.356  1.00  0.00     0.127 S 
ATOM     48  O   UNL     1       5.752  -8.069   9.639  1.00  0.00    -0.237 OA
ATOM     49  O   UNL     1       7.921  -7.931  10.794  1.00  0.00    -0.237 OA
ATOM     50  O   UNL     1       6.138  -6.330  11.344  1.00  0.00    -0.744 OA
ENDBRANCH  44  47
ENDBRANCH  26  40
BRANCH  27  51
ATOM     51  C   UNL     1       5.954   5.793   7.791  1.00  0.00     0.023 A 
ATOM     52  C   UNL     1       6.986   6.733   7.612  1.00  0.00     0.012 A 
ATOM     53  C   UNL     1       4.628   6.244   7.935  1.00  0.00     0.148 A 
ATOM     54  C   UNL     1       6.706   8.099   7.608  1.00  0.00     0.002 A 
ATOM     55  C   UNL     1       4.348   7.602   7.867  1.00  0.00     0.091 A 
ATOM     56  F   UNL     1       3.662   5.331   8.111  1.00  0.00    -0.205 F 
ATOM     57  C   UNL     1       5.388   8.533   7.724  1.00  0.00     0.022 A 
BRANCH  55  58
ATOM     58  S   UNL     1       2.669   8.239   7.863  1.00  0.00     0.127 S 
ATOM     59  O   UNL     1       2.609   8.928   9.150  1.00  0.00    -0.237 OA
ATOM     60  O   UNL     1       2.685   9.117   6.693  1.00  0.00    -0.237 OA
ATOM     61  O   UNL     1       1.805   7.074   7.730  1.00  0.00    -0.744 OA
ENDBRANCH  55  58
ENDBRANCH  27  51
BRANCH  39  62
ATOM     62  C   UNL     1       9.619   1.600  11.999  1.00  0.00     0.023 A 
ATOM     63  C   UNL     1       8.978   1.946  13.206  1.00  0.00     0.012 A 
ATOM     64  C   UNL     1      11.019   1.443  11.981  1.00  0.00     0.148 A 
ATOM     65  C   UNL     1       9.722   2.172  14.363  1.00  0.00     0.002 A 
ATOM     66  C   UNL     1      11.748   1.614  13.150  1.00  0.00     0.091 A 
ATOM     67  F   UNL     1      11.612   1.132  10.819  1.00  0.00    -0.205 F 
ATOM     68  C   UNL     1      11.104   1.994  14.339  1.00  0.00     0.022 A 
BRANCH  66  69
ATOM     69  S   UNL     1      13.516   1.311  13.237  1.00  0.00     0.127 S 
ATOM     70  O   UNL     1      14.041   2.664  13.410  1.00  0.00    -0.237 OA
ATOM     71  O   UNL     1      13.624   0.458  14.421  1.00  0.00    -0.237 OA
ATOM     72  O   UNL     1      13.875   0.659  11.986  1.00  0.00    -0.744 OA
ENDBRANCH  66  69
ENDBRANCH  39  62
ENDBRANCH  13  14
ENDBRANCH   6   8
ENDBRANCH   3   4
ENDBRANCH   2   3
ENDBRANCH   1   2
BRANCH   1  73
ATOM     73  C   UNL     1       4.843  -0.701  -4.281  1.00  0.00     0.116 C 
BRANCH  73  74
ATOM     74  N   UNL     1       6.289  -0.588  -4.432  1.00  0.00    -0.352 N 
ATOM     75  C   UNL     1       7.039  -0.664  -5.583  1.00  0.00     0.253 C 
ATOM     76  H   UNL     1       6.795  -0.437  -3.601  1.00  0.00     0.163 HD
ATOM     77  O   UNL     1       8.262  -0.722  -5.550  1.00  0.00    -0.269 OA
BRANCH  75  78
ATOM     78  C   UNL     1       6.331  -0.761  -6.874  1.00  0.00     0.064 A 
ATOM     79  C   UNL     1       5.401   0.241  -7.194  1.00  0.00     0.036 A 
ATOM     80  C   UNL     1       6.506  -1.889  -7.693  1.00  0.00     0.054 A 
ATOM     81  C   UNL     1       4.519   0.040  -8.244  1.00  0.00     0.041 A 
ATOM     82  C   UNL     1       5.517  -2.122  -8.652  1.00  0.00     0.028 A 
ATOM     83  Cl  UNL     1       3.336   1.228  -8.614  1.00  0.00    -0.084 Cl
ATOM     84  C   UNL     1       4.542  -1.160  -8.944  1.00  0.00     0.023 A 
BRANCH  80  85
ATOM     85  N   UNL     1       7.650  -2.712  -7.517  1.00  0.00    -0.321 N 
ATOM     86  C   UNL     1       8.256  -3.659  -8.318  1.00  0.00     0.255 C 
ATOM     87  H   UNL     1       8.100  -2.581  -6.652  1.00  0.00     0.170 HD
ATOM     88  O   UNL     1       9.200  -4.332  -7.911  1.00  0.00    -0.269 OA
BRANCH  86  89
ATOM     89  C   UNL     1       7.796  -3.895  -9.699  1.00  0.00     0.041 A 
ATOM     90  C   UNL     1       7.315  -5.189 -10.008  1.00  0.00     0.015 A 
ATOM     91  C   UNL     1       7.704  -2.835 -10.616  1.00  0.00     0.028 A 
ATOM     92  C   UNL     1       6.600  -5.411 -11.185  1.00  0.00     0.015 A 
ATOM     93  C   UNL     1       6.964  -3.079 -11.755  1.00  0.00     0.054 A 
ATOM     94  C   UNL     1       6.405  -4.321 -12.012  1.00  0.00     0.053 A 
ATOM     95  C   UNL     1       6.451  -2.151 -12.763  1.00  0.00     0.261 C 
ATOM     96  C   UNL     1       5.517  -4.175 -13.160  1.00  0.00     0.261 C 
ATOM     97  O   UNL     1       6.682  -0.956 -12.762  1.00  0.00    -0.269 OA
ATOM     98  N   UNL     1       5.633  -2.878 -13.578  1.00  0.00    -0.267 N 
ATOM     99  O   UNL     1       4.787  -5.059 -13.562  1.00  0.00    -0.269 OA
BRANCH  98 100
ATOM    100  C   UNL     1       4.875  -2.322 -14.678  1.00  0.00     0.204 C 
BRANCH 100 101
ATOM    101  C   UNL     1       5.415  -2.858 -15.955  1.00  0.00     0.123 A 
ATOM    102  C   UNL     1       5.335  -4.094 -16.567  1.00  0.00     0.047 A 
ATOM    103  O   UNL     1       6.171  -2.014 -16.711  1.00  0.00    -0.467 OA
ATOM    104  C   UNL     1       6.107  -4.006 -17.747  1.00  0.00     0.042 A 
ATOM    105  C   UNL     1       6.587  -2.719 -17.794  1.00  0.00     0.195 A 
ENDBRANCH 100 101
ENDBRANCH  98 100
ENDBRANCH  86  89
ENDBRANCH  80  85
ENDBRANCH  75  78
ENDBRANCH  73  74
ENDBRANCH   1  73
TORSDOF 18
