REMARK SMILES CCC(CC)([NH2+]CC(=O)Nc1ccc(C)cc1)C(=O)NCCCCNC(=O)c1ccc(-c2c3nc(c(-c4cccc(S(=O)(=O)[O-])c4F)c4ccc([nH]4)c(-c4cccc(S(=O)(=O)[O-])c4F)c4nc(c(-c5cccc(S(=O)(=O)[O-])c5F)c5ccc2[nH]5)C=C4)C=C3)cc1
REMARK SMILES IDX 22 1 21 2 20 3 18 4 19 5 3 7 2 8 1 9 4 10 5 11 6 12 7 15
REMARK SMILES IDX 8 16 9 17 10 18 11 20 12 21 17 22 13 23 16 24 14 25 15 26
REMARK SMILES IDX 23 27 24 28 25 29 26 30 27 32 28 33 29 34 90 35 30 36 89 37
REMARK SMILES IDX 31 38 32 39 33 40 83 41 34 42 88 43 82 44 84 45 35 46 87 47
REMARK SMILES IDX 81 48 80 49 36 51 68 52 48 53 67 54 49 55 52 56 66 57 85 58
REMARK SMILES IDX 50 59 51 60 65 62 86 63 53 64 37 65 38 66 46 67 39 68 41 69
REMARK SMILES IDX 47 70 40 71 42 72 43 73 44 74 45 75 69 76 70 77 78 78 71 79
REMARK SMILES IDX 73 80 79 81 72 82 74 83 75 84 76 85 77 86 54 87 55 88 63 89
REMARK SMILES IDX 56 90 58 91 64 92 57 93 59 94 60 95 61 96 62 97
REMARK H PARENT 20 6 6 13 6 14 10 19 25 31 84 50 52 61
REMARK Flexibility Score: inf
ROOT
ATOM      1  C   UNL     1       3.263  -3.986   4.513  1.00  0.00     0.023 C 
ENDROOT
BRANCH   1   2
ATOM      2  C   UNL     1       3.246  -2.604   3.832  1.00  0.00     0.116 C 
BRANCH   2   3
ATOM      3  N   UNL     1       2.801  -2.577   2.422  1.00  0.00    -0.351 N 
ATOM      4  C   UNL     1       1.844  -2.028   1.606  1.00  0.00     0.281 C 
ATOM      5  O   UNL     1       2.340  -1.815   0.481  1.00  0.00    -0.268 OA
ATOM      6  H   UNL     1       3.394  -3.150   1.884  1.00  0.00     0.163 HD
BRANCH   4   7
ATOM      7  C   UNL     1       0.193  -1.852   1.800  1.00  0.00     0.175 C 
BRANCH   7   8
ATOM      8  C   UNL     1      -0.315  -2.355   0.364  1.00  0.00     0.076 C 
ATOM      9  C   UNL     1      -0.144  -1.325  -0.795  1.00  0.00     0.011 C 
ENDBRANCH   7   8
BRANCH   7  10
ATOM     10  C   UNL     1      -0.728  -0.576   2.009  1.00  0.00     0.076 C 
ATOM     11  C   UNL     1      -2.252  -0.809   2.137  1.00  0.00     0.011 C 
ENDBRANCH   7  10
BRANCH   7  12
ATOM     12  N   UNL     1      -0.160  -2.749   2.900  1.00  0.00    -0.326 N 
ATOM     13  H   UNL     1       0.328  -3.632   2.744  1.00  0.00     0.347 HD
ATOM     14  H   UNL     1      -1.178  -2.806   2.875  1.00  0.00     0.347 HD
BRANCH  12  15
ATOM     15  C   UNL     1       0.165  -2.297   4.276  1.00  0.00     0.363 C 
BRANCH  15  16
ATOM     16  C   UNL     1       0.237  -0.811   4.779  1.00  0.00     0.279 C 
ATOM     17  O   UNL     1      -0.690  -0.438   5.522  1.00  0.00    -0.268 OA
ATOM     18  N   UNL     1       1.328   0.039   4.717  1.00  0.00    -0.321 N 
ATOM     19  H   UNL     1       1.490   0.467   5.589  1.00  0.00     0.170 HD
BRANCH  18  20
ATOM     20  C   UNL     1       2.283   0.471   3.751  1.00  0.00     0.041 A 
ATOM     21  C   UNL     1       2.031   0.751   2.416  1.00  0.00     0.026 A 
ATOM     22  C   UNL     1       3.574   0.775   4.185  1.00  0.00     0.026 A 
ATOM     23  C   UNL     1       3.041   1.044   1.489  1.00  0.00     0.005 A 
ATOM     24  C   UNL     1       4.600   1.120   3.281  1.00  0.00     0.005 A 
ATOM     25  C   UNL     1       4.354   1.174   1.909  1.00  0.00    -0.051 A 
ATOM     26  C   UNL     1       5.431   1.432   0.900  1.00  0.00     0.044 C 
ENDBRANCH  18  20
ENDBRANCH  15  16
ENDBRANCH  12  15
ENDBRANCH   7  12
ENDBRANCH   4   7
ENDBRANCH   2   3
ENDBRANCH   1   2
BRANCH   1  27
ATOM     27  C   UNL     1       4.639  -4.459   5.005  1.00  0.00     0.023 C 
BRANCH  27  28
ATOM     28  C   UNL     1       5.289  -3.568   6.074  1.00  0.00     0.116 C 
BRANCH  28  29
ATOM     29  N   UNL     1       5.599  -4.258   7.329  1.00  0.00    -0.352 N 
ATOM     30  C   UNL     1       6.379  -3.847   8.406  1.00  0.00     0.251 C 
ATOM     31  H   UNL     1       5.192  -5.149   7.426  1.00  0.00     0.163 HD
ATOM     32  O   UNL     1       6.577  -4.613   9.346  1.00  0.00    -0.269 OA
BRANCH  30  33
ATOM     33  C   UNL     1       6.888  -2.454   8.446  1.00  0.00     0.039 A 
ATOM     34  C   UNL     1       6.628  -1.673   9.578  1.00  0.00     0.014 A 
ATOM     35  C   UNL     1       7.358  -1.857   7.285  1.00  0.00     0.014 A 
ATOM     36  C   UNL     1       6.537  -0.289   9.449  1.00  0.00     0.010 A 
ATOM     37  C   UNL     1       7.151  -0.507   7.115  1.00  0.00     0.010 A 
ATOM     38  C   UNL     1       6.682   0.266   8.183  1.00  0.00    -0.014 A 
BRANCH  38  39
ATOM     39  C   UNL     1       6.443   1.661   7.870  1.00  0.00     0.031 A 
ATOM     40  C   UNL     1       7.586   2.592   7.909  1.00  0.00     0.074 A 
ATOM     41  C   UNL     1       5.240   2.084   7.424  1.00  0.00     0.049 A 
ATOM     42  N   UNL     1       7.472   3.857   8.126  1.00  0.00    -0.248 NA
ATOM     43  C   UNL     1       8.964   2.142   7.745  1.00  0.00     0.031 C 
ATOM     44  C   UNL     1       4.987   3.323   6.699  1.00  0.00     0.029 A 
ATOM     45  N   UNL     1       3.966   1.552   7.662  1.00  0.00    -0.354 N 
ATOM     46  C   UNL     1       8.707   4.418   7.896  1.00  0.00     0.074 A 
ATOM     47  C   UNL     1       9.616   3.307   7.730  1.00  0.00     0.031 C 
ATOM     48  C   UNL     1       3.677   3.596   6.750  1.00  0.00     0.029 A 
ATOM     49  C   UNL     1       3.055   2.623   7.630  1.00  0.00     0.049 A 
ATOM     50  H   UNL     1       3.749   0.605   7.821  1.00  0.00     0.167 HD
ATOM     51  C   UNL     1       8.818   5.761   7.706  1.00  0.00     0.034 A 
ATOM     52  C   UNL     1       2.155   2.927   8.606  1.00  0.00     0.034 A 
ATOM     53  C   UNL     1       7.504   6.410   7.732  1.00  0.00     0.049 A 
ATOM     54  C   UNL     1       2.405   4.288   9.229  1.00  0.00     0.074 A 
ATOM     55  C   UNL     1       6.609   6.726   6.723  1.00  0.00     0.029 A 
ATOM     56  N   UNL     1       6.805   6.525   8.927  1.00  0.00    -0.354 N 
ATOM     57  N   UNL     1       3.384   5.081   8.892  1.00  0.00    -0.248 NA
ATOM     58  C   UNL     1       1.600   4.844  10.314  1.00  0.00     0.031 C 
ATOM     59  C   UNL     1       5.345   6.971   7.315  1.00  0.00     0.029 A 
ATOM     60  C   UNL     1       5.473   6.833   8.686  1.00  0.00     0.049 A 
ATOM     61  H   UNL     1       7.200   6.406   9.821  1.00  0.00     0.167 HD
ATOM     62  C   UNL     1       3.458   6.133   9.771  1.00  0.00     0.074 A 
ATOM     63  C   UNL     1       2.261   5.985  10.582  1.00  0.00     0.031 C 
ATOM     64  C   UNL     1       4.529   6.987   9.791  1.00  0.00     0.034 A 
BRANCH  51  65
ATOM     65  C   UNL     1      10.062   6.388   7.115  1.00  0.00     0.023 A 
ATOM     66  C   UNL     1       9.896   7.475   6.231  1.00  0.00     0.012 A 
ATOM     67  C   UNL     1      11.384   5.931   7.312  1.00  0.00     0.148 A 
ATOM     68  C   UNL     1      10.957   8.001   5.489  1.00  0.00     0.002 A 
ATOM     69  C   UNL     1      12.430   6.398   6.510  1.00  0.00     0.091 A 
ATOM     70  F   UNL     1      11.644   5.075   8.311  1.00  0.00    -0.205 F 
ATOM     71  C   UNL     1      12.217   7.432   5.594  1.00  0.00     0.022 A 
BRANCH  69  72
ATOM     72  S   UNL     1      14.049   5.609   6.492  1.00  0.00     0.127 S 
ATOM     73  O   UNL     1      14.350   5.541   5.059  1.00  0.00    -0.237 OA
ATOM     74  O   UNL     1      14.873   6.553   7.240  1.00  0.00    -0.237 OA
ATOM     75  O   UNL     1      13.852   4.302   7.110  1.00  0.00    -0.744 OA
ENDBRANCH  69  72
ENDBRANCH  51  65
BRANCH  52  76
ATOM     76  C   UNL     1       1.565   1.751   9.295  1.00  0.00     0.023 A 
ATOM     77  C   UNL     1       0.546   1.050   8.610  1.00  0.00     0.012 A 
ATOM     78  C   UNL     1       2.271   1.108  10.323  1.00  0.00     0.148 A 
ATOM     79  C   UNL     1       0.302  -0.298   8.875  1.00  0.00     0.002 A 
ATOM     80  C   UNL     1       2.079  -0.255  10.517  1.00  0.00     0.091 A 
ATOM     81  F   UNL     1       3.232   1.794  10.955  1.00  0.00    -0.205 F 
ATOM     82  C   UNL     1       1.096  -0.960   9.801  1.00  0.00     0.022 A 
BRANCH  80  83
ATOM     83  S   UNL     1       3.277  -1.269  11.386  1.00  0.00     0.127 S 
ATOM     84  O   UNL     1       2.440  -1.970  12.358  1.00  0.00    -0.237 OA
ATOM     85  O   UNL     1       3.760  -2.095  10.281  1.00  0.00    -0.237 OA
ATOM     86  O   UNL     1       4.245  -0.342  11.945  1.00  0.00    -0.744 OA
ENDBRANCH  80  83
ENDBRANCH  52  76
BRANCH  64  87
ATOM     87  C   UNL     1       4.802   8.053  10.842  1.00  0.00     0.023 A 
ATOM     88  C   UNL     1       4.231   8.016  12.128  1.00  0.00     0.012 A 
ATOM     89  C   UNL     1       5.767   9.071  10.610  1.00  0.00     0.148 A 
ATOM     90  C   UNL     1       4.546   8.965  13.109  1.00  0.00     0.002 A 
ATOM     91  C   UNL     1       6.164   9.937  11.626  1.00  0.00     0.091 A 
ATOM     92  F   UNL     1       6.293   9.229   9.387  1.00  0.00    -0.205 F 
ATOM     93  C   UNL     1       5.532   9.910  12.868  1.00  0.00     0.022 A 
BRANCH  91  94
ATOM     94  S   UNL     1       7.605  10.997  11.425  1.00  0.00     0.127 S 
ATOM     95  O   UNL     1       7.005  12.239  10.943  1.00  0.00    -0.237 OA
ATOM     96  O   UNL     1       8.136  11.067  12.788  1.00  0.00    -0.237 OA
ATOM     97  O   UNL     1       8.464  10.287  10.488  1.00  0.00    -0.744 OA
ENDBRANCH  91  94
ENDBRANCH  64  87
ENDBRANCH  38  39
ENDBRANCH  30  33
ENDBRANCH  28  29
ENDBRANCH  27  28
ENDBRANCH   1  27
TORSDOF 20
