REMARK SMILES COc1ccc2c(c1C)OC(=O)[C@@H](CC(=O)N[C@@H](CC1=c3ccccc3=NC1)C(=O)NCCCCNC(=O)c1ccc(-c3c4nc(c(-c5cccc(S(=O)(=O)[O-])c5F)c5ccc([nH]5)c(-c5cccc(S(=O)(=O)[O-])c5F)c5nc(c(-c6cccc(S(=O)(=O)[O-])c6F)c6ccc3[nH]6)C=C5)C=C4)cc1)[C@H]2C
REMARK SMILES IDX 33 1 32 2 31 3 29 4 30 5 18 7 17 8 15 9 16 10 14 12 13 13
REMARK SMILES IDX 3 14 4 15 8 16 5 17 7 18 9 19 6 20 10 21 102 22 11 23 103 24
REMARK SMILES IDX 12 25 2 26 1 27 19 28 20 29 21 30 28 31 22 32 26 33 27 34
REMARK SMILES IDX 23 35 25 36 24 37 34 38 35 39 36 40 37 41 38 43 39 44 40 45
REMARK SMILES IDX 101 46 41 47 100 48 42 49 43 50 44 51 94 52 45 53 99 54
REMARK SMILES IDX 93 55 95 56 46 57 98 58 92 59 91 60 47 62 79 63 59 64 78 65
REMARK SMILES IDX 60 66 63 67 77 68 96 69 61 70 62 71 76 73 97 74 64 75 48 76
REMARK SMILES IDX 49 77 57 78 50 79 52 80 58 81 51 82 53 83 54 84 55 85 56 86
REMARK SMILES IDX 80 87 81 88 89 89 82 90 84 91 90 92 83 93 85 94 86 95 87 96
REMARK SMILES IDX 88 97 65 98 66 99 74 100 67 101 69 102 75 103 68 104 70 105
REMARK SMILES IDX 71 106 72 107 73 108
REMARK H PARENT 31 6 17 11 36 42 95 61 63 72
REMARK Flexibility Score: inf
ROOT
ATOM      1  C   UNL     1       6.414   5.461   0.996  1.00  0.00     0.023 C 
ENDROOT
BRANCH   1   2
ATOM      2  C   UNL     1       4.945   5.752   0.798  1.00  0.00     0.116 C 
BRANCH   2   3
ATOM      3  N   UNL     1       4.384   6.950   1.354  1.00  0.00    -0.354 N 
ATOM      4  C   UNL     1       3.145   7.457   1.040  1.00  0.00     0.242 C 
ATOM      5  O   UNL     1       2.670   8.348   1.746  1.00  0.00    -0.273 OA
ATOM      6  H   UNL     1       4.926   7.446   2.009  1.00  0.00     0.163 HD
BRANCH   4   7
ATOM      7  C   UNL     1       2.316   6.859  -0.143  1.00  0.00     0.175 C 
BRANCH   7   8
ATOM      8  N   UNL     1       2.945   7.157  -1.473  1.00  0.00    -0.344 N 
ATOM      9  C   UNL     1       2.621   7.560  -2.743  1.00  0.00     0.221 C 
ATOM     10  O   UNL     1       3.613   7.742  -3.468  1.00  0.00    -0.275 OA
ATOM     11  H   UNL     1       3.918   7.017  -1.413  1.00  0.00     0.164 HD
BRANCH   9  12
ATOM     12  C   UNL     1       1.209   7.771  -3.400  1.00  0.00     0.116 C 
BRANCH  12  13
ATOM     13  C   UNL     1       0.446   6.472  -3.762  1.00  0.00     0.116 C 
ATOM     14  C   UNL     1      -0.865   1.861  -2.605  1.00  0.00     0.125 A 
ATOM     15  C   UNL     1       0.489   2.043  -2.879  1.00  0.00     0.047 A 
ATOM     16  C   UNL     1      -1.785   2.911  -2.875  1.00  0.00     0.034 A 
ATOM     17  C   UNL     1       0.953   3.327  -2.994  1.00  0.00     0.012 A 
ATOM     18  C   UNL     1      -1.247   4.142  -3.231  1.00  0.00     0.140 A 
ATOM     19  C   UNL     1      -3.248   2.763  -2.610  1.00  0.00     0.052 C 
ATOM     20  C   UNL     1       0.044   4.354  -2.880  1.00  0.00    -0.001 A 
ATOM     21  O   UNL     1      -1.838   5.276  -3.856  1.00  0.00    -0.426 OA
ATOM     22  C   UNL     1       0.359   5.734  -2.479  1.00  0.00     0.035 C 
ATOM     23  C   UNL     1      -1.033   6.442  -4.280  1.00  0.00     0.315 C 
ATOM     24  C   UNL     1      -0.653   6.441  -1.506  1.00  0.00     0.014 C 
ATOM     25  O   UNL     1      -1.519   7.322  -4.982  1.00  0.00    -0.251 OA
BRANCH  14  26
ATOM     26  O   UNL     1      -1.293   0.657  -2.102  1.00  0.00    -0.496 OA
ATOM     27  C   UNL     1      -0.462   0.173  -1.028  1.00  0.00     0.278 C 
ENDBRANCH  14  26
ENDBRANCH  12  13
ENDBRANCH   9  12
ENDBRANCH   7   8
BRANCH   7  28
ATOM     28  C   UNL     1       1.889   5.384   0.282  1.00  0.00     0.068 C 
BRANCH  28  29
ATOM     29  C   UNL     1       2.514   4.031  -0.021  1.00  0.00    -0.037 C 
ATOM     30  C   UNL     1       3.417   3.550  -0.881  1.00  0.00     0.001 A 
ATOM     31  C   UNL     1       2.040   2.906   0.882  1.00  0.00     0.174 C 
ATOM     32  C   UNL     1       4.187   4.053  -1.978  1.00  0.00     0.010 A 
ATOM     33  C   UNL     1       3.566   2.138  -0.462  1.00  0.00     0.065 A 
ATOM     34  N   UNL     1       2.817   1.713   0.504  1.00  0.00    -0.280 NA
ATOM     35  C   UNL     1       5.085   3.258  -2.580  1.00  0.00     0.001 A 
ATOM     36  C   UNL     1       4.601   1.334  -1.145  1.00  0.00     0.028 A 
ATOM     37  C   UNL     1       5.312   1.898  -2.134  1.00  0.00     0.002 A 
ENDBRANCH  28  29
ENDBRANCH   7  28
ENDBRANCH   4   7
ENDBRANCH   2   3
ENDBRANCH   1   2
BRANCH   1  38
ATOM     38  C   UNL     1       6.788   4.982   2.392  1.00  0.00     0.023 C 
BRANCH  38  39
ATOM     39  C   UNL     1       5.872   3.923   3.006  1.00  0.00     0.116 C 
BRANCH  39  40
ATOM     40  N   UNL     1       5.844   2.658   2.277  1.00  0.00    -0.352 N 
ATOM     41  C   UNL     1       6.434   1.453   2.617  1.00  0.00     0.251 C 
ATOM     42  H   UNL     1       5.339   2.663   1.432  1.00  0.00     0.163 HD
ATOM     43  O   UNL     1       6.414   0.488   1.875  1.00  0.00    -0.269 OA
BRANCH  41  44
ATOM     44  C   UNL     1       7.131   1.407   3.912  1.00  0.00     0.039 A 
ATOM     45  C   UNL     1       8.524   1.321   3.920  1.00  0.00     0.014 A 
ATOM     46  C   UNL     1       6.408   1.691   5.072  1.00  0.00     0.014 A 
ATOM     47  C   UNL     1       9.210   1.638   5.091  1.00  0.00     0.010 A 
ATOM     48  C   UNL     1       7.098   2.103   6.202  1.00  0.00     0.010 A 
ATOM     49  C   UNL     1       8.503   2.085   6.219  1.00  0.00    -0.014 A 
BRANCH  49  50
ATOM     50  C   UNL     1       9.208   2.514   7.449  1.00  0.00     0.031 A 
ATOM     51  C   UNL     1       8.981   1.744   8.718  1.00  0.00     0.074 A 
ATOM     52  C   UNL     1       9.969   3.628   7.448  1.00  0.00     0.049 A 
ATOM     53  N   UNL     1       9.427   1.992   9.919  1.00  0.00    -0.248 NA
ATOM     54  C   UNL     1       8.110   0.557   8.633  1.00  0.00     0.031 C 
ATOM     55  C   UNL     1      10.196   4.506   6.297  1.00  0.00     0.029 A 
ATOM     56  N   UNL     1      10.678   4.224   8.461  1.00  0.00    -0.354 N 
ATOM     57  C   UNL     1       8.858   1.024  10.734  1.00  0.00     0.074 A 
ATOM     58  C   UNL     1       8.004   0.207   9.905  1.00  0.00     0.031 C 
ATOM     59  C   UNL     1      11.000   5.519   6.666  1.00  0.00     0.029 A 
ATOM     60  C   UNL     1      11.330   5.375   8.081  1.00  0.00     0.049 A 
ATOM     61  H   UNL     1      10.717   3.861   9.375  1.00  0.00     0.167 HD
ATOM     62  C   UNL     1       9.065   0.804  12.050  1.00  0.00     0.034 A 
ATOM     63  C   UNL     1      12.109   6.212   8.795  1.00  0.00     0.034 A 
ATOM     64  C   UNL     1       9.983   1.557  12.851  1.00  0.00     0.049 A 
ATOM     65  C   UNL     1      12.378   5.904  10.244  1.00  0.00     0.074 A 
ATOM     66  C   UNL     1      10.345   1.341  14.167  1.00  0.00     0.029 A 
ATOM     67  N   UNL     1      10.693   2.660  12.407  1.00  0.00    -0.354 N 
ATOM     68  N   UNL     1      11.941   4.898  10.963  1.00  0.00    -0.248 NA
ATOM     69  C   UNL     1      13.265   6.823  10.973  1.00  0.00     0.031 C 
ATOM     70  C   UNL     1      11.279   2.317  14.521  1.00  0.00     0.029 A 
ATOM     71  C   UNL     1      11.496   3.137  13.424  1.00  0.00     0.049 A 
ATOM     72  H   UNL     1      10.634   3.046  11.503  1.00  0.00     0.167 HD
ATOM     73  C   UNL     1      12.517   5.050  12.219  1.00  0.00     0.074 A 
ATOM     74  C   UNL     1      13.346   6.235  12.160  1.00  0.00     0.031 C 
ATOM     75  C   UNL     1      12.358   4.285  13.325  1.00  0.00     0.034 A 
BRANCH  62  76
ATOM     76  C   UNL     1       8.354  -0.354  12.683  1.00  0.00     0.023 A 
ATOM     77  C   UNL     1       8.838  -1.658  12.460  1.00  0.00     0.012 A 
ATOM     78  C   UNL     1       7.264  -0.150  13.548  1.00  0.00     0.148 A 
ATOM     79  C   UNL     1       8.238  -2.749  13.082  1.00  0.00     0.002 A 
ATOM     80  C   UNL     1       6.690  -1.240  14.190  1.00  0.00     0.091 A 
ATOM     81  F   UNL     1       6.815   1.101  13.725  1.00  0.00    -0.205 F 
ATOM     82  C   UNL     1       7.172  -2.539  13.954  1.00  0.00     0.022 A 
BRANCH  80  83
ATOM     83  S   UNL     1       5.346  -1.079  15.368  1.00  0.00     0.127 S 
ATOM     84  O   UNL     1       4.293  -1.865  14.725  1.00  0.00    -0.237 OA
ATOM     85  O   UNL     1       5.919  -1.691  16.566  1.00  0.00    -0.237 OA
ATOM     86  O   UNL     1       5.069   0.346  15.475  1.00  0.00    -0.744 OA
ENDBRANCH  80  83
ENDBRANCH  62  76
BRANCH  63  87
ATOM     87  C   UNL     1      12.757   7.376   8.129  1.00  0.00     0.023 A 
ATOM     88  C   UNL     1      14.132   7.316   7.831  1.00  0.00     0.012 A 
ATOM     89  C   UNL     1      12.020   8.516   7.757  1.00  0.00     0.148 A 
ATOM     90  C   UNL     1      14.768   8.381   7.191  1.00  0.00     0.002 A 
ATOM     91  C   UNL     1      12.652   9.558   7.087  1.00  0.00     0.091 A 
ATOM     92  F   UNL     1      10.714   8.552   8.056  1.00  0.00    -0.205 F 
ATOM     93  C   UNL     1      14.028   9.497   6.812  1.00  0.00     0.022 A 
BRANCH  91  94
ATOM     94  S   UNL     1      11.768  10.996   6.472  1.00  0.00     0.127 S 
ATOM     95  O   UNL     1      12.341  12.069   7.282  1.00  0.00    -0.237 OA
ATOM     96  O   UNL     1      12.161  11.009   5.063  1.00  0.00    -0.237 OA
ATOM     97  O   UNL     1      10.356  10.721   6.703  1.00  0.00    -0.744 OA
ENDBRANCH  91  94
ENDBRANCH  63  87
BRANCH  75  98
ATOM     98  C   UNL     1      13.093   4.677  14.574  1.00  0.00     0.023 A 
ATOM     99  C   UNL     1      12.568   5.700  15.385  1.00  0.00     0.012 A 
ATOM    100  C   UNL     1      14.198   3.927  15.020  1.00  0.00     0.148 A 
ATOM    101  C   UNL     1      13.134   5.972  16.629  1.00  0.00     0.002 A 
ATOM    102  C   UNL     1      14.735   4.180  16.276  1.00  0.00     0.091 A 
ATOM    103  F   UNL     1      14.679   2.962  14.222  1.00  0.00    -0.205 F 
ATOM    104  C   UNL     1      14.207   5.205  17.079  1.00  0.00     0.022 A 
BRANCH 102 105
ATOM    105  S   UNL     1      16.058   3.190  16.980  1.00  0.00     0.127 S 
ATOM    106  O   UNL     1      17.161   4.149  17.014  1.00  0.00    -0.237 OA
ATOM    107  O   UNL     1      15.515   2.836  18.291  1.00  0.00    -0.237 OA
ATOM    108  O   UNL     1      16.244   2.063  16.075  1.00  0.00    -0.744 OA
ENDBRANCH 102 105
ENDBRANCH  75  98
ENDBRANCH  49  50
ENDBRANCH  41  44
ENDBRANCH  39  40
ENDBRANCH  38  39
ENDBRANCH   1  38
TORSDOF 20
