REMARK SMILES C[C@H](NC(=O)CCN1C(=O)/C(=C/c2ccc([N+](=O)[O-])cc2)SC1=S)C(=O)NCCCCNC(=O)c1ccc(-c2c3nc(c(-c4cccc(S(=O)(=O)[O-])c4F)c4ccc([nH]4)c(-c4cccc(S(=O)(=O)[O-])c4F)c4nc(c(-c5cccc(S(=O)(=O)[O-])c5F)c5ccc2[nH]5)C=C4)C=C3)cc1
REMARK SMILES IDX 28 1 27 2 25 3 26 4 2 6 1 7 3 8 4 9 5 11 6 12 7 13 8 14 9 15
REMARK SMILES IDX 23 16 10 17 11 18 22 19 24 20 12 21 13 22 14 23 21 24 15 25
REMARK SMILES IDX 20 26 16 27 17 28 18 29 19 30 29 31 30 32 31 33 32 34 33 35
REMARK SMILES IDX 34 37 35 38 36 39 97 40 37 41 96 42 38 43 39 44 40 45 90 46
REMARK SMILES IDX 41 47 95 48 89 49 91 50 42 51 94 52 88 53 87 54 43 56 75 57
REMARK SMILES IDX 55 58 74 59 56 60 59 61 73 62 92 63 57 64 58 65 72 67 93 68
REMARK SMILES IDX 60 69 44 70 45 71 53 72 46 73 48 74 54 75 47 76 49 77 50 78
REMARK SMILES IDX 51 79 52 80 76 81 77 82 85 83 78 84 80 85 86 86 79 87 81 88
REMARK SMILES IDX 82 89 83 90 84 91 61 92 62 93 70 94 63 95 65 96 71 97 64 98
REMARK SMILES IDX 66 99 67 100 68 101 69 102
REMARK H PARENT 27 5 3 10 32 36 91 55 59 66
REMARK Flexibility Score: inf
ROOT
ATOM      1  C   UNL     1      -0.960  -1.837  -1.934  1.00  0.00     0.116 C 
ENDROOT
BRANCH   1   2
ATOM      2  N   UNL     1      -1.461  -0.647  -1.292  1.00  0.00    -0.354 N 
ATOM      3  C   UNL     1      -0.748   0.244  -0.566  1.00  0.00     0.242 C 
ATOM      4  O   UNL     1      -1.329   0.857   0.331  1.00  0.00    -0.273 OA
ATOM      5  H   UNL     1      -2.423  -0.465  -1.392  1.00  0.00     0.163 HD
BRANCH   3   6
ATOM      6  C   UNL     1       0.736   0.500  -0.864  1.00  0.00     0.168 C 
ATOM      7  C   UNL     1       1.269   0.283  -2.274  1.00  0.00     0.041 C 
BRANCH   6   8
ATOM      8  N   UNL     1       1.671   0.062   0.148  1.00  0.00    -0.345 N 
ATOM      9  C   UNL     1       2.261   0.805   1.126  1.00  0.00     0.222 C 
ATOM     10  H   UNL     1       1.911  -0.893   0.129  1.00  0.00     0.164 HD
ATOM     11  O   UNL     1       3.150   0.274   1.794  1.00  0.00    -0.275 OA
BRANCH   9  12
ATOM     12  C   UNL     1       1.809   2.231   1.417  1.00  0.00     0.122 C 
BRANCH  12  13
ATOM     13  C   UNL     1       2.301   3.328   0.451  1.00  0.00     0.137 C 
BRANCH  13  14
ATOM     14  N   UNL     1       1.383   3.720  -0.644  1.00  0.00    -0.292 N 
ATOM     15  C   UNL     1       0.025   3.894  -0.403  1.00  0.00     0.266 C 
ATOM     16  C   UNL     1       1.779   4.003  -1.937  1.00  0.00     0.148 C 
ATOM     17  O   UNL     1      -0.502   4.069   0.684  1.00  0.00    -0.268 OA
ATOM     18  C   UNL     1      -0.717   3.792  -1.694  1.00  0.00     0.081 C 
ATOM     19  S   UNL     1       0.362   4.132  -2.984  1.00  0.00    -0.054 SA
ATOM     20  S   UNL     1       3.329   4.170  -2.531  1.00  0.00    -0.052 S 
ATOM     21  C   UNL     1      -1.971   3.316  -1.747  1.00  0.00     0.029 C 
BRANCH  21  22
ATOM     22  C   UNL     1      -2.760   2.939  -2.934  1.00  0.00    -0.024 A 
ATOM     23  C   UNL     1      -4.062   3.438  -3.071  1.00  0.00     0.015 A 
ATOM     24  C   UNL     1      -2.292   2.007  -3.875  1.00  0.00     0.015 A 
ATOM     25  C   UNL     1      -4.871   3.051  -4.147  1.00  0.00     0.086 A 
ATOM     26  C   UNL     1      -3.093   1.607  -4.952  1.00  0.00     0.086 A 
ATOM     27  C   UNL     1      -4.380   2.139  -5.088  1.00  0.00     0.269 A 
BRANCH  27  28
ATOM     28  N   UNL     1      -5.217   1.734  -6.224  1.00  0.00     0.062 N 
ATOM     29  O   UNL     1      -6.246   2.387  -6.440  1.00  0.00    -0.258 OA
ATOM     30  O   UNL     1      -4.832   0.769  -6.901  1.00  0.00    -0.258 OA
ENDBRANCH  27  28
ENDBRANCH  21  22
ENDBRANCH  13  14
ENDBRANCH  12  13
ENDBRANCH   9  12
ENDBRANCH   6   8
ENDBRANCH   3   6
ENDBRANCH   1   2
BRANCH   1  31
ATOM     31  C   UNL     1      -1.570  -3.072  -1.286  1.00  0.00     0.023 C 
BRANCH  31  32
ATOM     32  C   UNL     1      -3.089  -3.165  -1.428  1.00  0.00     0.023 C 
BRANCH  32  33
ATOM     33  C   UNL     1      -3.604  -2.929  -2.842  1.00  0.00     0.116 C 
BRANCH  33  34
ATOM     34  N   UNL     1      -2.916  -3.762  -3.821  1.00  0.00    -0.352 N 
ATOM     35  C   UNL     1      -3.446  -4.673  -4.697  1.00  0.00     0.251 C 
ATOM     36  H   UNL     1      -1.938  -3.656  -3.857  1.00  0.00     0.163 HD
ATOM     37  O   UNL     1      -2.715  -5.433  -5.323  1.00  0.00    -0.269 OA
BRANCH  35  38
ATOM     38  C   UNL     1      -4.908  -4.731  -4.844  1.00  0.00     0.039 A 
ATOM     39  C   UNL     1      -5.557  -5.955  -4.681  1.00  0.00     0.014 A 
ATOM     40  C   UNL     1      -5.630  -3.554  -5.062  1.00  0.00     0.014 A 
ATOM     41  C   UNL     1      -6.949  -5.988  -4.680  1.00  0.00     0.010 A 
ATOM     42  C   UNL     1      -7.013  -3.579  -4.971  1.00  0.00     0.010 A 
ATOM     43  C   UNL     1      -7.687  -4.797  -4.790  1.00  0.00    -0.014 A 
BRANCH  43  44
ATOM     44  C   UNL     1      -9.167  -4.804  -4.727  1.00  0.00     0.031 A 
ATOM     45  C   UNL     1      -9.968  -4.331  -5.908  1.00  0.00     0.074 A 
ATOM     46  C   UNL     1      -9.783  -5.156  -3.581  1.00  0.00     0.049 A 
ATOM     47  N   UNL     1     -11.264  -4.212  -6.029  1.00  0.00    -0.248 NA
ATOM     48  C   UNL     1      -9.214  -3.905  -7.100  1.00  0.00     0.031 C 
ATOM     49  C   UNL     1      -9.108  -5.548  -2.341  1.00  0.00     0.029 A 
ATOM     50  N   UNL     1     -11.116  -5.215  -3.264  1.00  0.00    -0.354 N 
ATOM     51  C   UNL     1     -11.477  -3.668  -7.289  1.00  0.00     0.074 A 
ATOM     52  C   UNL     1     -10.178  -3.438  -7.878  1.00  0.00     0.031 C 
ATOM     53  C   UNL     1     -10.030  -5.811  -1.402  1.00  0.00     0.029 A 
ATOM     54  C   UNL     1     -11.358  -5.579  -1.960  1.00  0.00     0.049 A 
ATOM     55  H   UNL     1     -11.833  -5.015  -3.909  1.00  0.00     0.167 HD
ATOM     56  C   UNL     1     -12.650  -3.417  -7.916  1.00  0.00     0.034 A 
ATOM     57  C   UNL     1     -12.520  -5.704  -1.290  1.00  0.00     0.034 A 
ATOM     58  C   UNL     1     -13.938  -3.687  -7.340  1.00  0.00     0.049 A 
ATOM     59  C   UNL     1     -13.811  -5.459  -2.023  1.00  0.00     0.074 A 
ATOM     60  C   UNL     1     -15.186  -3.550  -7.921  1.00  0.00     0.029 A 
ATOM     61  N   UNL     1     -14.145  -4.145  -6.048  1.00  0.00    -0.354 N 
ATOM     62  N   UNL     1     -13.996  -5.100  -3.270  1.00  0.00    -0.248 NA
ATOM     63  C   UNL     1     -15.055  -5.674  -1.269  1.00  0.00     0.031 C 
ATOM     64  C   UNL     1     -16.149  -3.901  -6.970  1.00  0.00     0.029 A 
ATOM     65  C   UNL     1     -15.500  -4.288  -5.808  1.00  0.00     0.049 A 
ATOM     66  H   UNL     1     -13.432  -4.339  -5.397  1.00  0.00     0.167 HD
ATOM     67  C   UNL     1     -15.373  -5.080  -3.461  1.00  0.00     0.074 A 
ATOM     68  C   UNL     1     -15.973  -5.486  -2.207  1.00  0.00     0.031 C 
ATOM     69  C   UNL     1     -16.078  -4.743  -4.569  1.00  0.00     0.034 A 
BRANCH  56  70
ATOM     70  C   UNL     1     -12.589  -2.873  -9.319  1.00  0.00     0.023 A 
ATOM     71  C   UNL     1     -12.141  -3.703 -10.368  1.00  0.00     0.012 A 
ATOM     72  C   UNL     1     -13.021  -1.564  -9.611  1.00  0.00     0.148 A 
ATOM     73  C   UNL     1     -12.087  -3.228 -11.678  1.00  0.00     0.002 A 
ATOM     74  C   UNL     1     -13.011  -1.115 -10.926  1.00  0.00     0.091 A 
ATOM     75  F   UNL     1     -13.423  -0.783  -8.599  1.00  0.00    -0.205 F 
ATOM     76  C   UNL     1     -12.532  -1.940 -11.958  1.00  0.00     0.022 A 
BRANCH  74  77
ATOM     77  S   UNL     1     -13.645   0.496 -11.406  1.00  0.00     0.127 S 
ATOM     78  O   UNL     1     -12.420   1.191 -11.798  1.00  0.00    -0.237 OA
ATOM     79  O   UNL     1     -14.534   0.155 -12.517  1.00  0.00    -0.237 OA
ATOM     80  O   UNL     1     -14.318   1.031 -10.231  1.00  0.00    -0.744 OA
ENDBRANCH  74  77
ENDBRANCH  56  70
BRANCH  57  81
ATOM     81  C   UNL     1     -12.516  -6.137   0.136  1.00  0.00     0.023 A 
ATOM     82  C   UNL     1     -13.002  -7.415   0.476  1.00  0.00     0.012 A 
ATOM     83  C   UNL     1     -12.011  -5.303   1.152  1.00  0.00     0.148 A 
ATOM     84  C   UNL     1     -13.020  -7.839   1.805  1.00  0.00     0.002 A 
ATOM     85  C   UNL     1     -11.978  -5.754   2.466  1.00  0.00     0.091 A 
ATOM     86  F   UNL     1     -11.560  -4.087   0.810  1.00  0.00    -0.205 F 
ATOM     87  C   UNL     1     -12.499  -7.014   2.798  1.00  0.00     0.022 A 
BRANCH  85  88
ATOM     88  S   UNL     1     -11.204  -4.814   3.786  1.00  0.00     0.127 S 
ATOM     89  O   UNL     1     -12.360  -4.391   4.571  1.00  0.00    -0.237 OA
ATOM     90  O   UNL     1     -10.362  -5.827   4.424  1.00  0.00    -0.237 OA
ATOM     91  O   UNL     1     -10.461  -3.749   3.126  1.00  0.00    -0.744 OA
ENDBRANCH  85  88
ENDBRANCH  57  81
BRANCH  69  92
ATOM     92  C   UNL     1     -17.579  -4.835  -4.497  1.00  0.00     0.023 A 
ATOM     93  C   UNL     1     -18.305  -3.889  -3.746  1.00  0.00     0.012 A 
ATOM     94  C   UNL     1     -18.272  -5.812  -5.237  1.00  0.00     0.148 A 
ATOM     95  C   UNL     1     -19.698  -3.937  -3.707  1.00  0.00     0.002 A 
ATOM     96  C   UNL     1     -19.661  -5.821  -5.235  1.00  0.00     0.091 A 
ATOM     97  F   UNL     1     -17.561  -6.713  -5.931  1.00  0.00    -0.205 F 
ATOM     98  C   UNL     1     -20.375  -4.893  -4.460  1.00  0.00     0.022 A 
BRANCH  96  99
ATOM     99  S   UNL     1     -20.619  -6.951  -6.251  1.00  0.00     0.127 S 
ATOM    100  O   UNL     1     -21.166  -7.862  -5.247  1.00  0.00    -0.237 OA
ATOM    101  O   UNL     1     -21.601  -6.058  -6.866  1.00  0.00    -0.237 OA
ATOM    102  O   UNL     1     -19.675  -7.548  -7.187  1.00  0.00    -0.744 OA
ENDBRANCH  96  99
ENDBRANCH  69  92
ENDBRANCH  43  44
ENDBRANCH  35  38
ENDBRANCH  33  34
ENDBRANCH  32  33
ENDBRANCH  31  32
ENDBRANCH   1  31
TORSDOF 20
