REMARK SMILES O=C1NC[C@@H](CSc2ccnc(C(=O)NCCCCNC(=O)c3ccc(-c4c5nc(c(-c6cccc(S(=O)(=O)[O-])c6F)c6ccc([nH]6)c(-c6cccc(S(=O)(=O)[O-])c6F)c6nc(c(-c7cccc(S(=O)(=O)[O-])c7F)c7ccc4[nH]7)C=C6)C=C5)cc3)c2)O1
REMARK SMILES IDX 17 1 16 2 15 3 13 4 14 5 12 7 8 8 9 9 86 10 10 11 11 12 7 13
REMARK SMILES IDX 6 14 5 15 1 16 2 17 3 18 87 19 4 20 18 22 19 23 20 24 21 25
REMARK SMILES IDX 22 27 23 28 24 29 85 30 25 31 84 32 26 33 27 34 28 35 78 36
REMARK SMILES IDX 29 37 83 38 77 39 79 40 30 41 82 42 76 43 75 44 31 46 63 47
REMARK SMILES IDX 43 48 62 49 44 50 47 51 61 52 80 53 45 54 46 55 60 57 81 58
REMARK SMILES IDX 48 59 32 60 33 61 41 62 34 63 36 64 42 65 35 66 37 67 38 68
REMARK SMILES IDX 39 69 40 70 64 71 65 72 73 73 66 74 68 75 74 76 67 77 69 78
REMARK SMILES IDX 70 79 71 80 72 81 49 82 50 83 58 84 51 85 53 86 59 87 52 88
REMARK SMILES IDX 54 89 55 90 56 91 57 92
REMARK H PARENT 15 6 3 21 20 26 79 45 47 56
REMARK Flexibility Score: inf
ROOT
ATOM      1  C   UNL     1       3.959  -1.935  -6.136  1.00  0.00     0.023 C 
ENDROOT
BRANCH   1   2
ATOM      2  C   UNL     1       2.671  -2.761  -6.128  1.00  0.00     0.116 C 
BRANCH   2   3
ATOM      3  N   UNL     1       2.915  -4.022  -5.458  1.00  0.00    -0.351 N 
ATOM      4  C   UNL     1       2.712  -4.439  -4.162  1.00  0.00     0.269 C 
ATOM      5  O   UNL     1       3.132  -5.557  -3.861  1.00  0.00    -0.268 OA
ATOM      6  H   UNL     1       3.301  -4.714  -6.042  1.00  0.00     0.163 HD
BRANCH   4   7
ATOM      7  C   UNL     1       1.936  -3.637  -3.153  1.00  0.00     0.129 A 
ATOM      8  C   UNL     1       0.884  -1.647  -2.358  1.00  0.00     0.011 A 
ATOM      9  C   UNL     1       0.076  -2.437  -1.548  1.00  0.00     0.035 A 
ATOM     10  C   UNL     1       1.863  -2.252  -3.144  1.00  0.00     0.049 A 
ATOM     11  C   UNL     1       0.323  -3.792  -1.497  1.00  0.00     0.113 A 
ATOM     12  N   UNL     1       1.223  -4.402  -2.283  1.00  0.00    -0.251 NA
BRANCH   8  13
ATOM     13  S   UNL     1       0.527   0.088  -2.534  1.00  0.00    -0.122 SA
BRANCH  13  14
ATOM     14  C   UNL     1       1.780   0.858  -1.442  1.00  0.00     0.122 C 
BRANCH  14  15
ATOM     15  C   UNL     1       1.451   0.938   0.056  1.00  0.00     0.208 C 
ATOM     16  O   UNL     1      -1.818   0.349   1.002  1.00  0.00    -0.225 OA
ATOM     17  C   UNL     1      -0.611   0.352   0.819  1.00  0.00     0.407 C 
ATOM     18  N   UNL     1       0.225  -0.677   1.133  1.00  0.00    -0.318 N 
ATOM     19  O   UNL     1       0.100   1.383   0.281  1.00  0.00    -0.443 OA
ATOM     20  C   UNL     1       1.575  -0.361   0.827  1.00  0.00     0.165 C 
ATOM     21  H   UNL     1      -0.069  -1.532   1.522  1.00  0.00     0.167 HD
ENDBRANCH  14  15
ENDBRANCH  13  14
ENDBRANCH   8  13
ENDBRANCH   4   7
ENDBRANCH   2   3
ENDBRANCH   1   2
BRANCH   1  22
ATOM     22  C   UNL     1       4.944  -2.361  -7.230  1.00  0.00     0.023 C 
BRANCH  22  23
ATOM     23  C   UNL     1       4.406  -2.230  -8.650  1.00  0.00     0.116 C 
BRANCH  23  24
ATOM     24  N   UNL     1       3.908  -0.894  -8.948  1.00  0.00    -0.352 N 
ATOM     25  C   UNL     1       3.951  -0.219 -10.142  1.00  0.00     0.251 C 
ATOM     26  H   UNL     1       3.488  -0.414  -8.198  1.00  0.00     0.163 HD
ATOM     27  O   UNL     1       3.614   0.958 -10.203  1.00  0.00    -0.269 OA
BRANCH  25  28
ATOM     28  C   UNL     1       4.444  -0.927 -11.339  1.00  0.00     0.039 A 
ATOM     29  C   UNL     1       5.437  -0.328 -12.114  1.00  0.00     0.014 A 
ATOM     30  C   UNL     1       3.965  -2.202 -11.652  1.00  0.00     0.014 A 
ATOM     31  C   UNL     1       5.991  -1.038 -13.178  1.00  0.00     0.010 A 
ATOM     32  C   UNL     1       4.580  -2.938 -12.657  1.00  0.00     0.010 A 
ATOM     33  C   UNL     1       5.592  -2.361 -13.437  1.00  0.00    -0.014 A 
BRANCH  33  34
ATOM     34  C   UNL     1       6.235  -3.149 -14.517  1.00  0.00     0.031 A 
ATOM     35  C   UNL     1       5.422  -3.651 -15.679  1.00  0.00     0.074 A 
ATOM     36  C   UNL     1       7.543  -3.460 -14.420  1.00  0.00     0.049 A 
ATOM     37  N   UNL     1       5.814  -4.342 -16.718  1.00  0.00    -0.248 NA
ATOM     38  C   UNL     1       3.977  -3.365 -15.662  1.00  0.00     0.031 C 
ATOM     39  C   UNL     1       8.415  -3.108 -13.297  1.00  0.00     0.029 A 
ATOM     40  N   UNL     1       8.364  -4.155 -15.271  1.00  0.00    -0.354 N 
ATOM     41  C   UNL     1       4.667  -4.596 -17.460  1.00  0.00     0.074 A 
ATOM     42  C   UNL     1       3.556  -4.026 -16.730  1.00  0.00     0.031 C 
ATOM     43  C   UNL     1       9.652  -3.569 -13.539  1.00  0.00     0.029 A 
ATOM     44  C   UNL     1       9.655  -4.277 -14.814  1.00  0.00     0.049 A 
ATOM     45  H   UNL     1       8.058  -4.530 -16.129  1.00  0.00     0.167 HD
ATOM     46  C   UNL     1       4.550  -5.220 -18.655  1.00  0.00     0.034 A 
ATOM     47  C   UNL     1      10.722  -4.894 -15.360  1.00  0.00     0.034 A 
ATOM     48  C   UNL     1       5.662  -5.761 -19.390  1.00  0.00     0.049 A 
ATOM     49  C   UNL     1      10.572  -5.551 -16.705  1.00  0.00     0.074 A 
ATOM     50  C   UNL     1       5.663  -6.336 -20.647  1.00  0.00     0.029 A 
ATOM     51  N   UNL     1       6.968  -5.809 -18.927  1.00  0.00    -0.354 N 
ATOM     52  N   UNL     1       9.509  -5.636 -17.469  1.00  0.00    -0.248 NA
ATOM     53  C   UNL     1      11.777  -6.162 -17.282  1.00  0.00     0.031 C 
ATOM     54  C   UNL     1       6.963  -6.768 -20.928  1.00  0.00     0.029 A 
ATOM     55  C   UNL     1       7.781  -6.418 -19.866  1.00  0.00     0.049 A 
ATOM     56  H   UNL     1       7.272  -5.460 -18.058  1.00  0.00     0.167 HD
ATOM     57  C   UNL     1       9.925  -6.277 -18.630  1.00  0.00     0.074 A 
ATOM     58  C   UNL     1      11.342  -6.534 -18.479  1.00  0.00     0.031 C 
ATOM     59  C   UNL     1       9.198  -6.631 -19.719  1.00  0.00     0.034 A 
BRANCH  46  60
ATOM     60  C   UNL     1       3.175  -5.317 -19.264  1.00  0.00     0.023 A 
ATOM     61  C   UNL     1       2.535  -4.153 -19.740  1.00  0.00     0.012 A 
ATOM     62  C   UNL     1       2.538  -6.564 -19.416  1.00  0.00     0.148 A 
ATOM     63  C   UNL     1       1.270  -4.223 -20.321  1.00  0.00     0.002 A 
ATOM     64  C   UNL     1       1.300  -6.633 -20.043  1.00  0.00     0.091 A 
ATOM     65  F   UNL     1       3.151  -7.657 -18.940  1.00  0.00    -0.205 F 
ATOM     66  C   UNL     1       0.658  -5.463 -20.483  1.00  0.00     0.022 A 
BRANCH  64  67
ATOM     67  S   UNL     1       0.466  -8.188 -20.376  1.00  0.00     0.127 S 
ATOM     68  O   UNL     1      -0.687  -8.101 -19.480  1.00  0.00    -0.237 OA
ATOM     69  O   UNL     1       0.144  -8.063 -21.798  1.00  0.00    -0.237 OA
ATOM     70  O   UNL     1       1.424  -9.236 -20.057  1.00  0.00    -0.744 OA
ENDBRANCH  64  67
ENDBRANCH  46  60
BRANCH  47  71
ATOM     71  C   UNL     1      12.038  -4.871 -14.662  1.00  0.00     0.023 A 
ATOM     72  C   UNL     1      13.105  -4.132 -15.210  1.00  0.00     0.012 A 
ATOM     73  C   UNL     1      12.232  -5.562 -13.451  1.00  0.00     0.148 A 
ATOM     74  C   UNL     1      14.353  -4.116 -14.585  1.00  0.00     0.002 A 
ATOM     75  C   UNL     1      13.460  -5.494 -12.803  1.00  0.00     0.091 A 
ATOM     76  F   UNL     1      11.206  -6.265 -12.950  1.00  0.00    -0.205 F 
ATOM     77  C   UNL     1      14.528  -4.788 -13.379  1.00  0.00     0.022 A 
BRANCH  75  78
ATOM     78  S   UNL     1      13.736  -6.216 -11.183  1.00  0.00     0.127 S 
ATOM     79  O   UNL     1      14.665  -7.299 -11.493  1.00  0.00    -0.237 OA
ATOM     80  O   UNL     1      14.320  -5.092 -10.450  1.00  0.00    -0.237 OA
ATOM     81  O   UNL     1      12.422  -6.627 -10.705  1.00  0.00    -0.744 OA
ENDBRANCH  75  78
ENDBRANCH  47  71
BRANCH  59  82
ATOM     82  C   UNL     1       9.928  -7.298 -20.856  1.00  0.00     0.023 A 
ATOM     83  C   UNL     1      10.419  -8.611 -20.710  1.00  0.00     0.012 A 
ATOM     84  C   UNL     1      10.078  -6.638 -22.092  1.00  0.00     0.148 A 
ATOM     85  C   UNL     1      11.086  -9.239 -21.761  1.00  0.00     0.002 A 
ATOM     86  C   UNL     1      10.694  -7.291 -23.152  1.00  0.00     0.091 A 
ATOM     87  F   UNL     1       9.620  -5.383 -22.207  1.00  0.00    -0.205 F 
ATOM     88  C   UNL     1      11.213  -8.584 -22.984  1.00  0.00     0.022 A 
BRANCH  86  89
ATOM     89  S   UNL     1      10.813  -6.566 -24.791  1.00  0.00     0.127 S 
ATOM     90  O   UNL     1      12.241  -6.269 -24.883  1.00  0.00    -0.237 OA
ATOM     91  O   UNL     1      10.361  -7.663 -25.648  1.00  0.00    -0.237 OA
ATOM     92  O   UNL     1       9.933  -5.404 -24.783  1.00  0.00    -0.744 OA
ENDBRANCH  86  89
ENDBRANCH  59  82
ENDBRANCH  33  34
ENDBRANCH  25  28
ENDBRANCH  23  24
ENDBRANCH  22  23
ENDBRANCH   1  22
TORSDOF 17
