REMARK SMILES CC1=C(C)C[C@@H](C(=O)NCCCCNC(=O)c2ccc(-c3c4nc(c(-c5cccc(S(=O)(=O)[O-])c5F)c5ccc([nH]5)c(-c5cccc(S(=O)(=O)[O-])c5F)c5nc(c(-c6cccc(S(=O)(=O)[O-])c6F)c6ccc3[nH]6)C=C5)C=C4)cc2)[C@@H](C(=O)NCC[NH+]2CCOCC2)C1
REMARK SMILES IDX 11 1 10 2 9 3 7 4 8 5 6 7 1 8 2 9 3 10 92 11 4 12 5 13 80 14
REMARK SMILES IDX 81 15 82 16 83 17 84 19 85 20 86 21 87 22 91 23 88 25 90 26
REMARK SMILES IDX 89 27 12 28 13 29 14 30 15 31 16 33 17 34 18 35 79 36 19 37
REMARK SMILES IDX 78 38 20 39 21 40 22 41 72 42 23 43 77 44 71 45 73 46 24 47
REMARK SMILES IDX 76 48 70 49 69 50 25 52 57 53 37 54 56 55 38 56 41 57 55 58
REMARK SMILES IDX 74 59 39 60 40 61 54 63 75 64 42 65 26 66 27 67 35 68 28 69
REMARK SMILES IDX 30 70 36 71 29 72 31 73 32 74 33 75 34 76 58 77 59 78 67 79
REMARK SMILES IDX 60 80 62 81 68 82 61 83 63 84 64 85 65 86 66 87 43 88 44 89
REMARK SMILES IDX 52 90 45 91 47 92 53 93 46 94 48 95 49 96 50 97 51 98
REMARK H PARENT 9 6 83 18 86 24 14 32 73 51 41 62
REMARK Flexibility Score: inf
ROOT
ATOM      1  C   UNL     1       3.593   1.746   2.052  1.00  0.00     0.023 C 
ENDROOT
BRANCH   1   2
ATOM      2  C   UNL     1       2.416   1.529   2.995  1.00  0.00     0.116 C 
BRANCH   2   3
ATOM      3  N   UNL     1       1.974   2.759   3.609  1.00  0.00    -0.356 N 
ATOM      4  C   UNL     1       0.879   3.522   3.394  1.00  0.00     0.224 C 
ATOM      5  O   UNL     1       0.775   4.544   4.084  1.00  0.00    -0.275 OA
ATOM      6  H   UNL     1       2.577   3.103   4.307  1.00  0.00     0.163 HD
BRANCH   4   7
ATOM      7  C   UNL     1      -0.198   3.208   2.350  1.00  0.00     0.095 C 
ATOM      8  C   UNL     1       0.350  -0.310  -0.318  1.00  0.00     0.039 C 
ATOM      9  C   UNL     1      -0.048   0.840   0.577  1.00  0.00    -0.074 C 
ATOM     10  C   UNL     1      -0.738   0.735   1.732  1.00  0.00    -0.074 C 
ATOM     11  C   UNL     1       0.519   2.154   0.090  1.00  0.00     0.045 C 
ATOM     12  C   UNL     1      -1.266  -0.553   2.313  1.00  0.00     0.039 C 
ATOM     13  C   UNL     1      -0.992   1.927   2.631  1.00  0.00     0.045 C 
ATOM     14  C   UNL     1       0.173   3.423   0.879  1.00  0.00     0.095 C 
BRANCH  14  15
ATOM     15  C   UNL     1       1.250   4.483   0.650  1.00  0.00     0.224 C 
ATOM     16  O   UNL     1       2.180   4.357  -0.140  1.00  0.00    -0.275 OA
ATOM     17  N   UNL     1       1.006   5.680   1.274  1.00  0.00    -0.350 N 
ATOM     18  H   UNL     1       1.004   5.743   2.257  1.00  0.00     0.163 HD
BRANCH  17  19
ATOM     19  C   UNL     1       0.753   6.845   0.462  1.00  0.00     0.177 C 
BRANCH  19  20
ATOM     20  C   UNL     1       0.877   8.176   1.218  1.00  0.00     0.283 C 
BRANCH  20  21
ATOM     21  N   UNL     1       2.190   8.626   1.664  1.00  0.00    -0.330 N 
ATOM     22  C   UNL     1       3.366   8.353   0.838  1.00  0.00     0.291 C 
ATOM     23  C   UNL     1       2.481   8.583   3.099  1.00  0.00     0.291 C 
ATOM     24  H   UNL     1       1.998   9.607   1.462  1.00  0.00     0.348 HD
ATOM     25  C   UNL     1       4.243   7.196   1.346  1.00  0.00     0.221 C 
ATOM     26  C   UNL     1       3.399   7.433   3.538  1.00  0.00     0.221 C 
ATOM     27  O   UNL     1       4.575   7.357   2.729  1.00  0.00    -0.370 OA
ENDBRANCH  20  21
ENDBRANCH  19  20
ENDBRANCH  17  19
ENDBRANCH  14  15
ENDBRANCH   4   7
ENDBRANCH   2   3
ENDBRANCH   1   2
BRANCH   1  28
ATOM     28  C   UNL     1       4.930   1.973   2.754  1.00  0.00     0.023 C 
BRANCH  28  29
ATOM     29  C   UNL     1       5.353   0.858   3.701  1.00  0.00     0.116 C 
BRANCH  29  30
ATOM     30  N   UNL     1       5.390  -0.454   3.068  1.00  0.00    -0.352 N 
ATOM     31  C   UNL     1       6.287  -1.476   3.282  1.00  0.00     0.251 C 
ATOM     32  H   UNL     1       4.685  -0.632   2.404  1.00  0.00     0.163 HD
ATOM     33  O   UNL     1       6.261  -2.484   2.593  1.00  0.00    -0.269 OA
BRANCH  31  34
ATOM     34  C   UNL     1       7.301  -1.313   4.344  1.00  0.00     0.039 A 
ATOM     35  C   UNL     1       8.646  -1.524   4.036  1.00  0.00     0.014 A 
ATOM     36  C   UNL     1       6.917  -0.896   5.621  1.00  0.00     0.014 A 
ATOM     37  C   UNL     1       9.619  -1.260   5.002  1.00  0.00     0.010 A 
ATOM     38  C   UNL     1       7.889  -0.559   6.552  1.00  0.00     0.010 A 
ATOM     39  C   UNL     1       9.248  -0.750   6.257  1.00  0.00    -0.014 A 
BRANCH  39  40
ATOM     40  C   UNL     1      10.260  -0.415   7.287  1.00  0.00     0.031 A 
ATOM     41  C   UNL     1      10.266  -1.153   8.597  1.00  0.00     0.074 A 
ATOM     42  C   UNL     1      11.089   0.628   7.091  1.00  0.00     0.049 A 
ATOM     43  N   UNL     1      11.019  -0.961   9.647  1.00  0.00    -0.248 NA
ATOM     44  C   UNL     1       9.262  -2.217   8.765  1.00  0.00     0.031 C 
ATOM     45  C   UNL     1      11.094   1.495   5.911  1.00  0.00     0.029 A 
ATOM     46  N   UNL     1      12.062   1.160   7.899  1.00  0.00    -0.354 N 
ATOM     47  C   UNL     1      10.547  -1.839  10.615  1.00  0.00     0.074 A 
ATOM     48  C   UNL     1       9.420  -2.538  10.040  1.00  0.00     0.031 C 
ATOM     49  C   UNL     1      12.017   2.456   6.076  1.00  0.00     0.029 A 
ATOM     50  C   UNL     1      12.661   2.280   7.375  1.00  0.00     0.049 A 
ATOM     51  H   UNL     1      12.307   0.775   8.771  1.00  0.00     0.167 HD
ATOM     52  C   UNL     1      11.031  -2.070  11.858  1.00  0.00     0.034 A 
ATOM     53  C   UNL     1      13.622   3.076   7.883  1.00  0.00     0.034 A 
ATOM     54  C   UNL     1      12.199  -1.426  12.391  1.00  0.00     0.049 A 
ATOM     55  C   UNL     1      14.227   2.724   9.215  1.00  0.00     0.074 A 
ATOM     56  C   UNL     1      12.861  -1.686  13.577  1.00  0.00     0.029 A 
ATOM     57  N   UNL     1      12.880  -0.391  11.769  1.00  0.00    -0.354 N 
ATOM     58  N   UNL     1      13.903   1.753  10.034  1.00  0.00    -0.248 NA
ATOM     59  C   UNL     1      15.357   3.544   9.672  1.00  0.00     0.031 C 
ATOM     60  C   UNL     1      13.940  -0.799  13.676  1.00  0.00     0.029 A 
ATOM     61  C   UNL     1      13.954   0.005  12.547  1.00  0.00     0.049 A 
ATOM     62  H   UNL     1      12.636   0.004  10.901  1.00  0.00     0.167 HD
ATOM     63  C   UNL     1      14.803   1.827  11.091  1.00  0.00     0.074 A 
ATOM     64  C   UNL     1      15.702   2.925  10.794  1.00  0.00     0.031 C 
ATOM     65  C   UNL     1      14.868   1.068  12.213  1.00  0.00     0.034 A 
BRANCH  52  66
ATOM     66  C   UNL     1      10.333  -3.114  12.690  1.00  0.00     0.023 A 
ATOM     67  C   UNL     1      10.451  -4.475  12.338  1.00  0.00     0.012 A 
ATOM     68  C   UNL     1       9.578  -2.758  13.823  1.00  0.00     0.148 A 
ATOM     69  C   UNL     1       9.792  -5.460  13.071  1.00  0.00     0.002 A 
ATOM     70  C   UNL     1       8.959  -3.751  14.576  1.00  0.00     0.091 A 
ATOM     71  F   UNL     1       9.450  -1.459  14.130  1.00  0.00    -0.205 F 
ATOM     72  C   UNL     1       9.053  -5.099  14.194  1.00  0.00     0.022 A 
BRANCH  70  73
ATOM     73  S   UNL     1       8.050  -3.382  16.082  1.00  0.00     0.127 S 
ATOM     74  O   UNL     1       6.668  -3.401  15.607  1.00  0.00    -0.237 OA
ATOM     75  O   UNL     1       8.411  -4.504  16.950  1.00  0.00    -0.237 OA
ATOM     76  O   UNL     1       8.549  -2.090  16.533  1.00  0.00    -0.744 OA
ENDBRANCH  70  73
ENDBRANCH  52  66
BRANCH  53  77
ATOM     77  C   UNL     1      14.126   4.221   7.075  1.00  0.00     0.023 A 
ATOM     78  C   UNL     1      15.386   4.124   6.453  1.00  0.00     0.012 A 
ATOM     79  C   UNL     1      13.335   5.365   6.854  1.00  0.00     0.148 A 
ATOM     80  C   UNL     1      15.858   5.154   5.639  1.00  0.00     0.002 A 
ATOM     81  C   UNL     1      13.790   6.365   6.001  1.00  0.00     0.091 A 
ATOM     82  F   UNL     1      12.143   5.439   7.461  1.00  0.00    -0.205 F 
ATOM     83  C   UNL     1      15.056   6.267   5.403  1.00  0.00     0.022 A 
BRANCH  81  84
ATOM     84  S   UNL     1      12.775   7.772   5.533  1.00  0.00     0.127 S 
ATOM     85  O   UNL     1      13.462   8.872   6.205  1.00  0.00    -0.237 OA
ATOM     86  O   UNL     1      12.904   7.763   4.075  1.00  0.00    -0.237 OA
ATOM     87  O   UNL     1      11.437   7.470   6.021  1.00  0.00    -0.744 OA
ENDBRANCH  81  84
ENDBRANCH  53  77
BRANCH  65  88
ATOM     88  C   UNL     1      15.954   1.384  13.206  1.00  0.00     0.023 A 
ATOM     89  C   UNL     1      15.833   2.523  14.025  1.00  0.00     0.012 A 
ATOM     90  C   UNL     1      17.042   0.509  13.391  1.00  0.00     0.148 A 
ATOM     91  C   UNL     1      16.792   2.801  14.998  1.00  0.00     0.002 A 
ATOM     92  C   UNL     1      17.971   0.769  14.392  1.00  0.00     0.091 A 
ATOM     93  F   UNL     1      17.151  -0.558  12.586  1.00  0.00    -0.205 F 
ATOM     94  C   UNL     1      17.853   1.919  15.190  1.00  0.00     0.022 A 
BRANCH  92  95
ATOM     95  S   UNL     1      19.313  -0.366  14.766  1.00  0.00     0.127 S 
ATOM     96  O   UNL     1      20.451   0.296  14.131  1.00  0.00    -0.237 OA
ATOM     97  O   UNL     1      19.338  -0.352  16.229  1.00  0.00    -0.237 OA
ATOM     98  O   UNL     1      18.922  -1.644  14.186  1.00  0.00    -0.744 OA
ENDBRANCH  92  95
ENDBRANCH  65  88
ENDBRANCH  39  40
ENDBRANCH  31  34
ENDBRANCH  29  30
ENDBRANCH  28  29
ENDBRANCH   1  28
TORSDOF 18
