REMARK SMILES C[C@@H](C(=O)NCCCCNC(=O)c1ccc(-c2c3nc(c(-c4cccc(S(=O)(=O)[O-])c4F)c4ccc([nH]4)c(-c4cccc(S(=O)(=O)[O-])c4F)c4nc(c(-c5cccc(S(=O)(=O)[O-])c5F)c5ccc2[nH]5)C=C4)C=C3)cc1)c1ccc(-c2cccc(OC(=O)NCCCc3ccccc3)c2)c(F)c1
REMARK SMILES IDX 3 1 4 2 5 3 2 5 1 6 76 7 77 8 101 9 78 10 99 11 79 12 100 13
REMARK SMILES IDX 80 14 81 15 98 16 82 17 84 18 83 19 85 20 86 21 87 22 88 23
REMARK SMILES IDX 89 25 90 26 91 27 92 28 93 29 97 30 94 31 96 32 95 33 6 34
REMARK SMILES IDX 7 35 8 36 9 37 10 38 11 39 12 41 13 42 14 43 75 44 15 45
REMARK SMILES IDX 74 46 16 47 17 48 18 49 68 50 19 51 73 52 67 53 69 54 20 55
REMARK SMILES IDX 72 56 66 57 65 58 21 60 53 61 33 62 52 63 34 64 37 65 51 66
REMARK SMILES IDX 70 67 35 68 36 69 50 71 71 72 38 73 22 74 23 75 31 76 24 77
REMARK SMILES IDX 26 78 32 79 25 80 27 81 28 82 29 83 30 84 54 85 55 86 63 87
REMARK SMILES IDX 56 88 58 89 64 90 57 91 59 92 60 93 61 94 62 95 39 96 40 97
REMARK SMILES IDX 48 98 41 99 43 100 49 101 42 102 44 103 45 104 46 105 47 106
REMARK H PARENT 5 4 88 24 10 40 69 59 37 70
REMARK Flexibility Score: inf
ROOT
ATOM      1  C   UNL     1       1.053  -1.313   1.989  1.00  0.00     0.227 C 
ATOM      2  O   UNL     1       0.341  -1.255   2.992  1.00  0.00    -0.274 OA
ATOM      3  N   UNL     1       2.372  -1.606   2.179  1.00  0.00    -0.356 N 
ATOM      4  H   UNL     1       2.618  -1.864   3.096  1.00  0.00     0.163 HD
ENDROOT
BRANCH   1   5
ATOM      5  C   UNL     1       0.510  -1.125   0.561  1.00  0.00     0.105 C 
ATOM      6  C   UNL     1       1.028   0.156  -0.103  1.00  0.00     0.023 C 
BRANCH   5   7
ATOM      7  C   UNL     1      -1.013  -1.179   0.540  1.00  0.00    -0.033 A 
ATOM      8  C   UNL     1      -1.794  -0.018   0.650  1.00  0.00     0.005 A 
ATOM      9  C   UNL     1      -1.663  -2.418   0.471  1.00  0.00     0.044 A 
ATOM     10  C   UNL     1      -3.185  -0.088   0.655  1.00  0.00     0.012 A 
ATOM     11  C   UNL     1      -3.054  -2.481   0.491  1.00  0.00     0.131 A 
ATOM     12  C   UNL     1      -3.840  -1.324   0.580  1.00  0.00     0.018 A 
ATOM     13  F   UNL     1      -3.635  -3.691   0.436  1.00  0.00    -0.206 F 
BRANCH  12  14
ATOM     14  C   UNL     1      -5.298  -1.379   0.711  1.00  0.00    -0.012 A 
ATOM     15  C   UNL     1      -6.146  -0.671  -0.155  1.00  0.00     0.009 A 
ATOM     16  C   UNL     1      -5.863  -2.089   1.778  1.00  0.00     0.056 A 
ATOM     17  C   UNL     1      -7.527  -0.661   0.051  1.00  0.00     0.004 A 
ATOM     18  C   UNL     1      -7.234  -2.060   1.993  1.00  0.00     0.133 A 
ATOM     19  C   UNL     1      -8.072  -1.352   1.131  1.00  0.00     0.047 A 
BRANCH  18  20
ATOM     20  O   UNL     1      -7.876  -2.734   3.054  1.00  0.00    -0.410 OA
BRANCH  20  21
ATOM     21  C   UNL     1      -7.238  -3.312   4.149  1.00  0.00     0.412 C 
ATOM     22  O   UNL     1      -6.041  -3.304   4.394  1.00  0.00    -0.224 OA
ATOM     23  N   UNL     1      -8.111  -3.921   5.005  1.00  0.00    -0.321 N 
ATOM     24  H   UNL     1      -7.727  -4.448   5.743  1.00  0.00     0.167 HD
BRANCH  23  25
ATOM     25  C   UNL     1      -9.548  -3.857   4.918  1.00  0.00     0.120 C 
BRANCH  25  26
ATOM     26  C   UNL     1     -10.262  -5.104   5.432  1.00  0.00     0.026 C 
BRANCH  26  27
ATOM     27  C   UNL     1      -9.722  -5.779   6.698  1.00  0.00     0.037 C 
BRANCH  27  28
ATOM     28  C   UNL     1      -9.869  -5.116   8.048  1.00  0.00    -0.048 A 
ATOM     29  C   UNL     1     -10.073  -3.747   8.248  1.00  0.00     0.004 A 
ATOM     30  C   UNL     1      -9.717  -5.928   9.187  1.00  0.00     0.004 A 
ATOM     31  C   UNL     1     -10.111  -3.204   9.536  1.00  0.00     0.000 A 
ATOM     32  C   UNL     1      -9.768  -5.390  10.475  1.00  0.00     0.000 A 
ATOM     33  C   UNL     1      -9.958  -4.024  10.649  1.00  0.00     0.000 A 
ENDBRANCH  27  28
ENDBRANCH  26  27
ENDBRANCH  25  26
ENDBRANCH  23  25
ENDBRANCH  20  21
ENDBRANCH  18  20
ENDBRANCH  12  14
ENDBRANCH   5   7
ENDBRANCH   1   5
BRANCH   3  34
ATOM     34  C   UNL     1       3.461  -1.593   1.227  1.00  0.00     0.116 C 
BRANCH  34  35
ATOM     35  C   UNL     1       4.233  -0.275   1.310  1.00  0.00     0.023 C 
BRANCH  35  36
ATOM     36  C   UNL     1       5.022  -0.091   2.607  1.00  0.00     0.023 C 
BRANCH  36  37
ATOM     37  C   UNL     1       6.023  -1.199   2.907  1.00  0.00     0.116 C 
BRANCH  37  38
ATOM     38  N   UNL     1       6.992  -1.382   1.836  1.00  0.00    -0.352 N 
ATOM     39  C   UNL     1       8.349  -1.572   1.932  1.00  0.00     0.251 C 
ATOM     40  H   UNL     1       6.627  -1.369   0.922  1.00  0.00     0.163 HD
ATOM     41  O   UNL     1       9.046  -1.559   0.922  1.00  0.00    -0.269 OA
BRANCH  39  42
ATOM     42  C   UNL     1       8.959  -1.760   3.264  1.00  0.00     0.039 A 
ATOM     43  C   UNL     1      10.097  -1.022   3.596  1.00  0.00     0.014 A 
ATOM     44  C   UNL     1       8.386  -2.634   4.192  1.00  0.00     0.014 A 
ATOM     45  C   UNL     1      10.625  -1.117   4.885  1.00  0.00     0.010 A 
ATOM     46  C   UNL     1       8.864  -2.663   5.498  1.00  0.00     0.010 A 
ATOM     47  C   UNL     1       9.992  -1.911   5.856  1.00  0.00    -0.014 A 
BRANCH  47  48
ATOM     48  C   UNL     1      10.490  -1.957   7.255  1.00  0.00     0.031 A 
ATOM     49  C   UNL     1      10.972  -3.254   7.846  1.00  0.00     0.074 A 
ATOM     50  C   UNL     1      10.435  -0.847   8.018  1.00  0.00     0.049 A 
ATOM     51  N   UNL     1      11.400  -3.498   9.057  1.00  0.00    -0.248 NA
ATOM     52  C   UNL     1      10.944  -4.439   6.972  1.00  0.00     0.031 C 
ATOM     53  C   UNL     1       9.914   0.453   7.585  1.00  0.00     0.029 A 
ATOM     54  N   UNL     1      10.796  -0.639   9.325  1.00  0.00    -0.354 N 
ATOM     55  C   UNL     1      11.660  -4.862   9.101  1.00  0.00     0.074 A 
ATOM     56  C   UNL     1      11.305  -5.401   7.807  1.00  0.00     0.031 C 
ATOM     57  C   UNL     1       9.999   1.323   8.604  1.00  0.00     0.029 A 
ATOM     58  C   UNL     1      10.544   0.638   9.771  1.00  0.00     0.049 A 
ATOM     59  H   UNL     1      11.199  -1.337   9.890  1.00  0.00     0.167 HD
ATOM     60  C   UNL     1      12.175  -5.597  10.116  1.00  0.00     0.034 A 
ATOM     61  C   UNL     1      10.721   1.192  10.987  1.00  0.00     0.034 A 
ATOM     62  C   UNL     1      12.556  -5.051  11.390  1.00  0.00     0.049 A 
ATOM     63  C   UNL     1      11.317   0.359  12.090  1.00  0.00     0.074 A 
ATOM     64  C   UNL     1      13.165  -5.695  12.453  1.00  0.00     0.029 A 
ATOM     65  N   UNL     1      12.354  -3.737  11.782  1.00  0.00    -0.354 N 
ATOM     66  N   UNL     1      11.704  -0.893  12.062  1.00  0.00    -0.248 NA
ATOM     67  C   UNL     1      11.535   1.026  13.381  1.00  0.00     0.031 C 
ATOM     68  C   UNL     1      13.297  -4.778  13.501  1.00  0.00     0.029 A 
ATOM     69  C   UNL     1      12.812  -3.552  13.075  1.00  0.00     0.049 A 
ATOM     70  H   UNL     1      11.945  -3.037  11.223  1.00  0.00     0.167 HD
ATOM     71  C   UNL     1      12.246  -1.152  13.316  1.00  0.00     0.074 A 
ATOM     72  C   UNL     1      12.156   0.080  14.072  1.00  0.00     0.031 C 
ATOM     73  C   UNL     1      12.761  -2.309  13.801  1.00  0.00     0.034 A 
BRANCH  60  74
ATOM     74  C   UNL     1      12.395  -7.068   9.874  1.00  0.00     0.023 A 
ATOM     75  C   UNL     1      13.407  -7.487   8.985  1.00  0.00     0.012 A 
ATOM     76  C   UNL     1      11.643  -8.036  10.569  1.00  0.00     0.148 A 
ATOM     77  C   UNL     1      13.641  -8.843   8.761  1.00  0.00     0.002 A 
ATOM     78  C   UNL     1      11.916  -9.386  10.377  1.00  0.00     0.091 A 
ATOM     79  F   UNL     1      10.674  -7.621  11.395  1.00  0.00    -0.205 F 
ATOM     80  C   UNL     1      12.904  -9.791   9.464  1.00  0.00     0.022 A 
BRANCH  78  81
ATOM     81  S   UNL     1      11.082 -10.684  11.297  1.00  0.00     0.127 S 
ATOM     82  O   UNL     1      10.283 -11.319  10.250  1.00  0.00    -0.237 OA
ATOM     83  O   UNL     1      12.205 -11.488  11.778  1.00  0.00    -0.237 OA
ATOM     84  O   UNL     1      10.321 -10.013  12.341  1.00  0.00    -0.744 OA
ENDBRANCH  78  81
ENDBRANCH  60  74
BRANCH  61  85
ATOM     85  C   UNL     1      10.378   2.625  11.212  1.00  0.00     0.023 A 
ATOM     86  C   UNL     1      11.409   3.559  11.435  1.00  0.00     0.012 A 
ATOM     87  C   UNL     1       9.043   3.070  11.189  1.00  0.00     0.148 A 
ATOM     88  C   UNL     1      11.114   4.902  11.671  1.00  0.00     0.002 A 
ATOM     89  C   UNL     1       8.760   4.419  11.367  1.00  0.00     0.091 A 
ATOM     90  F   UNL     1       8.076   2.165  10.983  1.00  0.00    -0.205 F 
ATOM     91  C   UNL     1       9.792   5.334  11.627  1.00  0.00     0.022 A 
BRANCH  89  92
ATOM     92  S   UNL     1       7.101   5.087  11.198  1.00  0.00     0.127 S 
ATOM     93  O   UNL     1       6.796   5.480  12.571  1.00  0.00    -0.237 OA
ATOM     94  O   UNL     1       7.318   6.199  10.271  1.00  0.00    -0.237 OA
ATOM     95  O   UNL     1       6.293   4.003  10.656  1.00  0.00    -0.744 OA
ENDBRANCH  89  92
ENDBRANCH  61  85
BRANCH  73  96
ATOM     96  C   UNL     1      13.316  -2.295  15.202  1.00  0.00     0.023 A 
ATOM     97  C   UNL     1      12.446  -2.200  16.306  1.00  0.00     0.012 A 
ATOM     98  C   UNL     1      14.700  -2.447  15.423  1.00  0.00     0.148 A 
ATOM     99  C   UNL     1      12.948  -2.219  17.607  1.00  0.00     0.002 A 
ATOM    100  C   UNL     1      15.187  -2.520  16.722  1.00  0.00     0.091 A 
ATOM    101  F   UNL     1      15.513  -2.519  14.359  1.00  0.00    -0.205 F 
ATOM    102  C   UNL     1      14.315  -2.391  17.815  1.00  0.00     0.022 A 
BRANCH 100 103
ATOM    103  S   UNL     1      16.916  -2.841  17.086  1.00  0.00     0.127 S 
ATOM    104  O   UNL     1      17.353  -1.550  17.616  1.00  0.00    -0.237 OA
ATOM    105  O   UNL     1      16.829  -3.910  18.081  1.00  0.00    -0.237 OA
ATOM    106  O   UNL     1      17.528  -3.236  15.825  1.00  0.00    -0.744 OA
ENDBRANCH 100 103
ENDBRANCH  73  96
ENDBRANCH  47  48
ENDBRANCH  39  42
ENDBRANCH  37  38
ENDBRANCH  36  37
ENDBRANCH  35  36
ENDBRANCH  34  35
ENDBRANCH   3  34
TORSDOF 22
