REMARK SMILES O=C(CCC(=O)Nc1ccc2nc(-c3ccccc3)oc2c1)NCCCCNC(=O)c1ccc(-c2c3nc(c(-c4cccc(S(=O)(=O)[O-])c4F)c4ccc([nH]4)c(-c4cccc(S(=O)(=O)[O-])c4F)c4nc(c(-c5cccc(S(=O)(=O)[O-])c5F)c5ccc2[nH]5)C=C4)C=C3)cc1
REMARK SMILES IDX 25 1 24 2 23 3 1 4 2 5 3 7 4 8 5 9 6 10 7 11 8 13 9 14 22 15
REMARK SMILES IDX 10 16 21 17 11 18 20 19 12 20 13 21 14 22 15 23 19 24 16 25
REMARK SMILES IDX 18 26 17 27 26 28 27 29 28 30 29 31 30 33 31 34 32 35 93 36
REMARK SMILES IDX 33 37 92 38 34 39 35 40 36 41 86 42 37 43 91 44 85 45 87 46
REMARK SMILES IDX 38 47 90 48 84 49 83 50 39 52 71 53 51 54 70 55 52 56 55 57
REMARK SMILES IDX 69 58 88 59 53 60 54 61 68 63 89 64 56 65 40 66 41 67 49 68
REMARK SMILES IDX 42 69 44 70 50 71 43 72 45 73 46 74 47 75 48 76 72 77 73 78
REMARK SMILES IDX 81 79 74 80 76 81 82 82 75 83 77 84 78 85 79 86 80 87 57 88
REMARK SMILES IDX 58 89 66 90 59 91 61 92 67 93 60 94 62 95 63 96 64 97 65 98
REMARK H PARENT 23 6 7 12 28 32 87 51 55 62
REMARK Flexibility Score: inf
ROOT
ATOM      1  C   UNL     1       2.909  -3.516   1.553  1.00  0.00     0.023 C 
ENDROOT
BRANCH   1   2
ATOM      2  C   UNL     1       2.413  -2.139   1.127  1.00  0.00     0.116 C 
BRANCH   2   3
ATOM      3  N   UNL     1       3.304  -1.430   0.225  1.00  0.00    -0.356 N 
ATOM      4  O   UNL     1       1.679  -0.755  -1.258  1.00  0.00    -0.275 OA
ATOM      5  C   UNL     1       2.833  -0.697  -0.842  1.00  0.00     0.220 C 
ATOM      6  H   UNL     1       4.275  -1.474   0.382  1.00  0.00     0.163 HD
BRANCH   5   7
ATOM      7  C   UNL     1       3.834   0.278  -1.429  1.00  0.00     0.110 C 
BRANCH   7   8
ATOM      8  C   UNL     1       4.013   1.567  -0.625  1.00  0.00     0.110 C 
BRANCH   8   9
ATOM      9  C   UNL     1       4.503   1.354   0.788  1.00  0.00     0.224 C 
ATOM     10  O   UNL     1       5.700   1.106   0.972  1.00  0.00    -0.275 OA
ATOM     11  N   UNL     1       3.712   1.387   1.897  1.00  0.00    -0.326 N 
ATOM     12  H   UNL     1       4.227   1.497   2.729  1.00  0.00     0.169 HD
BRANCH  11  13
ATOM     13  C   UNL     1       2.323   1.299   2.125  1.00  0.00     0.045 A 
ATOM     14  C   UNL     1       1.364   1.249   1.108  1.00  0.00     0.028 A 
ATOM     15  C   UNL     1       1.921   1.112   3.466  1.00  0.00     0.075 A 
ATOM     16  C   UNL     1       0.046   0.839   1.340  1.00  0.00     0.034 A 
ATOM     17  C   UNL     1       0.587   0.759   3.669  1.00  0.00     0.157 A 
ATOM     18  C   UNL     1      -0.328   0.567   2.647  1.00  0.00     0.110 A 
ATOM     19  O   UNL     1      -0.074   0.543   4.851  1.00  0.00    -0.436 OA
ATOM     20  N   UNL     1      -1.519   0.143   3.142  1.00  0.00    -0.209 NA
ATOM     21  C   UNL     1      -1.342   0.205   4.445  1.00  0.00     0.227 A 
BRANCH  21  22
ATOM     22  C   UNL     1      -2.397   0.157   5.437  1.00  0.00     0.037 A 
ATOM     23  C   UNL     1      -3.271  -0.937   5.474  1.00  0.00     0.014 A 
ATOM     24  C   UNL     1      -2.700   1.308   6.176  1.00  0.00     0.014 A 
ATOM     25  C   UNL     1      -4.452  -0.868   6.213  1.00  0.00     0.001 A 
ATOM     26  C   UNL     1      -3.890   1.381   6.900  1.00  0.00     0.001 A 
ATOM     27  C   UNL     1      -4.769   0.298   6.909  1.00  0.00     0.000 A 
ENDBRANCH  21  22
ENDBRANCH  11  13
ENDBRANCH   8   9
ENDBRANCH   7   8
ENDBRANCH   5   7
ENDBRANCH   2   3
ENDBRANCH   1   2
BRANCH   1  28
ATOM     28  C   UNL     1       4.308  -3.549   2.171  1.00  0.00     0.023 C 
BRANCH  28  29
ATOM     29  C   UNL     1       4.508  -2.668   3.402  1.00  0.00     0.116 C 
BRANCH  29  30
ATOM     30  N   UNL     1       3.860  -3.198   4.595  1.00  0.00    -0.352 N 
ATOM     31  C   UNL     1       4.415  -3.756   5.724  1.00  0.00     0.251 C 
ATOM     32  H   UNL     1       2.877  -3.150   4.592  1.00  0.00     0.163 HD
ATOM     33  O   UNL     1       3.686  -4.294   6.559  1.00  0.00    -0.269 OA
BRANCH  31  34
ATOM     34  C   UNL     1       5.881  -3.741   5.932  1.00  0.00     0.039 A 
ATOM     35  C   UNL     1       6.521  -4.913   6.347  1.00  0.00     0.014 A 
ATOM     36  C   UNL     1       6.630  -2.581   5.723  1.00  0.00     0.014 A 
ATOM     37  C   UNL     1       7.915  -4.943   6.463  1.00  0.00     0.010 A 
ATOM     38  C   UNL     1       8.023  -2.636   5.755  1.00  0.00     0.010 A 
ATOM     39  C   UNL     1       8.684  -3.818   6.122  1.00  0.00    -0.014 A 
BRANCH  39  40
ATOM     40  C   UNL     1      10.172  -3.869   6.112  1.00  0.00     0.031 A 
ATOM     41  C   UNL     1      10.979  -2.957   6.999  1.00  0.00     0.074 A 
ATOM     42  C   UNL     1      10.806  -4.674   5.234  1.00  0.00     0.049 A 
ATOM     43  N   UNL     1      12.278  -2.817   7.077  1.00  0.00    -0.248 NA
ATOM     44  C   UNL     1      10.228  -2.066   7.899  1.00  0.00     0.031 C 
ATOM     45  C   UNL     1      10.148  -5.549   4.261  1.00  0.00     0.029 A 
ATOM     46  N   UNL     1      12.146  -4.867   4.997  1.00  0.00    -0.354 N 
ATOM     47  C   UNL     1      12.499  -1.806   8.004  1.00  0.00     0.074 A 
ATOM     48  C   UNL     1      11.199  -1.341   8.435  1.00  0.00     0.031 C 
ATOM     49  C   UNL     1      11.082  -6.184   3.536  1.00  0.00     0.029 A 
ATOM     50  C   UNL     1      12.404  -5.738   3.963  1.00  0.00     0.049 A 
ATOM     51  H   UNL     1      12.854  -4.423   5.517  1.00  0.00     0.167 HD
ATOM     52  C   UNL     1      13.674  -1.325   8.478  1.00  0.00     0.034 A 
ATOM     53  C   UNL     1      13.570  -6.124   3.408  1.00  0.00     0.034 A 
ATOM     54  C   UNL     1      14.968  -1.808   8.072  1.00  0.00     0.049 A 
ATOM     55  C   UNL     1      14.863  -5.595   3.969  1.00  0.00     0.074 A 
ATOM     56  C   UNL     1      16.212  -1.441   8.554  1.00  0.00     0.029 A 
ATOM     57  N   UNL     1      15.187  -2.750   7.080  1.00  0.00    -0.354 N 
ATOM     58  N   UNL     1      15.051  -4.753   4.954  1.00  0.00    -0.248 NA
ATOM     59  C   UNL     1      16.106  -6.098   3.365  1.00  0.00     0.031 C 
ATOM     60  C   UNL     1      17.185  -2.137   7.830  1.00  0.00     0.029 A 
ATOM     61  C   UNL     1      16.546  -2.969   6.925  1.00  0.00     0.049 A 
ATOM     62  H   UNL     1      14.481  -3.199   6.561  1.00  0.00     0.167 HD
ATOM     63  C   UNL     1      16.429  -4.652   5.113  1.00  0.00     0.074 A 
ATOM     64  C   UNL     1      17.027  -5.537   4.136  1.00  0.00     0.031 C 
ATOM     65  C   UNL     1      17.133  -3.887   5.983  1.00  0.00     0.034 A 
BRANCH  52  66
ATOM     66  C   UNL     1      13.616  -0.246   9.530  1.00  0.00     0.023 A 
ATOM     67  C   UNL     1      13.156  -0.561  10.826  1.00  0.00     0.012 A 
ATOM     68  C   UNL     1      14.067   1.060   9.258  1.00  0.00     0.148 A 
ATOM     69  C   UNL     1      13.107   0.414  11.821  1.00  0.00     0.002 A 
ATOM     70  C   UNL     1      14.061   2.015  10.269  1.00  0.00     0.091 A 
ATOM     71  F   UNL     1      14.486   1.347   8.018  1.00  0.00    -0.205 F 
ATOM     72  C   UNL     1      13.568   1.698  11.546  1.00  0.00     0.022 A 
BRANCH  70  73
ATOM     73  S   UNL     1      14.710   3.675  10.041  1.00  0.00     0.127 S 
ATOM     74  O   UNL     1      13.488   4.477  10.086  1.00  0.00    -0.237 OA
ATOM     75  O   UNL     1      15.581   3.826  11.207  1.00  0.00    -0.237 OA
ATOM     76  O   UNL     1      15.403   3.664   8.761  1.00  0.00    -0.744 OA
ENDBRANCH  70  73
ENDBRANCH  52  66
BRANCH  53  77
ATOM     77  C   UNL     1      13.571  -7.104   2.283  1.00  0.00     0.023 A 
ATOM     78  C   UNL     1      14.064  -8.406   2.495  1.00  0.00     0.012 A 
ATOM     79  C   UNL     1      13.067  -6.758   1.014  1.00  0.00     0.148 A 
ATOM     80  C   UNL     1      14.087  -9.336   1.454  1.00  0.00     0.002 A 
ATOM     81  C   UNL     1      13.039  -7.706  -0.001  1.00  0.00     0.091 A 
ATOM     82  F   UNL     1      12.612  -5.511   0.831  1.00  0.00    -0.205 F 
ATOM     83  C   UNL     1      13.566  -8.990   0.211  1.00  0.00     0.022 A 
BRANCH  81  84
ATOM     84  S   UNL     1      12.268  -7.393  -1.593  1.00  0.00     0.127 S 
ATOM     85  O   UNL     1      13.423  -7.379  -2.487  1.00  0.00    -0.237 OA
ATOM     86  O   UNL     1      11.391  -8.555  -1.735  1.00  0.00    -0.237 OA
ATOM     87  O   UNL     1      11.566  -6.125  -1.448  1.00  0.00    -0.744 OA
ENDBRANCH  81  84
ENDBRANCH  53  77
BRANCH  65  88
ATOM     88  C   UNL     1      18.637  -3.998   5.957  1.00  0.00     0.023 A 
ATOM     89  C   UNL     1      19.366  -3.465   4.876  1.00  0.00     0.012 A 
ATOM     90  C   UNL     1      19.330  -4.571   7.042  1.00  0.00     0.148 A 
ATOM     91  C   UNL     1      20.760  -3.531   4.860  1.00  0.00     0.002 A 
ATOM     92  C   UNL     1      20.719  -4.586   7.044  1.00  0.00     0.091 A 
ATOM     93  F   UNL     1      18.618  -5.089   8.054  1.00  0.00    -0.205 F 
ATOM     94  C   UNL     1      21.435  -4.080   5.947  1.00  0.00     0.022 A 
BRANCH  92  95
ATOM     95  S   UNL     1      21.677  -5.182   8.442  1.00  0.00     0.127 S 
ATOM     96  O   UNL     1      22.245  -6.419   7.908  1.00  0.00    -0.237 OA
ATOM     97  O   UNL     1      22.643  -4.101   8.637  1.00  0.00    -0.237 OA
ATOM     98  O   UNL     1      20.730  -5.353   9.536  1.00  0.00    -0.744 OA
ENDBRANCH  92  95
ENDBRANCH  65  88
ENDBRANCH  39  40
ENDBRANCH  31  34
ENDBRANCH  29  30
ENDBRANCH  28  29
ENDBRANCH   1  28
TORSDOF 18
