REMARK SMILES N#CCC1(C[N@@H+]2CCO[C@H](CC(=O)NCCCCNC(=O)c3ccc(-c4c5nc(c(-c6cccc(S(=O)(=O)[O-])c6F)c6ccc([nH]6)c(-c6cccc(S(=O)(=O)[O-])c6F)c6nc(c(-c7cccc(S(=O)(=O)[O-])c7F)c7ccc4[nH]7)C=C6)C=C5)cc3)C2)CC1
REMARK SMILES IDX 15 1 14 2 12 3 13 4 11 6 10 7 6 8 7 9 85 10 8 12 9 13 5 14
REMARK SMILES IDX 4 15 86 16 87 17 3 18 2 19 1 20 16 21 17 22 18 23 19 24
REMARK SMILES IDX 20 25 21 27 22 28 23 29 84 30 24 31 83 32 25 33 26 34 27 35
REMARK SMILES IDX 77 36 28 37 82 38 76 39 78 40 29 41 81 42 75 43 74 44 30 46
REMARK SMILES IDX 62 47 42 48 61 49 43 50 46 51 60 52 79 53 44 54 45 55 59 57
REMARK SMILES IDX 80 58 47 59 31 60 32 61 40 62 33 63 35 64 41 65 34 66 36 67
REMARK SMILES IDX 37 68 38 69 39 70 63 71 64 72 72 73 65 74 67 75 73 76 66 77
REMARK SMILES IDX 68 78 69 79 70 80 71 81 48 82 49 83 57 84 50 85 52 86 58 87
REMARK SMILES IDX 51 88 53 89 54 90 55 91 56 92
REMARK H PARENT 14 5 6 11 19 26 78 45 46 56
REMARK Flexibility Score: inf
ROOT
ATOM      1  C   UNL     1       7.295   3.691   4.675  1.00  0.00     0.116 C 
ENDROOT
BRANCH   1   2
ATOM      2  N   UNL     1       6.956   2.292   4.500  1.00  0.00    -0.356 N 
ATOM      3  C   UNL     1       7.293   1.424   3.515  1.00  0.00     0.222 C 
ATOM      4  O   UNL     1       7.413   0.245   3.864  1.00  0.00    -0.275 OA
ATOM      5  H   UNL     1       6.389   1.912   5.210  1.00  0.00     0.163 HD
BRANCH   3   6
ATOM      6  C   UNL     1       7.562   1.825   2.071  1.00  0.00     0.138 C 
BRANCH   6   7
ATOM      7  C   UNL     1       6.905   3.088   1.518  1.00  0.00     0.182 C 
ATOM      8  N   UNL     1       4.418   2.614   1.316  1.00  0.00    -0.330 N 
ATOM      9  C   UNL     1       4.557   2.879  -0.108  1.00  0.00     0.291 C 
ATOM     10  C   UNL     1       5.465   3.357   1.967  1.00  0.00     0.295 C 
ATOM     11  H   UNL     1       3.438   2.876   1.424  1.00  0.00     0.348 HD
ATOM     12  C   UNL     1       5.966   2.505  -0.629  1.00  0.00     0.222 C 
ATOM     13  O   UNL     1       7.020   3.178   0.080  1.00  0.00    -0.366 OA
BRANCH   8  14
ATOM     14  C   UNL     1       4.065   1.363   1.993  1.00  0.00     0.270 C 
BRANCH  14  15
ATOM     15  C   UNL     1       4.294   0.047   1.320  1.00  0.00     0.032 C 
ATOM     16  C   UNL     1       3.991  -1.226   2.121  1.00  0.00     0.015 C 
ATOM     17  C   UNL     1       5.389  -0.952   1.679  1.00  0.00     0.015 C 
BRANCH  15  18
ATOM     18  C   UNL     1       3.848   0.038  -0.064  1.00  0.00     0.133 C 
BRANCH  18  19
ATOM     19  C   UNL     1       2.328   0.038  -0.064  1.00  0.00     0.063 C 
ATOM     20  N   UNL     1       1.067   0.038  -0.064  1.00  0.00    -0.198 NA
ENDBRANCH  18  19
ENDBRANCH  15  18
ENDBRANCH  14  15
ENDBRANCH   8  14
ENDBRANCH   6   7
ENDBRANCH   3   6
ENDBRANCH   1   2
BRANCH   1  21
ATOM     21  C   UNL     1       6.130   4.697   4.657  1.00  0.00     0.023 C 
BRANCH  21  22
ATOM     22  C   UNL     1       4.802   4.230   5.276  1.00  0.00     0.023 C 
BRANCH  22  23
ATOM     23  C   UNL     1       4.939   3.790   6.719  1.00  0.00     0.116 C 
BRANCH  23  24
ATOM     24  N   UNL     1       5.801   4.714   7.444  1.00  0.00    -0.352 N 
ATOM     25  C   UNL     1       5.435   5.662   8.354  1.00  0.00     0.251 C 
ATOM     26  H   UNL     1       6.764   4.646   7.254  1.00  0.00     0.163 HD
ATOM     27  O   UNL     1       6.114   6.669   8.504  1.00  0.00    -0.269 OA
BRANCH  25  28
ATOM     28  C   UNL     1       4.247   5.401   9.176  1.00  0.00     0.039 A 
ATOM     29  C   UNL     1       3.443   6.462   9.588  1.00  0.00     0.014 A 
ATOM     30  C   UNL     1       3.971   4.086   9.571  1.00  0.00     0.014 A 
ATOM     31  C   UNL     1       2.352   6.195  10.407  1.00  0.00     0.010 A 
ATOM     32  C   UNL     1       2.824   3.812  10.283  1.00  0.00     0.010 A 
ATOM     33  C   UNL     1       2.040   4.869  10.753  1.00  0.00    -0.014 A 
BRANCH  33  34
ATOM     34  C   UNL     1       0.928   4.553  11.666  1.00  0.00     0.031 A 
ATOM     35  C   UNL     1       1.225   3.890  12.983  1.00  0.00     0.074 A 
ATOM     36  C   UNL     1      -0.332   4.777  11.256  1.00  0.00     0.049 A 
ATOM     37  N   UNL     1       0.393   3.481  13.901  1.00  0.00    -0.248 NA
ATOM     38  C   UNL     1       2.640   3.606  13.292  1.00  0.00     0.031 C 
ATOM     39  C   UNL     1      -0.715   5.318   9.948  1.00  0.00     0.029 A 
ATOM     40  N   UNL     1      -1.524   4.556  11.889  1.00  0.00    -0.354 N 
ATOM     41  C   UNL     1       1.173   2.850  14.862  1.00  0.00     0.074 A 
ATOM     42  C   UNL     1       2.540   2.888  14.400  1.00  0.00     0.031 C 
ATOM     43  C   UNL     1      -2.053   5.403   9.885  1.00  0.00     0.029 A 
ATOM     44  C   UNL     1      -2.617   4.903  11.133  1.00  0.00     0.049 A 
ATOM     45  H   UNL     1      -1.591   4.185  12.798  1.00  0.00     0.167 HD
ATOM     46  C   UNL     1       0.785   2.321  16.045  1.00  0.00     0.034 A 
ATOM     47  C   UNL     1      -3.927   4.827  11.429  1.00  0.00     0.034 A 
ATOM     48  C   UNL     1      -0.570   2.364  16.516  1.00  0.00     0.049 A 
ATOM     49  C   UNL     1      -4.319   4.327  12.791  1.00  0.00     0.074 A 
ATOM     50  C   UNL     1      -1.068   1.972  17.744  1.00  0.00     0.029 A 
ATOM     51  N   UNL     1      -1.643   2.833  15.774  1.00  0.00    -0.354 N 
ATOM     52  N   UNL     1      -3.552   3.900  13.767  1.00  0.00    -0.248 NA
ATOM     53  C   UNL     1      -5.751   4.341  13.113  1.00  0.00     0.031 C 
ATOM     54  C   UNL     1      -2.450   2.189  17.737  1.00  0.00     0.029 A 
ATOM     55  C   UNL     1      -2.806   2.738  16.514  1.00  0.00     0.049 A 
ATOM     56  H   UNL     1      -1.585   3.183  14.855  1.00  0.00     0.167 HD
ATOM     57  C   UNL     1      -4.403   3.631  14.830  1.00  0.00     0.074 A 
ATOM     58  C   UNL     1      -5.741   3.967  14.385  1.00  0.00     0.031 C 
ATOM     59  C   UNL     1      -4.113   3.136  16.059  1.00  0.00     0.034 A 
BRANCH  46  60
ATOM     60  C   UNL     1       1.843   1.714  16.927  1.00  0.00     0.023 A 
ATOM     61  C   UNL     1       2.793   2.546  17.556  1.00  0.00     0.012 A 
ATOM     62  C   UNL     1       1.871   0.328  17.174  1.00  0.00     0.148 A 
ATOM     63  C   UNL     1       3.773   2.006  18.387  1.00  0.00     0.002 A 
ATOM     64  C   UNL     1       2.821  -0.198  18.042  1.00  0.00     0.091 A 
ATOM     65  F   UNL     1       0.978  -0.451  16.546  1.00  0.00    -0.205 F 
ATOM     66  C   UNL     1       3.780   0.637  18.640  1.00  0.00     0.022 A 
BRANCH  64  67
ATOM     67  S   UNL     1       2.864  -1.935  18.496  1.00  0.00     0.127 S 
ATOM     68  O   UNL     1       4.088  -2.383  17.834  1.00  0.00    -0.237 OA
ATOM     69  O   UNL     1       2.950  -1.868  19.956  1.00  0.00    -0.237 OA
ATOM     70  O   UNL     1       1.630  -2.515  17.986  1.00  0.00    -0.744 OA
ENDBRANCH  64  67
ENDBRANCH  46  60
BRANCH  47  71
ATOM     71  C   UNL     1      -4.941   5.325  10.460  1.00  0.00     0.023 A 
ATOM     72  C   UNL     1      -5.646   6.509  10.751  1.00  0.00     0.012 A 
ATOM     73  C   UNL     1      -5.189   4.659   9.246  1.00  0.00     0.148 A 
ATOM     74  C   UNL     1      -6.611   6.998   9.869  1.00  0.00     0.002 A 
ATOM     75  C   UNL     1      -6.112   5.180   8.347  1.00  0.00     0.091 A 
ATOM     76  F   UNL     1      -4.510   3.531   8.989  1.00  0.00    -0.205 F 
ATOM     77  C   UNL     1      -6.837   6.339   8.664  1.00  0.00     0.022 A 
BRANCH  75  78
ATOM     78  S   UNL     1      -6.370   4.470   6.718  1.00  0.00     0.127 S 
ATOM     79  O   UNL     1      -7.660   3.805   6.883  1.00  0.00    -0.237 OA
ATOM     80  O   UNL     1      -6.394   5.660   5.867  1.00  0.00    -0.237 OA
ATOM     81  O   UNL     1      -5.226   3.596   6.491  1.00  0.00    -0.744 OA
ENDBRANCH  75  78
ENDBRANCH  47  71
BRANCH  59  82
ATOM     82  C   UNL     1      -5.257   2.968  17.020  1.00  0.00     0.023 A 
ATOM     83  C   UNL     1      -6.196   1.937  16.819  1.00  0.00     0.012 A 
ATOM     84  C   UNL     1      -5.360   3.790  18.159  1.00  0.00     0.148 A 
ATOM     85  C   UNL     1      -7.244   1.752  17.718  1.00  0.00     0.002 A 
ATOM     86  C   UNL     1      -6.375   3.565  19.078  1.00  0.00     0.091 A 
ATOM     87  F   UNL     1      -4.466   4.777  18.320  1.00  0.00    -0.205 F 
ATOM     88  C   UNL     1      -7.326   2.557  18.853  1.00  0.00     0.022 A 
BRANCH  86  89
ATOM     89  S   UNL     1      -6.491   4.485  20.616  1.00  0.00     0.127 S 
ATOM     90  O   UNL     1      -7.589   5.406  20.331  1.00  0.00    -0.237 OA
ATOM     91  O   UNL     1      -6.810   3.435  21.585  1.00  0.00    -0.237 OA
ATOM     92  O   UNL     1      -5.186   5.103  20.809  1.00  0.00    -0.744 OA
ENDBRANCH  86  89
ENDBRANCH  59  82
ENDBRANCH  33  34
ENDBRANCH  25  28
ENDBRANCH  23  24
ENDBRANCH  22  23
ENDBRANCH  21  22
ENDBRANCH   1  21
TORSDOF 19
