REMARK SMILES COc1cccc(-c2ccc(C#N)c(SCC(=O)NCCCCNC(=O)c3ccc(-c4c5nc(c(-c6cccc(S(=O)(=O)[O-])c6F)c6ccc([nH]6)c(-c6cccc(S(=O)(=O)[O-])c6F)c6nc(c(-c7cccc(S(=O)(=O)[O-])c7F)c7ccc4[nH]7)C=C6)C=C5)cc3)n2)c1
REMARK SMILES IDX 21 1 20 2 19 3 17 4 18 5 16 7 15 8 14 9 8 10 9 11 90 12
REMARK SMILES IDX 10 13 11 14 7 15 3 16 4 17 91 18 5 19 6 20 2 21 1 22 12 23
REMARK SMILES IDX 13 24 22 25 23 26 24 27 25 28 26 30 27 31 28 32 89 33 29 34
REMARK SMILES IDX 88 35 30 36 31 37 32 38 82 39 33 40 87 41 81 42 83 43 34 44
REMARK SMILES IDX 86 45 80 46 79 47 35 49 67 50 47 51 66 52 48 53 51 54 65 55
REMARK SMILES IDX 84 56 49 57 50 58 64 60 85 61 52 62 36 63 37 64 45 65 38 66
REMARK SMILES IDX 40 67 46 68 39 69 41 70 42 71 43 72 44 73 68 74 69 75 77 76
REMARK SMILES IDX 70 77 72 78 78 79 71 80 73 81 74 82 75 83 76 84 53 85 54 86
REMARK SMILES IDX 62 87 55 88 57 89 63 90 56 91 58 92 59 93 60 94 61 95
REMARK H PARENT 19 6 24 29 83 48 51 59
REMARK Flexibility Score: inf
ROOT
ATOM      1  C   UNL     1       5.917   2.972  -5.704  1.00  0.00     0.023 C 
ENDROOT
BRANCH   1   2
ATOM      2  C   UNL     1       7.016   2.587  -6.692  1.00  0.00     0.116 C 
BRANCH   2   3
ATOM      3  N   UNL     1       8.030   1.782  -6.046  1.00  0.00    -0.355 N 
ATOM      4  C   UNL     1       8.298   0.457  -6.177  1.00  0.00     0.230 C 
ATOM      5  O   UNL     1       9.143  -0.021  -5.418  1.00  0.00    -0.274 OA
ATOM      6  H   UNL     1       8.612   2.267  -5.418  1.00  0.00     0.163 HD
BRANCH   4   7
ATOM      7  C   UNL     1       7.652  -0.372  -7.265  1.00  0.00     0.176 C 
BRANCH   7   8
ATOM      8  S   UNL     1       5.885  -0.743  -7.035  1.00  0.00    -0.095 SA
BRANCH   8   9
ATOM      9  C   UNL     1       5.663  -1.501  -5.435  1.00  0.00     0.115 A 
ATOM     10  C   UNL     1       3.957  -1.898  -3.850  1.00  0.00     0.072 A 
ATOM     11  C   UNL     1       4.839  -2.581  -3.025  1.00  0.00     0.030 A 
ATOM     12  N   UNL     1       4.362  -1.352  -5.024  1.00  0.00    -0.240 NA
ATOM     13  C   UNL     1       6.150  -2.754  -3.446  1.00  0.00     0.024 A 
ATOM     14  C   UNL     1       6.568  -2.250  -4.685  1.00  0.00     0.084 A 
BRANCH  10  15
ATOM     15  C   UNL     1       2.523  -1.830  -3.516  1.00  0.00     0.004 A 
ATOM     16  C   UNL     1       0.765  -1.464  -1.857  1.00  0.00     0.119 A 
ATOM     17  C   UNL     1      -0.173  -2.025  -2.721  1.00  0.00     0.046 A 
ATOM     18  C   UNL     1       2.103  -1.375  -2.250  1.00  0.00     0.056 A 
ATOM     19  C   UNL     1       0.211  -2.441  -3.995  1.00  0.00     0.005 A 
ATOM     20  C   UNL     1       1.548  -2.335  -4.393  1.00  0.00     0.010 A 
BRANCH  16  21
ATOM     21  O   UNL     1       0.301  -1.115  -0.618  1.00  0.00    -0.497 OA
ATOM     22  C   UNL     1       0.884   0.065  -0.071  1.00  0.00     0.278 C 
ENDBRANCH  16  21
ENDBRANCH  10  15
BRANCH  14  23
ATOM     23  C   UNL     1       7.849  -2.677  -5.144  1.00  0.00     0.102 C 
ATOM     24  N   UNL     1       8.863  -3.123  -5.502  1.00  0.00    -0.192 NA
ENDBRANCH  14  23
ENDBRANCH   8   9
ENDBRANCH   7   8
ENDBRANCH   4   7
ENDBRANCH   2   3
ENDBRANCH   1   2
BRANCH   1  25
ATOM     25  C   UNL     1       6.402   3.790  -4.501  1.00  0.00     0.023 C 
BRANCH  25  26
ATOM     26  C   UNL     1       7.214   5.031  -4.850  1.00  0.00     0.116 C 
BRANCH  26  27
ATOM     27  N   UNL     1       6.480   5.953  -5.701  1.00  0.00    -0.352 N 
ATOM     28  C   UNL     1       6.300   7.307  -5.558  1.00  0.00     0.251 C 
ATOM     29  H   UNL     1       6.052   5.551  -6.491  1.00  0.00     0.163 HD
ATOM     30  O   UNL     1       5.500   7.894  -6.281  1.00  0.00    -0.269 OA
BRANCH  28  31
ATOM     31  C   UNL     1       7.055   8.047  -4.524  1.00  0.00     0.039 A 
ATOM     32  C   UNL     1       6.389   9.014  -3.769  1.00  0.00     0.014 A 
ATOM     33  C   UNL     1       8.412   7.796  -4.303  1.00  0.00     0.014 A 
ATOM     34  C   UNL     1       7.078   9.705  -2.771  1.00  0.00     0.010 A 
ATOM     35  C   UNL     1       9.069   8.415  -3.244  1.00  0.00     0.010 A 
ATOM     36  C   UNL     1       8.419   9.397  -2.484  1.00  0.00    -0.014 A 
BRANCH  36  37
ATOM     37  C   UNL     1       9.153  10.119  -1.413  1.00  0.00     0.031 A 
ATOM     38  C   UNL     1      10.377  10.933  -1.749  1.00  0.00     0.074 A 
ATOM     39  C   UNL     1       8.744  10.014  -0.133  1.00  0.00     0.049 A 
ATOM     40  N   UNL     1      11.143  11.632  -0.952  1.00  0.00    -0.248 NA
ATOM     41  C   UNL     1      10.812  10.947  -3.156  1.00  0.00     0.031 C 
ATOM     42  C   UNL     1       7.618   9.201   0.332  1.00  0.00     0.029 A 
ATOM     43  N   UNL     1       9.237  10.584   1.015  1.00  0.00    -0.354 N 
ATOM     44  C   UNL     1      12.162  12.138  -1.751  1.00  0.00     0.074 A 
ATOM     45  C   UNL     1      11.941  11.636  -3.087  1.00  0.00     0.031 C 
ATOM     46  C   UNL     1       7.496   9.338   1.662  1.00  0.00     0.029 A 
ATOM     47  C   UNL     1       8.556  10.212   2.151  1.00  0.00     0.049 A 
ATOM     48  H   UNL     1      10.004  11.200   1.024  1.00  0.00     0.167 HD
ATOM     49  C   UNL     1      13.177  12.967  -1.410  1.00  0.00     0.034 A 
ATOM     50  C   UNL     1       8.771  10.528   3.444  1.00  0.00     0.034 A 
ATOM     51  C   UNL     1      13.382  13.485  -0.085  1.00  0.00     0.049 A 
ATOM     52  C   UNL     1       9.895  11.467   3.789  1.00  0.00     0.074 A 
ATOM     53  C   UNL     1      14.336  14.391   0.344  1.00  0.00     0.029 A 
ATOM     54  N   UNL     1      12.638  13.130   1.028  1.00  0.00    -0.354 N 
ATOM     55  N   UNL     1      10.764  12.043   2.995  1.00  0.00    -0.248 NA
ATOM     56  C   UNL     1      10.040  11.833   5.205  1.00  0.00     0.031 C 
ATOM     57  C   UNL     1      14.204  14.541   1.727  1.00  0.00     0.029 A 
ATOM     58  C   UNL     1      13.120  13.787   2.147  1.00  0.00     0.049 A 
ATOM     59  H   UNL     1      11.879  12.503   1.024  1.00  0.00     0.167 HD
ATOM     60  C   UNL     1      11.525  12.878   3.806  1.00  0.00     0.074 A 
ATOM     61  C   UNL     1      11.001  12.744   5.149  1.00  0.00     0.031 C 
ATOM     62  C   UNL     1      12.563  13.681   3.470  1.00  0.00     0.034 A 
BRANCH  49  63
ATOM     63  C   UNL     1      14.140  13.386  -2.491  1.00  0.00     0.023 A 
ATOM     64  C   UNL     1      13.717  14.251  -3.521  1.00  0.00     0.012 A 
ATOM     65  C   UNL     1      15.489  12.980  -2.441  1.00  0.00     0.148 A 
ATOM     66  C   UNL     1      14.611  14.679  -4.501  1.00  0.00     0.002 A 
ATOM     67  C   UNL     1      16.385  13.454  -3.390  1.00  0.00     0.091 A 
ATOM     68  F   UNL     1      15.867  12.143  -1.466  1.00  0.00    -0.205 F 
ATOM     69  C   UNL     1      15.946  14.291  -4.428  1.00  0.00     0.022 A 
BRANCH  67  70
ATOM     70  S   UNL     1      18.142  13.084  -3.333  1.00  0.00     0.127 S 
ATOM     71  O   UNL     1      18.314  12.288  -4.548  1.00  0.00    -0.237 OA
ATOM     72  O   UNL     1      18.735  14.419  -3.389  1.00  0.00    -0.237 OA
ATOM     73  O   UNL     1      18.365  12.366  -2.086  1.00  0.00    -0.744 OA
ENDBRANCH  67  70
ENDBRANCH  49  63
BRANCH  50  74
ATOM     74  C   UNL     1       7.888   9.976   4.511  1.00  0.00     0.023 A 
ATOM     75  C   UNL     1       7.047  10.837   5.244  1.00  0.00     0.012 A 
ATOM     76  C   UNL     1       7.892   8.601   4.811  1.00  0.00     0.148 A 
ATOM     77  C   UNL     1       6.268  10.346   6.293  1.00  0.00     0.002 A 
ATOM     78  C   UNL     1       7.066   8.109   5.814  1.00  0.00     0.091 A 
ATOM     79  F   UNL     1       8.702   7.800   4.105  1.00  0.00    -0.205 F 
ATOM     80  C   UNL     1       6.271   8.982   6.572  1.00  0.00     0.022 A 
BRANCH  78  81
ATOM     81  S   UNL     1       6.912   6.353   6.156  1.00  0.00     0.127 S 
ATOM     82  O   UNL     1       7.516   6.253   7.482  1.00  0.00    -0.237 OA
ATOM     83  O   UNL     1       5.461   6.168   6.122  1.00  0.00    -0.237 OA
ATOM     84  O   UNL     1       7.628   5.676   5.083  1.00  0.00    -0.744 OA
ENDBRANCH  78  81
ENDBRANCH  50  74
BRANCH  62  85
ATOM     85  C   UNL     1      13.154  14.550   4.552  1.00  0.00     0.023 A 
ATOM     86  C   UNL     1      13.873  13.981   5.622  1.00  0.00     0.012 A 
ATOM     87  C   UNL     1      13.023  15.951   4.476  1.00  0.00     0.148 A 
ATOM     88  C   UNL     1      14.401  14.789   6.628  1.00  0.00     0.002 A 
ATOM     89  C   UNL     1      13.605  16.753   5.448  1.00  0.00     0.091 A 
ATOM     90  F   UNL     1      12.323  16.474   3.459  1.00  0.00    -0.205 F 
ATOM     91  C   UNL     1      14.277  16.173   6.536  1.00  0.00     0.022 A 
BRANCH  89  92
ATOM     92  S   UNL     1      13.585  18.545   5.352  1.00  0.00     0.127 S 
ATOM     93  O   UNL     1      12.657  18.890   6.429  1.00  0.00    -0.237 OA
ATOM     94  O   UNL     1      14.983  18.884   5.620  1.00  0.00    -0.237 OA
ATOM     95  O   UNL     1      13.130  18.873   4.008  1.00  0.00    -0.744 OA
ENDBRANCH  89  92
ENDBRANCH  62  85
ENDBRANCH  36  37
ENDBRANCH  28  31
ENDBRANCH  26  27
ENDBRANCH  25  26
ENDBRANCH   1  25
TORSDOF 19
