REMARK SMILES C[C@@H]1CN(S(=O)(=O)c2ccc(Cl)c(C(=O)NCCCCNC(=O)c3ccc(-c4c5nc(c(-c6cccc(S(=O)(=O)[O-])c6F)c6ccc([nH]6)c(-c6cccc(S(=O)(=O)[O-])c6F)c6nc(c(-c7cccc(S(=O)(=O)[O-])c7F)c7ccc4[nH]7)C=C6)C=C5)cc3)c2Cl)C[C@H]1C
REMARK SMILES IDX 19 1 18 2 17 3 16 4 14 5 15 6 13 8 8 9 9 10 87 11 10 12
REMARK SMILES IDX 88 13 11 14 12 15 5 16 6 17 7 18 4 19 1 20 2 21 3 22 90 23
REMARK SMILES IDX 89 24 91 25 20 26 21 27 22 28 23 30 24 31 25 32 86 33 26 34
REMARK SMILES IDX 85 35 27 36 28 37 29 38 79 39 30 40 84 41 78 42 80 43 31 44
REMARK SMILES IDX 83 45 77 46 76 47 32 49 64 50 44 51 63 52 45 53 48 54 62 55
REMARK SMILES IDX 81 56 46 57 47 58 61 60 82 61 49 62 33 63 34 64 42 65 35 66
REMARK SMILES IDX 37 67 43 68 36 69 38 70 39 71 40 72 41 73 65 74 66 75 74 76
REMARK SMILES IDX 67 77 69 78 75 79 68 80 70 81 71 82 72 83 73 84 50 85 51 86
REMARK SMILES IDX 59 87 52 88 54 89 60 90 53 91 55 92 56 93 57 94 58 95
REMARK H PARENT 16 7 21 29 80 48 48 59
REMARK Flexibility Score: inf
ROOT
ATOM      1  C   UNL     1      -0.556  12.087   3.087  1.00  0.00     0.023 C 
ENDROOT
BRANCH   1   2
ATOM      2  C   UNL     1      -0.518  10.706   2.448  1.00  0.00     0.023 C 
BRANCH   2   3
ATOM      3  C   UNL     1       0.768   9.884   2.631  1.00  0.00     0.116 C 
BRANCH   3   4
ATOM      4  N   UNL     1       0.662   9.102   3.845  1.00  0.00    -0.352 N 
ATOM      5  C   UNL     1       0.117   7.874   4.115  1.00  0.00     0.254 C 
ATOM      6  O   UNL     1      -0.233   7.680   5.282  1.00  0.00    -0.269 OA
ATOM      7  H   UNL     1       1.062   9.539   4.632  1.00  0.00     0.163 HD
BRANCH   5   8
ATOM      8  C   UNL     1      -0.052   6.734   3.164  1.00  0.00     0.078 A 
ATOM      9  C   UNL     1      -0.151   4.278   3.070  1.00  0.00     0.102 A 
ATOM     10  C   UNL     1      -0.949   4.367   1.926  1.00  0.00     0.025 A 
ATOM     11  C   UNL     1       0.359   5.451   3.652  1.00  0.00     0.075 A 
ATOM     12  C   UNL     1      -1.221   5.592   1.355  1.00  0.00     0.023 A 
ATOM     13  Cl  UNL     1       1.597   5.353   4.873  1.00  0.00    -0.082 Cl
ATOM     14  C   UNL     1      -0.843   6.771   2.001  1.00  0.00     0.055 A 
ATOM     15  Cl  UNL     1      -1.581   8.136   1.274  1.00  0.00    -0.083 Cl
BRANCH   9  16
ATOM     16  S   UNL     1      -0.123   2.669   3.840  1.00  0.00     0.244 S 
ATOM     17  O   UNL     1      -1.369   2.017   3.479  1.00  0.00    -0.207 OA
ATOM     18  O   UNL     1       0.238   2.777   5.235  1.00  0.00    -0.207 OA
BRANCH  16  19
ATOM     19  N   UNL     1       1.114   1.804   3.042  1.00  0.00    -0.197 NA
ATOM     20  C   UNL     1       1.137  -0.297  -0.062  1.00  0.00     0.009 C 
ATOM     21  C   UNL     1       0.761   0.139   1.345  1.00  0.00     0.005 C 
ATOM     22  C   UNL     1       1.003   1.626   1.569  1.00  0.00     0.106 C 
ATOM     23  C   UNL     1       1.606  -0.487   2.450  1.00  0.00     0.005 C 
ATOM     24  C   UNL     1       1.325   0.440   3.637  1.00  0.00     0.106 C 
ATOM     25  C   UNL     1       1.238  -1.937   2.734  1.00  0.00     0.009 C 
ENDBRANCH  16  19
ENDBRANCH   9  16
ENDBRANCH   5   8
ENDBRANCH   3   4
ENDBRANCH   2   3
ENDBRANCH   1   2
BRANCH   1  26
ATOM     26  C   UNL     1       0.381  13.100   2.456  1.00  0.00     0.116 C 
BRANCH  26  27
ATOM     27  N   UNL     1       0.219  13.237   1.015  1.00  0.00    -0.352 N 
ATOM     28  C   UNL     1       0.461  14.335   0.227  1.00  0.00     0.251 C 
ATOM     29  H   UNL     1      -0.107  12.437   0.544  1.00  0.00     0.163 HD
ATOM     30  O   UNL     1       0.205  14.301  -0.973  1.00  0.00    -0.269 OA
BRANCH  28  31
ATOM     31  C   UNL     1       0.989  15.567   0.846  1.00  0.00     0.039 A 
ATOM     32  C   UNL     1       0.404  16.791   0.513  1.00  0.00     0.014 A 
ATOM     33  C   UNL     1       2.031  15.511   1.774  1.00  0.00     0.014 A 
ATOM     34  C   UNL     1       0.839  17.955   1.147  1.00  0.00     0.010 A 
ATOM     35  C   UNL     1       2.397  16.653   2.472  1.00  0.00     0.010 A 
ATOM     36  C   UNL     1       1.825  17.890   2.145  1.00  0.00    -0.014 A 
BRANCH  36  37
ATOM     37  C   UNL     1       2.315  19.112   2.822  1.00  0.00     0.031 A 
ATOM     38  C   UNL     1       3.750  19.532   2.647  1.00  0.00     0.074 A 
ATOM     39  C   UNL     1       1.498  19.794   3.647  1.00  0.00     0.049 A 
ATOM     40  N   UNL     1       4.380  20.549   3.171  1.00  0.00    -0.248 NA
ATOM     41  C   UNL     1       4.599  18.675   1.800  1.00  0.00     0.031 C 
ATOM     42  C   UNL     1       0.119  19.424   3.972  1.00  0.00     0.029 A 
ATOM     43  N   UNL     1       1.718  20.932   4.378  1.00  0.00    -0.354 N 
ATOM     44  C   UNL     1       5.700  20.432   2.753  1.00  0.00     0.074 A 
ATOM     45  C   UNL     1       5.794  19.220   1.971  1.00  0.00     0.031 C 
ATOM     46  C   UNL     1      -0.388  20.327   4.828  1.00  0.00     0.029 A 
ATOM     47  C   UNL     1       0.631  21.330   5.120  1.00  0.00     0.049 A 
ATOM     48  H   UNL     1       2.574  21.419   4.373  1.00  0.00     0.167 HD
ATOM     49  C   UNL     1       6.734  21.279   2.963  1.00  0.00     0.034 A 
ATOM     50  C   UNL     1       0.473  22.396   5.929  1.00  0.00     0.034 A 
ATOM     51  C   UNL     1       6.615  22.518   3.679  1.00  0.00     0.049 A 
ATOM     52  C   UNL     1       1.608  23.377   6.062  1.00  0.00     0.074 A 
ATOM     53  C   UNL     1       7.572  23.497   3.875  1.00  0.00     0.029 A 
ATOM     54  N   UNL     1       5.459  22.955   4.307  1.00  0.00    -0.354 N 
ATOM     55  N   UNL     1       2.801  23.337   5.520  1.00  0.00    -0.248 NA
ATOM     56  C   UNL     1       1.357  24.576   6.874  1.00  0.00     0.031 C 
ATOM     57  C   UNL     1       6.992  24.527   4.623  1.00  0.00     0.029 A 
ATOM     58  C   UNL     1       5.672  24.194   4.882  1.00  0.00     0.049 A 
ATOM     59  H   UNL     1       4.610  22.456   4.338  1.00  0.00     0.167 HD
ATOM     60  C   UNL     1       3.428  24.521   5.888  1.00  0.00     0.074 A 
ATOM     61  C   UNL     1       2.474  25.266   6.685  1.00  0.00     0.031 C 
ATOM     62  C   UNL     1       4.684  24.949   5.608  1.00  0.00     0.034 A 
BRANCH  49  63
ATOM     63  C   UNL     1       8.059  20.929   2.339  1.00  0.00     0.023 A 
ATOM     64  C   UNL     1       8.211  21.029   0.940  1.00  0.00     0.012 A 
ATOM     65  C   UNL     1       9.158  20.537   3.127  1.00  0.00     0.148 A 
ATOM     66  C   UNL     1       9.423  20.709   0.331  1.00  0.00     0.002 A 
ATOM     67  C   UNL     1      10.377  20.262   2.516  1.00  0.00     0.091 A 
ATOM     68  F   UNL     1       8.988  20.421   4.452  1.00  0.00    -0.205 F 
ATOM     69  C   UNL     1      10.508  20.336   1.119  1.00  0.00     0.022 A 
BRANCH  67  70
ATOM     70  S   UNL     1      11.853  19.846   3.451  1.00  0.00     0.127 S 
ATOM     71  O   UNL     1      11.976  18.413   3.187  1.00  0.00    -0.237 OA
ATOM     72  O   UNL     1      12.872  20.674   2.805  1.00  0.00    -0.237 OA
ATOM     73  O   UNL     1      11.566  20.208   4.832  1.00  0.00    -0.744 OA
ENDBRANCH  67  70
ENDBRANCH  49  63
BRANCH  50  74
ATOM     74  C   UNL     1      -0.843  22.649   6.578  1.00  0.00     0.023 A 
ATOM     75  C   UNL     1      -1.645  23.709   6.111  1.00  0.00     0.012 A 
ATOM     76  C   UNL     1      -1.322  21.836   7.623  1.00  0.00     0.148 A 
ATOM     77  C   UNL     1      -2.884  23.977   6.695  1.00  0.00     0.002 A 
ATOM     78  C   UNL     1      -2.579  22.078   8.167  1.00  0.00     0.091 A 
ATOM     79  F   UNL     1      -0.541  20.839   8.062  1.00  0.00    -0.205 F 
ATOM     80  C   UNL     1      -3.354  23.157   7.716  1.00  0.00     0.022 A 
BRANCH  78  81
ATOM     81  S   UNL     1      -3.315  20.994   9.397  1.00  0.00     0.127 S 
ATOM     82  O   UNL     1      -3.168  21.783  10.617  1.00  0.00    -0.237 OA
ATOM     83  O   UNL     1      -4.689  20.865   8.908  1.00  0.00    -0.237 OA
ATOM     84  O   UNL     1      -2.543  19.761   9.338  1.00  0.00    -0.744 OA
ENDBRANCH  78  81
ENDBRANCH  50  74
BRANCH  62  85
ATOM     85  C   UNL     1       5.091  26.302   6.123  1.00  0.00     0.023 A 
ATOM     86  C   UNL     1       5.371  26.473   7.492  1.00  0.00     0.012 A 
ATOM     87  C   UNL     1       5.276  27.381   5.237  1.00  0.00     0.148 A 
ATOM     88  C   UNL     1       5.801  27.707   7.977  1.00  0.00     0.002 A 
ATOM     89  C   UNL     1       5.749  28.595   5.720  1.00  0.00     0.091 A 
ATOM     90  F   UNL     1       4.983  27.205   3.940  1.00  0.00    -0.205 F 
ATOM     91  C   UNL     1       6.002  28.763   7.091  1.00  0.00     0.022 A 
BRANCH  89  92
ATOM     92  S   UNL     1       6.124  29.971   4.628  1.00  0.00     0.127 S 
ATOM     93  O   UNL     1       4.937  30.808   4.782  1.00  0.00    -0.237 OA
ATOM     94  O   UNL     1       7.342  30.524   5.222  1.00  0.00    -0.237 OA
ATOM     95  O   UNL     1       6.317  29.383   3.308  1.00  0.00    -0.744 OA
ENDBRANCH  89  92
ENDBRANCH  62  85
ENDBRANCH  36  37
ENDBRANCH  28  31
ENDBRANCH  26  27
ENDBRANCH   1  26
TORSDOF 16
