REMARK SMILES C[C@H]1[C@H]([NH+]2CCC(CC(=O)NCCCCNC(=O)c3ccc(-c4c5nc(c(-c6cccc(S(=O)(=O)[O-])c6F)c6ccc([nH]6)c(-c6cccc(S(=O)(=O)[O-])c6F)c6nc(c(-c7cccc(S(=O)(=O)[O-])c7F)c7ccc4[nH]7)C=C6)C=C5)cc3)CC2)CCC[C@@H]1C
REMARK SMILES IDX 14 1 13 2 12 3 11 4 9 5 10 6 8 8 7 9 4 10 5 11 83 12 6 14
REMARK SMILES IDX 82 15 3 16 1 17 2 18 87 19 84 20 86 21 88 22 85 23 15 24
REMARK SMILES IDX 16 25 17 26 18 28 19 29 20 30 81 31 21 32 80 33 22 34 23 35
REMARK SMILES IDX 24 36 74 37 25 38 79 39 73 40 75 41 26 42 78 43 72 44 71 45
REMARK SMILES IDX 27 47 59 48 39 49 58 50 40 51 43 52 57 53 76 54 41 55 42 56
REMARK SMILES IDX 56 58 77 59 44 60 28 61 29 62 37 63 30 64 32 65 38 66 31 67
REMARK SMILES IDX 33 68 34 69 35 70 36 71 60 72 61 73 69 74 62 75 64 76 70 77
REMARK SMILES IDX 63 78 65 79 66 80 67 81 68 82 45 83 46 84 54 85 47 86 49 87
REMARK SMILES IDX 55 88 48 89 50 90 51 91 52 92 53 93
REMARK H PARENT 11 7 4 13 16 27 75 46 43 57
REMARK Flexibility Score: inf
ROOT
ATOM      1  C   UNL     1      -2.748  -1.889   4.407  1.00  0.00     0.023 C 
ENDROOT
BRANCH   1   2
ATOM      2  C   UNL     1      -1.377  -1.729   3.788  1.00  0.00     0.023 C 
BRANCH   2   3
ATOM      3  C   UNL     1      -0.627  -0.408   4.039  1.00  0.00     0.116 C 
BRANCH   3   4
ATOM      4  N   UNL     1       0.756  -0.614   4.486  1.00  0.00    -0.356 N 
ATOM      5  C   UNL     1       2.014  -0.534   3.984  1.00  0.00     0.220 C 
ATOM      6  O   UNL     1       2.924  -0.690   4.811  1.00  0.00    -0.275 OA
ATOM      7  H   UNL     1       0.777  -0.893   5.430  1.00  0.00     0.163 HD
BRANCH   5   8
ATOM      8  C   UNL     1       2.408  -0.276   2.524  1.00  0.00     0.104 C 
BRANCH   8   9
ATOM      9  C   UNL     1       2.273  -1.508   1.600  1.00  0.00     0.009 C 
ATOM     10  N   UNL     1       1.214  -3.626  -1.360  1.00  0.00    -0.332 N 
ATOM     11  C   UNL     1       2.934  -2.881  -1.325  1.00  0.00     0.262 C 
ATOM     12  C   UNL     1       0.177  -3.645   0.208  1.00  0.00     0.262 C 
ATOM     13  H   UNL     1       1.325  -4.548  -1.782  1.00  0.00     0.348 HD
ATOM     14  C   UNL     1       3.390  -1.586   0.060  1.00  0.00     0.066 C 
ATOM     15  C   UNL     1       0.591  -2.358   1.567  1.00  0.00     0.066 C 
BRANCH  10  16
ATOM     16  C   UNL     1       0.508  -2.512  -1.784  1.00  0.00     0.187 C 
ATOM     17  C   UNL     1       2.187  -3.390   0.543  1.00  0.00     0.014 C 
ATOM     18  C   UNL     1       1.186  -1.887  -0.549  1.00  0.00     0.047 C 
ATOM     19  C   UNL     1       0.041  -0.608  -0.429  1.00  0.00    -0.006 C 
ATOM     20  C   UNL     1       0.671  -1.821  -3.116  1.00  0.00     0.065 C 
ATOM     21  C   UNL     1      -0.112   0.157  -1.823  1.00  0.00     0.004 C 
ATOM     22  C   UNL     1       0.252   0.593   0.487  1.00  0.00     0.008 C 
ATOM     23  C   UNL     1      -0.329  -0.679  -3.075  1.00  0.00     0.006 C 
ENDBRANCH  10  16
ENDBRANCH   8   9
ENDBRANCH   5   8
ENDBRANCH   3   4
ENDBRANCH   2   3
ENDBRANCH   1   2
BRANCH   1  24
ATOM     24  C   UNL     1      -3.761  -0.863   3.945  1.00  0.00     0.116 C 
BRANCH  24  25
ATOM     25  N   UNL     1      -4.188  -0.961   2.549  1.00  0.00    -0.352 N 
ATOM     26  C   UNL     1      -5.470  -0.741   2.062  1.00  0.00     0.251 C 
ATOM     27  H   UNL     1      -3.499  -1.206   1.890  1.00  0.00     0.163 HD
ATOM     28  O   UNL     1      -5.739  -0.851   0.877  1.00  0.00    -0.269 OA
BRANCH  26  29
ATOM     29  C   UNL     1      -6.516  -0.425   3.060  1.00  0.00     0.039 A 
ATOM     30  C   UNL     1      -7.566  -1.326   3.250  1.00  0.00     0.014 A 
ATOM     31  C   UNL     1      -6.276   0.600   3.975  1.00  0.00     0.014 A 
ATOM     32  C   UNL     1      -8.303  -1.268   4.435  1.00  0.00     0.010 A 
ATOM     33  C   UNL     1      -6.908   0.553   5.209  1.00  0.00     0.010 A 
ATOM     34  C   UNL     1      -7.935  -0.373   5.455  1.00  0.00    -0.014 A 
BRANCH  34  35
ATOM     35  C   UNL     1      -8.613  -0.368   6.779  1.00  0.00     0.031 A 
ATOM     36  C   UNL     1      -9.239   0.908   7.281  1.00  0.00     0.074 A 
ATOM     37  C   UNL     1      -8.592  -1.463   7.569  1.00  0.00     0.049 A 
ATOM     38  N   UNL     1      -9.811   1.152   8.431  1.00  0.00    -0.248 NA
ATOM     39  C   UNL     1      -9.171   2.083   6.392  1.00  0.00     0.031 C 
ATOM     40  C   UNL     1      -7.931  -2.733   7.254  1.00  0.00     0.029 A 
ATOM     41  N   UNL     1      -9.128  -1.677   8.817  1.00  0.00    -0.354 N 
ATOM     42  C   UNL     1     -10.124   2.505   8.416  1.00  0.00     0.074 A 
ATOM     43  C   UNL     1      -9.615   3.048   7.179  1.00  0.00     0.031 C 
ATOM     44  C   UNL     1      -8.125  -3.597   8.264  1.00  0.00     0.029 A 
ATOM     45  C   UNL     1      -8.895  -2.940   9.315  1.00  0.00     0.049 A 
ATOM     46  H   UNL     1      -9.633  -0.991   9.309  1.00  0.00     0.167 HD
ATOM     47  C   UNL     1     -10.823   3.229   9.321  1.00  0.00     0.034 A 
ATOM     48  C   UNL     1      -9.264  -3.502  10.484  1.00  0.00     0.034 A 
ATOM     49  C   UNL     1     -11.391   2.675  10.516  1.00  0.00     0.049 A 
ATOM     50  C   UNL     1     -10.090  -2.694  11.452  1.00  0.00     0.074 A 
ATOM     51  C   UNL     1     -12.196   3.296  11.453  1.00  0.00     0.029 A 
ATOM     52  N   UNL     1     -11.217   1.366  10.936  1.00  0.00    -0.354 N 
ATOM     53  N   UNL     1     -10.516  -1.459  11.341  1.00  0.00    -0.248 NA
ATOM     54  C   UNL     1     -10.520  -3.368  12.686  1.00  0.00     0.031 C 
ATOM     55  C   UNL     1     -12.492   2.366  12.454  1.00  0.00     0.029 A 
ATOM     56  C   UNL     1     -11.896   1.159  12.123  1.00  0.00     0.049 A 
ATOM     57  H   UNL     1     -10.689   0.685  10.461  1.00  0.00     0.167 HD
ATOM     58  C   UNL     1     -11.295  -1.221  12.469  1.00  0.00     0.074 A 
ATOM     59  C   UNL     1     -11.299  -2.448  13.239  1.00  0.00     0.031 C 
ATOM     60  C   UNL     1     -11.937  -0.087  12.843  1.00  0.00     0.034 A 
BRANCH  47  61
ATOM     61  C   UNL     1     -11.066   4.682   9.008  1.00  0.00     0.023 A 
ATOM     62  C   UNL     1     -11.928   5.031   7.947  1.00  0.00     0.012 A 
ATOM     63  C   UNL     1     -10.469   5.699   9.776  1.00  0.00     0.148 A 
ATOM     64  C   UNL     1     -12.156   6.368   7.626  1.00  0.00     0.002 A 
ATOM     65  C   UNL     1     -10.743   7.030   9.483  1.00  0.00     0.091 A 
ATOM     66  F   UNL     1      -9.634   5.349  10.764  1.00  0.00    -0.205 F 
ATOM     67  C   UNL     1     -11.573   7.366   8.400  1.00  0.00     0.022 A 
BRANCH  65  68
ATOM     68  S   UNL     1     -10.108   8.390  10.469  1.00  0.00     0.127 S 
ATOM     69  O   UNL     1      -9.158   9.005   9.544  1.00  0.00    -0.237 OA
ATOM     70  O   UNL     1     -11.316   9.177  10.716  1.00  0.00    -0.237 OA
ATOM     71  O   UNL     1      -9.522   7.786  11.657  1.00  0.00    -0.744 OA
ENDBRANCH  65  68
ENDBRANCH  47  61
BRANCH  48  72
ATOM     72  C   UNL     1      -8.925  -4.926  10.780  1.00  0.00     0.023 A 
ATOM     73  C   UNL     1      -9.954  -5.889  10.822  1.00  0.00     0.012 A 
ATOM     74  C   UNL     1      -7.598  -5.334  11.017  1.00  0.00     0.148 A 
ATOM     75  C   UNL     1      -9.674  -7.221  11.134  1.00  0.00     0.002 A 
ATOM     76  C   UNL     1      -7.319  -6.673  11.272  1.00  0.00     0.091 A 
ATOM     77  F   UNL     1      -6.633  -4.404  10.986  1.00  0.00    -0.205 F 
ATOM     78  C   UNL     1      -8.357  -7.614  11.350  1.00  0.00     0.022 A 
BRANCH  76  79
ATOM     79  S   UNL     1      -5.641  -7.292  11.437  1.00  0.00     0.127 S 
ATOM     80  O   UNL     1      -5.575  -7.604  12.862  1.00  0.00    -0.237 OA
ATOM     81  O   UNL     1      -5.661  -8.456  10.550  1.00  0.00    -0.237 OA
ATOM     82  O   UNL     1      -4.778  -6.209  10.984  1.00  0.00    -0.744 OA
ENDBRANCH  76  79
ENDBRANCH  48  72
BRANCH  60  83
ATOM     83  C   UNL     1     -12.740  -0.122  14.116  1.00  0.00     0.023 A 
ATOM     84  C   UNL     1     -12.083  -0.155  15.361  1.00  0.00     0.012 A 
ATOM     85  C   UNL     1     -14.146  -0.034  14.075  1.00  0.00     0.148 A 
ATOM     86  C   UNL     1     -12.816  -0.132  16.547  1.00  0.00     0.002 A 
ATOM     87  C   UNL     1     -14.865   0.042  15.260  1.00  0.00     0.091 A 
ATOM     88  F   UNL     1     -14.751  -0.020  12.878  1.00  0.00    -0.205 F 
ATOM     89  C   UNL     1     -14.204  -0.020  16.497  1.00  0.00     0.022 A 
BRANCH  87  90
ATOM     90  S   UNL     1     -16.644   0.291  15.291  1.00  0.00     0.127 S 
ATOM     91  O   UNL     1     -17.119  -1.017  15.737  1.00  0.00    -0.237 OA
ATOM     92  O   UNL     1     -16.789   1.362  16.278  1.00  0.00    -0.237 OA
ATOM     93  O   UNL     1     -17.021   0.664  13.935  1.00  0.00    -0.744 OA
ENDBRANCH  87  90
ENDBRANCH  60  83
ENDBRANCH  34  35
ENDBRANCH  26  29
ENDBRANCH  24  25
ENDBRANCH   1  24
TORSDOF 16
