REMARK SMILES CCC[C@H](CCCc1c(O)nc(N)[nH]c1=O)C(=O)NCCCCNC(=O)c1ccc(-c2c3nc(c(-c4cccc(S(=O)(=O)[O-])c4F)c4ccc([nH]4)c(-c4cccc(S(=O)(=O)[O-])c4F)c4nc(c(-c5cccc(S(=O)(=O)[O-])c5F)c5ccc2[nH]5)C=C4)C=C3)cc1
REMARK SMILES IDX 20 1 19 2 17 3 18 4 4 6 3 7 2 8 1 9 5 10 6 11 7 12 8 13 9 14
REMARK SMILES IDX 15 15 11 16 14 17 16 18 12 19 10 21 13 23 21 26 22 27 23 28
REMARK SMILES IDX 24 29 25 30 26 32 27 33 28 34 89 35 29 36 88 37 30 38 31 39
REMARK SMILES IDX 32 40 82 41 33 42 87 43 81 44 83 45 34 46 86 47 80 48 79 49
REMARK SMILES IDX 35 51 67 52 47 53 66 54 48 55 51 56 65 57 84 58 49 59 50 60
REMARK SMILES IDX 64 62 85 63 52 64 36 65 37 66 45 67 38 68 40 69 46 70 39 71
REMARK SMILES IDX 41 72 42 73 43 74 44 75 68 76 69 77 77 78 70 79 72 80 78 81
REMARK SMILES IDX 71 82 73 83 74 84 75 85 76 86 53 87 54 88 62 89 55 90 57 91
REMARK SMILES IDX 63 92 56 93 58 94 59 95 60 96 61 97
REMARK H PARENT 19 5 14 20 10 22 13 24 13 25 24 31 83 50 51 61
REMARK Flexibility Score: inf
ROOT
ATOM      1  C   UNL     1       0.257  -2.626  -5.122  1.00  0.00     0.116 C 
ENDROOT
BRANCH   1   2
ATOM      2  N   UNL     1       1.193  -3.209  -4.188  1.00  0.00    -0.356 N 
ATOM      3  C   UNL     1       1.402  -3.020  -2.863  1.00  0.00     0.223 C 
ATOM      4  O   UNL     1       2.327  -3.668  -2.358  1.00  0.00    -0.275 OA
ATOM      5  H   UNL     1       1.796  -3.873  -4.594  1.00  0.00     0.163 HD
BRANCH   3   6
ATOM      6  C   UNL     1       0.573  -2.085  -1.971  1.00  0.00     0.078 C 
BRANCH   6   7
ATOM      7  C   UNL     1      -0.926  -2.407  -1.893  1.00  0.00     0.013 C 
BRANCH   7   8
ATOM      8  C   UNL     1      -1.326  -3.213  -0.645  1.00  0.00    -0.003 C 
ATOM      9  C   UNL     1      -1.108  -2.466   0.666  1.00  0.00     0.004 C 
ENDBRANCH   7   8
ENDBRANCH   6   7
BRANCH   6  10
ATOM     10  C   UNL     1       0.930  -0.584  -2.016  1.00  0.00     0.014 C 
BRANCH  10  11
ATOM     11  C   UNL     1       0.642   0.295  -3.232  1.00  0.00     0.006 C 
BRANCH  11  12
ATOM     12  C   UNL     1      -0.810   0.600  -3.641  1.00  0.00     0.047 C 
BRANCH  12  13
ATOM     13  C   UNL     1      -1.685   1.298  -2.633  1.00  0.00     0.079 A 
ATOM     14  C   UNL     1      -2.907   0.913  -2.210  1.00  0.00     0.222 A 
ATOM     15  C   UNL     1      -1.194   2.585  -2.082  1.00  0.00     0.259 A 
ATOM     16  N   UNL     1      -3.629   1.557  -1.245  1.00  0.00    -0.179 NA
ATOM     17  N   UNL     1      -1.944   3.139  -1.094  1.00  0.00    -0.292 N 
ATOM     18  O   UNL     1      -0.187   3.148  -2.498  1.00  0.00    -0.269 OA
ATOM     19  C   UNL     1      -3.137   2.624  -0.715  1.00  0.00     0.203 A 
ATOM     20  H   UNL     1      -1.608   3.944  -0.637  1.00  0.00     0.173 HD
BRANCH  14  21
ATOM     21  O   UNL     1      -3.551  -0.197  -2.716  1.00  0.00    -0.493 OA
ATOM     22  H   UNL     1      -3.142  -0.712  -3.384  1.00  0.00     0.295 HD
ENDBRANCH  14  21
BRANCH  19  23
ATOM     23  N   UNL     1      -3.811   3.281   0.250  1.00  0.00    -0.369 N 
ATOM     24  H   UNL     1      -4.683   2.944   0.558  1.00  0.00     0.159 HD
ATOM     25  H   UNL     1      -3.431   4.098   0.646  1.00  0.00     0.159 HD
ENDBRANCH  19  23
ENDBRANCH  12  13
ENDBRANCH  11  12
ENDBRANCH  10  11
ENDBRANCH   6  10
ENDBRANCH   3   6
ENDBRANCH   1   2
BRANCH   1  26
ATOM     26  C   UNL     1       0.948  -1.634  -6.060  1.00  0.00     0.023 C 
BRANCH  26  27
ATOM     27  C   UNL     1       1.305  -2.176  -7.436  1.00  0.00     0.023 C 
BRANCH  27  28
ATOM     28  C   UNL     1       0.117  -2.592  -8.287  1.00  0.00     0.116 C 
BRANCH  28  29
ATOM     29  N   UNL     1      -0.830  -1.517  -8.561  1.00  0.00    -0.352 N 
ATOM     30  C   UNL     1      -1.574  -1.330  -9.709  1.00  0.00     0.251 C 
ATOM     31  H   UNL     1      -0.953  -0.850  -7.847  1.00  0.00     0.163 HD
ATOM     32  O   UNL     1      -2.296  -0.357  -9.844  1.00  0.00    -0.269 OA
BRANCH  30  33
ATOM     33  C   UNL     1      -1.424  -2.325 -10.792  1.00  0.00     0.039 A 
ATOM     34  C   UNL     1      -0.987  -1.899 -12.048  1.00  0.00     0.014 A 
ATOM     35  C   UNL     1      -1.570  -3.684 -10.506  1.00  0.00     0.014 A 
ATOM     36  C   UNL     1      -0.607  -2.851 -12.997  1.00  0.00     0.010 A 
ATOM     37  C   UNL     1      -1.107  -4.622 -11.418  1.00  0.00     0.010 A 
ATOM     38  C   UNL     1      -0.618  -4.216 -12.670  1.00  0.00    -0.014 A 
BRANCH  38  39
ATOM     39  C   UNL     1      -0.131  -5.256 -13.610  1.00  0.00     0.031 A 
ATOM     40  C   UNL     1      -1.080  -6.323 -14.082  1.00  0.00     0.074 A 
ATOM     41  C   UNL     1       1.174  -5.311 -13.943  1.00  0.00     0.049 A 
ATOM     42  N   UNL     1      -0.831  -7.403 -14.772  1.00  0.00    -0.248 NA
ATOM     43  C   UNL     1      -2.493  -6.172 -13.691  1.00  0.00     0.031 C 
ATOM     44  C   UNL     1       2.204  -4.370 -13.497  1.00  0.00     0.029 A 
ATOM     45  N   UNL     1       1.864  -6.214 -14.713  1.00  0.00    -0.354 N 
ATOM     46  C   UNL     1      -2.042  -8.079 -14.862  1.00  0.00     0.074 A 
ATOM     47  C   UNL     1      -3.015  -7.310 -14.120  1.00  0.00     0.031 C 
ATOM     48  C   UNL     1       3.390  -4.739 -14.009  1.00  0.00     0.029 A 
ATOM     49  C   UNL     1       3.214  -5.959 -14.790  1.00  0.00     0.049 A 
ATOM     50  H   UNL     1       1.433  -6.973 -15.168  1.00  0.00     0.167 HD
ATOM     51  C   UNL     1      -2.327  -9.218 -15.535  1.00  0.00     0.034 A 
ATOM     52  C   UNL     1       4.198  -6.636 -15.417  1.00  0.00     0.034 A 
ATOM     53  C   UNL     1      -1.369  -9.944 -16.320  1.00  0.00     0.049 A 
ATOM     54  C   UNL     1       3.844  -7.873 -16.200  1.00  0.00     0.074 A 
ATOM     55  C   UNL     1      -1.567 -11.080 -17.084  1.00  0.00     0.029 A 
ATOM     56  N   UNL     1      -0.033  -9.597 -16.456  1.00  0.00    -0.354 N 
ATOM     57  N   UNL     1       2.672  -8.439 -16.362  1.00  0.00    -0.248 NA
ATOM     58  C   UNL     1       4.938  -8.544 -16.917  1.00  0.00     0.031 C 
ATOM     59  C   UNL     1      -0.350 -11.422 -17.680  1.00  0.00     0.029 A 
ATOM     60  C   UNL     1       0.602 -10.488 -17.303  1.00  0.00     0.049 A 
ATOM     61  H   UNL     1       0.399  -8.831 -16.015  1.00  0.00     0.167 HD
ATOM     62  C   UNL     1       2.880  -9.507 -17.228  1.00  0.00     0.074 A 
ATOM     63  C   UNL     1       4.287  -9.497 -17.571  1.00  0.00     0.031 C 
ATOM     64  C   UNL     1       1.990 -10.423 -17.685  1.00  0.00     0.034 A 
BRANCH  51  65
ATOM     65  C   UNL     1      -3.753  -9.704 -15.514  1.00  0.00     0.023 A 
ATOM     66  C   UNL     1      -4.736  -8.985 -16.225  1.00  0.00     0.012 A 
ATOM     67  C   UNL     1      -4.111 -10.893 -14.850  1.00  0.00     0.148 A 
ATOM     68  C   UNL     1      -6.058  -9.424 -16.251  1.00  0.00     0.002 A 
ATOM     69  C   UNL     1      -5.422 -11.350 -14.921  1.00  0.00     0.091 A 
ATOM     70  F   UNL     1      -3.168 -11.549 -14.159  1.00  0.00    -0.205 F 
ATOM     71  C   UNL     1      -6.398 -10.612 -15.610  1.00  0.00     0.022 A 
BRANCH  69  72
ATOM     72  S   UNL     1      -5.946 -12.911 -14.202  1.00  0.00     0.127 S 
ATOM     73  O   UNL     1      -6.798 -12.458 -13.103  1.00  0.00    -0.237 OA
ATOM     74  O   UNL     1      -6.665 -13.534 -15.313  1.00  0.00    -0.237 OA
ATOM     75  O   UNL     1      -4.727 -13.600 -13.803  1.00  0.00    -0.744 OA
ENDBRANCH  69  72
ENDBRANCH  51  65
BRANCH  52  76
ATOM     76  C   UNL     1       5.589  -6.099 -15.411  1.00  0.00     0.023 A 
ATOM     77  C   UNL     1       6.119  -5.562 -16.601  1.00  0.00     0.012 A 
ATOM     78  C   UNL     1       6.369  -6.063 -14.238  1.00  0.00     0.148 A 
ATOM     79  C   UNL     1       7.405  -5.023 -16.631  1.00  0.00     0.002 A 
ATOM     80  C   UNL     1       7.628  -5.473 -14.261  1.00  0.00     0.091 A 
ATOM     81  F   UNL     1       5.854  -6.589 -13.117  1.00  0.00    -0.205 F 
ATOM     82  C   UNL     1       8.155  -4.967 -15.460  1.00  0.00     0.022 A 
BRANCH  80  83
ATOM     83  S   UNL     1       8.608  -5.227 -12.775  1.00  0.00     0.127 S 
ATOM     84  O   UNL     1       9.710  -6.162 -12.984  1.00  0.00    -0.237 OA
ATOM     85  O   UNL     1       8.969  -3.813 -12.883  1.00  0.00    -0.237 OA
ATOM     86  O   UNL     1       7.718  -5.535 -11.663  1.00  0.00    -0.744 OA
ENDBRANCH  80  83
ENDBRANCH  52  76
BRANCH  64  87
ATOM     87  C   UNL     1       2.489 -11.475 -18.639  1.00  0.00     0.023 A 
ATOM     88  C   UNL     1       3.294 -12.527 -18.161  1.00  0.00     0.012 A 
ATOM     89  C   UNL     1       2.075 -11.477 -19.986  1.00  0.00     0.148 A 
ATOM     90  C   UNL     1       3.702 -13.551 -19.015  1.00  0.00     0.002 A 
ATOM     91  C   UNL     1       2.444 -12.527 -20.819  1.00  0.00     0.091 A 
ATOM     92  F   UNL     1       1.326 -10.457 -20.428  1.00  0.00    -0.205 F 
ATOM     93  C   UNL     1       3.266 -13.559 -20.338  1.00  0.00     0.022 A 
BRANCH  91  94
ATOM     94  S   UNL     1       1.838 -12.668 -22.504  1.00  0.00     0.127 S 
ATOM     95  O   UNL     1       2.999 -12.230 -23.276  1.00  0.00    -0.237 OA
ATOM     96  O   UNL     1       1.537 -14.096 -22.612  1.00  0.00    -0.237 OA
ATOM     97  O   UNL     1       0.668 -11.802 -22.578  1.00  0.00    -0.744 OA
ENDBRANCH  91  94
ENDBRANCH  64  87
ENDBRANCH  38  39
ENDBRANCH  30  33
ENDBRANCH  28  29
ENDBRANCH  27  28
ENDBRANCH  26  27
ENDBRANCH   1  26
TORSDOF 22
