REMARK SMILES COc1cc(-c2ccc(NC(=O)CCC(=O)NCCCCNC(=O)c3ccc(-c4c5nc(c(-c6cccc(S(=O)(=O)[O-])c6F)c6ccc([nH]6)c(-c6cccc(S(=O)(=O)[O-])c6F)c6nc(c(-c7cccc(S(=O)(=O)[O-])c7F)c7ccc4[nH]7)C=C6)C=C5)cc3)c(OC)c2)ccc1N
REMARK SMILES IDX 18 1 17 2 15 3 16 4 14 6 13 7 11 8 10 9 12 11 9 12 6 13 7 14
REMARK SMILES IDX 91 15 8 16 88 17 5 18 3 19 4 20 94 21 93 22 92 23 2 24 1 25
REMARK SMILES IDX 95 26 89 29 90 30 19 31 20 32 21 33 22 34 23 35 24 37 25 38
REMARK SMILES IDX 26 39 87 40 27 41 86 42 28 43 29 44 30 45 80 46 31 47 85 48
REMARK SMILES IDX 79 49 81 50 32 51 84 52 78 53 77 54 33 56 65 57 45 58 64 59
REMARK SMILES IDX 46 60 49 61 63 62 82 63 47 64 48 65 62 67 83 68 50 69 34 70
REMARK SMILES IDX 35 71 43 72 36 73 38 74 44 75 37 76 39 77 40 78 41 79 42 80
REMARK SMILES IDX 66 81 67 82 75 83 68 84 70 85 76 86 69 87 71 88 72 89 73 90
REMARK SMILES IDX 74 91 51 92 52 93 60 94 53 95 55 96 61 97 54 98 56 99 57 100
REMARK SMILES IDX 58 101 59 102
REMARK H PARENT 17 5 10 10 95 27 95 28 22 36 81 55 49 66
REMARK Flexibility Score: inf
ROOT
ATOM      1  C   UNL     1      -5.011  -0.740  -7.702  1.00  0.00     0.116 C 
ENDROOT
BRANCH   1   2
ATOM      2  N   UNL     1      -4.710  -0.270  -6.296  1.00  0.00    -0.356 N 
ATOM      3  C   UNL     1      -4.925   0.762  -5.387  1.00  0.00     0.220 C 
ATOM      4  O   UNL     1      -4.671   0.409  -4.217  1.00  0.00    -0.275 OA
ATOM      5  H   UNL     1      -4.151  -0.952  -5.859  1.00  0.00     0.163 HD
BRANCH   3   6
ATOM      6  C   UNL     1      -5.408   2.317  -5.566  1.00  0.00     0.110 C 
BRANCH   6   7
ATOM      7  C   UNL     1      -4.450   3.652  -5.805  1.00  0.00     0.110 C 
BRANCH   7   8
ATOM      8  C   UNL     1      -4.092   4.477  -7.194  1.00  0.00     0.224 C 
ATOM      9  N   UNL     1      -3.013   4.168  -8.043  1.00  0.00    -0.323 N 
ATOM     10  H   UNL     1      -2.780   4.818  -8.745  1.00  0.00     0.170 HD
ATOM     11  O   UNL     1      -4.794   5.443  -7.529  1.00  0.00    -0.275 OA
BRANCH   9  12
ATOM     12  C   UNL     1      -2.250   3.001  -7.955  1.00  0.00     0.083 A 
ATOM     13  C   UNL     1      -0.665   1.442  -6.300  1.00  0.00    -0.014 A 
ATOM     14  C   UNL     1      -0.141   2.004  -7.480  1.00  0.00     0.011 A 
ATOM     15  C   UNL     1      -2.061   1.328  -6.323  1.00  0.00     0.057 A 
ATOM     16  C   UNL     1      -0.923   2.849  -8.291  1.00  0.00     0.031 A 
ATOM     17  C   UNL     1      -2.840   1.975  -7.315  1.00  0.00     0.142 A 
BRANCH  13  18
ATOM     18  C   UNL     1       0.217   1.116  -5.110  1.00  0.00    -0.014 A 
ATOM     19  C   UNL     1       0.696   0.270  -2.810  1.00  0.00     0.142 A 
ATOM     20  C   UNL     1      -0.186   0.460  -3.920  1.00  0.00     0.057 A 
ATOM     21  C   UNL     1       2.038   0.673  -2.892  1.00  0.00     0.074 A 
ATOM     22  C   UNL     1       2.419   1.398  -4.015  1.00  0.00     0.030 A 
ATOM     23  C   UNL     1       1.539   1.603  -5.087  1.00  0.00     0.011 A 
BRANCH  19  24
ATOM     24  O   UNL     1       0.156  -0.392  -1.726  1.00  0.00    -0.495 OA
ATOM     25  C   UNL     1       0.466   0.162  -0.444  1.00  0.00     0.278 C 
ENDBRANCH  19  24
BRANCH  21  26
ATOM     26  N   UNL     1       2.990   0.466  -1.891  1.00  0.00    -0.396 N 
ATOM     27  H   UNL     1       2.752  -0.043  -1.083  1.00  0.00     0.156 HD
ATOM     28  H   UNL     1       3.898   0.831  -1.993  1.00  0.00     0.156 HD
ENDBRANCH  21  26
ENDBRANCH  13  18
BRANCH  17  29
ATOM     29  O   UNL     1      -4.182   1.796  -7.500  1.00  0.00    -0.495 OA
ATOM     30  C   UNL     1      -5.112   2.349  -8.490  1.00  0.00     0.278 C 
ENDBRANCH  17  29
ENDBRANCH   9  12
ENDBRANCH   7   8
ENDBRANCH   6   7
ENDBRANCH   3   6
ENDBRANCH   1   2
BRANCH   1  31
ATOM     31  C   UNL     1      -4.236  -0.387  -9.029  1.00  0.00     0.023 C 
BRANCH  31  32
ATOM     32  C   UNL     1      -2.831  -0.869  -9.349  1.00  0.00     0.023 C 
BRANCH  32  33
ATOM     33  C   UNL     1      -2.809  -2.158 -10.137  1.00  0.00     0.116 C 
BRANCH  33  34
ATOM     34  N   UNL     1      -3.548  -2.106 -11.406  1.00  0.00    -0.352 N 
ATOM     35  C   UNL     1      -3.238  -2.666 -12.621  1.00  0.00     0.251 C 
ATOM     36  H   UNL     1      -4.389  -1.594 -11.382  1.00  0.00     0.163 HD
ATOM     37  O   UNL     1      -3.962  -2.463 -13.600  1.00  0.00    -0.269 OA
BRANCH  35  38
ATOM     38  C   UNL     1      -2.012  -3.471 -12.753  1.00  0.00     0.039 A 
ATOM     39  C   UNL     1      -1.194  -3.311 -13.873  1.00  0.00     0.014 A 
ATOM     40  C   UNL     1      -1.629  -4.323 -11.718  1.00  0.00     0.014 A 
ATOM     41  C   UNL     1       0.046  -3.948 -13.909  1.00  0.00     0.010 A 
ATOM     42  C   UNL     1      -0.340  -4.819 -11.684  1.00  0.00     0.010 A 
ATOM     43  C   UNL     1       0.500  -4.671 -12.794  1.00  0.00    -0.014 A 
BRANCH  43  44
ATOM     44  C   UNL     1       1.827  -5.328 -12.766  1.00  0.00     0.031 A 
ATOM     45  C   UNL     1       1.912  -6.813 -12.520  1.00  0.00     0.074 A 
ATOM     46  C   UNL     1       2.947  -4.583 -12.857  1.00  0.00     0.049 A 
ATOM     47  N   UNL     1       2.970  -7.564 -12.371  1.00  0.00    -0.248 NA
ATOM     48  C   UNL     1       0.639  -7.544 -12.374  1.00  0.00     0.031 C 
ATOM     49  C   UNL     1       2.990  -3.125 -12.993  1.00  0.00     0.029 A 
ATOM     50  N   UNL     1       4.267  -4.951 -12.824  1.00  0.00    -0.354 N 
ATOM     51  C   UNL     1       2.492  -8.832 -12.065  1.00  0.00     0.074 A 
ATOM     52  C   UNL     1       1.053  -8.741 -11.990  1.00  0.00     0.031 C 
ATOM     53  C   UNL     1       4.270  -2.725 -13.053  1.00  0.00     0.029 A 
ATOM     54  C   UNL     1       5.138  -3.891 -12.922  1.00  0.00     0.049 A 
ATOM     55  H   UNL     1       4.564  -5.886 -12.738  1.00  0.00     0.167 HD
ATOM     56  C   UNL     1       3.183  -9.984 -11.904  1.00  0.00     0.034 A 
ATOM     57  C   UNL     1       6.485  -3.865 -12.903  1.00  0.00     0.034 A 
ATOM     58  C   UNL     1       4.608 -10.077 -12.046  1.00  0.00     0.049 A 
ATOM     59  C   UNL     1       7.230  -5.167 -12.788  1.00  0.00     0.074 A 
ATOM     60  C   UNL     1       5.403 -11.207 -12.010  1.00  0.00     0.029 A 
ATOM     61  N   UNL     1       5.451  -8.996 -12.248  1.00  0.00    -0.354 N 
ATOM     62  N   UNL     1       6.753  -6.382 -12.663  1.00  0.00    -0.248 NA
ATOM     63  C   UNL     1       8.697  -5.100 -12.850  1.00  0.00     0.031 C 
ATOM     64  C   UNL     1       6.734 -10.804 -12.158  1.00  0.00     0.029 A 
ATOM     65  C   UNL     1       6.762  -9.428 -12.327  1.00  0.00     0.049 A 
ATOM     66  H   UNL     1       5.160  -8.058 -12.323  1.00  0.00     0.167 HD
ATOM     67  C   UNL     1       7.857  -7.227 -12.668  1.00  0.00     0.074 A 
ATOM     68  C   UNL     1       9.024  -6.385 -12.831  1.00  0.00     0.031 C 
ATOM     69  C   UNL     1       7.903  -8.576 -12.539  1.00  0.00     0.034 A 
BRANCH  56  70
ATOM     70  C   UNL     1       2.400 -11.237 -11.612  1.00  0.00     0.023 A 
ATOM     71  C   UNL     1       1.563 -11.790 -12.604  1.00  0.00     0.012 A 
ATOM     72  C   UNL     1       2.522 -11.891 -10.370  1.00  0.00     0.148 A 
ATOM     73  C   UNL     1       0.827 -12.947 -12.351  1.00  0.00     0.002 A 
ATOM     74  C   UNL     1       1.827 -13.073 -10.145  1.00  0.00     0.091 A 
ATOM     75  F   UNL     1       3.303 -11.339  -9.431  1.00  0.00    -0.205 F 
ATOM     76  C   UNL     1       0.968 -13.594 -11.127  1.00  0.00     0.022 A 
BRANCH  74  77
ATOM     77  S   UNL     1       2.006 -14.029  -8.636  1.00  0.00     0.127 S 
ATOM     78  O   UNL     1       0.690 -13.857  -8.020  1.00  0.00    -0.237 OA
ATOM     79  O   UNL     1       2.265 -15.372  -9.155  1.00  0.00    -0.237 OA
ATOM     80  O   UNL     1       3.117 -13.432  -7.909  1.00  0.00    -0.744 OA
ENDBRANCH  74  77
ENDBRANCH  56  70
BRANCH  57  81
ATOM     81  C   UNL     1       7.209  -2.572 -13.063  1.00  0.00     0.023 A 
ATOM     82  C   UNL     1       7.926  -2.320 -14.249  1.00  0.00     0.012 A 
ATOM     83  C   UNL     1       7.168  -1.581 -12.063  1.00  0.00     0.148 A 
ATOM     84  C   UNL     1       8.620  -1.122 -14.421  1.00  0.00     0.002 A 
ATOM     85  C   UNL     1       7.814  -0.366 -12.265  1.00  0.00     0.091 A 
ATOM     86  F   UNL     1       6.486  -1.841 -10.939  1.00  0.00    -0.205 F 
ATOM     87  C   UNL     1       8.556  -0.142 -13.434  1.00  0.00     0.022 A 
BRANCH  85  88
ATOM     88  S   UNL     1       7.675   1.002 -11.109  1.00  0.00     0.127 S 
ATOM     89  O   UNL     1       9.027   1.067 -10.559  1.00  0.00    -0.237 OA
ATOM     90  O   UNL     1       7.315   2.110 -11.995  1.00  0.00    -0.237 OA
ATOM     91  O   UNL     1       6.628   0.622 -10.170  1.00  0.00    -0.744 OA
ENDBRANCH  85  88
ENDBRANCH  57  81
BRANCH  69  92
ATOM     92  C   UNL     1       9.253  -9.238 -12.611  1.00  0.00     0.023 A 
ATOM     93  C   UNL     1      10.164  -9.101 -11.546  1.00  0.00     0.012 A 
ATOM     94  C   UNL     1       9.581 -10.066 -13.703  1.00  0.00     0.148 A 
ATOM     95  C   UNL     1      11.397  -9.750 -11.584  1.00  0.00     0.002 A 
ATOM     96  C   UNL     1      10.787 -10.753 -13.708  1.00  0.00     0.091 A 
ATOM     97  F   UNL     1       8.704 -10.169 -14.713  1.00  0.00    -0.205 F 
ATOM     98  C   UNL     1      11.703 -10.585 -12.656  1.00  0.00     0.022 A 
BRANCH  96  99
ATOM     99  S   UNL     1      11.220 -11.928 -14.994  1.00  0.00     0.127 S 
ATOM    100  O   UNL     1      12.284 -11.217 -15.701  1.00  0.00    -0.237 OA
ATOM    101  O   UNL     1      11.670 -13.084 -14.217  1.00  0.00    -0.237 OA
ATOM    102  O   UNL     1      10.003 -12.153 -15.762  1.00  0.00    -0.744 OA
ENDBRANCH  96  99
ENDBRANCH  69  92
ENDBRANCH  43  44
ENDBRANCH  35  38
ENDBRANCH  33  34
ENDBRANCH  32  33
ENDBRANCH  31  32
ENDBRANCH   1  31
TORSDOF 21
