REMARK SMILES O=C1C[C@@H](c2cccc(O)c2)c2c(c(C(=O)NCCCCNC(=O)c3ccc(-c4c5nc(c(-c6cccc(S(=O)(=O)[O-])c6F)c6ccc([nH]6)c(-c6cccc(S(=O)(=O)[O-])c6F)c6nc(c(-c7cccc(S(=O)(=O)[O-])c7F)c7ccc4[nH]7)C=C6)C=C5)cc3)cn2-c2cccc(C(F)(F)F)c2)N1
REMARK SMILES IDX 20 1 19 2 18 3 17 4 15 5 16 6 14 8 1 9 2 10 3 11 100 12 4 13
REMARK SMILES IDX 13 14 12 16 89 17 88 18 5 19 6 20 11 21 7 22 9 23 8 24 10 25
REMARK SMILES IDX 90 27 91 28 99 29 92 30 94 31 93 32 95 33 96 34 97 35 98 36
REMARK SMILES IDX 21 37 22 38 23 39 24 41 25 42 26 43 87 44 27 45 86 46 28 47
REMARK SMILES IDX 29 48 30 49 80 50 31 51 85 52 79 53 81 54 32 55 84 56 78 57
REMARK SMILES IDX 77 58 33 60 65 61 45 62 64 63 46 64 49 65 63 66 82 67 47 68
REMARK SMILES IDX 48 69 62 71 83 72 50 73 34 74 35 75 43 76 36 77 38 78 44 79
REMARK SMILES IDX 37 80 39 81 40 82 41 83 42 84 66 85 67 86 75 87 68 88 70 89
REMARK SMILES IDX 76 90 69 91 71 92 72 93 73 94 74 95 51 96 52 97 60 98 53 99
REMARK SMILES IDX 55 100 61 101 54 102 56 103 57 104 58 105 59 106
REMARK H PARENT 17 7 100 15 10 26 22 40 81 59 49 70
REMARK Flexibility Score: inf
ROOT
ATOM      1  C   UNL     1       6.038  -5.310   5.435  1.00  0.00     0.023 C 
ENDROOT
BRANCH   1   2
ATOM      2  C   UNL     1       6.198  -3.854   4.963  1.00  0.00     0.023 C 
BRANCH   2   3
ATOM      3  C   UNL     1       6.710  -3.696   3.527  1.00  0.00     0.116 C 
BRANCH   3   4
ATOM      4  N   UNL     1       5.665  -3.904   2.548  1.00  0.00    -0.352 N 
ATOM      5  C   UNL     1       4.830  -3.067   1.856  1.00  0.00     0.254 C 
ATOM      6  O   UNL     1       3.968  -3.605   1.157  1.00  0.00    -0.269 OA
ATOM      7  H   UNL     1       5.524  -4.854   2.331  1.00  0.00     0.163 HD
BRANCH   5   8
ATOM      8  C   UNL     1       4.885  -1.608   1.944  1.00  0.00     0.081 A 
ATOM      9  O   UNL     1       1.379  -0.292  -1.063  1.00  0.00    -0.275 OA
ATOM     10  C   UNL     1       2.371  -0.035  -0.384  1.00  0.00     0.225 C 
ATOM     11  C   UNL     1       2.972   1.366  -0.351  1.00  0.00     0.115 C 
ATOM     12  N   UNL     1       3.047  -1.011   0.308  1.00  0.00    -0.324 N 
ATOM     13  C   UNL     1       3.574   1.765   1.011  1.00  0.00     0.078 C 
ATOM     14  C   UNL     1       4.034  -0.720   1.224  1.00  0.00     0.076 A 
ATOM     15  H   UNL     1       2.816  -1.954   0.144  1.00  0.00     0.170 HD
ATOM     16  C   UNL     1       4.285   0.581   1.598  1.00  0.00     0.055 A 
ATOM     17  N   UNL     1       5.317   0.555   2.508  1.00  0.00    -0.317 N 
ATOM     18  C   UNL     1       5.701  -0.766   2.677  1.00  0.00     0.107 A 
BRANCH  13  19
ATOM     19  C   UNL     1       2.510   2.341   1.934  1.00  0.00    -0.035 A 
ATOM     20  C   UNL     1       1.480   1.548   2.469  1.00  0.00     0.005 A 
ATOM     21  C   UNL     1       2.593   3.687   2.326  1.00  0.00     0.050 A 
ATOM     22  C   UNL     1       0.591   2.073   3.408  1.00  0.00     0.004 A 
ATOM     23  C   UNL     1       1.724   4.188   3.288  1.00  0.00     0.115 A 
ATOM     24  C   UNL     1       0.722   3.393   3.834  1.00  0.00     0.046 A 
BRANCH  23  25
ATOM     25  O   UNL     1       1.923   5.468   3.717  1.00  0.00    -0.508 OA
ATOM     26  H   UNL     1       1.357   5.838   4.365  1.00  0.00     0.293 HD
ENDBRANCH  23  25
ENDBRANCH  13  19
BRANCH  17  27
ATOM     27  C   UNL     1       5.866   1.594   3.296  1.00  0.00     0.046 A 
ATOM     28  C   UNL     1       7.257   1.717   3.392  1.00  0.00     0.026 A 
ATOM     29  C   UNL     1       5.036   2.344   4.132  1.00  0.00     0.039 A 
ATOM     30  C   UNL     1       7.812   2.628   4.290  1.00  0.00     0.003 A 
ATOM     31  C   UNL     1       5.586   3.253   5.049  1.00  0.00     0.058 A 
ATOM     32  C   UNL     1       6.982   3.394   5.110  1.00  0.00     0.013 A 
BRANCH  31  33
ATOM     33  C   UNL     1       4.707   4.043   5.986  1.00  0.00     0.416 C 
ATOM     34  F   UNL     1       5.098   3.923   7.288  1.00  0.00    -0.166 F 
ATOM     35  F   UNL     1       4.724   5.380   5.723  1.00  0.00    -0.166 F 
ATOM     36  F   UNL     1       3.395   3.677   5.971  1.00  0.00    -0.166 F 
ENDBRANCH  31  33
ENDBRANCH  17  27
ENDBRANCH   5   8
ENDBRANCH   3   4
ENDBRANCH   2   3
ENDBRANCH   1   2
BRANCH   1  37
ATOM     37  C   UNL     1       7.332  -6.120   5.484  1.00  0.00     0.116 C 
BRANCH  37  38
ATOM     38  N   UNL     1       8.329  -5.554   6.399  1.00  0.00    -0.352 N 
ATOM     39  C   UNL     1       9.666  -5.884   6.499  1.00  0.00     0.251 C 
ATOM     40  H   UNL     1       8.007  -4.856   7.014  1.00  0.00     0.163 HD
ATOM     41  O   UNL     1      10.302  -5.652   7.528  1.00  0.00    -0.269 OA
BRANCH  39  42
ATOM     42  C   UNL     1      10.328  -6.495   5.337  1.00  0.00     0.039 A 
ATOM     43  C   UNL     1      11.181  -7.594   5.461  1.00  0.00     0.014 A 
ATOM     44  C   UNL     1      10.024  -5.959   4.089  1.00  0.00     0.014 A 
ATOM     45  C   UNL     1      11.659  -8.201   4.302  1.00  0.00     0.010 A 
ATOM     46  C   UNL     1      10.358  -6.651   2.956  1.00  0.00     0.010 A 
ATOM     47  C   UNL     1      11.225  -7.733   3.052  1.00  0.00    -0.014 A 
BRANCH  47  48
ATOM     48  C   UNL     1      11.572  -8.438   1.825  1.00  0.00     0.031 A 
ATOM     49  C   UNL     1      11.167  -9.870   1.799  1.00  0.00     0.074 A 
ATOM     50  C   UNL     1      11.999  -7.789   0.719  1.00  0.00     0.049 A 
ATOM     51  N   UNL     1      11.940 -10.905   1.773  1.00  0.00    -0.248 NA
ATOM     52  C   UNL     1       9.741 -10.198   1.968  1.00  0.00     0.031 C 
ATOM     53  C   UNL     1      12.113  -6.339   0.508  1.00  0.00     0.029 A 
ATOM     54  N   UNL     1      12.263  -8.288  -0.518  1.00  0.00    -0.354 N 
ATOM     55  C   UNL     1      11.091 -12.004   1.668  1.00  0.00     0.074 A 
ATOM     56  C   UNL     1       9.775 -11.531   2.010  1.00  0.00     0.031 C 
ATOM     57  C   UNL     1      12.140  -6.079  -0.817  1.00  0.00     0.029 A 
ATOM     58  C   UNL     1      12.223  -7.336  -1.534  1.00  0.00     0.049 A 
ATOM     59  H   UNL     1      12.465  -9.237  -0.681  1.00  0.00     0.167 HD
ATOM     60  C   UNL     1      11.488 -13.151   1.049  1.00  0.00     0.034 A 
ATOM     61  C   UNL     1      12.191  -7.574  -2.868  1.00  0.00     0.034 A 
ATOM     62  C   UNL     1      12.917 -13.186   0.866  1.00  0.00     0.049 A 
ATOM     63  C   UNL     1      12.697  -8.951  -3.075  1.00  0.00     0.074 A 
ATOM     64  C   UNL     1      14.005 -13.076   1.711  1.00  0.00     0.029 A 
ATOM     65  N   UNL     1      13.395 -12.921  -0.396  1.00  0.00    -0.354 N 
ATOM     66  N   UNL     1      13.923  -9.309  -2.811  1.00  0.00    -0.248 NA
ATOM     67  C   UNL     1      11.722 -10.029  -3.121  1.00  0.00     0.031 C 
ATOM     68  C   UNL     1      14.928 -12.252   1.002  1.00  0.00     0.029 A 
ATOM     69  C   UNL     1      14.391 -11.990  -0.261  1.00  0.00     0.049 A 
ATOM     70  H   UNL     1      13.081 -13.325  -1.237  1.00  0.00     0.167 HD
ATOM     71  C   UNL     1      13.791 -10.548  -2.197  1.00  0.00     0.074 A 
ATOM     72  C   UNL     1      12.429 -10.984  -2.510  1.00  0.00     0.031 C 
ATOM     73  C   UNL     1      14.675 -10.967  -1.244  1.00  0.00     0.034 A 
BRANCH  60  74
ATOM     74  C   UNL     1      10.573 -14.078   0.285  1.00  0.00     0.023 A 
ATOM     75  C   UNL     1      11.090 -15.331  -0.113  1.00  0.00     0.012 A 
ATOM     76  C   UNL     1       9.338 -13.688  -0.280  1.00  0.00     0.148 A 
ATOM     77  C   UNL     1      10.427 -16.135  -1.048  1.00  0.00     0.002 A 
ATOM     78  C   UNL     1       8.638 -14.530  -1.136  1.00  0.00     0.091 A 
ATOM     79  F   UNL     1       8.890 -12.440  -0.111  1.00  0.00    -0.205 F 
ATOM     80  C   UNL     1       9.193 -15.741  -1.549  1.00  0.00     0.022 A 
BRANCH  78  81
ATOM     81  S   UNL     1       7.009 -14.093  -1.755  1.00  0.00     0.127 S 
ATOM     82  O   UNL     1       7.304 -13.755  -3.144  1.00  0.00    -0.237 OA
ATOM     83  O   UNL     1       6.272 -15.342  -1.562  1.00  0.00    -0.237 OA
ATOM     84  O   UNL     1       6.554 -12.998  -0.907  1.00  0.00    -0.744 OA
ENDBRANCH  78  81
ENDBRANCH  60  74
BRANCH  61  85
ATOM     85  C   UNL     1      11.505  -6.812  -3.938  1.00  0.00     0.023 A 
ATOM     86  C   UNL     1      11.879  -6.994  -5.285  1.00  0.00     0.012 A 
ATOM     87  C   UNL     1      10.306  -6.111  -3.673  1.00  0.00     0.148 A 
ATOM     88  C   UNL     1      11.073  -6.521  -6.329  1.00  0.00     0.002 A 
ATOM     89  C   UNL     1       9.516  -5.632  -4.713  1.00  0.00     0.091 A 
ATOM     90  F   UNL     1       9.891  -5.999  -2.404  1.00  0.00    -0.205 F 
ATOM     91  C   UNL     1       9.889  -5.846  -6.045  1.00  0.00     0.022 A 
BRANCH  89  92
ATOM     92  S   UNL     1       7.970  -4.764  -4.410  1.00  0.00     0.127 S 
ATOM     93  O   UNL     1       8.091  -3.610  -5.302  1.00  0.00    -0.237 OA
ATOM     94  O   UNL     1       6.983  -5.758  -4.821  1.00  0.00    -0.237 OA
ATOM     95  O   UNL     1       7.980  -4.426  -2.992  1.00  0.00    -0.744 OA
ENDBRANCH  89  92
ENDBRANCH  61  85
BRANCH  73  96
ATOM     96  C   UNL     1      15.930 -10.157  -1.016  1.00  0.00     0.023 A 
ATOM     97  C   UNL     1      15.901  -8.815  -0.579  1.00  0.00     0.012 A 
ATOM     98  C   UNL     1      17.165 -10.825  -1.056  1.00  0.00     0.148 A 
ATOM     99  C   UNL     1      17.075  -8.152  -0.209  1.00  0.00     0.002 A 
ATOM    100  C   UNL     1      18.324 -10.179  -0.642  1.00  0.00     0.091 A 
ATOM    101  F   UNL     1      17.181 -12.101  -1.469  1.00  0.00    -0.205 F 
ATOM    102  C   UNL     1      18.286  -8.839  -0.227  1.00  0.00     0.022 A 
BRANCH 100 103
ATOM    103  S   UNL     1      19.887 -11.050  -0.520  1.00  0.00     0.127 S 
ATOM    104  O   UNL     1      20.614 -10.536  -1.679  1.00  0.00    -0.237 OA
ATOM    105  O   UNL     1      20.401 -10.596   0.774  1.00  0.00    -0.237 OA
ATOM    106  O   UNL     1      19.559 -12.470  -0.563  1.00  0.00    -0.744 OA
ENDBRANCH 100 103
ENDBRANCH  73  96
ENDBRANCH  47  48
ENDBRANCH  39  42
ENDBRANCH  37  38
ENDBRANCH   1  37
TORSDOF 18
