REMARK SMILES CC(C)[C@H]([NH2+]C[C@H]1CC[C@@H](C(=O)NCCCCNC(=O)c2ccc(-c3c4nc(c(-c5cccc(S(=O)(=O)[O-])c5F)c5ccc([nH]5)c(-c5cccc(S(=O)(=O)[O-])c5F)c5nc(c(-c6cccc(S(=O)(=O)[O-])c6F)c6ccc3[nH]6)C=C5)C=C4)cc2)CC1)c1ccccc1
REMARK SMILES IDX 15 1 14 2 13 3 11 4 12 5 10 7 7 8 8 9 85 10 9 11 84 12 6 13
REMARK SMILES IDX 5 14 4 17 2 18 1 19 3 20 86 21 87 22 91 23 88 24 90 25 89 26
REMARK SMILES IDX 16 27 17 28 18 29 19 30 20 32 21 33 22 34 83 35 23 36 82 37
REMARK SMILES IDX 24 38 25 39 26 40 76 41 27 42 81 43 75 44 77 45 28 46 80 47
REMARK SMILES IDX 74 48 73 49 29 51 61 52 41 53 60 54 42 55 45 56 59 57 78 58
REMARK SMILES IDX 43 59 44 60 58 62 79 63 46 64 30 65 31 66 39 67 32 68 34 69
REMARK SMILES IDX 40 70 33 71 35 72 36 73 37 74 38 75 62 76 63 77 71 78 64 79
REMARK SMILES IDX 66 80 72 81 65 82 67 83 68 84 69 85 70 86 47 87 48 88 56 89
REMARK SMILES IDX 49 90 51 91 57 92 50 93 52 94 53 95 54 96 55 97
REMARK H PARENT 13 6 5 15 5 16 18 31 77 50 45 61
REMARK Flexibility Score: inf
ROOT
ATOM      1  C   UNL     1       1.594  -2.940   2.522  1.00  0.00     0.023 C 
ENDROOT
BRANCH   1   2
ATOM      2  C   UNL     1       2.256  -1.766   3.241  1.00  0.00     0.116 C 
BRANCH   2   3
ATOM      3  N   UNL     1       3.606  -2.050   3.665  1.00  0.00    -0.356 N 
ATOM      4  C   UNL     1       4.810  -1.577   3.263  1.00  0.00     0.223 C 
ATOM      5  O   UNL     1       5.790  -1.989   3.898  1.00  0.00    -0.275 OA
ATOM      6  H   UNL     1       3.663  -2.718   4.386  1.00  0.00     0.163 HD
BRANCH   4   7
ATOM      7  C   UNL     1       5.040  -0.591   2.105  1.00  0.00     0.078 C 
ATOM      8  C   UNL     1       2.862   0.684   0.423  1.00  0.00     0.044 C 
ATOM      9  C   UNL     1       3.235   1.242   1.810  1.00  0.00     0.010 C 
ATOM     10  C   UNL     1       3.372  -0.747   0.142  1.00  0.00     0.010 C 
ATOM     11  C   UNL     1       4.608   0.853   2.336  1.00  0.00     0.014 C 
ATOM     12  C   UNL     1       4.738  -1.103   0.702  1.00  0.00     0.014 C 
BRANCH   8  13
ATOM     13  C   UNL     1       1.325   0.681   0.186  1.00  0.00     0.264 C 
BRANCH  13  14
ATOM     14  N   UNL     1       0.632   1.881   0.654  1.00  0.00    -0.340 N 
ATOM     15  H   UNL     1       0.796   1.970   1.657  1.00  0.00     0.346 HD
ATOM     16  H   UNL     1       1.010   2.659   0.113  1.00  0.00     0.346 HD
BRANCH  14  17
ATOM     17  C   UNL     1      -0.844   1.887   0.423  1.00  0.00     0.216 C 
BRANCH  17  18
ATOM     18  C   UNL     1      -1.510   0.670   1.176  1.00  0.00     0.046 C 
ATOM     19  C   UNL     1      -2.301   0.918   2.462  1.00  0.00     0.014 C 
ATOM     20  C   UNL     1      -2.263  -0.204   0.164  1.00  0.00     0.014 C 
ENDBRANCH  17  18
BRANCH  17  21
ATOM     21  C   UNL     1      -1.364   3.321   0.633  1.00  0.00     0.009 A 
ATOM     22  C   UNL     1      -0.570   4.395   0.177  1.00  0.00     0.010 A 
ATOM     23  C   UNL     1      -2.595   3.660   1.210  1.00  0.00     0.010 A 
ATOM     24  C   UNL     1      -0.925   5.728   0.403  1.00  0.00     0.001 A 
ATOM     25  C   UNL     1      -2.938   4.992   1.477  1.00  0.00     0.001 A 
ATOM     26  C   UNL     1      -2.095   6.025   1.088  1.00  0.00     0.000 A 
ENDBRANCH  17  21
ENDBRANCH  14  17
ENDBRANCH  13  14
ENDBRANCH   8  13
ENDBRANCH   4   7
ENDBRANCH   2   3
ENDBRANCH   1   2
BRANCH   1  27
ATOM     27  C   UNL     1       0.757  -3.850   3.419  1.00  0.00     0.023 C 
BRANCH  27  28
ATOM     28  C   UNL     1      -0.458  -3.183   4.064  1.00  0.00     0.116 C 
BRANCH  28  29
ATOM     29  N   UNL     1      -1.417  -2.647   3.112  1.00  0.00    -0.352 N 
ATOM     30  C   UNL     1      -2.784  -2.487   3.253  1.00  0.00     0.251 C 
ATOM     31  H   UNL     1      -1.042  -2.358   2.248  1.00  0.00     0.163 HD
ATOM     32  O   UNL     1      -3.472  -2.122   2.311  1.00  0.00    -0.269 OA
BRANCH  30  33
ATOM     33  C   UNL     1      -3.446  -2.818   4.522  1.00  0.00     0.039 A 
ATOM     34  C   UNL     1      -4.667  -3.492   4.439  1.00  0.00     0.014 A 
ATOM     35  C   UNL     1      -2.859  -2.552   5.758  1.00  0.00     0.014 A 
ATOM     36  C   UNL     1      -5.223  -4.038   5.586  1.00  0.00     0.010 A 
ATOM     37  C   UNL     1      -3.356  -3.183   6.886  1.00  0.00     0.010 A 
ATOM     38  C   UNL     1      -4.518  -3.958   6.795  1.00  0.00    -0.014 A 
BRANCH  38  39
ATOM     39  C   UNL     1      -4.944  -4.773   7.947  1.00  0.00     0.031 A 
ATOM     40  C   UNL     1      -5.402  -4.109   9.204  1.00  0.00     0.074 A 
ATOM     41  C   UNL     1      -4.829  -6.112   7.850  1.00  0.00     0.049 A 
ATOM     42  N   UNL     1      -5.817  -4.658  10.312  1.00  0.00    -0.248 NA
ATOM     43  C   UNL     1      -5.360  -2.637   9.237  1.00  0.00     0.031 C 
ATOM     44  C   UNL     1      -4.287  -6.833   6.690  1.00  0.00     0.029 A 
ATOM     45  N   UNL     1      -5.149  -7.108   8.732  1.00  0.00    -0.354 N 
ATOM     46  C   UNL     1      -6.058  -3.605  11.183  1.00  0.00     0.074 A 
ATOM     47  C   UNL     1      -5.702  -2.387  10.492  1.00  0.00     0.031 C 
ATOM     48  C   UNL     1      -4.346  -8.153   6.921  1.00  0.00     0.029 A 
ATOM     49  C   UNL     1      -4.901  -8.372   8.250  1.00  0.00     0.049 A 
ATOM     50  H   UNL     1      -5.521  -6.935   9.627  1.00  0.00     0.167 HD
ATOM     51  C   UNL     1      -6.567  -3.656  12.435  1.00  0.00     0.034 A 
ATOM     52  C   UNL     1      -5.116  -9.573   8.819  1.00  0.00     0.034 A 
ATOM     53  C   UNL     1      -6.946  -4.882  13.080  1.00  0.00     0.049 A 
ATOM     54  C   UNL     1      -5.756  -9.597  10.179  1.00  0.00     0.074 A 
ATOM     55  C   UNL     1      -7.532  -5.063  14.318  1.00  0.00     0.029 A 
ATOM     56  N   UNL     1      -6.773  -6.145  12.527  1.00  0.00    -0.354 N 
ATOM     57  N   UNL     1      -6.123  -8.587  10.933  1.00  0.00    -0.248 NA
ATOM     58  C   UNL     1      -6.051 -10.916  10.750  1.00  0.00     0.031 C 
ATOM     59  C   UNL     1      -7.704  -6.438  14.518  1.00  0.00     0.029 A 
ATOM     60  C   UNL     1      -7.243  -7.112  13.396  1.00  0.00     0.049 A 
ATOM     61  H   UNL     1      -6.373  -6.325  11.646  1.00  0.00     0.167 HD
ATOM     62  C   UNL     1      -6.721  -9.145  12.053  1.00  0.00     0.074 A 
ATOM     63  C   UNL     1      -6.688 -10.584  11.865  1.00  0.00     0.031 C 
ATOM     64  C   UNL     1      -7.237  -8.532  13.147  1.00  0.00     0.034 A 
BRANCH  51  65
ATOM     65  C   UNL     1      -6.785  -2.346  13.145  1.00  0.00     0.023 A 
ATOM     66  C   UNL     1      -7.803  -1.477  12.697  1.00  0.00     0.012 A 
ATOM     67  C   UNL     1      -5.997  -1.974  14.250  1.00  0.00     0.148 A 
ATOM     68  C   UNL     1      -8.003  -0.240  13.309  1.00  0.00     0.002 A 
ATOM     69  C   UNL     1      -6.232  -0.758  14.883  1.00  0.00     0.091 A 
ATOM     70  F   UNL     1      -5.017  -2.799  14.644  1.00  0.00    -0.205 F 
ATOM     71  C   UNL     1      -7.224   0.115  14.405  1.00  0.00     0.022 A 
BRANCH  69  72
ATOM     72  S   UNL     1      -5.329  -0.237  16.345  1.00  0.00     0.127 S 
ATOM     73  O   UNL     1      -4.490   0.834  15.807  1.00  0.00    -0.237 OA
ATOM     74  O   UNL     1      -6.405   0.216  17.226  1.00  0.00    -0.237 OA
ATOM     75  O   UNL     1      -4.615  -1.415  16.816  1.00  0.00    -0.744 OA
ENDBRANCH  69  72
ENDBRANCH  51  65
BRANCH  52  76
ATOM     76  C   UNL     1      -4.824 -10.824   8.063  1.00  0.00     0.023 A 
ATOM     77  C   UNL     1      -5.894 -11.615   7.600  1.00  0.00     0.012 A 
ATOM     78  C   UNL     1      -3.505 -11.209   7.754  1.00  0.00     0.148 A 
ATOM     79  C   UNL     1      -5.656 -12.782   6.872  1.00  0.00     0.002 A 
ATOM     80  C   UNL     1      -3.276 -12.344   6.983  1.00  0.00     0.091 A 
ATOM     81  F   UNL     1      -2.498 -10.448   8.207  1.00  0.00    -0.205 F 
ATOM     82  C   UNL     1      -4.349 -13.141   6.555  1.00  0.00     0.022 A 
BRANCH  80  83
ATOM     83  S   UNL     1      -1.634 -12.805   6.416  1.00  0.00     0.127 S 
ATOM     84  O   UNL     1      -1.331 -13.947   7.274  1.00  0.00    -0.237 OA
ATOM     85  O   UNL     1      -1.877 -13.136   5.011  1.00  0.00    -0.237 OA
ATOM     86  O   UNL     1      -0.808 -11.621   6.615  1.00  0.00    -0.744 OA
ENDBRANCH  80  83
ENDBRANCH  52  76
BRANCH  64  87
ATOM     87  C   UNL     1      -7.830  -9.415  14.209  1.00  0.00     0.023 A 
ATOM     88  C   UNL     1      -6.982 -10.164  15.047  1.00  0.00     0.012 A 
ATOM     89  C   UNL     1      -9.221  -9.439  14.423  1.00  0.00     0.148 A 
ATOM     90  C   UNL     1      -7.514 -10.950  16.067  1.00  0.00     0.002 A 
ATOM     91  C   UNL     1      -9.740 -10.185  15.472  1.00  0.00     0.091 A 
ATOM     92  F   UNL     1     -10.009  -8.735  13.596  1.00  0.00    -0.205 F 
ATOM     93  C   UNL     1      -8.890 -10.950  16.287  1.00  0.00     0.022 A 
BRANCH  91  94
ATOM     94  S   UNL     1     -11.486 -10.159  15.888  1.00  0.00     0.127 S 
ATOM     95  O   UNL     1     -11.936 -11.449  15.367  1.00  0.00    -0.237 OA
ATOM     96  O   UNL     1     -11.458 -10.067  17.348  1.00  0.00    -0.237 OA
ATOM     97  O   UNL     1     -12.036  -8.986  15.222  1.00  0.00    -0.744 OA
ENDBRANCH  91  94
ENDBRANCH  64  87
ENDBRANCH  38  39
ENDBRANCH  30  33
ENDBRANCH  28  29
ENDBRANCH  27  28
ENDBRANCH   1  27
TORSDOF 19
