REMARK SMILES NS(=O)(=O)c1ccc(C#Cc2cc(Cl)cc3c2O[C@H](C(F)(F)F)C(C(=O)NCCCCNC(=O)c2ccc(-c4c5nc(c(-c6cccc(S(=O)(=O)[O-])c6F)c6ccc([nH]6)c(-c6cccc(S(=O)(=O)[O-])c6F)c6nc(c(-c7cccc(S(=O)(=O)[O-])c7F)c7ccc4[nH]7)C=C6)C=C5)cc2)=C3)cc1
REMARK SMILES IDX 29 1 28 2 27 3 25 4 26 5 24 7 11 8 12 9 17 10 13 11 16 12
REMARK SMILES IDX 18 13 14 14 15 15 98 16 19 17 10 18 9 19 8 20 5 21 6 22
REMARK SMILES IDX 100 23 7 24 99 25 2 26 3 27 4 28 1 29 20 32 21 33 22 34
REMARK SMILES IDX 23 35 30 36 31 37 32 38 33 39 34 41 35 42 36 43 97 44 37 45
REMARK SMILES IDX 96 46 38 47 39 48 40 49 90 50 41 51 95 52 89 53 91 54 42 55
REMARK SMILES IDX 94 56 88 57 87 58 43 60 75 61 55 62 74 63 56 64 59 65 73 66
REMARK SMILES IDX 92 67 57 68 58 69 72 71 93 72 60 73 44 74 45 75 53 76 46 77
REMARK SMILES IDX 48 78 54 79 47 80 49 81 50 82 51 83 52 84 76 85 77 86 85 87
REMARK SMILES IDX 78 88 80 89 86 90 79 91 81 92 82 93 83 94 84 95 61 96 62 97
REMARK SMILES IDX 70 98 63 99 65 100 71 101 64 102 66 103 67 104 68 105 69 106
REMARK H PARENT 27 6 1 30 1 31 32 40 91 59 59 70
REMARK Flexibility Score: inf
ROOT
ATOM      1  C   UNL     1       6.333  -2.707  11.786  1.00  0.00     0.023 C 
ENDROOT
BRANCH   1   2
ATOM      2  C   UNL     1       7.168  -3.566  10.845  1.00  0.00     0.116 C 
BRANCH   2   3
ATOM      3  N   UNL     1       7.165  -4.968  11.231  1.00  0.00    -0.352 N 
ATOM      4  C   UNL     1       6.676  -6.128  10.731  1.00  0.00     0.251 C 
ATOM      5  O   UNL     1       6.948  -7.149  11.368  1.00  0.00    -0.270 OA
ATOM      6  H   UNL     1       7.645  -5.112  12.078  1.00  0.00     0.163 HD
BRANCH   4   7
ATOM      7  C   UNL     1       5.846  -6.234   9.494  1.00  0.00     0.067 C 
ATOM      8  C   UNL     1       3.197  -6.555   6.243  1.00  0.00     0.069 A 
ATOM      9  C   UNL     1       2.761  -7.814   5.830  1.00  0.00     0.041 A 
ATOM     10  C   UNL     1       4.071  -6.452   7.333  1.00  0.00     0.143 A 
ATOM     11  C   UNL     1       3.187  -8.951   6.517  1.00  0.00     0.043 A 
ATOM     12  C   UNL     1       4.482  -7.590   8.035  1.00  0.00     0.020 A 
ATOM     13  O   UNL     1       4.455  -5.196   7.705  1.00  0.00    -0.474 OA
ATOM     14  Cl  UNL     1       2.640 -10.501   6.007  1.00  0.00    -0.084 Cl
ATOM     15  C   UNL     1       4.038  -8.848   7.619  1.00  0.00     0.032 A 
ATOM     16  C   UNL     1       5.316  -7.441   9.224  1.00  0.00     0.025 C 
ATOM     17  C   UNL     1       5.616  -5.086   8.559  1.00  0.00     0.314 C 
BRANCH   8  18
ATOM     18  C   UNL     1       2.737  -5.384   5.555  1.00  0.00    -0.058 C 
ATOM     19  C   UNL     1       2.351  -4.396   4.986  1.00  0.00    -0.062 C 
BRANCH  19  20
ATOM     20  C   UNL     1       1.880  -3.247   4.276  1.00  0.00     0.025 A 
ATOM     21  C   UNL     1       1.006  -1.046   2.803  1.00  0.00     0.082 A 
ATOM     22  C   UNL     1       1.980  -0.874   3.791  1.00  0.00     0.023 A 
ATOM     23  C   UNL     1       0.442  -2.303   2.569  1.00  0.00     0.023 A 
ATOM     24  C   UNL     1       2.418  -1.980   4.527  1.00  0.00     0.018 A 
ATOM     25  C   UNL     1       0.884  -3.403   3.306  1.00  0.00     0.018 A 
BRANCH  21  26
ATOM     26  S   UNL     1       0.472   0.334   1.835  1.00  0.00     0.238 S 
ATOM     27  O   UNL     1       1.129   1.535   2.293  1.00  0.00    -0.207 OA
ATOM     28  O   UNL     1      -0.958   0.251   1.648  1.00  0.00    -0.207 OA
BRANCH  26  29
ATOM     29  N   UNL     1       1.157  -0.006   0.338  1.00  0.00    -0.225 NA
ATOM     30  H   UNL     1       0.916   0.733  -0.322  1.00  0.00     0.137 HD
ATOM     31  H   UNL     1       0.800  -0.898  -0.004  1.00  0.00     0.137 HD
ENDBRANCH  26  29
ENDBRANCH  21  26
ENDBRANCH  19  20
ENDBRANCH   8  18
BRANCH  17  32
ATOM     32  C   UNL     1       6.860  -4.776   7.704  1.00  0.00     0.429 C 
ATOM     33  F   UNL     1       6.771  -3.533   7.169  1.00  0.00    -0.167 F 
ATOM     34  F   UNL     1       8.009  -4.804   8.419  1.00  0.00    -0.167 F 
ATOM     35  F   UNL     1       7.015  -5.649   6.682  1.00  0.00    -0.167 F 
ENDBRANCH  17  32
ENDBRANCH   4   7
ENDBRANCH   2   3
ENDBRANCH   1   2
BRANCH   1  36
ATOM     36  C   UNL     1       7.107  -2.232  13.008  1.00  0.00     0.023 C 
BRANCH  36  37
ATOM     37  C   UNL     1       8.402  -1.496  12.690  1.00  0.00     0.116 C 
BRANCH  37  38
ATOM     38  N   UNL     1       8.233  -0.348  11.805  1.00  0.00    -0.352 N 
ATOM     39  C   UNL     1       8.833   0.890  11.911  1.00  0.00     0.251 C 
ATOM     40  H   UNL     1       7.620  -0.471  11.044  1.00  0.00     0.163 HD
ATOM     41  O   UNL     1       8.530   1.806  11.157  1.00  0.00    -0.269 OA
BRANCH  39  42
ATOM     42  C   UNL     1       9.812   1.080  12.999  1.00  0.00     0.039 A 
ATOM     43  C   UNL     1      10.826   0.136  13.168  1.00  0.00     0.014 A 
ATOM     44  C   UNL     1       9.593   2.076  13.950  1.00  0.00     0.014 A 
ATOM     45  C   UNL     1      11.459   0.045  14.398  1.00  0.00     0.010 A 
ATOM     46  C   UNL     1      10.327   2.055  15.138  1.00  0.00     0.010 A 
ATOM     47  C   UNL     1      11.214   0.998  15.402  1.00  0.00    -0.014 A 
BRANCH  47  48
ATOM     48  C   UNL     1      11.893   0.858  16.717  1.00  0.00     0.031 A 
ATOM     49  C   UNL     1      11.106   0.705  17.994  1.00  0.00     0.074 A 
ATOM     50  C   UNL     1      13.240   0.827  16.750  1.00  0.00     0.049 A 
ATOM     51  N   UNL     1      11.552   0.578  19.218  1.00  0.00    -0.248 NA
ATOM     52  C   UNL     1       9.636   0.692  17.895  1.00  0.00     0.031 C 
ATOM     53  C   UNL     1      14.115   0.966  15.582  1.00  0.00     0.029 A 
ATOM     54  N   UNL     1      14.110   0.660  17.796  1.00  0.00    -0.354 N 
ATOM     55  C   UNL     1      10.428   0.517  20.034  1.00  0.00     0.074 A 
ATOM     56  C   UNL     1       9.273   0.622  19.170  1.00  0.00     0.031 C 
ATOM     57  C   UNL     1      15.391   0.837  15.969  1.00  0.00     0.029 A 
ATOM     58  C   UNL     1      15.431   0.686  17.418  1.00  0.00     0.049 A 
ATOM     59  H   UNL     1      13.817   0.533  18.728  1.00  0.00     0.167 HD
ATOM     60  C   UNL     1      10.366   0.371  21.378  1.00  0.00     0.034 A 
ATOM     61  C   UNL     1      16.558   0.626  18.151  1.00  0.00     0.034 A 
ATOM     62  C   UNL     1      11.514   0.223  22.230  1.00  0.00     0.049 A 
ATOM     63  C   UNL     1      16.460   0.488  19.638  1.00  0.00     0.074 A 
ATOM     64  C   UNL     1      11.540   0.022  23.600  1.00  0.00     0.029 A 
ATOM     65  N   UNL     1      12.831   0.263  21.805  1.00  0.00    -0.354 N 
ATOM     66  N   UNL     1      15.386   0.370  20.379  1.00  0.00    -0.248 NA
ATOM     67  C   UNL     1      17.721   0.460  20.392  1.00  0.00     0.031 C 
ATOM     68  C   UNL     1      12.874  -0.029  24.007  1.00  0.00     0.029 A 
ATOM     69  C   UNL     1      13.678   0.104  22.887  1.00  0.00     0.049 A 
ATOM     70  H   UNL     1      13.121   0.386  20.872  1.00  0.00     0.167 HD
ATOM     71  C   UNL     1      15.839   0.234  21.684  1.00  0.00     0.074 A 
ATOM     72  C   UNL     1      17.287   0.272  21.632  1.00  0.00     0.031 C 
ATOM     73  C   UNL     1      15.116   0.101  22.820  1.00  0.00     0.034 A 
BRANCH  60  74
ATOM     74  C   UNL     1       9.013   0.327  22.035  1.00  0.00     0.023 A 
ATOM     75  C   UNL     1       8.252  -0.857  21.979  1.00  0.00     0.012 A 
ATOM     76  C   UNL     1       8.561   1.407  22.820  1.00  0.00     0.148 A 
ATOM     77  C   UNL     1       7.059  -0.966  22.693  1.00  0.00     0.002 A 
ATOM     78  C   UNL     1       7.386   1.282  23.551  1.00  0.00     0.091 A 
ATOM     79  F   UNL     1       9.302   2.523  22.854  1.00  0.00    -0.205 F 
ATOM     80  C   UNL     1       6.633   0.097  23.487  1.00  0.00     0.022 A 
BRANCH  78  81
ATOM     81  S   UNL     1       6.770   2.573  24.637  1.00  0.00     0.127 S 
ATOM     82  O   UNL     1       5.502   2.917  23.993  1.00  0.00    -0.237 OA
ATOM     83  O   UNL     1       6.635   1.864  25.909  1.00  0.00    -0.237 OA
ATOM     84  O   UNL     1       7.773   3.627  24.623  1.00  0.00    -0.744 OA
ENDBRANCH  78  81
ENDBRANCH  60  74
BRANCH  61  85
ATOM     85  C   UNL     1      17.872   0.679  17.457  1.00  0.00     0.023 A 
ATOM     86  C   UNL     1      18.629  -0.498  17.321  1.00  0.00     0.012 A 
ATOM     87  C   UNL     1      18.323   1.869  16.853  1.00  0.00     0.148 A 
ATOM     88  C   UNL     1      19.820  -0.491  16.594  1.00  0.00     0.002 A 
ATOM     89  C   UNL     1      19.489   1.861  16.101  1.00  0.00     0.091 A 
ATOM     90  F   UNL     1      17.573   2.972  16.992  1.00  0.00    -0.205 F 
ATOM     91  C   UNL     1      20.243   0.683  15.976  1.00  0.00     0.022 A 
BRANCH  89  92
ATOM     92  S   UNL     1      20.070   3.299  15.196  1.00  0.00     0.127 S 
ATOM     93  O   UNL     1      21.356   3.555  15.840  1.00  0.00    -0.237 OA
ATOM     94  O   UNL     1      20.155   2.778  13.832  1.00  0.00    -0.237 OA
ATOM     95  O   UNL     1      19.058   4.329  15.392  1.00  0.00    -0.744 OA
ENDBRANCH  89  92
ENDBRANCH  61  85
BRANCH  73  96
ATOM     96  C   UNL     1      15.855  -0.043  24.120  1.00  0.00     0.023 A 
ATOM     97  C   UNL     1      16.405   1.097  24.737  1.00  0.00     0.012 A 
ATOM     98  C   UNL     1      15.876  -1.280  24.793  1.00  0.00     0.148 A 
ATOM     99  C   UNL     1      16.968   1.006  26.009  1.00  0.00     0.002 A 
ATOM    100  C   UNL     1      16.410  -1.357  26.073  1.00  0.00     0.091 A 
ATOM    101  F   UNL     1      15.346  -2.348  24.179  1.00  0.00    -0.205 F 
ATOM    102  C   UNL     1      16.957  -0.215  26.681  1.00  0.00     0.022 A 
BRANCH 100 103
ATOM    103  S   UNL     1      16.390  -2.868  27.042  1.00  0.00     0.127 S 
ATOM    104  O   UNL     1      17.818  -3.144  27.190  1.00  0.00    -0.237 OA
ATOM    105  O   UNL     1      15.720  -2.438  28.269  1.00  0.00    -0.237 OA
ATOM    106  O   UNL     1      15.652  -3.847  26.254  1.00  0.00    -0.744 OA
ENDBRANCH 100 103
ENDBRANCH  73  96
ENDBRANCH  47  48
ENDBRANCH  39  42
ENDBRANCH  37  38
ENDBRANCH  36  37
ENDBRANCH   1  36
TORSDOF 19
