REMARK SMILES C[C@H]1[C@@H]([NH2+]C[C@H]2CC[C@@H](C(=O)NCCCCNC(=O)c3ccc(-c4c5nc(c(-c6cccc(S(=O)(=O)[O-])c6F)c6ccc([nH]6)c(-c6cccc(S(=O)(=O)[O-])c6F)c6nc(c(-c7cccc(S(=O)(=O)[O-])c7F)c7ccc4[nH]7)C=C6)C=C5)cc3)CC2)CCC[C@@H]1C
REMARK SMILES IDX 14 1 13 2 12 3 10 4 11 5 9 7 6 8 7 9 84 10 8 11 83 12 5 13
REMARK SMILES IDX 4 14 3 17 1 18 2 19 88 20 85 21 87 22 89 23 86 24 15 25
REMARK SMILES IDX 16 26 17 27 18 28 19 30 20 31 21 32 82 33 22 34 81 35 23 36
REMARK SMILES IDX 24 37 25 38 75 39 26 40 80 41 74 42 76 43 27 44 79 45 73 46
REMARK SMILES IDX 72 47 28 49 60 50 40 51 59 52 41 53 44 54 58 55 77 56 42 57
REMARK SMILES IDX 43 58 57 60 78 61 45 62 29 63 30 64 38 65 31 66 33 67 39 68
REMARK SMILES IDX 32 69 34 70 35 71 36 72 37 73 61 74 62 75 70 76 63 77 65 78
REMARK SMILES IDX 71 79 64 80 66 81 67 82 68 83 69 84 46 85 47 86 55 87 48 88
REMARK SMILES IDX 50 89 56 90 49 91 51 92 52 93 53 94 54 95
REMARK H PARENT 12 6 4 15 4 16 17 29 76 48 44 59
REMARK Flexibility Score: inf
ROOT
ATOM      1  C   UNL     1      -0.034   0.951   5.323  1.00  0.00     0.023 C 
ENDROOT
BRANCH   1   2
ATOM      2  C   UNL     1      -1.298   0.142   5.044  1.00  0.00     0.116 C 
BRANCH   2   3
ATOM      3  N   UNL     1      -2.331   0.423   6.020  1.00  0.00    -0.356 N 
ATOM      4  C   UNL     1      -3.510   1.089   5.903  1.00  0.00     0.223 C 
ATOM      5  O   UNL     1      -4.198   1.216   6.920  1.00  0.00    -0.275 OA
ATOM      6  H   UNL     1      -2.148   0.072   6.921  1.00  0.00     0.163 HD
BRANCH   4   7
ATOM      7  C   UNL     1      -4.023   1.627   4.567  1.00  0.00     0.078 C 
ATOM      8  C   UNL     1      -3.943   1.979   1.599  1.00  0.00     0.044 C 
ATOM      9  C   UNL     1      -4.933   1.018   2.282  1.00  0.00     0.010 C 
ATOM     10  C   UNL     1      -3.619   3.141   2.554  1.00  0.00     0.010 C 
ATOM     11  C   UNL     1      -4.423   0.489   3.621  1.00  0.00     0.014 C 
ATOM     12  C   UNL     1      -3.122   2.692   3.929  1.00  0.00     0.014 C 
BRANCH   8  13
ATOM     13  C   UNL     1      -2.707   1.206   1.082  1.00  0.00     0.264 C 
BRANCH  13  14
ATOM     14  N   UNL     1      -1.800   2.035   0.278  1.00  0.00    -0.343 N 
ATOM     15  H   UNL     1      -2.334   2.490  -0.463  1.00  0.00     0.346 HD
ATOM     16  H   UNL     1      -1.369   2.727   0.892  1.00  0.00     0.346 HD
BRANCH  14  17
ATOM     17  C   UNL     1      -0.722   1.224  -0.336  1.00  0.00     0.185 C 
ATOM     18  C   UNL     1       0.630   1.134   1.819  1.00  0.00     0.014 C 
ATOM     19  C   UNL     1       0.663   1.458   0.330  1.00  0.00     0.047 C 
ATOM     20  C   UNL     1       1.212   2.882   0.053  1.00  0.00    -0.006 C 
ATOM     21  C   UNL     1      -0.618   1.521  -1.844  1.00  0.00     0.065 C 
ATOM     22  C   UNL     1       1.290   3.129  -1.461  1.00  0.00     0.004 C 
ATOM     23  C   UNL     1       2.592   3.115   0.678  1.00  0.00     0.008 C 
ATOM     24  C   UNL     1      -0.055   2.907  -2.146  1.00  0.00     0.006 C 
ENDBRANCH  14  17
ENDBRANCH  13  14
ENDBRANCH   8  13
ENDBRANCH   4   7
ENDBRANCH   2   3
ENDBRANCH   1   2
BRANCH   1  25
ATOM     25  C   UNL     1       0.909   0.339   6.353  1.00  0.00     0.023 C 
BRANCH  25  26
ATOM     26  C   UNL     1       1.362  -1.090   6.063  1.00  0.00     0.116 C 
BRANCH  26  27
ATOM     27  N   UNL     1       1.904  -1.295   4.723  1.00  0.00    -0.352 N 
ATOM     28  C   UNL     1       2.952  -2.100   4.336  1.00  0.00     0.251 C 
ATOM     29  H   UNL     1       1.461  -0.792   4.002  1.00  0.00     0.163 HD
ATOM     30  O   UNL     1       3.317  -2.125   3.164  1.00  0.00    -0.269 OA
BRANCH  28  31
ATOM     31  C   UNL     1       3.662  -2.895   5.360  1.00  0.00     0.039 A 
ATOM     32  C   UNL     1       5.052  -2.789   5.455  1.00  0.00     0.014 A 
ATOM     33  C   UNL     1       2.946  -3.664   6.279  1.00  0.00     0.014 A 
ATOM     34  C   UNL     1       5.713  -3.374   6.537  1.00  0.00     0.010 A 
ATOM     35  C   UNL     1       3.594  -4.172   7.398  1.00  0.00     0.010 A 
ATOM     36  C   UNL     1       4.982  -4.022   7.547  1.00  0.00    -0.014 A 
BRANCH  36  37
ATOM     37  C   UNL     1       5.634  -4.513   8.789  1.00  0.00     0.031 A 
ATOM     38  C   UNL     1       5.584  -5.973   9.144  1.00  0.00     0.074 A 
ATOM     39  C   UNL     1       6.164  -3.626   9.656  1.00  0.00     0.049 A 
ATOM     40  N   UNL     1       6.012  -6.574  10.224  1.00  0.00    -0.248 NA
ATOM     41  C   UNL     1       4.936  -6.873   8.175  1.00  0.00     0.031 C 
ATOM     42  C   UNL     1       6.186  -2.172   9.475  1.00  0.00     0.029 A 
ATOM     43  N   UNL     1       6.760  -3.814  10.878  1.00  0.00    -0.354 N 
ATOM     44  C   UNL     1       5.648  -7.907  10.086  1.00  0.00     0.074 A 
ATOM     45  C   UNL     1       4.933  -8.023   8.833  1.00  0.00     0.031 C 
ATOM     46  C   UNL     1       6.772  -1.603  10.541  1.00  0.00     0.029 A 
ATOM     47  C   UNL     1       7.146  -2.645  11.492  1.00  0.00     0.049 A 
ATOM     48  H   UNL     1       6.899  -4.704  11.277  1.00  0.00     0.167 HD
ATOM     49  C   UNL     1       5.916  -8.950  10.907  1.00  0.00     0.034 A 
ATOM     50  C   UNL     1       7.735  -2.435  12.686  1.00  0.00     0.034 A 
ATOM     51  C   UNL     1       6.685  -8.844  12.117  1.00  0.00     0.049 A 
ATOM     52  C   UNL     1       8.088  -3.620  13.544  1.00  0.00     0.074 A 
ATOM     53  C   UNL     1       7.099  -9.857  12.964  1.00  0.00     0.029 A 
ATOM     54  N   UNL     1       7.160  -7.656  12.650  1.00  0.00    -0.354 N 
ATOM     55  N   UNL     1       7.887  -4.894  13.313  1.00  0.00    -0.248 NA
ATOM     56  C   UNL     1       8.784  -3.341  14.809  1.00  0.00     0.031 C 
ATOM     57  C   UNL     1       7.823  -9.279  14.013  1.00  0.00     0.029 A 
ATOM     58  C   UNL     1       7.865  -7.909  13.814  1.00  0.00     0.049 A 
ATOM     59  H   UNL     1       7.017  -6.765  12.258  1.00  0.00     0.167 HD
ATOM     60  C   UNL     1       8.458  -5.571  14.385  1.00  0.00     0.074 A 
ATOM     61  C   UNL     1       9.034  -4.566  15.254  1.00  0.00     0.031 C 
ATOM     62  C   UNL     1       8.486  -6.903  14.636  1.00  0.00     0.034 A 
BRANCH  49  63
ATOM     63  C   UNL     1       5.439 -10.312  10.479  1.00  0.00     0.023 A 
ATOM     64  C   UNL     1       6.088 -10.964   9.410  1.00  0.00     0.012 A 
ATOM     65  C   UNL     1       4.392 -10.967  11.155  1.00  0.00     0.148 A 
ATOM     66  C   UNL     1       5.681 -12.231   8.997  1.00  0.00     0.002 A 
ATOM     67  C   UNL     1       4.018 -12.249  10.764  1.00  0.00     0.091 A 
ATOM     68  F   UNL     1       3.770 -10.323  12.153  1.00  0.00    -0.205 F 
ATOM     69  C   UNL     1       4.654 -12.877   9.680  1.00  0.00     0.022 A 
BRANCH  67  70
ATOM     70  S   UNL     1       2.756 -13.192  11.626  1.00  0.00     0.127 S 
ATOM     71  O   UNL     1       1.635 -13.108  10.691  1.00  0.00    -0.237 OA
ATOM     72  O   UNL     1       3.370 -14.517  11.723  1.00  0.00    -0.237 OA
ATOM     73  O   UNL     1       2.561 -12.521  12.904  1.00  0.00    -0.744 OA
ENDBRANCH  67  70
ENDBRANCH  49  63
BRANCH  50  74
ATOM     74  C   UNL     1       8.113  -1.053  13.097  1.00  0.00     0.023 A 
ATOM     75  C   UNL     1       9.474  -0.690  13.102  1.00  0.00     0.012 A 
ATOM     76  C   UNL     1       7.145  -0.092  13.446  1.00  0.00     0.148 A 
ATOM     77  C   UNL     1       9.867   0.596  13.474  1.00  0.00     0.002 A 
ATOM     78  C   UNL     1       7.540   1.202  13.767  1.00  0.00     0.091 A 
ATOM     79  F   UNL     1       5.856  -0.460  13.450  1.00  0.00    -0.205 F 
ATOM     80  C   UNL     1       8.901   1.544  13.797  1.00  0.00     0.022 A 
BRANCH  78  81
ATOM     81  S   UNL     1       6.354   2.519  14.068  1.00  0.00     0.127 S 
ATOM     82  O   UNL     1       6.420   2.655  15.520  1.00  0.00    -0.237 OA
ATOM     83  O   UNL     1       6.936   3.632  13.317  1.00  0.00    -0.237 OA
ATOM     84  O   UNL     1       5.091   2.032  13.528  1.00  0.00    -0.744 OA
ENDBRANCH  78  81
ENDBRANCH  50  74
BRANCH  62  85
ATOM     85  C   UNL     1       9.183  -7.362  15.889  1.00  0.00     0.023 A 
ATOM     86  C   UNL     1       8.561  -7.173  17.138  1.00  0.00     0.012 A 
ATOM     87  C   UNL     1      10.411  -8.049  15.822  1.00  0.00     0.148 A 
ATOM     88  C   UNL     1       9.163  -7.639  18.306  1.00  0.00     0.002 A 
ATOM     89  C   UNL     1      10.984  -8.548  16.986  1.00  0.00     0.091 A 
ATOM     90  F   UNL     1      10.998  -8.198  14.626  1.00  0.00    -0.205 F 
ATOM     91  C   UNL     1      10.367  -8.336  18.229  1.00  0.00     0.022 A 
BRANCH  89  92
ATOM     92  S   UNL     1      12.485  -9.535  16.965  1.00  0.00     0.127 S 
ATOM     93  O   UNL     1      13.486  -8.567  17.407  1.00  0.00    -0.237 OA
ATOM     94  O   UNL     1      12.183 -10.587  17.936  1.00  0.00    -0.237 OA
ATOM     95  O   UNL     1      12.628 -10.008  15.594  1.00  0.00    -0.744 OA
ENDBRANCH  89  92
ENDBRANCH  62  85
ENDBRANCH  36  37
ENDBRANCH  28  31
ENDBRANCH  26  27
ENDBRANCH  25  26
ENDBRANCH   1  25
TORSDOF 17
