REMARK SMILES O=C(CSc1ccnc(C(=O)NCCCCNC(=O)c2ccc(-c3c4nc(c(-c5cccc(S(=O)(=O)[O-])c5F)c5ccc([nH]5)c(-c5cccc(S(=O)(=O)[O-])c5F)c5nc(c(-c6cccc(S(=O)(=O)[O-])c6F)c6ccc3[nH]6)C=C5)C=C4)cc2)c1)NCC(F)(F)F
REMARK SMILES IDX 13 1 12 2 10 3 11 4 9 6 5 7 6 8 83 9 7 10 8 11 4 12 3 13
REMARK SMILES IDX 2 14 1 15 84 16 85 18 86 19 87 20 88 21 89 22 14 23 15 24
REMARK SMILES IDX 16 25 17 26 18 27 19 29 20 30 21 31 82 32 22 33 81 34 23 35
REMARK SMILES IDX 24 36 25 37 75 38 26 39 80 40 74 41 76 42 27 43 79 44 73 45
REMARK SMILES IDX 72 46 28 48 60 49 40 50 59 51 41 52 44 53 58 54 77 55 42 56
REMARK SMILES IDX 43 57 57 59 78 60 45 61 29 62 30 63 38 64 31 65 33 66 39 67
REMARK SMILES IDX 32 68 34 69 35 70 36 71 37 72 61 73 62 74 70 75 63 76 65 77
REMARK SMILES IDX 71 78 64 79 66 80 67 81 68 82 69 83 46 84 47 85 55 86 48 87
REMARK SMILES IDX 50 88 56 89 49 90 51 91 52 92 53 93 54 94
REMARK H PARENT 12 5 84 17 17 28 76 47 44 58
REMARK Flexibility Score: inf
ROOT
ATOM      1  C   UNL     1      -0.156   0.439  -3.800  1.00  0.00     0.116 C 
ENDROOT
BRANCH   1   2
ATOM      2  N   UNL     1      -0.425   1.838  -4.076  1.00  0.00    -0.351 N 
ATOM      3  C   UNL     1       0.207   3.036  -3.829  1.00  0.00     0.269 C 
ATOM      4  O   UNL     1      -0.378   4.036  -4.260  1.00  0.00    -0.268 OA
ATOM      5  H   UNL     1      -1.272   1.961  -4.562  1.00  0.00     0.163 HD
BRANCH   3   6
ATOM      6  C   UNL     1       1.507   3.223  -3.083  1.00  0.00     0.129 A 
ATOM      7  C   UNL     1       3.570   2.523  -2.064  1.00  0.00     0.012 A 
ATOM      8  C   UNL     1       3.812   3.839  -1.688  1.00  0.00     0.035 A 
ATOM      9  C   UNL     1       2.434   2.229  -2.822  1.00  0.00     0.049 A 
ATOM     10  C   UNL     1       2.879   4.792  -2.038  1.00  0.00     0.113 A 
ATOM     11  N   UNL     1       1.740   4.509  -2.697  1.00  0.00    -0.251 NA
BRANCH   7  12
ATOM     12  S   UNL     1       4.748   1.267  -1.577  1.00  0.00    -0.116 SA
BRANCH  12  13
ATOM     13  C   UNL     1       3.653  -0.136  -1.145  1.00  0.00     0.174 C 
BRANCH  13  14
ATOM     14  C   UNL     1       2.659   0.232  -0.056  1.00  0.00     0.230 C 
ATOM     15  O   UNL     1       1.448   0.131  -0.224  1.00  0.00    -0.274 OA
ATOM     16  N   UNL     1       3.220   0.633   1.134  1.00  0.00    -0.346 N 
ATOM     17  H   UNL     1       4.200   0.704   1.195  1.00  0.00     0.163 HD
BRANCH  16  18
ATOM     18  C   UNL     1       2.417   0.958   2.317  1.00  0.00     0.231 C 
BRANCH  18  19
ATOM     19  C   UNL     1       2.719   0.086   3.535  1.00  0.00     0.405 C 
ATOM     20  F   UNL     1       4.040   0.146   3.840  1.00  0.00    -0.169 F 
ATOM     21  F   UNL     1       2.036   0.509   4.621  1.00  0.00    -0.169 F 
ATOM     22  F   UNL     1       2.408  -1.209   3.323  1.00  0.00    -0.169 F 
ENDBRANCH  18  19
ENDBRANCH  16  18
ENDBRANCH  13  14
ENDBRANCH  12  13
ENDBRANCH   7  12
ENDBRANCH   3   6
ENDBRANCH   1   2
BRANCH   1  23
ATOM     23  C   UNL     1      -0.885  -0.084  -2.566  1.00  0.00     0.023 C 
BRANCH  23  24
ATOM     24  C   UNL     1      -2.302  -0.600  -2.830  1.00  0.00     0.023 C 
BRANCH  24  25
ATOM     25  C   UNL     1      -2.440  -1.645  -3.938  1.00  0.00     0.116 C 
BRANCH  25  26
ATOM     26  N   UNL     1      -1.514  -2.764  -3.825  1.00  0.00    -0.352 N 
ATOM     27  C   UNL     1      -1.682  -4.057  -4.273  1.00  0.00     0.251 C 
ATOM     28  H   UNL     1      -0.661  -2.574  -3.372  1.00  0.00     0.163 HD
ATOM     29  O   UNL     1      -0.830  -4.906  -4.056  1.00  0.00    -0.269 OA
BRANCH  27  30
ATOM     30  C   UNL     1      -2.933  -4.410  -4.977  1.00  0.00     0.039 A 
ATOM     31  C   UNL     1      -3.695  -5.479  -4.498  1.00  0.00     0.014 A 
ATOM     32  C   UNL     1      -3.383  -3.646  -6.056  1.00  0.00     0.014 A 
ATOM     33  C   UNL     1      -4.954  -5.729  -5.050  1.00  0.00     0.010 A 
ATOM     34  C   UNL     1      -4.663  -3.856  -6.560  1.00  0.00     0.010 A 
ATOM     35  C   UNL     1      -5.465  -4.893  -6.056  1.00  0.00    -0.014 A 
BRANCH  35  36
ATOM     36  C   UNL     1      -6.846  -5.060  -6.574  1.00  0.00     0.031 A 
ATOM     37  C   UNL     1      -7.075  -5.415  -8.018  1.00  0.00     0.074 A 
ATOM     38  C   UNL     1      -7.895  -4.787  -5.771  1.00  0.00     0.049 A 
ATOM     39  N   UNL     1      -8.202  -5.524  -8.671  1.00  0.00    -0.248 NA
ATOM     40  C   UNL     1      -5.878  -5.649  -8.844  1.00  0.00     0.031 C 
ATOM     41  C   UNL     1      -7.802  -4.348  -4.376  1.00  0.00     0.029 A 
ATOM     42  N   UNL     1      -9.244  -4.809  -6.021  1.00  0.00    -0.354 N 
ATOM     43  C   UNL     1      -7.853  -5.801  -9.987  1.00  0.00     0.074 A 
ATOM     44  C   UNL     1      -6.408  -5.814 -10.047  1.00  0.00     0.031 C 
ATOM     45  C   UNL     1      -9.039  -4.143  -3.895  1.00  0.00     0.029 A 
ATOM     46  C   UNL     1     -10.012  -4.413  -4.949  1.00  0.00     0.049 A 
ATOM     47  H   UNL     1      -9.628  -5.083  -6.885  1.00  0.00     0.167 HD
ATOM     48  C   UNL     1      -8.662  -6.057 -11.042  1.00  0.00     0.034 A 
ATOM     49  C   UNL     1     -11.348  -4.281  -4.830  1.00  0.00     0.034 A 
ATOM     50  C   UNL     1     -10.096  -6.102 -10.966  1.00  0.00     0.049 A 
ATOM     51  C   UNL     1     -12.223  -4.633  -6.003  1.00  0.00     0.074 A 
ATOM     52  C   UNL     1     -11.000  -6.438 -11.958  1.00  0.00     0.029 A 
ATOM     53  N   UNL     1     -10.837  -5.805  -9.833  1.00  0.00    -0.354 N 
ATOM     54  N   UNL     1     -11.875  -5.054  -7.195  1.00  0.00    -0.248 NA
ATOM     55  C   UNL     1     -13.676  -4.529  -5.805  1.00  0.00     0.031 C 
ATOM     56  C   UNL     1     -12.290  -6.341 -11.425  1.00  0.00     0.029 A 
ATOM     57  C   UNL     1     -12.187  -5.953 -10.099  1.00  0.00     0.049 A 
ATOM     58  H   UNL     1     -10.459  -5.529  -8.967  1.00  0.00     0.167 HD
ATOM     59  C   UNL     1     -13.062  -5.301  -7.874  1.00  0.00     0.074 A 
ATOM     60  C   UNL     1     -14.140  -5.002  -6.954  1.00  0.00     0.031 C 
ATOM     61  C   UNL     1     -13.245  -5.718  -9.151  1.00  0.00     0.034 A 
BRANCH  48  62
ATOM     62  C   UNL     1      -8.009  -6.387 -12.358  1.00  0.00     0.023 A 
ATOM     63  C   UNL     1      -7.388  -7.642 -12.522  1.00  0.00     0.012 A 
ATOM     64  C   UNL     1      -8.064  -5.495 -13.447  1.00  0.00     0.148 A 
ATOM     65  C   UNL     1      -6.805  -7.994 -13.738  1.00  0.00     0.002 A 
ATOM     66  C   UNL     1      -7.515  -5.869 -14.668  1.00  0.00     0.091 A 
ATOM     67  F   UNL     1      -8.640  -4.298 -13.266  1.00  0.00    -0.205 F 
ATOM     68  C   UNL     1      -6.878  -7.112 -14.812  1.00  0.00     0.022 A 
BRANCH  66  69
ATOM     69  S   UNL     1      -7.619  -4.837 -16.136  1.00  0.00     0.127 S 
ATOM     70  O   UNL     1      -6.234  -4.391 -16.281  1.00  0.00    -0.237 OA
ATOM     71  O   UNL     1      -8.062  -5.791 -17.153  1.00  0.00    -0.237 OA
ATOM     72  O   UNL     1      -8.584  -3.792 -15.823  1.00  0.00    -0.744 OA
ENDBRANCH  66  69
ENDBRANCH  48  62
BRANCH  49  73
ATOM     73  C   UNL     1     -11.947  -3.876  -3.527  1.00  0.00     0.023 A 
ATOM     74  C   UNL     1     -12.658  -4.830  -2.773  1.00  0.00     0.012 A 
ATOM     75  C   UNL     1     -11.804  -2.571  -3.020  1.00  0.00     0.148 A 
ATOM     76  C   UNL     1     -13.245  -4.484  -1.556  1.00  0.00     0.002 A 
ATOM     77  C   UNL     1     -12.347  -2.246  -1.781  1.00  0.00     0.091 A 
ATOM     78  F   UNL     1     -11.139  -1.670  -3.757  1.00  0.00    -0.205 F 
ATOM     79  C   UNL     1     -13.082  -3.195  -1.055  1.00  0.00     0.022 A 
BRANCH  77  80
ATOM     80  S   UNL     1     -12.071  -0.647  -1.009  1.00  0.00     0.127 S 
ATOM     81  O   UNL     1     -13.339   0.031  -1.260  1.00  0.00    -0.237 OA
ATOM     82  O   UNL     1     -11.836  -1.016   0.388  1.00  0.00    -0.237 OA
ATOM     83  O   UNL     1     -10.903  -0.093  -1.681  1.00  0.00    -0.744 OA
ENDBRANCH  77  80
ENDBRANCH  49  73
BRANCH  61  84
ATOM     84  C   UNL     1     -14.659  -5.913  -9.627  1.00  0.00     0.023 A 
ATOM     85  C   UNL     1     -15.458  -4.790  -9.917  1.00  0.00     0.012 A 
ATOM     86  C   UNL     1     -15.167  -7.205  -9.868  1.00  0.00     0.148 A 
ATOM     87  C   UNL     1     -16.750  -4.949 -10.415  1.00  0.00     0.002 A 
ATOM     88  C   UNL     1     -16.440  -7.356 -10.406  1.00  0.00     0.091 A 
ATOM     89  F   UNL     1     -14.399  -8.262  -9.566  1.00  0.00    -0.205 F 
ATOM     90  C   UNL     1     -17.236  -6.230 -10.671  1.00  0.00     0.022 A 
BRANCH  88  91
ATOM     91  S   UNL     1     -17.107  -8.963 -10.852  1.00  0.00     0.127 S 
ATOM     92  O   UNL     1     -18.047  -9.210  -9.760  1.00  0.00    -0.237 OA
ATOM     93  O   UNL     1     -17.734  -8.694 -12.147  1.00  0.00    -0.237 OA
ATOM     94  O   UNL     1     -15.965  -9.865 -10.914  1.00  0.00    -0.744 OA
ENDBRANCH  88  91
ENDBRANCH  61  84
ENDBRANCH  35  36
ENDBRANCH  27  30
ENDBRANCH  25  26
ENDBRANCH  24  25
ENDBRANCH  23  24
ENDBRANCH   1  23
TORSDOF 19
