REMARK SMILES Cn1cc([C@H]([NH3+])CC(=O)NCCCCNC(=O)c2ccc(-c3c4nc(c(-c5cccc(S(=O)(=O)[O-])c5F)c5ccc([nH]5)c(-c5cccc(S(=O)(=O)[O-])c5F)c5nc(c(-c6cccc(S(=O)(=O)[O-])c6F)c6ccc3[nH]6)C=C5)C=C4)cc2)c2ccccc21
REMARK SMILES IDX 13 1 12 2 11 3 10 4 8 5 9 6 7 8 5 9 4 10 1 11 2 12 3 13
REMARK SMILES IDX 86 14 81 15 85 16 82 17 84 18 83 19 6 20 14 24 15 25 16 26
REMARK SMILES IDX 17 28 18 29 19 30 80 31 20 32 79 33 21 34 22 35 23 36 73 37
REMARK SMILES IDX 24 38 78 39 72 40 74 41 25 42 77 43 71 44 70 45 26 47 58 48
REMARK SMILES IDX 38 49 57 50 39 51 42 52 56 53 75 54 40 55 41 56 55 58 76 59
REMARK SMILES IDX 43 60 27 61 28 62 36 63 29 64 31 65 37 66 30 67 32 68 33 69
REMARK SMILES IDX 34 70 35 71 59 72 60 73 68 74 61 75 63 76 69 77 62 78 64 79
REMARK SMILES IDX 65 80 66 81 67 82 44 83 45 84 53 85 46 86 48 87 54 88 47 89
REMARK SMILES IDX 49 90 50 91 51 92 52 93
REMARK H PARENT 10 7 6 21 6 22 6 23 15 27 74 46 42 57
REMARK Flexibility Score: inf
ROOT
ATOM      1  C   UNL     1       2.215   0.945  -2.290  1.00  0.00     0.023 C 
ENDROOT
BRANCH   1   2
ATOM      2  C   UNL     1       1.449   0.127  -1.258  1.00  0.00     0.023 C 
BRANCH   2   3
ATOM      3  C   UNL     1       0.362  -0.778  -1.837  1.00  0.00     0.116 C 
BRANCH   3   4
ATOM      4  N   UNL     1       0.916  -1.909  -2.561  1.00  0.00    -0.356 N 
ATOM      5  C   UNL     1       0.872  -3.234  -2.233  1.00  0.00     0.226 C 
ATOM      6  O   UNL     1       1.464  -4.048  -2.943  1.00  0.00    -0.275 OA
ATOM      7  H   UNL     1       1.385  -1.692  -3.399  1.00  0.00     0.163 HD
BRANCH   5   8
ATOM      8  C   UNL     1       0.115  -3.680  -1.007  1.00  0.00     0.170 C 
BRANCH   8   9
ATOM      9  C   UNL     1       1.028  -3.821   0.212  1.00  0.00     0.223 C 
BRANCH   9  10
ATOM     10  C   UNL     1       0.248  -4.271   1.417  1.00  0.00     0.035 A 
ATOM     11  C   UNL     1      -1.770  -3.801   4.393  1.00  0.00     0.149 C 
ATOM     12  N   UNL     1      -0.992  -4.281   3.273  1.00  0.00    -0.350 N 
ATOM     13  C   UNL     1      -0.502  -3.486   2.276  1.00  0.00     0.096 A 
ATOM     14  C   UNL     1      -0.616  -5.590   3.067  1.00  0.00     0.048 A 
ATOM     15  C   UNL     1       0.150  -5.613   1.898  1.00  0.00     0.009 A 
ATOM     16  C   UNL     1      -0.875  -6.754   3.806  1.00  0.00     0.027 A 
ATOM     17  C   UNL     1       0.662  -6.845   1.442  1.00  0.00     0.011 A 
ATOM     18  C   UNL     1      -0.350  -7.962   3.335  1.00  0.00     0.002 A 
ATOM     19  C   UNL     1       0.405  -8.010   2.168  1.00  0.00     0.001 A 
ENDBRANCH   9  10
BRANCH   9  20
ATOM     20  N   UNL     1       1.719  -2.588   0.603  1.00  0.00    -0.351 N 
ATOM     21  H   UNL     1       1.034  -1.893   0.897  1.00  0.00     0.345 HD
ATOM     22  H   UNL     1       2.248  -2.229  -0.192  1.00  0.00     0.345 HD
ATOM     23  H   UNL     1       2.357  -2.786   1.374  1.00  0.00     0.345 HD
ENDBRANCH   9  20
ENDBRANCH   8   9
ENDBRANCH   5   8
ENDBRANCH   3   4
ENDBRANCH   2   3
ENDBRANCH   1   2
BRANCH   1  24
ATOM     24  C   UNL     1       1.357   1.901  -3.102  1.00  0.00     0.116 C 
BRANCH  24  25
ATOM     25  N   UNL     1       0.621   2.852  -2.275  1.00  0.00    -0.352 N 
ATOM     26  C   UNL     1       0.512   4.213  -2.434  1.00  0.00     0.251 C 
ATOM     27  H   UNL     1       0.142   2.470  -1.504  1.00  0.00     0.163 HD
ATOM     28  O   UNL     1      -0.042   4.904  -1.585  1.00  0.00    -0.269 OA
BRANCH  26  29
ATOM     29  C   UNL     1       1.106   4.827  -3.636  1.00  0.00     0.039 A 
ATOM     30  C   UNL     1       2.008   5.883  -3.489  1.00  0.00     0.014 A 
ATOM     31  C   UNL     1       0.842   4.282  -4.894  1.00  0.00     0.014 A 
ATOM     32  C   UNL     1       2.711   6.341  -4.604  1.00  0.00     0.010 A 
ATOM     33  C   UNL     1       1.606   4.678  -5.981  1.00  0.00     0.010 A 
ATOM     34  C   UNL     1       2.547   5.712  -5.849  1.00  0.00    -0.014 A 
BRANCH  34  35
ATOM     35  C   UNL     1       3.338   6.106  -7.040  1.00  0.00     0.031 A 
ATOM     36  C   UNL     1       2.627   6.613  -8.265  1.00  0.00     0.074 A 
ATOM     37  C   UNL     1       4.668   5.888  -7.066  1.00  0.00     0.049 A 
ATOM     38  N   UNL     1       3.108   6.872  -9.451  1.00  0.00    -0.248 NA
ATOM     39  C   UNL     1       1.171   6.814  -8.152  1.00  0.00     0.031 C 
ATOM     40  C   UNL     1       5.458   5.319  -5.972  1.00  0.00     0.029 A 
ATOM     41  N   UNL     1       5.586   6.087  -8.067  1.00  0.00    -0.354 N 
ATOM     42  C   UNL     1       2.014   7.212 -10.236  1.00  0.00     0.074 A 
ATOM     43  C   UNL     1       0.838   7.094  -9.403  1.00  0.00     0.031 C 
ATOM     44  C   UNL     1       6.740   5.217  -6.359  1.00  0.00     0.029 A 
ATOM     45  C   UNL     1       6.860   5.684  -7.737  1.00  0.00     0.049 A 
ATOM     46  H   UNL     1       5.356   6.481  -8.939  1.00  0.00     0.167 HD
ATOM     47  C   UNL     1       1.991   7.621 -11.526  1.00  0.00     0.034 A 
ATOM     48  C   UNL     1       7.994   5.688  -8.465  1.00  0.00     0.034 A 
ATOM     49  C   UNL     1       3.169   7.814 -12.324  1.00  0.00     0.049 A 
ATOM     50  C   UNL     1       7.953   6.222  -9.872  1.00  0.00     0.074 A 
ATOM     51  C   UNL     1       3.266   8.324 -13.606  1.00  0.00     0.029 A 
ATOM     52  N   UNL     1       4.458   7.513 -11.912  1.00  0.00    -0.354 N 
ATOM     53  N   UNL     1       6.930   6.688 -10.547  1.00  0.00    -0.248 NA
ATOM     54  C   UNL     1       9.226   6.266 -10.606  1.00  0.00     0.031 C 
ATOM     55  C   UNL     1       4.616   8.331 -13.970  1.00  0.00     0.029 A 
ATOM     56  C   UNL     1       5.359   7.831 -12.912  1.00  0.00     0.049 A 
ATOM     57  H   UNL     1       4.696   7.130 -11.037  1.00  0.00     0.167 HD
ATOM     58  C   UNL     1       7.440   7.113 -11.768  1.00  0.00     0.074 A 
ATOM     59  C   UNL     1       8.867   6.866 -11.734  1.00  0.00     0.031 C 
ATOM     60  C   UNL     1       6.784   7.643 -12.830  1.00  0.00     0.034 A 
BRANCH  47  61
ATOM     61  C   UNL     1       0.653   7.963 -12.126  1.00  0.00     0.023 A 
ATOM     62  C   UNL     1      -0.005   9.141 -11.717  1.00  0.00     0.012 A 
ATOM     63  C   UNL     1       0.070   7.153 -13.118  1.00  0.00     0.148 A 
ATOM     64  C   UNL     1      -1.240   9.490 -12.260  1.00  0.00     0.002 A 
ATOM     65  C   UNL     1      -1.142   7.530 -13.686  1.00  0.00     0.091 A 
ATOM     66  F   UNL     1       0.697   6.024 -13.475  1.00  0.00    -0.205 F 
ATOM     67  C   UNL     1      -1.803   8.691 -13.251  1.00  0.00     0.022 A 
BRANCH  65  68
ATOM     68  S   UNL     1      -1.912   6.607 -15.021  1.00  0.00     0.127 S 
ATOM     69  O   UNL     1      -3.021   5.954 -14.328  1.00  0.00    -0.237 OA
ATOM     70  O   UNL     1      -2.312   7.671 -15.943  1.00  0.00    -0.237 OA
ATOM     71  O   UNL     1      -0.881   5.717 -15.537  1.00  0.00    -0.744 OA
ENDBRANCH  65  68
ENDBRANCH  47  61
BRANCH  48  72
ATOM     72  C   UNL     1       9.279   5.251  -7.848  1.00  0.00     0.023 A 
ATOM     73  C   UNL     1      10.256   6.220  -7.548  1.00  0.00     0.012 A 
ATOM     74  C   UNL     1       9.528   3.903  -7.529  1.00  0.00     0.148 A 
ATOM     75  C   UNL     1      11.471   5.851  -6.968  1.00  0.00     0.002 A 
ATOM     76  C   UNL     1      10.720   3.549  -6.905  1.00  0.00     0.091 A 
ATOM     77  F   UNL     1       8.594   2.992  -7.835  1.00  0.00    -0.205 F 
ATOM     78  C   UNL     1      11.699   4.519  -6.637  1.00  0.00     0.022 A 
BRANCH  76  79
ATOM     79  S   UNL     1      11.040   1.877  -6.328  1.00  0.00     0.127 S 
ATOM     80  O   UNL     1      11.974   1.385  -7.337  1.00  0.00    -0.237 OA
ATOM     81  O   UNL     1      11.627   2.114  -5.008  1.00  0.00    -0.237 OA
ATOM     82  O   UNL     1       9.737   1.226  -6.291  1.00  0.00    -0.744 OA
ENDBRANCH  76  79
ENDBRANCH  48  72
BRANCH  60  83
ATOM     83  C   UNL     1       7.598   8.031 -14.034  1.00  0.00     0.023 A 
ATOM     84  C   UNL     1       8.075   7.030 -14.902  1.00  0.00     0.012 A 
ATOM     85  C   UNL     1       7.800   9.386 -14.358  1.00  0.00     0.148 A 
ATOM     86  C   UNL     1       8.761   7.372 -16.066  1.00  0.00     0.002 A 
ATOM     87  C   UNL     1       8.446   9.721 -15.542  1.00  0.00     0.091 A 
ATOM     88  F   UNL     1       7.354  10.322 -13.507  1.00  0.00    -0.205 F 
ATOM     89  C   UNL     1       8.934   8.716 -16.393  1.00  0.00     0.022 A 
BRANCH  87  90
ATOM     90  S   UNL     1       8.629  11.423 -16.088  1.00  0.00     0.127 S 
ATOM     91  O   UNL     1      10.048  11.667 -15.832  1.00  0.00    -0.237 OA
ATOM     92  O   UNL     1       8.271  11.337 -17.504  1.00  0.00    -0.237 OA
ATOM     93  O   UNL     1       7.703  12.203 -15.279  1.00  0.00    -0.744 OA
ENDBRANCH  87  90
ENDBRANCH  60  83
ENDBRANCH  34  35
ENDBRANCH  26  29
ENDBRANCH  24  25
ENDBRANCH   1  24
TORSDOF 17
