REMARK SMILES COC(=O)c1sc(SCC(=O)NCCCCNC(=O)c2ccc(-c3c4nc(c(-c5cccc(S(=O)(=O)[O-])c5F)c5ccc([nH]5)c(-c5cccc(S(=O)(=O)[O-])c5F)c5nc(c(-c6cccc(S(=O)(=O)[O-])c6F)c6ccc3[nH]6)C=C5)C=C4)cc2)c(NC(=O)c2ccccc2)c1O
REMARK SMILES IDX 14 1 13 2 12 3 10 4 11 5 9 7 8 8 7 9 5 10 6 11 93 12 83 13
REMARK SMILES IDX 3 14 4 15 2 16 1 17 94 18 84 20 85 21 86 23 87 24 88 25
REMARK SMILES IDX 92 26 89 27 91 28 90 29 15 30 16 31 17 32 18 33 19 35 20 36
REMARK SMILES IDX 21 37 82 38 22 39 81 40 23 41 24 42 25 43 75 44 26 45 80 46
REMARK SMILES IDX 74 47 76 48 27 49 79 50 73 51 72 52 28 54 60 55 40 56 59 57
REMARK SMILES IDX 41 58 44 59 58 60 77 61 42 62 43 63 57 65 78 66 45 67 29 68
REMARK SMILES IDX 30 69 38 70 31 71 33 72 39 73 32 74 34 75 35 76 36 77 37 78
REMARK SMILES IDX 61 79 62 80 70 81 63 82 65 83 71 84 64 85 66 86 67 87 68 88
REMARK SMILES IDX 69 89 46 90 47 91 55 92 48 93 50 94 56 95 49 96 51 97 52 98
REMARK SMILES IDX 53 99 54 100
REMARK H PARENT 12 6 94 19 84 22 17 34 76 53 44 64
REMARK Flexibility Score: inf
ROOT
ATOM      1  C   UNL     1       1.210  -0.443  -9.229  1.00  0.00     0.023 C 
ENDROOT
BRANCH   1   2
ATOM      2  C   UNL     1       0.161   0.099 -10.207  1.00  0.00     0.116 C 
BRANCH   2   3
ATOM      3  N   UNL     1      -1.175   0.128  -9.667  1.00  0.00    -0.355 N 
ATOM      4  C   UNL     1      -1.917   1.156  -9.142  1.00  0.00     0.230 C 
ATOM      5  O   UNL     1      -3.071   0.860  -8.821  1.00  0.00    -0.274 OA
ATOM      6  H   UNL     1      -1.636  -0.742  -9.676  1.00  0.00     0.163 HD
BRANCH   4   7
ATOM      7  C   UNL     1      -1.259   2.786  -9.000  1.00  0.00     0.175 C 
BRANCH   7   8
ATOM      8  S   UNL     1      -0.489   4.034  -6.874  1.00  0.00    -0.103 SA
BRANCH   8   9
ATOM      9  C   UNL     1      -0.494   3.082  -5.240  1.00  0.00     0.089 A 
ATOM     10  C   UNL     1       0.279   2.013  -3.105  1.00  0.00     0.157 A 
ATOM     11  S   UNL     1       0.946   3.087  -4.271  1.00  0.00    -0.116 S 
ATOM     12  C   UNL     1      -1.024   1.704  -3.426  1.00  0.00     0.166 A 
ATOM     13  C   UNL     1      -1.491   2.327  -4.614  1.00  0.00     0.109 A 
BRANCH  10  14
ATOM     14  C   UNL     1       1.065   1.575  -1.967  1.00  0.00     0.352 C 
ATOM     15  O   UNL     1       2.141   2.025  -1.592  1.00  0.00    -0.245 OA
BRANCH  14  16
ATOM     16  O   UNL     1       0.394   0.564  -1.326  1.00  0.00    -0.465 OA
ATOM     17  C   UNL     1       0.988   0.082  -0.119  1.00  0.00     0.282 C 
ENDBRANCH  14  16
ENDBRANCH  10  14
BRANCH  12  18
ATOM     18  O   UNL     1      -1.809   0.866  -2.710  1.00  0.00    -0.504 OA
ATOM     19  H   UNL     1      -1.479   0.467  -1.930  1.00  0.00     0.293 HD
ENDBRANCH  12  18
BRANCH  13  20
ATOM     20  N   UNL     1      -2.795   2.084  -5.028  1.00  0.00    -0.317 N 
ATOM     21  C   UNL     1      -3.325   2.443  -6.226  1.00  0.00     0.255 C 
ATOM     22  H   UNL     1      -3.386   1.612  -4.398  1.00  0.00     0.170 HD
ATOM     23  O   UNL     1      -4.521   2.603  -6.412  1.00  0.00    -0.269 OA
BRANCH  21  24
ATOM     24  C   UNL     1      -2.327   2.723  -7.252  1.00  0.00     0.040 A 
ATOM     25  C   UNL     1      -2.482   4.289  -8.098  1.00  0.00     0.014 A 
ATOM     26  C   UNL     1      -0.735   1.790  -7.312  1.00  0.00     0.014 A 
ATOM     27  C   UNL     1      -1.084   4.931  -9.010  1.00  0.00     0.001 A 
ATOM     28  C   UNL     1       0.659   2.499  -8.213  1.00  0.00     0.001 A 
ATOM     29  C   UNL     1       0.472   4.070  -9.049  1.00  0.00     0.000 A 
ENDBRANCH  21  24
ENDBRANCH  13  20
ENDBRANCH   8   9
ENDBRANCH   7   8
ENDBRANCH   4   7
ENDBRANCH   2   3
ENDBRANCH   1   2
BRANCH   1  30
ATOM     30  C   UNL     1       1.248  -1.948  -8.974  1.00  0.00     0.023 C 
BRANCH  30  31
ATOM     31  C   UNL     1       1.414  -2.790 -10.221  1.00  0.00     0.116 C 
BRANCH  31  32
ATOM     32  N   UNL     1       2.588  -2.406 -11.016  1.00  0.00    -0.352 N 
ATOM     33  C   UNL     1       2.912  -2.829 -12.295  1.00  0.00     0.251 C 
ATOM     34  H   UNL     1       3.216  -1.777 -10.592  1.00  0.00     0.163 HD
ATOM     35  O   UNL     1       4.049  -2.740 -12.738  1.00  0.00    -0.269 OA
BRANCH  33  36
ATOM     36  C   UNL     1       1.808  -3.324 -13.127  1.00  0.00     0.039 A 
ATOM     37  C   UNL     1       1.835  -4.531 -13.823  1.00  0.00     0.014 A 
ATOM     38  C   UNL     1       0.656  -2.552 -13.065  1.00  0.00     0.014 A 
ATOM     39  C   UNL     1       0.652  -4.961 -14.418  1.00  0.00     0.010 A 
ATOM     40  C   UNL     1      -0.538  -3.119 -13.375  1.00  0.00     0.010 A 
ATOM     41  C   UNL     1      -0.532  -4.241 -14.176  1.00  0.00    -0.014 A 
BRANCH  41  42
ATOM     42  C   UNL     1      -1.837  -4.679 -14.633  1.00  0.00     0.031 A 
ATOM     43  C   UNL     1      -2.186  -6.025 -14.115  1.00  0.00     0.074 A 
ATOM     44  C   UNL     1      -2.700  -3.830 -15.242  1.00  0.00     0.049 A 
ATOM     45  N   UNL     1      -2.132  -7.142 -14.760  1.00  0.00    -0.248 NA
ATOM     46  C   UNL     1      -2.362  -6.194 -12.660  1.00  0.00     0.031 C 
ATOM     47  C   UNL     1      -2.574  -2.377 -15.457  1.00  0.00     0.029 A 
ATOM     48  N   UNL     1      -3.951  -4.067 -15.705  1.00  0.00    -0.354 N 
ATOM     49  C   UNL     1      -2.585  -8.102 -13.860  1.00  0.00     0.074 A 
ATOM     50  C   UNL     1      -2.423  -7.524 -12.555  1.00  0.00     0.031 C 
ATOM     51  C   UNL     1      -3.784  -1.850 -15.757  1.00  0.00     0.029 A 
ATOM     52  C   UNL     1      -4.730  -2.934 -15.932  1.00  0.00     0.049 A 
ATOM     53  H   UNL     1      -4.287  -4.978 -15.870  1.00  0.00     0.167 HD
ATOM     54  C   UNL     1      -3.362  -9.135 -14.292  1.00  0.00     0.034 A 
ATOM     55  C   UNL     1      -6.063  -2.905 -16.206  1.00  0.00     0.034 A 
ATOM     56  C   UNL     1      -3.324  -9.223 -15.735  1.00  0.00     0.049 A 
ATOM     57  C   UNL     1      -6.430  -4.265 -16.666  1.00  0.00     0.074 A 
ATOM     58  C   UNL     1      -2.337  -9.407 -16.681  1.00  0.00     0.029 A 
ATOM     59  N   UNL     1      -4.386  -8.653 -16.398  1.00  0.00    -0.354 N 
ATOM     60  N   UNL     1      -5.954  -4.798 -17.757  1.00  0.00    -0.248 NA
ATOM     61  C   UNL     1      -6.895  -5.200 -15.655  1.00  0.00     0.031 C 
ATOM     62  C   UNL     1      -2.674  -8.511 -17.740  1.00  0.00     0.029 A 
ATOM     63  C   UNL     1      -3.897  -7.908 -17.437  1.00  0.00     0.049 A 
ATOM     64  H   UNL     1      -5.336  -8.762 -16.164  1.00  0.00     0.167 HD
ATOM     65  C   UNL     1      -5.617  -6.093 -17.383  1.00  0.00     0.074 A 
ATOM     66  C   UNL     1      -6.292  -6.306 -16.100  1.00  0.00     0.031 C 
ATOM     67  C   UNL     1      -4.574  -6.747 -17.976  1.00  0.00     0.034 A 
BRANCH  54  68
ATOM     68  C   UNL     1      -4.490  -9.776 -13.506  1.00  0.00     0.023 A 
ATOM     69  C   UNL     1      -5.137 -10.876 -14.116  1.00  0.00     0.012 A 
ATOM     70  C   UNL     1      -5.128  -9.214 -12.376  1.00  0.00     0.148 A 
ATOM     71  C   UNL     1      -6.382 -11.338 -13.678  1.00  0.00     0.002 A 
ATOM     72  C   UNL     1      -6.334  -9.718 -11.901  1.00  0.00     0.091 A 
ATOM     73  F   UNL     1      -4.648  -8.109 -11.807  1.00  0.00    -0.205 F 
ATOM     74  C   UNL     1      -6.983 -10.758 -12.569  1.00  0.00     0.022 A 
BRANCH  72  75
ATOM     75  S   UNL     1      -7.146  -9.031 -10.450  1.00  0.00     0.127 S 
ATOM     76  O   UNL     1      -8.324  -8.408 -11.044  1.00  0.00    -0.237 OA
ATOM     77  O   UNL     1      -7.410 -10.236  -9.663  1.00  0.00    -0.237 OA
ATOM     78  O   UNL     1      -6.178  -8.123  -9.847  1.00  0.00    -0.744 OA
ENDBRANCH  72  75
ENDBRANCH  54  68
BRANCH  55  79
ATOM     79  C   UNL     1      -7.100  -1.935 -15.764  1.00  0.00     0.023 A 
ATOM     80  C   UNL     1      -8.344  -1.863 -16.428  1.00  0.00     0.012 A 
ATOM     81  C   UNL     1      -6.989  -1.303 -14.507  1.00  0.00     0.148 A 
ATOM     82  C   UNL     1      -9.441  -1.204 -15.850  1.00  0.00     0.002 A 
ATOM     83  C   UNL     1      -8.079  -0.648 -13.938  1.00  0.00     0.091 A 
ATOM     84  F   UNL     1      -5.840  -1.428 -13.830  1.00  0.00    -0.205 F 
ATOM     85  C   UNL     1      -9.311  -0.604 -14.601  1.00  0.00     0.022 A 
BRANCH  83  86
ATOM     86  S   UNL     1      -7.993   0.122 -12.315  1.00  0.00     0.127 S 
ATOM     87  O   UNL     1      -8.476   1.473 -12.604  1.00  0.00    -0.237 OA
ATOM     88  O   UNL     1      -8.913  -0.708 -11.542  1.00  0.00    -0.237 OA
ATOM     89  O   UNL     1      -6.592   0.050 -11.927  1.00  0.00    -0.744 OA
ENDBRANCH  83  86
ENDBRANCH  55  79
BRANCH  67  90
ATOM     90  C   UNL     1      -3.950  -6.123 -19.201  1.00  0.00     0.023 A 
ATOM     91  C   UNL     1      -3.207  -4.921 -19.177  1.00  0.00     0.012 A 
ATOM     92  C   UNL     1      -3.971  -6.880 -20.381  1.00  0.00     0.148 A 
ATOM     93  C   UNL     1      -2.514  -4.485 -20.313  1.00  0.00     0.002 A 
ATOM     94  C   UNL     1      -3.247  -6.469 -21.491  1.00  0.00     0.091 A 
ATOM     95  F   UNL     1      -4.677  -8.021 -20.382  1.00  0.00    -0.205 F 
ATOM     96  C   UNL     1      -2.523  -5.266 -21.467  1.00  0.00     0.022 A 
BRANCH  94  97
ATOM     97  S   UNL     1      -3.125  -7.497 -22.954  1.00  0.00     0.127 S 
ATOM     98  O   UNL     1      -3.932  -6.751 -23.917  1.00  0.00    -0.237 OA
ATOM     99  O   UNL     1      -1.686  -7.489 -23.221  1.00  0.00    -0.237 OA
ATOM    100  O   UNL     1      -3.653  -8.802 -22.575  1.00  0.00    -0.744 OA
ENDBRANCH  94  97
ENDBRANCH  67  90
ENDBRANCH  41  42
ENDBRANCH  33  36
ENDBRANCH  31  32
ENDBRANCH  30  31
ENDBRANCH   1  30
TORSDOF 21
