REMARK SMILES CCc1ccc(C(=O)NC[C@@H](CC(C)C)C(=O)NCCCCNC(=O)c2ccc(-c3c4nc(c(-c5cccc(S(=O)(=O)[O-])c5F)c5ccc([nH]5)c(-c5cccc(S(=O)(=O)[O-])c5F)c5nc(c(-c6cccc(S(=O)(=O)[O-])c6F)c6ccc3[nH]6)C=C5)C=C4)cc2)s1
REMARK SMILES IDX 20 1 19 2 18 3 16 4 17 5 11 7 10 8 9 9 7 10 8 11 6 13 3 14
REMARK SMILES IDX 4 15 89 16 5 17 2 18 1 19 12 20 13 21 14 22 15 23 21 24
REMARK SMILES IDX 22 25 23 26 24 27 25 29 26 30 27 31 88 32 28 33 87 34 29 35
REMARK SMILES IDX 30 36 31 37 81 38 32 39 86 40 80 41 82 42 33 43 85 44 79 45
REMARK SMILES IDX 78 46 34 48 66 49 46 50 65 51 47 52 50 53 64 54 83 55 48 56
REMARK SMILES IDX 49 57 63 59 84 60 51 61 35 62 36 63 44 64 37 65 39 66 45 67
REMARK SMILES IDX 38 68 40 69 41 70 42 71 43 72 67 73 68 74 76 75 69 76 71 77
REMARK SMILES IDX 77 78 70 79 72 80 73 81 74 82 75 83 52 84 53 85 61 86 54 87
REMARK SMILES IDX 56 88 62 89 55 90 57 91 58 92 59 93 60 94
REMARK H PARENT 18 6 9 12 23 28 82 47 50 58
REMARK Flexibility Score: inf
ROOT
ATOM      1  C   UNL     1       0.854  -0.297  -9.433  1.00  0.00     0.023 C 
ENDROOT
BRANCH   1   2
ATOM      2  C   UNL     1       1.844  -1.426  -9.180  1.00  0.00     0.116 C 
BRANCH   2   3
ATOM      3  N   UNL     1       3.011  -1.002  -8.433  1.00  0.00    -0.356 N 
ATOM      4  C   UNL     1       3.820  -1.668  -7.569  1.00  0.00     0.224 C 
ATOM      5  O   UNL     1       4.849  -1.091  -7.205  1.00  0.00    -0.275 OA
ATOM      6  H   UNL     1       3.263  -0.061  -8.578  1.00  0.00     0.163 HD
BRANCH   4   7
ATOM      7  C   UNL     1       3.529  -3.072  -7.048  1.00  0.00     0.098 C 
BRANCH   7   8
ATOM      8  C   UNL     1       2.076  -3.285  -6.605  1.00  0.00     0.129 C 
BRANCH   8   9
ATOM      9  N   UNL     1       1.963  -4.114  -5.417  1.00  0.00    -0.351 N 
ATOM     10  C   UNL     1       1.550  -3.809  -4.140  1.00  0.00     0.261 C 
ATOM     11  O   UNL     1       1.314  -4.786  -3.422  1.00  0.00    -0.268 OA
ATOM     12  H   UNL     1       2.226  -5.054  -5.548  1.00  0.00     0.163 HD
BRANCH  10  13
ATOM     13  C   UNL     1       1.415  -2.430  -3.687  1.00  0.00     0.092 A 
ATOM     14  C   UNL     1       0.786  -0.474  -2.275  1.00  0.00     0.005 A 
ATOM     15  C   UNL     1       1.666  -0.135  -3.280  1.00  0.00     0.016 A 
ATOM     16  S   UNL     1       0.348  -2.124  -2.368  1.00  0.00    -0.135 S 
ATOM     17  C   UNL     1       2.043  -1.260  -4.075  1.00  0.00     0.026 A 
BRANCH  14  18
ATOM     18  C   UNL     1       0.231   0.404  -1.192  1.00  0.00     0.043 C 
ATOM     19  C   UNL     1       0.869   0.113   0.161  1.00  0.00     0.010 C 
ENDBRANCH  14  18
ENDBRANCH  10  13
ENDBRANCH   8   9
ENDBRANCH   7   8
BRANCH   7  20
ATOM     20  C   UNL     1       4.116  -4.213  -7.914  1.00  0.00     0.018 C 
BRANCH  20  21
ATOM     21  C   UNL     1       3.653  -4.319  -9.382  1.00  0.00    -0.017 C 
ATOM     22  C   UNL     1       4.551  -3.510 -10.326  1.00  0.00     0.007 C 
ATOM     23  C   UNL     1       3.655  -5.778  -9.851  1.00  0.00     0.007 C 
ENDBRANCH  20  21
ENDBRANCH   7  20
ENDBRANCH   4   7
ENDBRANCH   2   3
ENDBRANCH   1   2
BRANCH   1  24
ATOM     24  C   UNL     1       1.333   0.759 -10.426  1.00  0.00     0.023 C 
BRANCH  24  25
ATOM     25  C   UNL     1       1.875   0.218 -11.745  1.00  0.00     0.116 C 
BRANCH  25  26
ATOM     26  N   UNL     1       0.934  -0.653 -12.442  1.00  0.00    -0.352 N 
ATOM     27  C   UNL     1       0.481  -0.566 -13.741  1.00  0.00     0.251 C 
ATOM     28  H   UNL     1       0.574  -1.402 -11.914  1.00  0.00     0.163 HD
ATOM     29  O   UNL     1      -0.387  -1.318 -14.154  1.00  0.00    -0.269 OA
BRANCH  27  30
ATOM     30  C   UNL     1       1.048   0.485 -14.609  1.00  0.00     0.039 A 
ATOM     31  C   UNL     1       0.191   1.422 -15.190  1.00  0.00     0.014 A 
ATOM     32  C   UNL     1       2.433   0.596 -14.748  1.00  0.00     0.014 A 
ATOM     33  C   UNL     1       0.733   2.533 -15.839  1.00  0.00     0.010 A 
ATOM     34  C   UNL     1       2.966   1.739 -15.327  1.00  0.00     0.010 A 
ATOM     35  C   UNL     1       2.123   2.723 -15.870  1.00  0.00    -0.014 A 
BRANCH  35  36
ATOM     36  C   UNL     1       2.741   3.940 -16.455  1.00  0.00     0.031 A 
ATOM     37  C   UNL     1       3.677   3.799 -17.624  1.00  0.00     0.074 A 
ATOM     38  C   UNL     1       2.561   5.140 -15.867  1.00  0.00     0.049 A 
ATOM     39  N   UNL     1       4.460   4.693 -18.167  1.00  0.00    -0.248 NA
ATOM     40  C   UNL     1       3.772   2.464 -18.239  1.00  0.00     0.031 C 
ATOM     41  C   UNL     1       1.725   5.396 -14.691  1.00  0.00     0.029 A 
ATOM     42  N   UNL     1       3.104   6.368 -16.158  1.00  0.00    -0.354 N 
ATOM     43  C   UNL     1       5.171   4.022 -19.154  1.00  0.00     0.074 A 
ATOM     44  C   UNL     1       4.751   2.638 -19.115  1.00  0.00     0.031 C 
ATOM     45  C   UNL     1       1.813   6.696 -14.361  1.00  0.00     0.029 A 
ATOM     46  C   UNL     1       2.736   7.359 -15.275  1.00  0.00     0.049 A 
ATOM     47  H   UNL     1       3.700   6.525 -16.925  1.00  0.00     0.167 HD
ATOM     48  C   UNL     1       6.069   4.518 -20.037  1.00  0.00     0.034 A 
ATOM     49  C   UNL     1       3.113   8.652 -15.207  1.00  0.00     0.034 A 
ATOM     50  C   UNL     1       6.435   5.904 -20.115  1.00  0.00     0.049 A 
ATOM     51  C   UNL     1       4.076   9.186 -16.236  1.00  0.00     0.074 A 
ATOM     52  C   UNL     1       7.300   6.516 -21.004  1.00  0.00     0.029 A 
ATOM     53  N   UNL     1       5.942   6.897 -19.284  1.00  0.00    -0.354 N 
ATOM     54  N   UNL     1       4.650   8.557 -17.232  1.00  0.00    -0.248 NA
ATOM     55  C   UNL     1       4.415  10.614 -16.154  1.00  0.00     0.031 C 
ATOM     56  C   UNL     1       7.323   7.884 -20.716  1.00  0.00     0.029 A 
ATOM     57  C   UNL     1       6.466   8.122 -19.653  1.00  0.00     0.049 A 
ATOM     58  H   UNL     1       5.312   6.753 -18.542  1.00  0.00     0.167 HD
ATOM     59  C   UNL     1       5.374   9.521 -17.924  1.00  0.00     0.074 A 
ATOM     60  C   UNL     1       5.159  10.779 -17.240  1.00  0.00     0.031 C 
ATOM     61  C   UNL     1       6.161   9.377 -19.018  1.00  0.00     0.034 A 
BRANCH  48  62
ATOM     62  C   UNL     1       6.656   3.567 -21.045  1.00  0.00     0.023 A 
ATOM     63  C   UNL     1       5.851   3.112 -22.108  1.00  0.00     0.012 A 
ATOM     64  C   UNL     1       8.008   3.178 -20.983  1.00  0.00     0.148 A 
ATOM     65  C   UNL     1       6.372   2.260 -23.079  1.00  0.00     0.002 A 
ATOM     66  C   UNL     1       8.532   2.361 -21.978  1.00  0.00     0.091 A 
ATOM     67  F   UNL     1       8.751   3.606 -19.952  1.00  0.00    -0.205 F 
ATOM     68  C   UNL     1       7.713   1.894 -23.021  1.00  0.00     0.022 A 
BRANCH  66  69
ATOM     69  S   UNL     1      10.264   1.890 -22.038  1.00  0.00     0.127 S 
ATOM     70  O   UNL     1      10.192   0.461 -21.736  1.00  0.00    -0.237 OA
ATOM     71  O   UNL     1      10.621   2.204 -23.422  1.00  0.00    -0.237 OA
ATOM     72  O   UNL     1      10.937   2.705 -21.036  1.00  0.00    -0.744 OA
ENDBRANCH  66  69
ENDBRANCH  48  62
BRANCH  49  73
ATOM     73  C   UNL     1       2.526   9.558 -14.178  1.00  0.00     0.023 A 
ATOM     74  C   UNL     1       1.639  10.573 -14.587  1.00  0.00     0.012 A 
ATOM     75  C   UNL     1       2.836   9.432 -12.811  1.00  0.00     0.148 A 
ATOM     76  C   UNL     1       1.106  11.472 -13.662  1.00  0.00     0.002 A 
ATOM     77  C   UNL     1       2.260  10.298 -11.887  1.00  0.00     0.091 A 
ATOM     78  F   UNL     1       3.695   8.473 -12.436  1.00  0.00    -0.205 F 
ATOM     79  C   UNL     1       1.409  11.330 -12.311  1.00  0.00     0.022 A 
BRANCH  77  80
ATOM     80  S   UNL     1       2.503  10.093 -10.118  1.00  0.00     0.127 S 
ATOM     81  O   UNL     1       3.550  11.072  -9.843  1.00  0.00    -0.237 OA
ATOM     82  O   UNL     1       1.185  10.434  -9.580  1.00  0.00    -0.237 OA
ATOM     83  O   UNL     1       2.868   8.693  -9.946  1.00  0.00    -0.744 OA
ENDBRANCH  77  80
ENDBRANCH  49  73
BRANCH  61  84
ATOM     84  C   UNL     1       6.794  10.611 -19.600  1.00  0.00     0.023 A 
ATOM     85  C   UNL     1       7.906  11.195 -18.964  1.00  0.00     0.012 A 
ATOM     86  C   UNL     1       6.349  11.124 -20.834  1.00  0.00     0.148 A 
ATOM     87  C   UNL     1       8.555  12.286 -19.539  1.00  0.00     0.002 A 
ATOM     88  C   UNL     1       7.028  12.183 -21.423  1.00  0.00     0.091 A 
ATOM     89  F   UNL     1       5.276  10.563 -21.411  1.00  0.00    -0.205 F 
ATOM     90  C   UNL     1       8.126  12.770 -20.773  1.00  0.00     0.022 A 
BRANCH  88  91
ATOM     91  S   UNL     1       6.604  12.809 -23.053  1.00  0.00     0.127 S 
ATOM     92  O   UNL     1       5.970  14.085 -22.726  1.00  0.00    -0.237 OA
ATOM     93  O   UNL     1       7.916  12.925 -23.692  1.00  0.00    -0.237 OA
ATOM     94  O   UNL     1       5.729  11.810 -23.651  1.00  0.00    -0.744 OA
ENDBRANCH  88  91
ENDBRANCH  61  84
ENDBRANCH  35  36
ENDBRANCH  27  30
ENDBRANCH  25  26
ENDBRANCH  24  25
ENDBRANCH   1  24
TORSDOF 20
