REMARK SMILES O=C(NCCCCNC(=O)c1conc1-c1ccc(Cl)cc1)c1ccc(-c2c3nc(c(-c4cccc(S(=O)(=O)[O-])c4F)c4ccc([nH]4)c(-c4cccc(S(=O)(=O)[O-])c4F)c4nc(c(-c5cccc(S(=O)(=O)[O-])c5F)c5ccc2[nH]5)C=C4)C=C3)cc1
REMARK SMILES IDX 4 1 3 2 1 3 2 4 23 6 24 7 85 8 25 9 84 10 26 11 27 12 28 13
REMARK SMILES IDX 78 14 29 15 83 16 77 17 79 18 30 19 82 20 76 21 75 22 31 24
REMARK SMILES IDX 63 25 43 26 62 27 44 28 47 29 61 30 80 31 45 32 46 33 60 35
REMARK SMILES IDX 81 36 48 37 32 38 33 39 41 40 34 41 36 42 42 43 35 44 37 45
REMARK SMILES IDX 38 46 39 47 40 48 64 49 65 50 73 51 66 52 68 53 74 54 67 55
REMARK SMILES IDX 69 56 70 57 71 58 72 59 49 60 50 61 58 62 51 63 53 64 59 65
REMARK SMILES IDX 52 66 54 67 55 68 56 69 57 70 5 71 6 72 7 73 8 74 9 75 10 77
REMARK SMILES IDX 11 78 12 79 15 80 13 81 14 82 16 83 17 84 22 85 18 86 21 87
REMARK SMILES IDX 19 88 20 89
REMARK H PARENT 3 5 79 23 47 34 8 76
REMARK Flexibility Score: inf
ROOT
ATOM      1  C   UNL     1       4.575  -1.048  -1.349  1.00  0.00     0.116 C 
ENDROOT
BRANCH   1   2
ATOM      2  N   UNL     1       3.196  -0.632  -1.175  1.00  0.00    -0.352 N 
ATOM      3  O   UNL     1       1.316  -0.026  -0.123  1.00  0.00    -0.269 OA
ATOM      4  C   UNL     1       2.519  -0.265  -0.037  1.00  0.00     0.251 C 
ATOM      5  H   UNL     1       2.661  -0.610  -2.002  1.00  0.00     0.163 HD
BRANCH   4   6
ATOM      6  C   UNL     1       3.197  -0.185   1.281  1.00  0.00     0.039 A 
ATOM      7  C   UNL     1       4.461   0.390   1.437  1.00  0.00     0.014 A 
ATOM      8  C   UNL     1       2.505  -0.651   2.407  1.00  0.00     0.014 A 
ATOM      9  C   UNL     1       5.063   0.422   2.697  1.00  0.00     0.010 A 
ATOM     10  C   UNL     1       3.096  -0.591   3.674  1.00  0.00     0.010 A 
ATOM     11  C   UNL     1       4.390  -0.076   3.824  1.00  0.00    -0.014 A 
BRANCH  11  12
ATOM     12  C   UNL     1       5.038  -0.015   5.157  1.00  0.00     0.031 A 
ATOM     13  C   UNL     1       5.656  -1.241   5.766  1.00  0.00     0.074 A 
ATOM     14  C   UNL     1       5.092   1.160   5.811  1.00  0.00     0.049 A 
ATOM     15  N   UNL     1       6.401  -1.337   6.837  1.00  0.00    -0.248 NA
ATOM     16  C   UNL     1       5.418  -2.521   5.080  1.00  0.00     0.031 C 
ATOM     17  C   UNL     1       4.495   2.411   5.344  1.00  0.00     0.029 A 
ATOM     18  N   UNL     1       5.687   1.495   7.001  1.00  0.00    -0.354 N 
ATOM     19  C   UNL     1       6.725  -2.682   6.955  1.00  0.00     0.074 A 
ATOM     20  C   UNL     1       6.080  -3.370   5.856  1.00  0.00     0.031 C 
ATOM     21  C   UNL     1       4.777   3.385   6.224  1.00  0.00     0.029 A 
ATOM     22  C   UNL     1       5.575   2.828   7.314  1.00  0.00     0.049 A 
ATOM     23  H   UNL     1       6.150   0.843   7.575  1.00  0.00     0.167 HD
ATOM     24  C   UNL     1       7.522  -3.281   7.871  1.00  0.00     0.034 A 
ATOM     25  C   UNL     1       6.085   3.527   8.348  1.00  0.00     0.034 A 
ATOM     26  C   UNL     1       8.206  -2.594   8.933  1.00  0.00     0.049 A 
ATOM     27  C   UNL     1       6.936   2.827   9.371  1.00  0.00     0.074 A 
ATOM     28  C   UNL     1       9.121  -3.100   9.841  1.00  0.00     0.029 A 
ATOM     29  N   UNL     1       8.038  -1.253   9.241  1.00  0.00    -0.354 N 
ATOM     30  N   UNL     1       7.375   1.592   9.370  1.00  0.00    -0.248 NA
ATOM     31  C   UNL     1       7.376   3.622  10.527  1.00  0.00     0.031 C 
ATOM     32  C   UNL     1       9.512  -2.060  10.695  1.00  0.00     0.029 A 
ATOM     33  C   UNL     1       8.817  -0.917  10.335  1.00  0.00     0.049 A 
ATOM     34  H   UNL     1       7.451  -0.631   8.753  1.00  0.00     0.167 HD
ATOM     35  C   UNL     1       8.162   1.467  10.508  1.00  0.00     0.074 A 
ATOM     36  C   UNL     1       8.144   2.754  11.175  1.00  0.00     0.031 C 
ATOM     37  C   UNL     1       8.829   0.379  10.963  1.00  0.00     0.034 A 
BRANCH  24  38
ATOM     38  C   UNL     1       7.780  -4.748   7.697  1.00  0.00     0.023 A 
ATOM     39  C   UNL     1       8.934  -5.144   6.993  1.00  0.00     0.012 A 
ATOM     40  C   UNL     1       6.922  -5.726   8.230  1.00  0.00     0.148 A 
ATOM     41  C   UNL     1       9.228  -6.497   6.824  1.00  0.00     0.002 A 
ATOM     42  C   UNL     1       7.218  -7.075   8.052  1.00  0.00     0.091 A 
ATOM     43  F   UNL     1       5.816  -5.335   8.880  1.00  0.00    -0.205 F 
ATOM     44  C   UNL     1       8.371  -7.464   7.353  1.00  0.00     0.022 A 
BRANCH  42  45
ATOM     45  S   UNL     1       6.093  -8.319   8.708  1.00  0.00     0.127 S 
ATOM     46  O   UNL     1       4.883  -8.099   7.921  1.00  0.00    -0.237 OA
ATOM     47  O   UNL     1       6.774  -9.582   8.417  1.00  0.00    -0.237 OA
ATOM     48  O   UNL     1       6.015  -7.995  10.128  1.00  0.00    -0.744 OA
ENDBRANCH  42  45
ENDBRANCH  24  38
BRANCH  25  49
ATOM     49  C   UNL     1       5.894   5.000   8.397  1.00  0.00     0.023 A 
ATOM     50  C   UNL     1       6.965   5.836   8.030  1.00  0.00     0.012 A 
ATOM     51  C   UNL     1       4.660   5.575   8.739  1.00  0.00     0.148 A 
ATOM     52  C   UNL     1       6.808   7.223   8.009  1.00  0.00     0.002 A 
ATOM     53  C   UNL     1       4.501   6.957   8.687  1.00  0.00     0.091 A 
ATOM     54  F   UNL     1       3.644   4.771   9.087  1.00  0.00    -0.205 F 
ATOM     55  C   UNL     1       5.573   7.786   8.330  1.00  0.00     0.022 A 
BRANCH  53  56
ATOM     56  S   UNL     1       2.883   7.660   9.018  1.00  0.00     0.127 S 
ATOM     57  O   UNL     1       2.667   7.323  10.421  1.00  0.00    -0.237 OA
ATOM     58  O   UNL     1       3.076   9.088   8.760  1.00  0.00    -0.237 OA
ATOM     59  O   UNL     1       2.031   6.987   8.043  1.00  0.00    -0.744 OA
ENDBRANCH  53  56
ENDBRANCH  25  49
BRANCH  37  60
ATOM     60  C   UNL     1       9.585   0.520  12.253  1.00  0.00     0.023 A 
ATOM     61  C   UNL     1       8.905   0.296  13.464  1.00  0.00     0.012 A 
ATOM     62  C   UNL     1      10.961   0.807  12.274  1.00  0.00     0.148 A 
ATOM     63  C   UNL     1       9.586   0.365  14.680  1.00  0.00     0.002 A 
ATOM     64  C   UNL     1      11.638   0.864  13.489  1.00  0.00     0.091 A 
ATOM     65  F   UNL     1      11.601   1.016  11.113  1.00  0.00    -0.205 F 
ATOM     66  C   UNL     1      10.954   0.647  14.695  1.00  0.00     0.022 A 
BRANCH  64  67
ATOM     67  S   UNL     1      13.406   1.198  13.494  1.00  0.00     0.127 S 
ATOM     68  O   UNL     1      13.483   2.549  12.946  1.00  0.00    -0.237 OA
ATOM     69  O   UNL     1      13.769   1.103  14.909  1.00  0.00    -0.237 OA
ATOM     70  O   UNL     1      13.954   0.129  12.665  1.00  0.00    -0.744 OA
ENDBRANCH  64  67
ENDBRANCH  37  60
ENDBRANCH  11  12
ENDBRANCH   4   6
ENDBRANCH   1   2
BRANCH   1  71
ATOM     71  C   UNL     1       4.771  -2.015  -2.518  1.00  0.00     0.023 C 
BRANCH  71  72
ATOM     72  C   UNL     1       4.263  -1.542  -3.888  1.00  0.00     0.023 C 
BRANCH  72  73
ATOM     73  C   UNL     1       4.728  -0.153  -4.324  1.00  0.00     0.116 C 
BRANCH  73  74
ATOM     74  N   UNL     1       6.171  -0.073  -4.457  1.00  0.00    -0.352 N 
ATOM     75  C   UNL     1       6.989  -0.269  -5.541  1.00  0.00     0.256 C 
ATOM     76  H   UNL     1       6.645   0.163  -3.626  1.00  0.00     0.163 HD
ATOM     77  O   UNL     1       8.197  -0.367  -5.340  1.00  0.00    -0.269 OA
BRANCH  75  78
ATOM     78  C   UNL     1       6.435  -0.363  -6.870  1.00  0.00     0.107 A 
ATOM     79  C   UNL     1       5.497   0.466  -7.438  1.00  0.00     0.245 A 
ATOM     80  C   UNL     1       6.833  -1.211  -7.950  1.00  0.00     0.126 A 
ATOM     81  O   UNL     1       5.293   0.120  -8.728  1.00  0.00    -0.363 OA
ATOM     82  N   UNL     1       6.125  -0.926  -9.058  1.00  0.00    -0.079 NA
BRANCH  80  83
ATOM     83  C   UNL     1       7.845  -2.266  -7.975  1.00  0.00     0.005 A 
ATOM     84  C   UNL     1       7.953  -3.192  -6.928  1.00  0.00     0.012 A 
ATOM     85  C   UNL     1       8.723  -2.367  -9.066  1.00  0.00     0.012 A 
ATOM     86  C   UNL     1       8.928  -4.195  -6.968  1.00  0.00     0.021 A 
ATOM     87  C   UNL     1       9.699  -3.367  -9.104  1.00  0.00     0.021 A 
ATOM     88  C   UNL     1       9.798  -4.276  -8.054  1.00  0.00     0.041 A 
ATOM     89  Cl  UNL     1      10.997  -5.508  -8.102  1.00  0.00    -0.084 Cl
ENDBRANCH  80  83
ENDBRANCH  75  78
ENDBRANCH  73  74
ENDBRANCH  72  73
ENDBRANCH  71  72
ENDBRANCH   1  71
TORSDOF 15
