REMARK SMILES COc1ccc(Cl)cc1-c1cnc(OC)c(C(=O)NCCCCNC(=O)c2ccc(-c3c4nc(c(-c5cccc(S(=O)(=O)[O-])c5F)c5ccc([nH]5)c(-c5cccc(S(=O)(=O)[O-])c5F)c5nc(c(-c6cccc(S(=O)(=O)[O-])c6F)c6ccc3[nH]6)C=C5)C=C4)cc2)c1
REMARK SMILES IDX 22 1 21 2 20 3 19 4 17 5 18 6 16 8 10 9 11 10 90 11 12 12
REMARK SMILES IDX 13 13 9 14 3 15 4 16 5 17 8 18 6 19 7 20 2 21 1 22 14 23
REMARK SMILES IDX 15 24 23 25 24 26 25 27 26 29 27 30 28 31 89 32 29 33 88 34
REMARK SMILES IDX 30 35 31 36 32 37 82 38 33 39 87 40 81 41 83 42 34 43 86 44
REMARK SMILES IDX 80 45 79 46 35 48 67 49 47 50 66 51 48 52 51 53 65 54 84 55
REMARK SMILES IDX 49 56 50 57 64 59 85 60 52 61 36 62 37 63 45 64 38 65 40 66
REMARK SMILES IDX 46 67 39 68 41 69 42 70 43 71 44 72 68 73 69 74 77 75 70 76
REMARK SMILES IDX 72 77 78 78 71 79 73 80 74 81 75 82 76 83 53 84 54 85 62 86
REMARK SMILES IDX 55 87 57 88 63 89 56 90 58 91 59 92 60 93 61 94
REMARK H PARENT 19 7 24 28 83 47 51 58
REMARK Flexibility Score: inf
ROOT
ATOM      1  C   UNL     1      -2.963   3.228   3.056  1.00  0.00     0.023 C 
ENDROOT
BRANCH   1   2
ATOM      2  C   UNL     1      -2.242   2.887   1.748  1.00  0.00     0.023 C 
BRANCH   2   3
ATOM      3  C   UNL     1      -2.255   1.395   1.397  1.00  0.00     0.116 C 
BRANCH   3   4
ATOM      4  N   UNL     1      -3.587   1.000   0.992  1.00  0.00    -0.352 N 
ATOM      5  C   UNL     1      -4.231   0.969  -0.220  1.00  0.00     0.256 C 
ATOM      6  O   UNL     1      -5.451   0.834  -0.162  1.00  0.00    -0.269 OA
ATOM      7  H   UNL     1      -4.147   0.690   1.740  1.00  0.00     0.163 HD
BRANCH   5   8
ATOM      8  C   UNL     1      -3.537   1.096  -1.532  1.00  0.00     0.102 A 
ATOM      9  C   UNL     1      -1.584   1.831  -2.808  1.00  0.00     0.005 A 
ATOM     10  C   UNL     1      -2.091   1.119  -3.881  1.00  0.00     0.124 A 
ATOM     11  C   UNL     1      -2.394   1.892  -1.670  1.00  0.00     0.030 A 
ATOM     12  N   UNL     1      -3.259   0.431  -3.849  1.00  0.00    -0.221 NA
ATOM     13  C   UNL     1      -3.943   0.389  -2.670  1.00  0.00     0.226 A 
BRANCH   9  14
ATOM     14  C   UNL     1      -0.212   2.365  -2.765  1.00  0.00     0.027 A 
ATOM     15  C   UNL     1       0.787   1.718  -1.988  1.00  0.00     0.126 A 
ATOM     16  C   UNL     1       2.081   2.244  -1.914  1.00  0.00     0.048 A 
ATOM     17  C   UNL     1       2.393   3.423  -2.590  1.00  0.00     0.024 A 
ATOM     18  C   UNL     1       0.125   3.547  -3.441  1.00  0.00     0.033 A 
ATOM     19  C   UNL     1       1.418   4.067  -3.347  1.00  0.00     0.041 A 
ATOM     20  Cl  UNL     1       1.815   5.524  -4.174  1.00  0.00    -0.084 Cl
BRANCH  15  21
ATOM     21  O   UNL     1       0.420   0.546  -1.371  1.00  0.00    -0.496 OA
ATOM     22  C   UNL     1       1.141   0.181  -0.198  1.00  0.00     0.278 C 
ENDBRANCH  15  21
ENDBRANCH   9  14
BRANCH  13  23
ATOM     23  O   UNL     1      -4.878  -0.611  -2.662  1.00  0.00    -0.480 OA
ATOM     24  C   UNL     1      -6.224  -0.181  -2.492  1.00  0.00     0.280 C 
ENDBRANCH  13  23
ENDBRANCH   5   8
ENDBRANCH   3   4
ENDBRANCH   2   3
ENDBRANCH   1   2
BRANCH   1  25
ATOM     25  C   UNL     1      -2.408   2.531   4.291  1.00  0.00     0.116 C 
BRANCH  25  26
ATOM     26  N   UNL     1      -0.980   2.746   4.467  1.00  0.00    -0.352 N 
ATOM     27  C   UNL     1      -0.260   2.801   5.638  1.00  0.00     0.251 C 
ATOM     28  H   UNL     1      -0.461   2.869   3.639  1.00  0.00     0.163 HD
ATOM     29  O   UNL     1       0.921   3.099   5.621  1.00  0.00    -0.269 OA
BRANCH  27  30
ATOM     30  C   UNL     1      -0.956   2.528   6.914  1.00  0.00     0.039 A 
ATOM     31  C   UNL     1      -0.821   3.445   7.958  1.00  0.00     0.014 A 
ATOM     32  C   UNL     1      -1.759   1.395   7.060  1.00  0.00     0.014 A 
ATOM     33  C   UNL     1      -1.540   3.252   9.138  1.00  0.00     0.010 A 
ATOM     34  C   UNL     1      -2.526   1.240   8.210  1.00  0.00     0.010 A 
ATOM     35  C   UNL     1      -2.420   2.163   9.261  1.00  0.00    -0.014 A 
BRANCH  35  36
ATOM     36  C   UNL     1      -3.243   1.976  10.481  1.00  0.00     0.031 A 
ATOM     37  C   UNL     1      -3.032   0.771  11.355  1.00  0.00     0.074 A 
ATOM     38  C   UNL     1      -4.236   2.845  10.751  1.00  0.00     0.049 A 
ATOM     39  N   UNL     1      -3.680   0.412  12.433  1.00  0.00    -0.248 NA
ATOM     40  C   UNL     1      -1.974  -0.170  10.951  1.00  0.00     0.031 C 
ATOM     41  C   UNL     1      -4.591   4.005   9.930  1.00  0.00     0.029 A 
ATOM     42  N   UNL     1      -5.145   2.875  11.778  1.00  0.00    -0.354 N 
ATOM     43  C   UNL     1      -3.134  -0.807  12.815  1.00  0.00     0.074 A 
ATOM     44  C   UNL     1      -2.127  -1.146  11.834  1.00  0.00     0.031 C 
ATOM     45  C   UNL     1      -5.637   4.636  10.489  1.00  0.00     0.029 A 
ATOM     46  C   UNL     1      -6.040   3.915  11.692  1.00  0.00     0.049 A 
ATOM     47  H   UNL     1      -5.155   2.214  12.507  1.00  0.00     0.167 HD
ATOM     48  C   UNL     1      -3.419  -1.560  13.904  1.00  0.00     0.034 A 
ATOM     49  C   UNL     1      -7.069   4.250  12.495  1.00  0.00     0.034 A 
ATOM     50  C   UNL     1      -4.387  -1.194  14.902  1.00  0.00     0.049 A 
ATOM     51  C   UNL     1      -7.332   3.425  13.725  1.00  0.00     0.074 A 
ATOM     52  C   UNL     1      -4.690  -1.841  16.086  1.00  0.00     0.029 A 
ATOM     53  N   UNL     1      -5.212  -0.081  14.832  1.00  0.00    -0.354 N 
ATOM     54  N   UNL     1      -6.694   2.364  14.159  1.00  0.00    -0.248 NA
ATOM     55  C   UNL     1      -8.429   3.865  14.599  1.00  0.00     0.031 C 
ATOM     56  C   UNL     1      -5.708  -1.126  16.726  1.00  0.00     0.029 A 
ATOM     57  C   UNL     1      -6.026  -0.024  15.949  1.00  0.00     0.049 A 
ATOM     58  H   UNL     1      -5.217   0.572  14.095  1.00  0.00     0.167 HD
ATOM     59  C   UNL     1      -7.286   2.032  15.372  1.00  0.00     0.074 A 
ATOM     60  C   UNL     1      -8.320   3.018  15.614  1.00  0.00     0.031 C 
ATOM     61  C   UNL     1      -7.010   0.997  16.203  1.00  0.00     0.034 A 
BRANCH  48  62
ATOM     62  C   UNL     1      -2.625  -2.824  14.104  1.00  0.00     0.023 A 
ATOM     63  C   UNL     1      -1.267  -2.735  14.475  1.00  0.00     0.012 A 
ATOM     64  C   UNL     1      -3.223  -4.092  13.973  1.00  0.00     0.148 A 
ATOM     65  C   UNL     1      -0.507  -3.887  14.676  1.00  0.00     0.002 A 
ATOM     66  C   UNL     1      -2.470  -5.235  14.217  1.00  0.00     0.091 A 
ATOM     67  F   UNL     1      -4.508  -4.158  13.597  1.00  0.00    -0.205 F 
ATOM     68  C   UNL     1      -1.111  -5.135  14.557  1.00  0.00     0.022 A 
BRANCH  66  69
ATOM     69  S   UNL     1      -3.175  -6.887  14.165  1.00  0.00     0.127 S 
ATOM     70  O   UNL     1      -2.607  -7.410  12.923  1.00  0.00    -0.237 OA
ATOM     71  O   UNL     1      -2.636  -7.492  15.383  1.00  0.00    -0.237 OA
ATOM     72  O   UNL     1      -4.619  -6.705  14.166  1.00  0.00    -0.744 OA
ENDBRANCH  66  69
ENDBRANCH  48  62
BRANCH  49  73
ATOM     73  C   UNL     1      -7.871   5.473  12.207  1.00  0.00     0.023 A 
ATOM     74  C   UNL     1      -7.737   6.596  13.047  1.00  0.00     0.012 A 
ATOM     75  C   UNL     1      -8.735   5.545  11.098  1.00  0.00     0.148 A 
ATOM     76  C   UNL     1      -8.472   7.757  12.807  1.00  0.00     0.002 A 
ATOM     77  C   UNL     1      -9.425   6.723  10.833  1.00  0.00     0.091 A 
ATOM     78  F   UNL     1      -8.858   4.463  10.316  1.00  0.00    -0.205 F 
ATOM     79  C   UNL     1      -9.308   7.824  11.696  1.00  0.00     0.022 A 
BRANCH  77  80
ATOM     80  S   UNL     1     -10.421   6.944   9.354  1.00  0.00     0.127 S 
ATOM     81  O   UNL     1     -11.775   6.909   9.898  1.00  0.00    -0.237 OA
ATOM     82  O   UNL     1      -9.978   8.257   8.883  1.00  0.00    -0.237 OA
ATOM     83  O   UNL     1     -10.060   5.840   8.474  1.00  0.00    -0.744 OA
ENDBRANCH  77  80
ENDBRANCH  49  73
BRANCH  61  84
ATOM     84  C   UNL     1      -7.812   0.889  17.473  1.00  0.00     0.023 A 
ATOM     85  C   UNL     1      -9.156   0.470  17.418  1.00  0.00     0.012 A 
ATOM     86  C   UNL     1      -7.213   1.130  18.725  1.00  0.00     0.148 A 
ATOM     87  C   UNL     1      -9.900   0.321  18.587  1.00  0.00     0.002 A 
ATOM     88  C   UNL     1      -7.946   0.934  19.889  1.00  0.00     0.091 A 
ATOM     89  F   UNL     1      -5.939   1.549  18.755  1.00  0.00    -0.205 F 
ATOM     90  C   UNL     1      -9.293   0.541  19.822  1.00  0.00     0.022 A 
BRANCH  88  91
ATOM     91  S   UNL     1      -7.216   1.101  21.522  1.00  0.00     0.127 S 
ATOM     92  O   UNL     1      -7.772   2.378  21.968  1.00  0.00    -0.237 OA
ATOM     93  O   UNL     1      -7.744  -0.071  22.221  1.00  0.00    -0.237 OA
ATOM     94  O   UNL     1      -5.774   1.082  21.317  1.00  0.00    -0.744 OA
ENDBRANCH  88  91
ENDBRANCH  61  84
ENDBRANCH  35  36
ENDBRANCH  27  30
ENDBRANCH  25  26
ENDBRANCH   1  25
TORSDOF 17
