REMARK SMILES COc1cc(/C=C2/SC(=S)N(c3ccc(C)cc3C)C2=O)ccc1O[C@@H](C)C(=O)NCCCCNC(=O)c1ccc(-c2c3nc(c(-c4cccc(S(=O)(=O)[O-])c4F)c4ccc([nH]4)c(-c4cccc(S(=O)(=O)[O-])c4F)c4nc(c(-c5cccc(S(=O)(=O)[O-])c5F)c5ccc2[nH]5)C=C4)C=C3)cc1
REMARK SMILES IDX 32 1 31 2 30 3 28 4 29 5 26 7 27 8 25 9 24 10 3 11 4 12 5 13
REMARK SMILES IDX 23 14 22 15 2 16 1 17 6 18 7 19 8 20 20 21 9 22 11 23 21 24
REMARK SMILES IDX 10 25 12 26 13 27 18 28 14 29 17 30 19 31 15 32 16 33 33 34
REMARK SMILES IDX 34 35 35 36 36 37 37 39 38 40 39 41 100 42 40 43 99 44 41 45
REMARK SMILES IDX 42 46 43 47 93 48 44 49 98 50 92 51 94 52 45 53 97 54 91 55
REMARK SMILES IDX 90 56 46 58 78 59 58 60 77 61 59 62 62 63 76 64 95 65 60 66
REMARK SMILES IDX 61 67 75 69 96 70 63 71 47 72 48 73 56 74 49 75 51 76 57 77
REMARK SMILES IDX 50 78 52 79 53 80 54 81 55 82 79 83 80 84 88 85 81 86 83 87
REMARK SMILES IDX 89 88 82 89 84 90 85 91 86 92 87 93 64 94 65 95 73 96 66 97
REMARK SMILES IDX 68 98 74 99 67 100 69 101 70 102 71 103 72 104
REMARK H PARENT 30 6 35 38 94 57 62 68
REMARK Flexibility Score: inf
ROOT
ATOM      1  C   UNL     1       0.996   3.854   1.074  1.00  0.00     0.023 C 
ENDROOT
BRANCH   1   2
ATOM      2  C   UNL     1       0.832   2.655   0.152  1.00  0.00     0.116 C 
BRANCH   2   3
ATOM      3  N   UNL     1       2.053   2.271  -0.518  1.00  0.00    -0.353 N 
ATOM      4  C   UNL     1       2.810   1.155  -0.554  1.00  0.00     0.260 C 
ATOM      5  O   UNL     1       3.439   1.028  -1.622  1.00  0.00    -0.271 OA
ATOM      6  H   UNL     1       2.417   2.992  -1.081  1.00  0.00     0.163 HD
BRANCH   4   7
ATOM      7  C   UNL     1       3.026   0.040   0.557  1.00  0.00     0.259 C 
ATOM      8  C   UNL     1       2.683  -1.336  -0.043  1.00  0.00     0.064 C 
BRANCH   7   9
ATOM      9  O   UNL     1       3.011  -0.137   1.954  1.00  0.00    -0.477 OA
BRANCH   9  10
ATOM     10  C   UNL     1       2.158   0.567   2.728  1.00  0.00     0.162 A 
ATOM     11  C   UNL     1       0.773   0.396   2.750  1.00  0.00     0.161 A 
ATOM     12  C   UNL     1      -0.011   1.235   3.561  1.00  0.00     0.058 A 
ATOM     13  C   UNL     1       0.607   2.189   4.392  1.00  0.00    -0.020 A 
ATOM     14  C   UNL     1       2.764   1.359   3.697  1.00  0.00     0.051 A 
ATOM     15  C   UNL     1       1.990   2.121   4.563  1.00  0.00     0.012 A 
BRANCH  11  16
ATOM     16  O   UNL     1       0.244  -0.699   2.122  1.00  0.00    -0.493 OA
ATOM     17  C   UNL     1      -0.700  -0.432   1.093  1.00  0.00     0.278 C 
ENDBRANCH  11  16
BRANCH  13  18
ATOM     18  C   UNL     1      -0.162   3.276   5.032  1.00  0.00     0.029 C 
ATOM     19  C   UNL     1       0.173   4.585   5.034  1.00  0.00     0.081 C 
ATOM     20  S   UNL     1      -0.802   5.789   5.806  1.00  0.00    -0.054 SA
ATOM     21  C   UNL     1       1.370   5.257   4.422  1.00  0.00     0.270 C 
ATOM     22  C   UNL     1       0.296   7.115   5.396  1.00  0.00     0.152 C 
ATOM     23  N   UNL     1       1.382   6.612   4.710  1.00  0.00    -0.261 N 
ATOM     24  O   UNL     1       2.232   4.677   3.777  1.00  0.00    -0.268 OA
ATOM     25  S   UNL     1      -0.062   8.695   5.800  1.00  0.00    -0.051 S 
BRANCH  23  26
ATOM     26  C   UNL     1       2.497   7.378   4.264  1.00  0.00     0.054 A 
ATOM     27  C   UNL     1       2.703   7.508   2.880  1.00  0.00     0.027 A 
ATOM     28  C   UNL     1       3.470   7.872   5.154  1.00  0.00    -0.027 A 
ATOM     29  C   UNL     1       3.834   8.149   2.377  1.00  0.00     0.005 A 
ATOM     30  C   UNL     1       4.604   8.525   4.628  1.00  0.00     0.009 A 
ATOM     31  C   UNL     1       3.399   7.710   6.646  1.00  0.00     0.046 C 
ATOM     32  C   UNL     1       4.796   8.662   3.247  1.00  0.00    -0.051 A 
ATOM     33  C   UNL     1       6.018   9.330   2.688  1.00  0.00     0.044 C 
ENDBRANCH  23  26
ENDBRANCH  13  18
ENDBRANCH   9  10
ENDBRANCH   7   9
ENDBRANCH   4   7
ENDBRANCH   2   3
ENDBRANCH   1   2
BRANCH   1  34
ATOM     34  C   UNL     1       0.009   5.004   0.866  1.00  0.00     0.023 C 
BRANCH  34  35
ATOM     35  C   UNL     1      -1.476   4.661   0.806  1.00  0.00     0.116 C 
BRANCH  35  36
ATOM     36  N   UNL     1      -2.039   4.162   2.054  1.00  0.00    -0.352 N 
ATOM     37  C   UNL     1      -3.218   4.530   2.681  1.00  0.00     0.251 C 
ATOM     38  H   UNL     1      -1.511   3.471   2.514  1.00  0.00     0.163 HD
ATOM     39  O   UNL     1      -3.541   4.014   3.742  1.00  0.00    -0.269 OA
BRANCH  37  40
ATOM     40  C   UNL     1      -4.047   5.604   2.079  1.00  0.00     0.039 A 
ATOM     41  C   UNL     1      -4.331   6.744   2.835  1.00  0.00     0.014 A 
ATOM     42  C   UNL     1      -4.415   5.543   0.733  1.00  0.00     0.014 A 
ATOM     43  C   UNL     1      -4.845   7.881   2.200  1.00  0.00     0.010 A 
ATOM     44  C   UNL     1      -4.849   6.700   0.090  1.00  0.00     0.010 A 
ATOM     45  C   UNL     1      -5.024   7.895   0.806  1.00  0.00    -0.014 A 
BRANCH  45  46
ATOM     46  C   UNL     1      -5.261   9.162   0.057  1.00  0.00     0.031 A 
ATOM     47  C   UNL     1      -6.474   9.328  -0.817  1.00  0.00     0.074 A 
ATOM     48  C   UNL     1      -4.294  10.105   0.038  1.00  0.00     0.049 A 
ATOM     49  N   UNL     1      -6.769  10.300  -1.641  1.00  0.00    -0.248 NA
ATOM     50  C   UNL     1      -7.470   8.245  -0.787  1.00  0.00     0.031 C 
ATOM     51  C   UNL     1      -3.020  10.029   0.758  1.00  0.00     0.029 A 
ATOM     52  N   UNL     1      -4.212  11.296  -0.644  1.00  0.00    -0.354 N 
ATOM     53  C   UNL     1      -7.957   9.929  -2.260  1.00  0.00     0.074 A 
ATOM     54  C   UNL     1      -8.316   8.630  -1.732  1.00  0.00     0.031 C 
ATOM     55  C   UNL     1      -2.287  11.118   0.480  1.00  0.00     0.029 A 
ATOM     56  C   UNL     1      -3.017  11.957  -0.464  1.00  0.00     0.049 A 
ATOM     57  H   UNL     1      -4.939  11.645  -1.209  1.00  0.00     0.167 HD
ATOM     58  C   UNL     1      -8.697  10.618  -3.161  1.00  0.00     0.034 A 
ATOM     59  C   UNL     1      -2.549  13.100  -1.004  1.00  0.00     0.034 A 
ATOM     60  C   UNL     1      -8.376  11.936  -3.638  1.00  0.00     0.049 A 
ATOM     61  C   UNL     1      -3.417  13.871  -1.961  1.00  0.00     0.074 A 
ATOM     62  C   UNL     1      -9.130  12.763  -4.453  1.00  0.00     0.029 A 
ATOM     63  N   UNL     1      -7.204  12.618  -3.353  1.00  0.00    -0.354 N 
ATOM     64  N   UNL     1      -4.623  13.588  -2.388  1.00  0.00    -0.248 NA
ATOM     65  C   UNL     1      -2.873  15.131  -2.489  1.00  0.00     0.031 C 
ATOM     66  C   UNL     1      -8.408  13.941  -4.670  1.00  0.00     0.029 A 
ATOM     67  C   UNL     1      -7.207  13.850  -3.986  1.00  0.00     0.049 A 
ATOM     68  H   UNL     1      -6.476  12.277  -2.784  1.00  0.00     0.167 HD
ATOM     69  C   UNL     1      -4.991  14.643  -3.216  1.00  0.00     0.074 A 
ATOM     70  C   UNL     1      -3.891  15.584  -3.209  1.00  0.00     0.031 C 
ATOM     71  C   UNL     1      -6.128  14.803  -3.936  1.00  0.00     0.034 A 
BRANCH  58  72
ATOM     72  C   UNL     1      -9.978   9.987  -3.640  1.00  0.00     0.023 A 
ATOM     73  C   UNL     1     -11.088   9.939  -2.772  1.00  0.00     0.012 A 
ATOM     74  C   UNL     1     -10.107   9.502  -4.955  1.00  0.00     0.148 A 
ATOM     75  C   UNL     1     -12.297   9.390  -3.194  1.00  0.00     0.002 A 
ATOM     76  C   UNL     1     -11.328   8.990  -5.382  1.00  0.00     0.091 A 
ATOM     77  F   UNL     1      -9.035   9.535  -5.759  1.00  0.00    -0.205 F 
ATOM     78  C   UNL     1     -12.420   8.925  -4.500  1.00  0.00     0.022 A 
BRANCH  76  79
ATOM     79  S   UNL     1     -11.606   8.428  -7.066  1.00  0.00     0.127 S 
ATOM     80  O   UNL     1     -11.620   6.976  -6.893  1.00  0.00    -0.237 OA
ATOM     81  O   UNL     1     -12.909   9.017  -7.378  1.00  0.00    -0.237 OA
ATOM     82  O   UNL     1     -10.499   8.957  -7.850  1.00  0.00    -0.744 OA
ENDBRANCH  76  79
ENDBRANCH  58  72
BRANCH  59  83
ATOM     83  C   UNL     1      -1.211  13.620  -0.598  1.00  0.00     0.023 A 
ATOM     84  C   UNL     1      -1.139  14.762   0.222  1.00  0.00     0.012 A 
ATOM     85  C   UNL     1      -0.019  12.976  -0.983  1.00  0.00     0.148 A 
ATOM     86  C   UNL     1       0.095  15.269   0.631  1.00  0.00     0.002 A 
ATOM     87  C   UNL     1       1.206  13.455  -0.529  1.00  0.00     0.091 A 
ATOM     88  F   UNL     1      -0.103  11.901  -1.780  1.00  0.00    -0.205 F 
ATOM     89  C   UNL     1       1.266  14.610   0.266  1.00  0.00     0.022 A 
BRANCH  87  90
ATOM     90  S   UNL     1       2.745  12.583  -0.851  1.00  0.00     0.127 S 
ATOM     91  O   UNL     1       3.299  13.352  -1.961  1.00  0.00    -0.237 OA
ATOM     92  O   UNL     1       3.461  12.731   0.417  1.00  0.00    -0.237 OA
ATOM     93  O   UNL     1       2.352  11.212  -1.153  1.00  0.00    -0.744 OA
ENDBRANCH  87  90
ENDBRANCH  59  83
BRANCH  71  94
ATOM     94  C   UNL     1      -6.253  16.044  -4.780  1.00  0.00     0.023 A 
ATOM     95  C   UNL     1      -5.522  16.137  -5.981  1.00  0.00     0.012 A 
ATOM     96  C   UNL     1      -7.150  17.073  -4.434  1.00  0.00     0.148 A 
ATOM     97  C   UNL     1      -5.666  17.245  -6.815  1.00  0.00     0.002 A 
ATOM     98  C   UNL     1      -7.320  18.155  -5.291  1.00  0.00     0.091 A 
ATOM     99  F   UNL     1      -7.822  16.975  -3.278  1.00  0.00    -0.205 F 
ATOM    100  C   UNL     1      -6.573  18.247  -6.477  1.00  0.00     0.022 A 
BRANCH  98 101
ATOM    101  S   UNL     1      -8.528  19.449  -4.982  1.00  0.00     0.127 S 
ATOM    102  O   UNL     1      -7.674  20.566  -4.584  1.00  0.00    -0.237 OA
ATOM    103  O   UNL     1      -9.163  19.603  -6.292  1.00  0.00    -0.237 OA
ATOM    104  O   UNL     1      -9.409  18.933  -3.943  1.00  0.00    -0.744 OA
ENDBRANCH  98 101
ENDBRANCH  71  94
ENDBRANCH  45  46
ENDBRANCH  37  40
ENDBRANCH  35  36
ENDBRANCH  34  35
ENDBRANCH   1  34
TORSDOF 19
