REMARK SMILES O=C(C[C@@H]1CN(c2cc(C(F)(F)F)ccn2)CCO1)NCCCCNC(=O)c1ccc(-c2c3nc(c(-c4cccc(S(=O)(=O)[O-])c4F)c4ccc([nH]4)c(-c4cccc(S(=O)(=O)[O-])c4F)c4nc(c(-c5cccc(S(=O)(=O)[O-])c5F)c5ccc2[nH]5)C=C4)C=C3)cc1
REMARK SMILES IDX 22 1 21 2 20 3 1 4 2 5 3 7 4 8 5 9 19 10 6 11 18 12 17 13
REMARK SMILES IDX 7 14 8 15 16 16 9 17 15 18 14 19 10 20 11 21 12 22 13 23
REMARK SMILES IDX 23 24 24 25 25 26 26 27 27 29 28 30 29 31 90 32 30 33 89 34
REMARK SMILES IDX 31 35 32 36 33 37 83 38 34 39 88 40 82 41 84 42 35 43 87 44
REMARK SMILES IDX 81 45 80 46 36 48 68 49 48 50 67 51 49 52 52 53 66 54 85 55
REMARK SMILES IDX 50 56 51 57 65 59 86 60 53 61 37 62 38 63 46 64 39 65 41 66
REMARK SMILES IDX 47 67 40 68 42 69 43 70 44 71 45 72 69 73 70 74 78 75 71 76
REMARK SMILES IDX 73 77 79 78 72 79 74 80 75 81 76 82 77 83 54 84 55 85 63 86
REMARK SMILES IDX 56 87 58 88 64 89 57 90 59 91 60 92 61 93 62 94
REMARK H PARENT 20 6 25 28 84 47 52 58
REMARK Flexibility Score: inf
ROOT
ATOM      1  C   UNL     1       2.386  -3.514   1.121  1.00  0.00     0.023 C 
ENDROOT
BRANCH   1   2
ATOM      2  C   UNL     1       1.963  -2.065   1.350  1.00  0.00     0.116 C 
BRANCH   2   3
ATOM      3  N   UNL     1       2.615  -1.144   0.441  1.00  0.00    -0.356 N 
ATOM      4  O   UNL     1       0.846   0.314   0.267  1.00  0.00    -0.275 OA
ATOM      5  C   UNL     1       2.010   0.024   0.018  1.00  0.00     0.222 C 
ATOM      6  H   UNL     1       3.519  -1.357   0.113  1.00  0.00     0.163 HD
BRANCH   5   7
ATOM      7  C   UNL     1       2.945   0.951  -0.732  1.00  0.00     0.133 C 
BRANCH   7   8
ATOM      8  C   UNL     1       3.739   1.889   0.186  1.00  0.00     0.147 C 
ATOM      9  C   UNL     1       4.034   1.317   1.591  1.00  0.00     0.150 C 
ATOM     10  O   UNL     1       3.052   3.161   0.293  1.00  0.00    -0.374 OA
ATOM     11  N   UNL     1       4.802   2.311   2.334  1.00  0.00    -0.352 N 
ATOM     12  C   UNL     1       3.840   4.109   1.050  1.00  0.00     0.182 C 
ATOM     13  C   UNL     1       4.143   3.602   2.476  1.00  0.00     0.146 C 
BRANCH  11  14
ATOM     14  C   UNL     1       5.748   1.891   3.235  1.00  0.00     0.129 A 
ATOM     15  C   UNL     1       6.862   1.212   2.748  1.00  0.00     0.060 A 
ATOM     16  N   UNL     1       5.618   2.176   4.543  1.00  0.00    -0.239 NA
ATOM     17  C   UNL     1       7.886   0.818   3.611  1.00  0.00     0.061 A 
ATOM     18  C   UNL     1       6.597   1.754   5.381  1.00  0.00     0.114 A 
ATOM     19  C   UNL     1       7.736   1.083   4.969  1.00  0.00     0.033 A 
BRANCH  17  20
ATOM     20  C   UNL     1       9.123   0.155   3.070  1.00  0.00     0.416 C 
ATOM     21  F   UNL     1      10.250   0.864   3.335  1.00  0.00    -0.166 F 
ATOM     22  F   UNL     1       9.304  -1.086   3.593  1.00  0.00    -0.166 F 
ATOM     23  F   UNL     1       9.087  -0.008   1.718  1.00  0.00    -0.166 F 
ENDBRANCH  17  20
ENDBRANCH  11  14
ENDBRANCH   7   8
ENDBRANCH   5   7
ENDBRANCH   2   3
ENDBRANCH   1   2
BRANCH   1  24
ATOM     24  C   UNL     1       3.877  -3.807   1.326  1.00  0.00     0.023 C 
BRANCH  24  25
ATOM     25  C   UNL     1       4.419  -3.521   2.724  1.00  0.00     0.116 C 
BRANCH  25  26
ATOM     26  N   UNL     1       3.836  -4.387   3.737  1.00  0.00    -0.352 N 
ATOM     27  C   UNL     1       4.447  -5.255   4.608  1.00  0.00     0.251 C 
ATOM     28  H   UNL     1       2.855  -4.344   3.809  1.00  0.00     0.163 HD
ATOM     29  O   UNL     1       3.759  -6.031   5.273  1.00  0.00    -0.269 OA
BRANCH  27  30
ATOM     30  C   UNL     1       5.922  -5.285   4.739  1.00  0.00     0.039 A 
ATOM     31  C   UNL     1       6.568  -6.524   4.811  1.00  0.00     0.014 A 
ATOM     32  C   UNL     1       6.670  -4.107   4.808  1.00  0.00     0.014 A 
ATOM     33  C   UNL     1       7.963  -6.579   4.884  1.00  0.00     0.010 A 
ATOM     34  C   UNL     1       8.063  -4.166   4.803  1.00  0.00     0.010 A 
ATOM     35  C   UNL     1       8.727  -5.401   4.842  1.00  0.00    -0.014 A 
BRANCH  35  36
ATOM     36  C   UNL     1      10.214  -5.446   4.819  1.00  0.00     0.031 A 
ATOM     37  C   UNL     1      11.018  -4.818   5.927  1.00  0.00     0.074 A 
ATOM     38  C   UNL     1      10.848  -5.982   3.756  1.00  0.00     0.049 A 
ATOM     39  N   UNL     1      12.316  -4.711   6.046  1.00  0.00    -0.248 NA
ATOM     40  C   UNL     1      10.264  -4.213   7.037  1.00  0.00     0.031 C 
ATOM     41  C   UNL     1      10.189  -6.557   2.581  1.00  0.00     0.029 A 
ATOM     42  N   UNL     1      12.187  -6.105   3.477  1.00  0.00    -0.354 N 
ATOM     43  C   UNL     1      12.535  -4.001   7.220  1.00  0.00     0.074 A 
ATOM     44  C   UNL     1      11.234  -3.673   7.761  1.00  0.00     0.031 C 
ATOM     45  C   UNL     1      11.123  -6.970   1.710  1.00  0.00     0.029 A 
ATOM     46  C   UNL     1      12.445  -6.659   2.244  1.00  0.00     0.049 A 
ATOM     47  H   UNL     1      12.896  -5.824   4.100  1.00  0.00     0.167 HD
ATOM     48  C   UNL     1      13.710  -3.675   7.812  1.00  0.00     0.034 A 
ATOM     49  C   UNL     1      13.612  -6.877   1.605  1.00  0.00     0.034 A 
ATOM     50  C   UNL     1      15.003  -4.026   7.289  1.00  0.00     0.049 A 
ATOM     51  C   UNL     1      14.903  -6.524   2.292  1.00  0.00     0.074 A 
ATOM     52  C   UNL     1      16.248  -3.808   7.854  1.00  0.00     0.029 A 
ATOM     53  N   UNL     1      15.223  -4.655   6.073  1.00  0.00    -0.354 N 
ATOM     54  N   UNL     1      15.089  -5.988   3.473  1.00  0.00    -0.248 NA
ATOM     55  C   UNL     1      16.146  -6.841   1.574  1.00  0.00     0.031 C 
ATOM     56  C   UNL     1      17.221  -4.275   6.965  1.00  0.00     0.029 A 
ATOM     57  C   UNL     1      16.582  -4.822   5.864  1.00  0.00     0.049 A 
ATOM     58  H   UNL     1      14.517  -4.941   5.450  1.00  0.00     0.167 HD
ATOM     59  C   UNL     1      16.467  -5.936   3.656  1.00  0.00     0.074 A 
ATOM     60  C   UNL     1      17.067  -6.515   2.472  1.00  0.00     0.031 C 
ATOM     61  C   UNL     1      17.170  -5.442   4.704  1.00  0.00     0.034 A 
BRANCH  48  62
ATOM     62  C   UNL     1      13.650  -2.931   9.123  1.00  0.00     0.023 A 
ATOM     63  C   UNL     1      13.191  -3.594  10.280  1.00  0.00     0.012 A 
ATOM     64  C   UNL     1      14.099  -1.600   9.223  1.00  0.00     0.148 A 
ATOM     65  C   UNL     1      13.140  -2.932  11.506  1.00  0.00     0.002 A 
ATOM     66  C   UNL     1      14.091  -0.962  10.459  1.00  0.00     0.091 A 
ATOM     67  F   UNL     1      14.515  -0.979   8.110  1.00  0.00    -0.205 F 
ATOM     68  C   UNL     1      13.600  -1.622  11.598  1.00  0.00     0.022 A 
BRANCH  66  69
ATOM     69  S   UNL     1      14.733   0.698  10.697  1.00  0.00     0.127 S 
ATOM     70  O   UNL     1      13.507   1.453  10.950  1.00  0.00    -0.237 OA
ATOM     71  O   UNL     1      15.597   0.529  11.866  1.00  0.00    -0.237 OA
ATOM     72  O   UNL     1      15.434   1.039   9.467  1.00  0.00    -0.744 OA
ENDBRANCH  66  69
ENDBRANCH  48  62
BRANCH  49  73
ATOM     73  C   UNL     1      13.612  -7.505   0.253  1.00  0.00     0.023 A 
ATOM     74  C   UNL     1      14.103  -8.815   0.093  1.00  0.00     0.012 A 
ATOM     75  C   UNL     1      13.105  -6.819  -0.869  1.00  0.00     0.148 A 
ATOM     76  C   UNL     1      14.121  -9.419  -1.165  1.00  0.00     0.002 A 
ATOM     77  C   UNL     1      13.072  -7.448  -2.107  1.00  0.00     0.091 A 
ATOM     78  F   UNL     1      12.652  -5.570  -0.697  1.00  0.00    -0.205 F 
ATOM     79  C   UNL     1      13.597  -8.740  -2.262  1.00  0.00     0.022 A 
BRANCH  77  80
ATOM     80  S   UNL     1      12.294  -6.704  -3.545  1.00  0.00     0.127 S 
ATOM     81  O   UNL     1      13.444  -6.441  -4.406  1.00  0.00    -0.237 OA
ATOM     82  O   UNL     1      11.414  -7.781  -4.002  1.00  0.00    -0.237 OA
ATOM     83  O   UNL     1      11.592  -5.527  -3.050  1.00  0.00    -0.744 OA
ENDBRANCH  77  80
ENDBRANCH  49  73
BRANCH  61  84
ATOM     84  C   UNL     1      18.674  -5.541   4.649  1.00  0.00     0.023 A 
ATOM     85  C   UNL     1      19.404  -4.728   3.760  1.00  0.00     0.012 A 
ATOM     86  C   UNL     1      19.366  -6.393   5.533  1.00  0.00     0.148 A 
ATOM     87  C   UNL     1      20.797  -4.788   3.725  1.00  0.00     0.002 A 
ATOM     88  C   UNL     1      20.756  -6.408   5.530  1.00  0.00     0.091 A 
ATOM     89  F   UNL     1      18.654  -7.172   6.360  1.00  0.00    -0.205 F 
ATOM     90  C   UNL     1      21.472  -5.617   4.617  1.00  0.00     0.022 A 
BRANCH  88  91
ATOM     91  S   UNL     1      21.713  -7.370   6.707  1.00  0.00     0.127 S 
ATOM     92  O   UNL     1      22.281  -8.409   5.851  1.00  0.00    -0.237 OA
ATOM     93  O   UNL     1      22.679  -6.386   7.196  1.00  0.00    -0.237 OA
ATOM     94  O   UNL     1      20.766  -7.837   7.710  1.00  0.00    -0.744 OA
ENDBRANCH  88  91
ENDBRANCH  61  84
ENDBRANCH  35  36
ENDBRANCH  27  30
ENDBRANCH  25  26
ENDBRANCH  24  25
ENDBRANCH   1  24
TORSDOF 17
