REMARK SMILES Cc1oc2c(C)c3oc(=O)c(CC(=O)N[C@@H](CC(C)C)C(=O)NCCCCNC(=O)c4ccc(-c5c6nc(c(-c7cccc(S(=O)(=O)[O-])c7F)c7ccc([nH]7)c(-c7cccc(S(=O)(=O)[O-])c7F)c7nc(c(-c8cccc(S(=O)(=O)[O-])c8F)c8ccc5[nH]8)C=C7)C=C6)cc4)c(C)c3cc2c1C
REMARK SMILES IDX 25 1 24 2 23 3 21 4 22 5 16 7 15 8 13 9 14 10 12 12 11 13
REMARK SMILES IDX 1 14 2 15 3 16 99 17 4 18 98 19 100 20 5 21 97 22 6 23 7 24
REMARK SMILES IDX 96 25 8 26 94 27 9 28 95 29 10 30 17 31 18 32 19 33 20 34
REMARK SMILES IDX 26 35 27 36 28 37 29 38 30 40 31 41 32 42 93 43 33 44 92 45
REMARK SMILES IDX 34 46 35 47 36 48 86 49 37 50 91 51 85 52 87 53 38 54 90 55
REMARK SMILES IDX 84 56 83 57 39 59 71 60 51 61 70 62 52 63 55 64 69 65 88 66
REMARK SMILES IDX 53 67 54 68 68 70 89 71 56 72 40 73 41 74 49 75 42 76 44 77
REMARK SMILES IDX 50 78 43 79 45 80 46 81 47 82 48 83 72 84 73 85 81 86 74 87
REMARK SMILES IDX 76 88 82 89 75 90 77 91 78 92 79 93 80 94 57 95 58 96 66 97
REMARK SMILES IDX 59 98 61 99 67 100 60 101 62 102 63 103 64 104 65 105
REMARK H PARENT 23 6 15 11 28 39 87 58 55 69
REMARK Flexibility Score: inf
ROOT
ATOM      1  C   UNL     1      -8.773  -9.853   2.611  1.00  0.00     0.023 C 
ENDROOT
BRANCH   1   2
ATOM      2  C   UNL     1      -7.300  -9.448   2.587  1.00  0.00     0.116 C 
BRANCH   2   3
ATOM      3  N   UNL     1      -6.449 -10.418   1.921  1.00  0.00    -0.354 N 
ATOM      4  C   UNL     1      -5.221 -10.320   1.336  1.00  0.00     0.242 C 
ATOM      5  O   UNL     1      -4.627 -11.383   1.125  1.00  0.00    -0.273 OA
ATOM      6  H   UNL     1      -6.833 -11.324   1.885  1.00  0.00     0.163 HD
BRANCH   4   7
ATOM      7  C   UNL     1      -4.538  -8.985   0.957  1.00  0.00     0.171 C 
BRANCH   7   8
ATOM      8  N   UNL     1      -5.431  -8.148   0.154  1.00  0.00    -0.344 N 
ATOM      9  C   UNL     1      -5.381  -7.917  -1.189  1.00  0.00     0.225 C 
ATOM     10  O   UNL     1      -6.395  -7.477  -1.738  1.00  0.00    -0.275 OA
ATOM     11  H   UNL     1      -6.156  -7.696   0.644  1.00  0.00     0.164 HD
BRANCH   9  12
ATOM     12  C   UNL     1      -4.088  -8.133  -1.974  1.00  0.00     0.143 C 
BRANCH  12  13
ATOM     13  C   UNL     1      -3.008  -7.165  -1.534  1.00  0.00     0.051 A 
ATOM     14  C   UNL     1       1.469  -0.225   0.289  1.00  0.00     0.088 C 
ATOM     15  C   UNL     1       0.547  -1.359   0.076  1.00  0.00     0.105 A 
ATOM     16  O   UNL     1       1.047  -2.600   0.332  1.00  0.00    -0.461 OA
ATOM     17  C   UNL     1      -0.760  -1.443  -0.369  1.00  0.00    -0.002 A 
ATOM     18  C   UNL     1       0.085  -3.506  -0.007  1.00  0.00     0.141 A 
ATOM     19  C   UNL     1      -1.044  -2.837  -0.456  1.00  0.00     0.025 A 
ATOM     20  C   UNL     1      -1.676  -0.339  -0.742  1.00  0.00     0.049 C 
ATOM     21  C   UNL     1       0.211  -4.897   0.059  1.00  0.00     0.036 A 
ATOM     22  C   UNL     1      -2.145  -3.591  -0.896  1.00  0.00     0.024 A 
ATOM     23  C   UNL     1       1.436  -5.562   0.601  1.00  0.00     0.052 C 
ATOM     24  C   UNL     1      -0.893  -5.600  -0.472  1.00  0.00     0.145 A 
ATOM     25  C   UNL     1      -2.054  -4.990  -0.960  1.00  0.00     0.022 A 
ATOM     26  O   UNL     1      -0.776  -7.006  -0.528  1.00  0.00    -0.422 OA
ATOM     27  C   UNL     1      -3.137  -5.820  -1.523  1.00  0.00    -0.029 A 
ATOM     28  C   UNL     1      -1.742  -7.813  -1.100  1.00  0.00     0.340 A 
ATOM     29  C   UNL     1      -4.346  -5.101  -2.074  1.00  0.00     0.046 C 
ATOM     30  O   UNL     1      -1.549  -9.015  -1.241  1.00  0.00    -0.246 OA
ENDBRANCH  12  13
ENDBRANCH   9  12
ENDBRANCH   7   8
BRANCH   7  31
ATOM     31  C   UNL     1      -3.758  -8.193   2.027  1.00  0.00     0.038 C 
BRANCH  31  32
ATOM     32  C   UNL     1      -4.420  -7.923   3.387  1.00  0.00    -0.015 C 
ATOM     33  C   UNL     1      -4.285  -9.123   4.330  1.00  0.00     0.007 C 
ATOM     34  C   UNL     1      -3.781  -6.707   4.071  1.00  0.00     0.007 C 
ENDBRANCH  31  32
ENDBRANCH   7  31
ENDBRANCH   4   7
ENDBRANCH   2   3
ENDBRANCH   1   2
BRANCH   1  35
ATOM     35  C   UNL     1      -9.120 -11.057   3.506  1.00  0.00     0.023 C 
BRANCH  35  36
ATOM     36  C   UNL     1      -8.813 -10.913   5.008  1.00  0.00     0.116 C 
BRANCH  36  37
ATOM     37  N   UNL     1      -9.465  -9.746   5.577  1.00  0.00    -0.352 N 
ATOM     38  C   UNL     1     -10.385  -9.614   6.585  1.00  0.00     0.251 C 
ATOM     39  H   UNL     1      -9.198  -8.894   5.162  1.00  0.00     0.163 HD
ATOM     40  O   UNL     1     -11.004  -8.550   6.653  1.00  0.00    -0.269 OA
BRANCH  38  41
ATOM     41  C   UNL     1     -10.673 -10.682   7.575  1.00  0.00     0.039 A 
ATOM     42  C   UNL     1     -11.998 -10.821   8.012  1.00  0.00     0.014 A 
ATOM     43  C   UNL     1      -9.672 -11.436   8.191  1.00  0.00     0.014 A 
ATOM     44  C   UNL     1     -12.328 -11.735   9.019  1.00  0.00     0.010 A 
ATOM     45  C   UNL     1     -10.005 -12.351   9.203  1.00  0.00     0.010 A 
ATOM     46  C   UNL     1     -11.336 -12.522   9.617  1.00  0.00    -0.014 A 
BRANCH  46  47
ATOM     47  C   UNL     1     -11.743 -13.591  10.564  1.00  0.00     0.031 A 
ATOM     48  C   UNL     1     -11.121 -14.928  10.340  1.00  0.00     0.074 A 
ATOM     49  C   UNL     1     -12.299 -13.363  11.777  1.00  0.00     0.049 A 
ATOM     50  N   UNL     1      -9.938 -15.224  10.787  1.00  0.00    -0.248 NA
ATOM     51  C   UNL     1     -11.683 -15.938   9.444  1.00  0.00     0.031 C 
ATOM     52  C   UNL     1     -12.119 -12.127  12.545  1.00  0.00     0.029 A 
ATOM     53  N   UNL     1     -12.923 -14.221  12.662  1.00  0.00    -0.354 N 
ATOM     54  C   UNL     1      -9.559 -16.416  10.202  1.00  0.00     0.074 A 
ATOM     55  C   UNL     1     -10.685 -16.836   9.396  1.00  0.00     0.031 C 
ATOM     56  C   UNL     1     -12.460 -12.363  13.830  1.00  0.00     0.029 A 
ATOM     57  C   UNL     1     -13.035 -13.704  13.955  1.00  0.00     0.049 A 
ATOM     58  H   UNL     1     -13.257 -15.111  12.406  1.00  0.00     0.167 HD
ATOM     59  C   UNL     1      -8.339 -16.977  10.413  1.00  0.00     0.034 A 
ATOM     60  C   UNL     1     -12.994 -14.428  15.112  1.00  0.00     0.034 A 
ATOM     61  C   UNL     1      -7.464 -16.234  11.275  1.00  0.00     0.049 A 
ATOM     62  C   UNL     1     -11.634 -15.067  15.044  1.00  0.00     0.074 A 
ATOM     63  C   UNL     1      -6.522 -15.239  11.120  1.00  0.00     0.029 A 
ATOM     64  N   UNL     1      -7.612 -16.360  12.637  1.00  0.00    -0.354 N 
ATOM     65  N   UNL     1     -10.501 -14.477  15.318  1.00  0.00    -0.248 NA
ATOM     66  C   UNL     1     -11.510 -16.321  14.302  1.00  0.00     0.031 C 
ATOM     67  C   UNL     1      -6.515 -14.520  12.357  1.00  0.00     0.029 A 
ATOM     68  C   UNL     1      -7.487 -15.099  13.170  1.00  0.00     0.049 A 
ATOM     69  H   UNL     1      -7.776 -17.194  13.134  1.00  0.00     0.167 HD
ATOM     70  C   UNL     1      -9.550 -15.125  14.529  1.00  0.00     0.074 A 
ATOM     71  C   UNL     1     -10.236 -16.261  13.943  1.00  0.00     0.031 C 
ATOM     72  C   UNL     1      -8.311 -14.620  14.259  1.00  0.00     0.034 A 
BRANCH  59  73
ATOM     73  C   UNL     1      -7.943 -18.318   9.934  1.00  0.00     0.023 A 
ATOM     74  C   UNL     1      -8.088 -19.388  10.837  1.00  0.00     0.012 A 
ATOM     75  C   UNL     1      -7.272 -18.520   8.716  1.00  0.00     0.148 A 
ATOM     76  C   UNL     1      -7.534 -20.634  10.559  1.00  0.00     0.002 A 
ATOM     77  C   UNL     1      -6.726 -19.772   8.441  1.00  0.00     0.091 A 
ATOM     78  F   UNL     1      -7.143 -17.484   7.876  1.00  0.00    -0.205 F 
ATOM     79  C   UNL     1      -6.845 -20.823   9.367  1.00  0.00     0.022 A 
BRANCH  77  80
ATOM     80  S   UNL     1      -5.820 -20.129   6.931  1.00  0.00     0.127 S 
ATOM     81  O   UNL     1      -4.457 -20.320   7.435  1.00  0.00    -0.237 OA
ATOM     82  O   UNL     1      -6.474 -21.360   6.474  1.00  0.00    -0.237 OA
ATOM     83  O   UNL     1      -6.016 -18.984   6.066  1.00  0.00    -0.744 OA
ENDBRANCH  77  80
ENDBRANCH  59  73
BRANCH  60  84
ATOM     84  C   UNL     1     -14.239 -15.192  15.478  1.00  0.00     0.023 A 
ATOM     85  C   UNL     1     -15.474 -14.507  15.394  1.00  0.00     0.012 A 
ATOM     86  C   UNL     1     -14.276 -16.529  15.927  1.00  0.00     0.148 A 
ATOM     87  C   UNL     1     -16.693 -15.145  15.646  1.00  0.00     0.002 A 
ATOM     88  C   UNL     1     -15.495 -17.184  16.107  1.00  0.00     0.091 A 
ATOM     89  F   UNL     1     -13.127 -17.163  16.185  1.00  0.00    -0.205 F 
ATOM     90  C   UNL     1     -16.706 -16.494  15.971  1.00  0.00     0.022 A 
BRANCH  88  91
ATOM     91  S   UNL     1     -15.608 -18.952  16.428  1.00  0.00     0.127 S 
ATOM     92  O   UNL     1     -16.488 -18.997  17.594  1.00  0.00    -0.237 OA
ATOM     93  O   UNL     1     -16.208 -19.433  15.184  1.00  0.00    -0.237 OA
ATOM     94  O   UNL     1     -14.243 -19.400  16.668  1.00  0.00    -0.744 OA
ENDBRANCH  88  91
ENDBRANCH  60  84
BRANCH  72  95
ATOM     95  C   UNL     1      -7.905 -13.392  15.019  1.00  0.00     0.023 A 
ATOM     96  C   UNL     1      -7.636 -13.517  16.395  1.00  0.00     0.012 A 
ATOM     97  C   UNL     1      -7.706 -12.144  14.392  1.00  0.00     0.148 A 
ATOM     98  C   UNL     1      -7.151 -12.437  17.130  1.00  0.00     0.002 A 
ATOM     99  C   UNL     1      -7.184 -11.080  15.122  1.00  0.00     0.091 A 
ATOM    100  F   UNL     1      -7.999 -12.019  13.089  1.00  0.00    -0.205 F 
ATOM    101  C   UNL     1      -6.910 -11.224  16.491  1.00  0.00     0.022 A 
BRANCH  99 102
ATOM    102  S   UNL     1      -6.771  -9.497  14.379  1.00  0.00     0.127 S 
ATOM    103  O   UNL     1      -7.434  -8.550  15.276  1.00  0.00    -0.237 OA
ATOM    104  O   UNL     1      -5.311  -9.495  14.469  1.00  0.00    -0.237 OA
ATOM    105  O   UNL     1      -7.307  -9.525  13.025  1.00  0.00    -0.744 OA
ENDBRANCH  99 102
ENDBRANCH  72  95
ENDBRANCH  46  47
ENDBRANCH  38  41
ENDBRANCH  36  37
ENDBRANCH  35  36
ENDBRANCH   1  35
TORSDOF 19
