REMARK SMILES O=C(NCCCCNC(=O)C1([NH+]2CCOCC2)CCC1)c1ccc(-c2c3nc(c(-c4cccc(S(=O)(=O)[O-])c4F)c4ccc([nH]4)c(-c4cccc(S(=O)(=O)[O-])c4F)c4nc(c(-c5cccc(S(=O)(=O)[O-])c5F)c5ccc2[nH]5)C=C4)C=C3)cc1
REMARK SMILES IDX 4 1 3 2 1 3 2 4 21 6 22 7 83 8 23 9 82 10 24 11 25 12 26 13
REMARK SMILES IDX 76 14 27 15 81 16 75 17 77 18 28 19 80 20 74 21 73 22 29 24
REMARK SMILES IDX 61 25 41 26 60 27 42 28 45 29 59 30 78 31 43 32 44 33 58 35
REMARK SMILES IDX 79 36 46 37 30 38 31 39 39 40 32 41 34 42 40 43 33 44 35 45
REMARK SMILES IDX 36 46 37 47 38 48 62 49 63 50 71 51 64 52 66 53 72 54 65 55
REMARK SMILES IDX 67 56 68 57 69 58 70 59 47 60 48 61 56 62 49 63 51 64 57 65
REMARK SMILES IDX 50 66 52 67 53 68 54 69 55 70 5 71 6 72 7 73 8 74 9 75 10 77
REMARK SMILES IDX 11 78 18 79 20 80 19 81 12 82 13 83 17 84 14 86 16 87 15 88
REMARK H PARENT 3 5 77 23 45 34 8 76 12 85
REMARK Flexibility Score: inf
ROOT
ATOM      1  C   UNL     1       4.407  -1.154  -0.163  1.00  0.00     0.116 C 
ENDROOT
BRANCH   1   2
ATOM      2  N   UNL     1       3.016  -0.847  -0.472  1.00  0.00    -0.352 N 
ATOM      3  O   UNL     1       1.078   0.302  -0.320  1.00  0.00    -0.269 OA
ATOM      4  C   UNL     1       2.273   0.231  -0.053  1.00  0.00     0.251 C 
ATOM      5  H   UNL     1       2.551  -1.492  -1.052  1.00  0.00     0.163 HD
BRANCH   4   6
ATOM      6  C   UNL     1       2.930   1.272   0.764  1.00  0.00     0.039 A 
ATOM      7  C   UNL     1       4.144   1.826   0.349  1.00  0.00     0.014 A 
ATOM      8  C   UNL     1       2.369   1.633   1.992  1.00  0.00     0.014 A 
ATOM      9  C   UNL     1       4.875   2.610   1.233  1.00  0.00     0.010 A 
ATOM     10  C   UNL     1       3.073   2.485   2.846  1.00  0.00     0.010 A 
ATOM     11  C   UNL     1       4.354   2.938   2.496  1.00  0.00    -0.014 A 
BRANCH  11  12
ATOM     12  C   UNL     1       5.169   3.767   3.421  1.00  0.00     0.031 A 
ATOM     13  C   UNL     1       5.679   3.209   4.723  1.00  0.00     0.074 A 
ATOM     14  C   UNL     1       5.477   5.027   3.059  1.00  0.00     0.049 A 
ATOM     15  N   UNL     1       6.463   3.775   5.606  1.00  0.00    -0.248 NA
ATOM     16  C   UNL     1       5.252   1.849   5.091  1.00  0.00     0.031 C 
ATOM     17  C   UNL     1       5.003   5.689   1.842  1.00  0.00     0.029 A 
ATOM     18  N   UNL     1       6.269   5.968   3.664  1.00  0.00    -0.354 N 
ATOM     19  C   UNL     1       6.584   2.867   6.651  1.00  0.00     0.074 A 
ATOM     20  C   UNL     1       5.792   1.709   6.295  1.00  0.00     0.031 C 
ATOM     21  C   UNL     1       5.546   6.913   1.768  1.00  0.00     0.029 A 
ATOM     22  C   UNL     1       6.375   7.137   2.948  1.00  0.00     0.049 A 
ATOM     23  H   UNL     1       6.717   5.822   4.528  1.00  0.00     0.167 HD
ATOM     24  C   UNL     1       7.304   2.979   7.793  1.00  0.00     0.034 A 
ATOM     25  C   UNL     1       7.070   8.261   3.205  1.00  0.00     0.034 A 
ATOM     26  C   UNL     1       8.141   4.104   8.114  1.00  0.00     0.049 A 
ATOM     27  C   UNL     1       7.916   8.327   4.444  1.00  0.00     0.074 A 
ATOM     28  C   UNL     1       8.962   4.280   9.215  1.00  0.00     0.029 A 
ATOM     29  N   UNL     1       8.270   5.243   7.334  1.00  0.00    -0.354 N 
ATOM     30  N   UNL     1       8.118   7.404   5.353  1.00  0.00    -0.248 NA
ATOM     31  C   UNL     1       8.654   9.576   4.678  1.00  0.00     0.031 C 
ATOM     32  C   UNL     1       9.587   5.527   9.100  1.00  0.00     0.029 A 
ATOM     33  C   UNL     1       9.158   6.125   7.927  1.00  0.00     0.049 A 
ATOM     34  H   UNL     1       7.801   5.401   6.484  1.00  0.00     0.167 HD
ATOM     35  C   UNL     1       9.023   7.950   6.254  1.00  0.00     0.074 A 
ATOM     36  C   UNL     1       9.351   9.275   5.765  1.00  0.00     0.031 C 
ATOM     37  C   UNL     1       9.519   7.414   7.396  1.00  0.00     0.034 A 
BRANCH  24  38
ATOM     38  C   UNL     1       7.264   1.830   8.766  1.00  0.00     0.023 A 
ATOM     39  C   UNL     1       8.008   0.665   8.492  1.00  0.00     0.012 A 
ATOM     40  C   UNL     1       6.555   1.928   9.979  1.00  0.00     0.148 A 
ATOM     41  C   UNL     1       8.030  -0.394   9.400  1.00  0.00     0.002 A 
ATOM     42  C   UNL     1       6.609   0.882  10.895  1.00  0.00     0.091 A 
ATOM     43  F   UNL     1       5.830   3.032  10.211  1.00  0.00    -0.205 F 
ATOM     44  C   UNL     1       7.340  -0.281  10.605  1.00  0.00     0.022 A 
BRANCH  42  45
ATOM     45  S   UNL     1       5.806   0.974  12.500  1.00  0.00     0.127 S 
ATOM     46  O   UNL     1       4.591   0.195  12.268  1.00  0.00    -0.237 OA
ATOM     47  O   UNL     1       6.783   0.330  13.379  1.00  0.00    -0.237 OA
ATOM     48  O   UNL     1       5.609   2.393  12.760  1.00  0.00    -0.744 OA
ENDBRANCH  42  45
ENDBRANCH  24  38
BRANCH  25  49
ATOM     49  C   UNL     1       7.055   9.374   2.216  1.00  0.00     0.023 A 
ATOM     50  C   UNL     1       8.211   9.636   1.458  1.00  0.00     0.012 A 
ATOM     51  C   UNL     1       5.889  10.124   1.972  1.00  0.00     0.148 A 
ATOM     52  C   UNL     1       8.212  10.635   0.484  1.00  0.00     0.002 A 
ATOM     53  C   UNL     1       5.878  11.078   0.961  1.00  0.00     0.091 A 
ATOM     54  F   UNL     1       4.803   9.877   2.719  1.00  0.00    -0.205 F 
ATOM     55  C   UNL     1       7.042  11.345   0.225  1.00  0.00     0.022 A 
BRANCH  53  56
ATOM     56  S   UNL     1       4.367  11.918   0.473  1.00  0.00     0.127 S 
ATOM     57  O   UNL     1       4.495  13.195   1.168  1.00  0.00    -0.237 OA
ATOM     58  O   UNL     1       4.507  11.991  -0.982  1.00  0.00    -0.237 OA
ATOM     59  O   UNL     1       3.288  11.047   0.920  1.00  0.00    -0.744 OA
ENDBRANCH  53  56
ENDBRANCH  25  49
BRANCH  37  60
ATOM     60  C   UNL     1      10.483   8.252   8.190  1.00  0.00     0.023 A 
ATOM     61  C   UNL     1       9.995   9.326   8.959  1.00  0.00     0.012 A 
ATOM     62  C   UNL     1      11.856   7.941   8.225  1.00  0.00     0.148 A 
ATOM     63  C   UNL     1      10.864  10.097   9.730  1.00  0.00     0.002 A 
ATOM     64  C   UNL     1      12.710   8.690   9.027  1.00  0.00     0.091 A 
ATOM     65  F   UNL     1      12.307   6.931   7.466  1.00  0.00    -0.205 F 
ATOM     66  C   UNL     1      12.218   9.773   9.773  1.00  0.00     0.022 A 
BRANCH  64  67
ATOM     67  S   UNL     1      14.450   8.274   9.192  1.00  0.00     0.127 S 
ATOM     68  O   UNL     1      15.066   9.155   8.203  1.00  0.00    -0.237 OA
ATOM     69  O   UNL     1      14.733   8.629  10.584  1.00  0.00    -0.237 OA
ATOM     70  O   UNL     1      14.534   6.846   8.913  1.00  0.00    -0.744 OA
ENDBRANCH  64  67
ENDBRANCH  37  60
ENDBRANCH  11  12
ENDBRANCH   4   6
ENDBRANCH   1   2
BRANCH   1  71
ATOM     71  C   UNL     1       4.674  -2.641   0.030  1.00  0.00     0.023 C 
BRANCH  71  72
ATOM     72  C   UNL     1       4.299  -3.531  -1.154  1.00  0.00     0.023 C 
BRANCH  72  73
ATOM     73  C   UNL     1       4.983  -3.164  -2.468  1.00  0.00     0.116 C 
BRANCH  73  74
ATOM     74  N   UNL     1       6.396  -3.473  -2.451  1.00  0.00    -0.351 N 
ATOM     75  C   UNL     1       7.107  -4.435  -3.139  1.00  0.00     0.281 C 
ATOM     76  H   UNL     1       6.937  -2.907  -1.854  1.00  0.00     0.163 HD
ATOM     77  O   UNL     1       8.333  -4.416  -2.959  1.00  0.00    -0.268 OA
BRANCH  75  78
ATOM     78  C   UNL     1       6.355  -5.483  -4.106  1.00  0.00     0.177 C 
ATOM     79  C   UNL     1       6.981  -6.923  -3.957  1.00  0.00     0.079 C 
ATOM     80  C   UNL     1       5.013  -6.116  -3.654  1.00  0.00     0.079 C 
ATOM     81  C   UNL     1       5.572  -7.527  -3.864  1.00  0.00     0.014 C 
BRANCH  78  82
ATOM     82  N   UNL     1       6.410  -5.085  -5.549  1.00  0.00    -0.318 N 
ATOM     83  C   UNL     1       5.972  -3.711  -5.846  1.00  0.00     0.291 C 
ATOM     84  C   UNL     1       5.949  -5.990  -6.612  1.00  0.00     0.291 C 
ATOM     85  H   UNL     1       7.424  -5.168  -5.611  1.00  0.00     0.349 HD
ATOM     86  C   UNL     1       4.490  -3.597  -6.237  1.00  0.00     0.221 C 
ATOM     87  C   UNL     1       4.480  -5.814  -7.032  1.00  0.00     0.221 C 
ATOM     88  O   UNL     1       4.177  -4.450  -7.343  1.00  0.00    -0.370 OA
ENDBRANCH  78  82
ENDBRANCH  75  78
ENDBRANCH  73  74
ENDBRANCH  72  73
ENDBRANCH  71  72
ENDBRANCH   1  71
TORSDOF 15
