REMARK SMILES COc1cccc([C@@H]2C[N@@H+](Cc3nccn3C)C[C@H]2C(=O)NCCCCNC(=O)c2ccc(-c3c4nc(c(-c5cccc(S(=O)(=O)[O-])c5F)c5ccc([nH]5)c(-c5cccc(S(=O)(=O)[O-])c5F)c5nc(c(-c6cccc(S(=O)(=O)[O-])c6F)c6ccc3[nH]6)C=C5)C=C4)cc2)c1
REMARK SMILES IDX 25 1 24 2 23 3 22 4 20 5 21 6 19 8 8 9 9 10 10 11 18 12 7 14
REMARK SMILES IDX 3 15 4 16 93 17 5 18 6 19 2 20 1 21 11 22 12 23 13 24 16 25
REMARK SMILES IDX 14 26 15 27 17 28 26 29 27 30 28 31 29 33 30 34 31 35 92 36
REMARK SMILES IDX 32 37 91 38 33 39 34 40 35 41 85 42 36 43 90 44 84 45 86 46
REMARK SMILES IDX 37 47 89 48 83 49 82 50 38 52 70 53 50 54 69 55 51 56 54 57
REMARK SMILES IDX 68 58 87 59 52 60 53 61 67 63 88 64 55 65 39 66 40 67 48 68
REMARK SMILES IDX 41 69 43 70 49 71 42 72 44 73 45 74 46 75 47 76 71 77 72 78
REMARK SMILES IDX 80 79 73 80 75 81 81 82 74 83 76 84 77 85 78 86 79 87 56 88
REMARK SMILES IDX 57 89 65 90 58 91 60 92 66 93 59 94 61 95 62 96 63 97 64 98
REMARK H PARENT 22 7 10 13 27 32 86 51 54 62
REMARK Flexibility Score: inf
ROOT
ATOM      1  C   UNL     1       4.467   9.242  -1.728  1.00  0.00     0.023 C 
ENDROOT
BRANCH   1   2
ATOM      2  C   UNL     1       4.015   7.768  -1.754  1.00  0.00     0.023 C 
BRANCH   2   3
ATOM      3  C   UNL     1       4.678   6.790  -0.773  1.00  0.00     0.116 C 
BRANCH   3   4
ATOM      4  N   UNL     1       3.726   5.853  -0.175  1.00  0.00    -0.356 N 
ATOM      5  C   UNL     1       3.784   4.546   0.186  1.00  0.00     0.229 C 
ATOM      6  O   UNL     1       3.377   4.320   1.337  1.00  0.00    -0.275 OA
ATOM      7  H   UNL     1       2.849   6.261   0.006  1.00  0.00     0.163 HD
BRANCH   5   8
ATOM      8  C   UNL     1       4.187   3.335  -0.662  1.00  0.00     0.146 C 
ATOM      9  C   UNL     1       3.682   3.218  -2.098  1.00  0.00     0.092 C 
ATOM     10  C   UNL     1       4.550   2.069  -2.658  1.00  0.00     0.271 C 
ATOM     11  N   UNL     1       5.826   2.090  -1.921  1.00  0.00    -0.327 N 
ATOM     12  C   UNL     1       5.643   2.900  -0.706  1.00  0.00     0.277 C 
ATOM     13  H   UNL     1       6.073   1.148  -1.618  1.00  0.00     0.348 HD
BRANCH   9  14
ATOM     14  C   UNL     1       2.202   2.884  -2.183  1.00  0.00    -0.035 A 
ATOM     15  C   UNL     1       0.330   1.416  -1.610  1.00  0.00     0.119 A 
ATOM     16  C   UNL     1      -0.532   2.253  -2.312  1.00  0.00     0.046 A 
ATOM     17  C   UNL     1       1.688   1.722  -1.570  1.00  0.00     0.050 A 
ATOM     18  C   UNL     1      -0.043   3.406  -2.931  1.00  0.00     0.004 A 
ATOM     19  C   UNL     1       1.316   3.724  -2.864  1.00  0.00     0.004 A 
BRANCH  15  20
ATOM     20  O   UNL     1      -0.234   0.313  -1.027  1.00  0.00    -0.497 OA
ATOM     21  C   UNL     1       0.423  -0.142   0.155  1.00  0.00     0.278 C 
ENDBRANCH  15  20
ENDBRANCH   9  14
BRANCH  11  22
ATOM     22  C   UNL     1       6.987   2.423  -2.760  1.00  0.00     0.339 C 
BRANCH  22  23
ATOM     23  C   UNL     1       6.803   3.677  -3.555  1.00  0.00     0.164 A 
ATOM     24  N   UNL     1       6.188   3.741  -4.726  1.00  0.00    -0.236 NA
ATOM     25  N   UNL     1       7.096   4.937  -3.102  1.00  0.00    -0.333 N 
ATOM     26  C   UNL     1       5.893   5.056  -4.921  1.00  0.00     0.131 A 
ATOM     27  C   UNL     1       6.393   5.802  -3.888  1.00  0.00     0.107 A 
ATOM     28  C   UNL     1       7.946   5.311  -1.998  1.00  0.00     0.151 C 
ENDBRANCH  22  23
ENDBRANCH  11  22
ENDBRANCH   5   8
ENDBRANCH   3   4
ENDBRANCH   2   3
ENDBRANCH   1   2
BRANCH   1  29
ATOM     29  C   UNL     1       5.948   9.599  -1.615  1.00  0.00     0.116 C 
BRANCH  29  30
ATOM     30  N   UNL     1       6.741   9.405  -2.822  1.00  0.00    -0.352 N 
ATOM     31  C   UNL     1       7.737  10.194  -3.357  1.00  0.00     0.251 C 
ATOM     32  H   UNL     1       6.535   8.588  -3.331  1.00  0.00     0.163 HD
ATOM     33  O   UNL     1       8.328   9.846  -4.375  1.00  0.00    -0.269 OA
BRANCH  31  34
ATOM     34  C   UNL     1       8.020  11.500  -2.736  1.00  0.00     0.039 A 
ATOM     35  C   UNL     1       7.890  12.655  -3.513  1.00  0.00     0.014 A 
ATOM     36  C   UNL     1       8.247  11.584  -1.364  1.00  0.00     0.014 A 
ATOM     37  C   UNL     1       7.866  13.901  -2.885  1.00  0.00     0.010 A 
ATOM     38  C   UNL     1       8.115  12.815  -0.735  1.00  0.00     0.010 A 
ATOM     39  C   UNL     1       7.911  13.987  -1.484  1.00  0.00    -0.014 A 
BRANCH  39  40
ATOM     40  C   UNL     1       7.722  15.281  -0.775  1.00  0.00     0.031 A 
ATOM     41  C   UNL     1       8.780  15.779   0.174  1.00  0.00     0.074 A 
ATOM     42  C   UNL     1       6.554  15.948  -0.887  1.00  0.00     0.049 A 
ATOM     43  N   UNL     1       8.760  16.826   0.956  1.00  0.00    -0.248 NA
ATOM     44  C   UNL     1       9.999  14.961   0.303  1.00  0.00     0.031 C 
ATOM     45  C   UNL     1       5.397  15.515  -1.677  1.00  0.00     0.029 A 
ATOM     46  N   UNL     1       6.136  17.126  -0.317  1.00  0.00    -0.354 N 
ATOM     47  C   UNL     1       9.927  16.758   1.708  1.00  0.00     0.074 A 
ATOM     48  C   UNL     1      10.605  15.540   1.328  1.00  0.00     0.031 C 
ATOM     49  C   UNL     1       4.415  16.424  -1.560  1.00  0.00     0.029 A 
ATOM     50  C   UNL     1       4.859  17.495  -0.674  1.00  0.00     0.049 A 
ATOM     51  H   UNL     1       6.698  17.657   0.292  1.00  0.00     0.167 HD
ATOM     52  C   UNL     1      10.419  17.651   2.599  1.00  0.00     0.034 A 
ATOM     53  C   UNL     1       4.135  18.582  -0.339  1.00  0.00     0.034 A 
ATOM     54  C   UNL     1       9.794  18.909   2.896  1.00  0.00     0.049 A 
ATOM     55  C   UNL     1       4.760  19.626   0.549  1.00  0.00     0.074 A 
ATOM     56  C   UNL     1      10.265  19.939   3.689  1.00  0.00     0.029 A 
ATOM     57  N   UNL     1       8.568  19.316   2.394  1.00  0.00    -0.354 N 
ATOM     58  N   UNL     1       5.942  19.625   1.115  1.00  0.00    -0.248 NA
ATOM     59  C   UNL     1       3.974  20.842   0.806  1.00  0.00     0.031 C 
ATOM     60  C   UNL     1       9.323  20.974   3.662  1.00  0.00     0.029 A 
ATOM     61  C   UNL     1       8.271  20.589   2.846  1.00  0.00     0.049 A 
ATOM     62  H   UNL     1       7.993  18.779   1.802  1.00  0.00     0.167 HD
ATOM     63  C   UNL     1       6.059  20.851   1.760  1.00  0.00     0.074 A 
ATOM     64  C   UNL     1       4.833  21.578   1.499  1.00  0.00     0.031 C 
ATOM     65  C   UNL     1       7.080  21.326   2.514  1.00  0.00     0.034 A 
BRANCH  52  66
ATOM     66  C   UNL     1      11.744  17.333   3.241  1.00  0.00     0.023 A 
ATOM     67  C   UNL     1      12.917  17.371   2.458  1.00  0.00     0.012 A 
ATOM     68  C   UNL     1      11.837  17.024   4.611  1.00  0.00     0.148 A 
ATOM     69  C   UNL     1      14.155  17.057   3.016  1.00  0.00     0.002 A 
ATOM     70  C   UNL     1      13.083  16.759   5.171  1.00  0.00     0.091 A 
ATOM     71  F   UNL     1      10.711  16.971   5.335  1.00  0.00    -0.205 F 
ATOM     72  C   UNL     1      14.239  16.760   4.373  1.00  0.00     0.022 A 
BRANCH  70  73
ATOM     73  S   UNL     1      13.307  16.442   6.925  1.00  0.00     0.127 S 
ATOM     74  O   UNL     1      13.565  15.003   6.934  1.00  0.00    -0.237 OA
ATOM     75  O   UNL     1      14.470  17.271   7.242  1.00  0.00    -0.237 OA
ATOM     76  O   UNL     1      12.070  16.863   7.567  1.00  0.00    -0.744 OA
ENDBRANCH  70  73
ENDBRANCH  52  66
BRANCH  53  77
ATOM     77  C   UNL     1       2.786  18.798  -0.939  1.00  0.00     0.023 A 
ATOM     78  C   UNL     1       2.627  19.802  -1.916  1.00  0.00     0.012 A 
ATOM     79  C   UNL     1       1.676  18.011  -0.580  1.00  0.00     0.148 A 
ATOM     80  C   UNL     1       1.381  20.042  -2.497  1.00  0.00     0.002 A 
ATOM     81  C   UNL     1       0.448  18.221  -1.200  1.00  0.00     0.091 A 
ATOM     82  F   UNL     1       1.842  17.067   0.358  1.00  0.00    -0.205 F 
ATOM     83  C   UNL     1       0.295  19.247  -2.147  1.00  0.00     0.022 A 
BRANCH  81  84
ATOM     84  S   UNL     1      -0.972  17.161  -0.905  1.00  0.00     0.127 S 
ATOM     85  O   UNL     1      -1.817  18.015  -0.075  1.00  0.00    -0.237 OA
ATOM     86  O   UNL     1      -1.470  16.932  -2.262  1.00  0.00    -0.237 OA
ATOM     87  O   UNL     1      -0.438  15.970  -0.257  1.00  0.00    -0.744 OA
ENDBRANCH  81  84
ENDBRANCH  53  77
BRANCH  65  88
ATOM     88  C   UNL     1       6.950  22.714   3.080  1.00  0.00     0.023 A 
ATOM     89  C   UNL     1       6.095  22.944   4.175  1.00  0.00     0.012 A 
ATOM     90  C   UNL     1       7.752  23.764   2.592  1.00  0.00     0.148 A 
ATOM     91  C   UNL     1       6.023  24.207   4.761  1.00  0.00     0.002 A 
ATOM     92  C   UNL     1       7.708  25.008   3.211  1.00  0.00     0.091 A 
ATOM     93  F   UNL     1       8.543  23.529   1.535  1.00  0.00    -0.205 F 
ATOM     94  C   UNL     1       6.838  25.233   4.289  1.00  0.00     0.022 A 
BRANCH  92  95
ATOM     95  S   UNL     1       8.797  26.353   2.729  1.00  0.00     0.127 S 
ATOM     96  O   UNL     1       7.891  27.212   1.969  1.00  0.00    -0.237 OA
ATOM     97  O   UNL     1       9.213  26.898   4.023  1.00  0.00    -0.237 OA
ATOM     98  O   UNL     1       9.873  25.739   1.963  1.00  0.00    -0.744 OA
ENDBRANCH  92  95
ENDBRANCH  65  88
ENDBRANCH  39  40
ENDBRANCH  31  34
ENDBRANCH  29  30
ENDBRANCH   1  29
TORSDOF 18
