REMARK SMILES CC[C@H](C)CN(CC)c1nc(C(=O)NCCCCNC(=O)c2ccc(-c3c4nc(c(-c5cccc(S(=O)(=O)[O-])c5F)c5ccc([nH]5)c(-c5cccc(S(=O)(=O)[O-])c5F)c5nc(c(-c6cccc(S(=O)(=O)[O-])c6F)c6ccc3[nH]6)C=C5)C=C4)cc2)cc2ccccc12
REMARK SMILES IDX 16 1 15 2 14 3 12 4 13 5 11 7 9 8 10 9 91 10 86 11 90 12
REMARK SMILES IDX 85 13 87 14 89 15 88 16 6 17 5 18 3 19 4 20 2 21 1 22 7 23
REMARK SMILES IDX 8 24 17 25 18 26 19 27 20 28 21 30 22 31 23 32 84 33 24 34
REMARK SMILES IDX 83 35 25 36 26 37 27 38 77 39 28 40 82 41 76 42 78 43 29 44
REMARK SMILES IDX 81 45 75 46 74 47 30 49 62 50 42 51 61 52 43 53 46 54 60 55
REMARK SMILES IDX 79 56 44 57 45 58 59 60 80 61 47 62 31 63 32 64 40 65 33 66
REMARK SMILES IDX 35 67 41 68 34 69 36 70 37 71 38 72 39 73 63 74 64 75 72 76
REMARK SMILES IDX 65 77 67 78 73 79 66 80 68 81 69 82 70 83 71 84 48 85 49 86
REMARK SMILES IDX 57 87 50 88 52 89 58 90 51 91 53 92 54 93 55 94 56 95
REMARK H PARENT 14 6 19 29 78 48 46 59
REMARK Flexibility Score: inf
ROOT
ATOM      1  C   UNL     1      -1.753   2.287   7.790  1.00  0.00     0.023 C 
ENDROOT
BRANCH   1   2
ATOM      2  C   UNL     1      -0.524   1.560   7.263  1.00  0.00     0.116 C 
BRANCH   2   3
ATOM      3  N   UNL     1      -0.614   0.125   7.394  1.00  0.00    -0.351 N 
ATOM      4  C   UNL     1      -0.323  -0.860   6.481  1.00  0.00     0.269 C 
ATOM      5  O   UNL     1      -0.518  -2.028   6.829  1.00  0.00    -0.268 OA
ATOM      6  H   UNL     1      -0.932  -0.196   8.269  1.00  0.00     0.163 HD
BRANCH   4   7
ATOM      7  C   UNL     1       0.217  -0.589   5.103  1.00  0.00     0.131 A 
ATOM      8  C   UNL     1       1.297   0.807   3.580  1.00  0.00     0.137 A 
ATOM      9  N   UNL     1       0.721   0.634   4.791  1.00  0.00    -0.225 NA
ATOM     10  C   UNL     1       1.505  -0.295   2.703  1.00  0.00     0.024 A 
ATOM     11  C   UNL     1       0.839  -1.502   2.984  1.00  0.00    -0.012 A 
ATOM     12  C   UNL     1       2.320  -0.264   1.550  1.00  0.00     0.012 A 
ATOM     13  C   UNL     1       0.200  -1.649   4.209  1.00  0.00     0.043 A 
ATOM     14  C   UNL     1       0.822  -2.538   2.034  1.00  0.00     0.009 A 
ATOM     15  C   UNL     1       2.298  -1.290   0.605  1.00  0.00     0.001 A 
ATOM     16  C   UNL     1       1.514  -2.412   0.831  1.00  0.00     0.001 A 
BRANCH   8  17
ATOM     17  N   UNL     1       1.566   2.118   3.143  1.00  0.00    -0.356 N 
BRANCH  17  18
ATOM     18  C   UNL     1       0.520   2.788   2.318  1.00  0.00     0.121 C 
BRANCH  18  19
ATOM     19  C   UNL     1       0.470   2.265   0.862  1.00  0.00     0.005 C 
ATOM     20  C   UNL     1      -0.715   1.311   0.658  1.00  0.00     0.009 C 
BRANCH  19  21
ATOM     21  C   UNL     1       0.469   3.351  -0.234  1.00  0.00     0.002 C 
ATOM     22  C   UNL     1       1.186   2.841  -1.490  1.00  0.00     0.004 C 
ENDBRANCH  19  21
ENDBRANCH  18  19
ENDBRANCH  17  18
BRANCH  17  23
ATOM     23  C   UNL     1       2.356   2.976   4.035  1.00  0.00     0.114 C 
ATOM     24  C   UNL     1       1.611   3.491   5.257  1.00  0.00     0.027 C 
ENDBRANCH  17  23
ENDBRANCH   8  17
ENDBRANCH   4   7
ENDBRANCH   2   3
ENDBRANCH   1   2
BRANCH   1  25
ATOM     25  C   UNL     1      -1.985   2.183   9.293  1.00  0.00     0.023 C 
BRANCH  25  26
ATOM     26  C   UNL     1      -0.806   2.592  10.166  1.00  0.00     0.116 C 
BRANCH  26  27
ATOM     27  N   UNL     1      -0.343   3.950   9.909  1.00  0.00    -0.352 N 
ATOM     28  C   UNL     1      -0.172   4.995  10.784  1.00  0.00     0.251 C 
ATOM     29  H   UNL     1      -0.119   4.147   8.970  1.00  0.00     0.163 HD
ATOM     30  O   UNL     1       0.106   6.114  10.356  1.00  0.00    -0.269 OA
BRANCH  28  31
ATOM     31  C   UNL     1      -0.349   4.778  12.236  1.00  0.00     0.039 A 
ATOM     32  C   UNL     1      -1.088   5.705  12.975  1.00  0.00     0.014 A 
ATOM     33  C   UNL     1       0.193   3.654  12.864  1.00  0.00     0.014 A 
ATOM     34  C   UNL     1      -1.338   5.467  14.329  1.00  0.00     0.010 A 
ATOM     35  C   UNL     1      -0.141   3.370  14.185  1.00  0.00     0.010 A 
ATOM     36  C   UNL     1      -0.897   4.279  14.938  1.00  0.00    -0.014 A 
BRANCH  36  37
ATOM     37  C   UNL     1      -1.214   3.980  16.359  1.00  0.00     0.031 A 
ATOM     38  C   UNL     1      -0.105   3.798  17.363  1.00  0.00     0.074 A 
ATOM     39  C   UNL     1      -2.496   3.804  16.736  1.00  0.00     0.049 A 
ATOM     40  N   UNL     1      -0.186   3.521  18.639  1.00  0.00    -0.248 NA
ATOM     41  C   UNL     1       1.276   3.914  16.865  1.00  0.00     0.031 C 
ATOM     42  C   UNL     1      -3.657   3.862  15.844  1.00  0.00     0.029 A 
ATOM     43  N   UNL     1      -3.039   3.520  17.965  1.00  0.00    -0.354 N 
ATOM     44  C   UNL     1       1.124   3.396  19.085  1.00  0.00     0.074 A 
ATOM     45  C   UNL     1       1.981   3.583  17.936  1.00  0.00     0.031 C 
ATOM     46  C   UNL     1      -4.773   3.639  16.557  1.00  0.00     0.029 A 
ATOM     47  C   UNL     1      -4.409   3.391  17.948  1.00  0.00     0.049 A 
ATOM     48  H   UNL     1      -2.499   3.418  18.781  1.00  0.00     0.167 HD
ATOM     49  C   UNL     1       1.579   3.180  20.343  1.00  0.00     0.034 A 
ATOM     50  C   UNL     1      -5.274   3.104  18.941  1.00  0.00     0.034 A 
ATOM     51  C   UNL     1       0.726   3.033  21.491  1.00  0.00     0.049 A 
ATOM     52  C   UNL     1      -4.746   2.911  20.337  1.00  0.00     0.074 A 
ATOM     53  C   UNL     1       1.088   2.900  22.819  1.00  0.00     0.029 A 
ATOM     54  N   UNL     1      -0.659   2.989  21.447  1.00  0.00    -0.354 N 
ATOM     55  N   UNL     1      -3.509   2.962  20.767  1.00  0.00    -0.248 NA
ATOM     56  C   UNL     1      -5.738   2.662  21.393  1.00  0.00     0.031 C 
ATOM     57  C   UNL     1      -0.078   2.742  23.576  1.00  0.00     0.029 A 
ATOM     58  C   UNL     1      -1.167   2.819  22.723  1.00  0.00     0.049 A 
ATOM     59  H   UNL     1      -1.201   3.067  20.629  1.00  0.00     0.167 HD
ATOM     60  C   UNL     1      -3.576   2.791  22.145  1.00  0.00     0.074 A 
ATOM     61  C   UNL     1      -4.979   2.658  22.480  1.00  0.00     0.031 C 
ATOM     62  C   UNL     1      -2.568   2.736  23.050  1.00  0.00     0.034 A 
BRANCH  49  63
ATOM     63  C   UNL     1       3.071   3.136  20.550  1.00  0.00     0.023 A 
ATOM     64  C   UNL     1       3.830   4.317  20.414  1.00  0.00     0.012 A 
ATOM     65  C   UNL     1       3.716   1.943  20.932  1.00  0.00     0.148 A 
ATOM     66  C   UNL     1       5.210   4.304  20.614  1.00  0.00     0.002 A 
ATOM     67  C   UNL     1       5.083   1.949  21.179  1.00  0.00     0.091 A 
ATOM     68  F   UNL     1       2.982   0.826  21.038  1.00  0.00    -0.205 F 
ATOM     69  C   UNL     1       5.834   3.124  21.007  1.00  0.00     0.022 A 
BRANCH  67  70
ATOM     70  S   UNL     1       5.968   0.502  21.771  1.00  0.00     0.127 S 
ATOM     71  O   UNL     1       6.791   0.165  20.611  1.00  0.00    -0.237 OA
ATOM     72  O   UNL     1       6.713   1.044  22.909  1.00  0.00    -0.237 OA
ATOM     73  O   UNL     1       4.951  -0.478  22.121  1.00  0.00    -0.744 OA
ENDBRANCH  67  70
ENDBRANCH  49  63
BRANCH  50  74
ATOM     74  C   UNL     1      -6.738   3.048  18.663  1.00  0.00     0.023 A 
ATOM     75  C   UNL     1      -7.583   4.047  19.186  1.00  0.00     0.012 A 
ATOM     76  C   UNL     1      -7.294   2.023  17.875  1.00  0.00     0.148 A 
ATOM     77  C   UNL     1      -8.960   4.005  18.961  1.00  0.00     0.002 A 
ATOM     78  C   UNL     1      -8.658   2.018  17.607  1.00  0.00     0.091 A 
ATOM     79  F   UNL     1      -6.475   1.077  17.394  1.00  0.00    -0.205 F 
ATOM     80  C   UNL     1      -9.495   2.997  18.165  1.00  0.00     0.022 A 
BRANCH  78  81
ATOM     81  S   UNL     1      -9.417   0.836  16.488  1.00  0.00     0.127 S 
ATOM     82  O   UNL     1     -10.219   0.030  17.403  1.00  0.00    -0.237 OA
ATOM     83  O   UNL     1     -10.184   1.712  15.601  1.00  0.00    -0.237 OA
ATOM     84  O   UNL     1      -8.312   0.143  15.838  1.00  0.00    -0.744 OA
ENDBRANCH  78  81
ENDBRANCH  50  74
BRANCH  62  85
ATOM     85  C   UNL     1      -2.940   2.571  24.501  1.00  0.00     0.023 A 
ATOM     86  C   UNL     1      -3.456   1.345  24.964  1.00  0.00     0.012 A 
ATOM     87  C   UNL     1      -2.718   3.618  25.419  1.00  0.00     0.148 A 
ATOM     88  C   UNL     1      -3.785   1.176  26.309  1.00  0.00     0.002 A 
ATOM     89  C   UNL     1      -2.996   3.424  26.766  1.00  0.00     0.091 A 
ATOM     90  F   UNL     1      -2.242   4.783  24.957  1.00  0.00    -0.205 F 
ATOM     91  C   UNL     1      -3.545   2.210  27.210  1.00  0.00     0.022 A 
BRANCH  89  92
ATOM     92  S   UNL     1      -2.624   4.662  28.013  1.00  0.00     0.127 S 
ATOM     93  O   UNL     1      -3.959   5.141  28.365  1.00  0.00    -0.237 OA
ATOM     94  O   UNL     1      -1.966   3.869  29.052  1.00  0.00    -0.237 OA
ATOM     95  O   UNL     1      -1.761   5.640  27.363  1.00  0.00    -0.744 OA
ENDBRANCH  89  92
ENDBRANCH  62  85
ENDBRANCH  36  37
ENDBRANCH  28  31
ENDBRANCH  26  27
ENDBRANCH  25  26
ENDBRANCH   1  25
TORSDOF 19
