REMARK SMILES CCCCc1cc(S(F)(F)(F)(F)F)cc2c1O[C@@H](C(F)(F)F)C(C(=O)NCCCCNC(=O)c1ccc(-c3c4nc(c(-c5cccc(S(=O)(=O)[O-])c5F)c5ccc([nH]5)c(-c5cccc(S(=O)(=O)[O-])c5F)c5nc(c(-c6cccc(S(=O)(=O)[O-])c6F)c6ccc3[nH]6)C=C5)C=C4)cc1)=C2
REMARK SMILES IDX 28 1 27 2 26 3 24 4 25 5 23 7 5 8 6 9 16 10 7 11 15 12 17 13
REMARK SMILES IDX 14 14 97 15 18 16 4 17 3 18 2 19 1 20 8 21 9 22 10 23 11 24
REMARK SMILES IDX 12 25 13 26 19 27 20 28 21 29 22 30 29 31 30 32 31 33 32 34
REMARK SMILES IDX 33 36 34 37 35 38 96 39 36 40 95 41 37 42 38 43 39 44 89 45
REMARK SMILES IDX 40 46 94 47 88 48 90 49 41 50 93 51 87 52 86 53 42 55 74 56
REMARK SMILES IDX 54 57 73 58 55 59 58 60 72 61 91 62 56 63 57 64 71 66 92 67
REMARK SMILES IDX 59 68 43 69 44 70 52 71 45 72 47 73 53 74 46 75 48 76 49 77
REMARK SMILES IDX 50 78 51 79 75 80 76 81 84 82 77 83 79 84 85 85 78 86 80 87
REMARK SMILES IDX 81 88 82 89 83 90 60 91 61 92 69 93 62 94 64 95 70 96 63 97
REMARK SMILES IDX 65 98 66 99 67 100 68 101
REMARK H PARENT 26 6 31 35 90 54 58 65
REMARK Flexibility Score: inf
ROOT
ATOM      1  C   UNL     1      -7.060  -4.666   1.762  1.00  0.00     0.023 C 
ENDROOT
BRANCH   1   2
ATOM      2  C   UNL     1      -5.931  -4.822   2.767  1.00  0.00     0.116 C 
BRANCH   2   3
ATOM      3  N   UNL     1      -5.160  -6.034   2.453  1.00  0.00    -0.352 N 
ATOM      4  C   UNL     1      -3.728  -5.933   2.138  1.00  0.00     0.251 C 
ATOM      5  O   UNL     1      -3.062  -6.981   1.866  1.00  0.00    -0.270 OA
ATOM      6  H   UNL     1      -5.603  -6.913   2.455  1.00  0.00     0.163 HD
BRANCH   4   7
ATOM      7  C   UNL     1      -3.044  -4.576   2.135  1.00  0.00     0.067 C 
ATOM      8  C   UNL     1      -0.995  -0.965   2.598  1.00  0.00    -0.004 A 
ATOM      9  C   UNL     1      -1.700   0.221   2.696  1.00  0.00     0.032 A 
ATOM     10  C   UNL     1      -1.695  -2.143   2.500  1.00  0.00     0.131 A 
ATOM     11  C   UNL     1      -3.070   0.228   2.702  1.00  0.00     0.108 A 
ATOM     12  C   UNL     1      -3.078  -2.173   2.484  1.00  0.00     0.019 A 
ATOM     13  O   UNL     1      -0.985  -3.318   2.517  1.00  0.00    -0.475 OA
ATOM     14  C   UNL     1      -3.756  -0.964   2.589  1.00  0.00     0.036 A 
ATOM     15  C   UNL     1      -3.726  -3.472   2.417  1.00  0.00     0.025 C 
ATOM     16  C   UNL     1      -1.561  -4.452   1.810  1.00  0.00     0.314 C 
BRANCH   8  17
ATOM     17  C   UNL     1       0.525  -0.965   2.598  1.00  0.00     0.039 C 
BRANCH  17  18
ATOM     18  C   UNL     1       1.032  -1.877   1.492  1.00  0.00     0.005 C 
BRANCH  18  19
ATOM     19  C   UNL     1       0.525  -1.376   0.150  1.00  0.00    -0.003 C 
ATOM     20  C   UNL     1       1.032   0.038  -0.087  1.00  0.00     0.004 C 
ENDBRANCH  18  19
ENDBRANCH  17  18
ENDBRANCH   8  17
BRANCH  11  21
ATOM     21  S   UNL     1      -3.974   1.788   2.856  1.00  0.00     0.310 S 
ATOM     22  F   UNL     1      -3.809   1.800   4.433  1.00  0.00    -0.094 F 
ATOM     23  F   UNL     1      -5.305   0.974   3.069  1.00  0.00    -0.094 F 
ATOM     24  F   UNL     1      -4.743   3.133   2.987  1.00  0.00    -0.094 F 
ATOM     25  F   UNL     1      -2.611   2.584   2.780  1.00  0.00    -0.094 F 
ATOM     26  F   UNL     1      -3.165   0.430   2.833  1.00  0.00    -0.094 F 
ENDBRANCH  11  21
BRANCH  16  27
ATOM     27  C   UNL     1      -0.850  -5.723   2.248  1.00  0.00     0.429 C 
ATOM     28  F   UNL     1      -1.368  -6.765   1.604  1.00  0.00    -0.167 F 
ATOM     29  F   UNL     1       0.446  -5.625   1.964  1.00  0.00    -0.167 F 
ATOM     30  F   UNL     1      -1.006  -5.889   3.558  1.00  0.00    -0.167 F 
ENDBRANCH  16  27
ENDBRANCH   4   7
ENDBRANCH   2   3
ENDBRANCH   1   2
BRANCH   1  31
ATOM     31  C   UNL     1      -7.973  -5.879   1.833  1.00  0.00     0.023 C 
BRANCH  31  32
ATOM     32  C   UNL     1      -8.553  -5.996   3.233  1.00  0.00     0.116 C 
BRANCH  32  33
ATOM     33  N   UNL     1      -9.324  -4.784   3.547  1.00  0.00    -0.352 N 
ATOM     34  C   UNL     1     -10.756  -4.885   3.863  1.00  0.00     0.251 C 
ATOM     35  H   UNL     1      -8.881  -3.905   3.545  1.00  0.00     0.163 HD
ATOM     36  O   UNL     1     -11.422  -3.837   4.134  1.00  0.00    -0.269 OA
BRANCH  34  37
ATOM     37  C   UNL     1     -11.440  -6.242   3.865  1.00  0.00     0.039 A 
ATOM     38  C   UNL     1     -12.671  -6.368   3.243  1.00  0.00     0.014 A 
ATOM     39  C   UNL     1     -10.856  -7.280   4.452  1.00  0.00     0.014 A 
ATOM     40  C   UNL     1     -13.346  -7.574   3.547  1.00  0.00     0.010 A 
ATOM     41  C   UNL     1     -11.525  -8.471   4.595  1.00  0.00     0.010 A 
ATOM     42  C   UNL     1     -12.769  -8.647   4.056  1.00  0.00    -0.014 A 
BRANCH  42  43
ATOM     43  C   UNL     1     -13.452 -10.005   4.045  1.00  0.00     0.031 A 
ATOM     44  C   UNL     1     -13.699 -10.625   5.271  1.00  0.00     0.074 A 
ATOM     45  C   UNL     1     -13.791 -10.552   2.819  1.00  0.00     0.049 A 
ATOM     46  N   UNL     1     -14.311 -11.791   5.485  1.00  0.00    -0.248 NA
ATOM     47  C   UNL     1     -13.309 -10.062   6.572  1.00  0.00     0.031 C 
ATOM     48  C   UNL     1     -13.554  -9.929   1.578  1.00  0.00     0.029 A 
ATOM     49  N   UNL     1     -14.402 -11.762   2.573  1.00  0.00    -0.354 N 
ATOM     50  C   UNL     1     -14.377 -12.043   6.794  1.00  0.00     0.074 A 
ATOM     51  C   UNL     1     -13.728 -10.938   7.512  1.00  0.00     0.031 C 
ATOM     52  C   UNL     1     -14.004 -10.756   0.598  1.00  0.00     0.029 A 
ATOM     53  C   UNL     1     -14.531 -11.909   1.210  1.00  0.00     0.049 A 
ATOM     54  H   UNL     1     -14.695 -12.409   3.254  1.00  0.00     0.167 HD
ATOM     55  C   UNL     1     -14.955 -13.151   7.417  1.00  0.00     0.034 A 
ATOM     56  C   UNL     1     -15.072 -12.982   0.520  1.00  0.00     0.034 A 
ATOM     57  C   UNL     1     -15.536 -14.204   6.728  1.00  0.00     0.049 A 
ATOM     58  C   UNL     1     -15.598 -14.118   1.141  1.00  0.00     0.074 A 
ATOM     59  C   UNL     1     -16.129 -15.324   7.340  1.00  0.00     0.029 A 
ATOM     60  N   UNL     1     -15.642 -14.363   5.364  1.00  0.00    -0.354 N 
ATOM     61  N   UNL     1     -15.700 -14.352   2.450  1.00  0.00    -0.248 NA
ATOM     62  C   UNL     1     -16.145 -15.274   0.420  1.00  0.00     0.031 C 
ATOM     63  C   UNL     1     -16.579 -16.152   6.360  1.00  0.00     0.029 A 
ATOM     64  C   UNL     1     -16.273 -15.562   5.119  1.00  0.00     0.049 A 
ATOM     65  H   UNL     1     -15.322 -13.729   4.682  1.00  0.00     0.167 HD
ATOM     66  C   UNL     1     -16.274 -15.537   2.662  1.00  0.00     0.074 A 
ATOM     67  C   UNL     1     -16.562 -16.151   1.359  1.00  0.00     0.031 C 
ATOM     68  C   UNL     1     -16.573 -16.130   3.890  1.00  0.00     0.034 A 
BRANCH  55  69
ATOM     69  C   UNL     1     -14.947 -13.205   8.936  1.00  0.00     0.023 A 
ATOM     70  C   UNL     1     -15.574 -12.203   9.658  1.00  0.00     0.012 A 
ATOM     71  C   UNL     1     -14.332 -14.212   9.545  1.00  0.00     0.148 A 
ATOM     72  C   UNL     1     -15.248 -12.199  11.035  1.00  0.00     0.002 A 
ATOM     73  C   UNL     1     -14.168 -14.209  10.909  1.00  0.00     0.091 A 
ATOM     74  F   UNL     1     -13.871 -15.233   8.829  1.00  0.00    -0.205 F 
ATOM     75  C   UNL     1     -14.711 -13.219  11.680  1.00  0.00     0.022 A 
BRANCH  73  76
ATOM     76  S   UNL     1     -13.220 -15.534  11.697  1.00  0.00     0.127 S 
ATOM     77  O   UNL     1     -12.023 -14.934  12.437  1.00  0.00    -0.237 OA
ATOM     78  O   UNL     1     -14.114 -16.279  12.692  1.00  0.00    -0.237 OA
ATOM     79  O   UNL     1     -12.664 -16.625  10.503  1.00  0.00    -0.744 OA
ENDBRANCH  73  76
ENDBRANCH  55  69
BRANCH  56  80
ATOM     80  C   UNL     1     -15.095 -12.920  -0.999  1.00  0.00     0.023 A 
ATOM     81  C   UNL     1     -16.312 -12.970  -1.658  1.00  0.00     0.012 A 
ATOM     82  C   UNL     1     -13.954 -12.808  -1.667  1.00  0.00     0.148 A 
ATOM     83  C   UNL     1     -16.200 -13.185  -3.052  1.00  0.00     0.002 A 
ATOM     84  C   UNL     1     -13.935 -12.892  -3.038  1.00  0.00     0.091 A 
ATOM     85  F   UNL     1     -12.818 -12.612  -1.003  1.00  0.00    -0.205 F 
ATOM     86  C   UNL     1     -15.096 -13.002  -3.752  1.00  0.00     0.022 A 
BRANCH  84  87
ATOM     87  S   UNL     1     -12.350 -12.858  -3.912  1.00  0.00     0.127 S 
ATOM     88  O   UNL     1     -12.180 -14.152  -4.711  1.00  0.00    -0.237 OA
ATOM     89  O   UNL     1     -12.319 -11.662  -4.866  1.00  0.00    -0.237 OA
ATOM     90  O   UNL     1     -11.077 -12.716  -2.779  1.00  0.00    -0.744 OA
ENDBRANCH  84  87
ENDBRANCH  56  80
BRANCH  68  91
ATOM     91  C   UNL     1     -17.271 -17.481   3.880  1.00  0.00     0.023 A 
ATOM     92  C   UNL     1     -16.642 -18.550   3.264  1.00  0.00     0.012 A 
ATOM     93  C   UNL     1     -18.460 -17.619   4.455  1.00  0.00     0.148 A 
ATOM     94  C   UNL     1     -17.484 -19.668   3.055  1.00  0.00     0.002 A 
ATOM     95  C   UNL     1     -19.169 -18.788   4.323  1.00  0.00     0.091 A 
ATOM     96  F   UNL     1     -18.968 -16.616   5.166  1.00  0.00    -0.205 F 
ATOM     97  C   UNL     1     -18.633 -19.867   3.676  1.00  0.00     0.022 A 
BRANCH  95  98
ATOM     98  S   UNL     1     -20.838 -18.902   5.015  1.00  0.00     0.127 S 
ATOM     99  O   UNL     1     -21.835 -19.203   3.894  1.00  0.00    -0.237 OA
ATOM    100  O   UNL     1     -20.883 -20.025   6.054  1.00  0.00    -0.237 OA
ATOM    101  O   UNL     1     -21.248 -17.419   5.760  1.00  0.00    -0.744 OA
ENDBRANCH  95  98
ENDBRANCH  68  91
ENDBRANCH  42  43
ENDBRANCH  34  37
ENDBRANCH  32  33
ENDBRANCH  31  32
ENDBRANCH   1  31
TORSDOF 19
