REMARK SMILES COC(=O)c1cc(F)cc(-c2ccc(C(=O)NCCCCNC(=O)c3ccc(-c4c5nc(c(-c6cccc(S(=O)(=O)[O-])c6F)c6ccc([nH]6)c(-c6cccc(S(=O)(=O)[O-])c6F)c6nc(c(-c7cccc(S(=O)(=O)[O-])c7F)c7ccc4[nH]7)C=C6)C=C5)cc3)cc2C)c1
REMARK SMILES IDX 19 1 18 2 17 3 15 4 16 5 14 7 11 8 12 9 89 10 13 11 88 12
REMARK SMILES IDX 90 13 10 14 5 15 6 16 91 17 7 18 8 19 9 20 3 21 4 22 2 23
REMARK SMILES IDX 1 24 20 25 21 26 22 27 23 28 24 30 25 31 26 32 87 33 27 34
REMARK SMILES IDX 86 35 28 36 29 37 30 38 80 39 31 40 85 41 79 42 81 43 32 44
REMARK SMILES IDX 84 45 78 46 77 47 33 49 65 50 45 51 64 52 46 53 49 54 63 55
REMARK SMILES IDX 82 56 47 57 48 58 62 60 83 61 50 62 34 63 35 64 43 65 36 66
REMARK SMILES IDX 38 67 44 68 37 69 39 70 40 71 41 72 42 73 66 74 67 75 75 76
REMARK SMILES IDX 68 77 70 78 76 79 69 80 71 81 72 82 73 83 74 84 51 85 52 86
REMARK SMILES IDX 60 87 53 88 55 89 61 90 54 91 56 92 57 93 58 94 59 95
REMARK H PARENT 17 6 22 29 81 48 49 59
REMARK Flexibility Score: inf
ROOT
ATOM      1  C   UNL     1       6.306   3.572  -9.742  1.00  0.00     0.023 C 
ENDROOT
BRANCH   1   2
ATOM      2  C   UNL     1       6.250   4.070  -8.299  1.00  0.00     0.116 C 
BRANCH   2   3
ATOM      3  N   UNL     1       5.932   5.484  -8.189  1.00  0.00    -0.352 N 
ATOM      4  C   UNL     1       4.913   6.183  -7.584  1.00  0.00     0.251 C 
ATOM      5  O   UNL     1       4.888   7.403  -7.761  1.00  0.00    -0.269 OA
ATOM      6  H   UNL     1       6.584   6.065  -8.644  1.00  0.00     0.163 HD
BRANCH   4   7
ATOM      7  C   UNL     1       3.832   5.566  -6.756  1.00  0.00     0.040 A 
ATOM      8  C   UNL     1       1.669   4.540  -5.195  1.00  0.00    -0.015 A 
ATOM      9  C   UNL     1       2.862   3.818  -5.401  1.00  0.00     0.010 A 
ATOM     10  C   UNL     1       1.587   5.832  -5.743  1.00  0.00    -0.042 A 
ATOM     11  C   UNL     1       3.944   4.347  -6.105  1.00  0.00     0.014 A 
ATOM     12  C   UNL     1       2.654   6.309  -6.545  1.00  0.00     0.018 A 
ATOM     13  C   UNL     1       0.461   6.791  -5.460  1.00  0.00     0.045 C 
BRANCH   8  14
ATOM     14  C   UNL     1       0.633   3.895  -4.366  1.00  0.00    -0.014 A 
ATOM     15  C   UNL     1       0.107   2.585  -2.366  1.00  0.00     0.063 A 
ATOM     16  C   UNL     1      -1.181   2.349  -2.840  1.00  0.00     0.055 A 
ATOM     17  C   UNL     1       0.989   3.380  -3.107  1.00  0.00     0.024 A 
ATOM     18  C   UNL     1      -1.558   2.903  -4.058  1.00  0.00     0.124 A 
ATOM     19  F   UNL     1      -2.796   2.679  -4.521  1.00  0.00    -0.207 F 
ATOM     20  C   UNL     1      -0.668   3.654  -4.828  1.00  0.00     0.048 A 
BRANCH  15  21
ATOM     21  C   UNL     1       0.633   1.977  -1.123  1.00  0.00     0.337 C 
ATOM     22  O   UNL     1       1.494   2.488  -0.437  1.00  0.00    -0.246 OA
BRANCH  21  23
ATOM     23  O   UNL     1       0.106   0.735  -0.969  1.00  0.00    -0.465 OA
ATOM     24  C   UNL     1       0.742  -0.017   0.067  1.00  0.00     0.282 C 
ENDBRANCH  21  23
ENDBRANCH  15  21
ENDBRANCH   8  14
ENDBRANCH   4   7
ENDBRANCH   2   3
ENDBRANCH   1   2
BRANCH   1  25
ATOM     25  C   UNL     1       7.580   3.890 -10.529  1.00  0.00     0.023 C 
BRANCH  25  26
ATOM     26  C   UNL     1       8.894   3.475  -9.866  1.00  0.00     0.116 C 
BRANCH  26  27
ATOM     27  N   UNL     1       8.932   2.078  -9.469  1.00  0.00    -0.352 N 
ATOM     28  C   UNL     1      10.002   1.295  -9.105  1.00  0.00     0.251 C 
ATOM     29  H   UNL     1       8.059   1.623  -9.460  1.00  0.00     0.163 HD
ATOM     30  O   UNL     1       9.812   0.094  -8.919  1.00  0.00    -0.269 OA
BRANCH  28  31
ATOM     31  C   UNL     1      11.371   1.852  -8.964  1.00  0.00     0.039 A 
ATOM     32  C   UNL     1      12.456   1.041  -9.325  1.00  0.00     0.014 A 
ATOM     33  C   UNL     1      11.618   3.116  -8.423  1.00  0.00     0.014 A 
ATOM     34  C   UNL     1      13.768   1.500  -9.166  1.00  0.00     0.010 A 
ATOM     35  C   UNL     1      12.922   3.602  -8.331  1.00  0.00     0.010 A 
ATOM     36  C   UNL     1      14.012   2.791  -8.676  1.00  0.00    -0.014 A 
BRANCH  36  37
ATOM     37  C   UNL     1      15.393   3.302  -8.480  1.00  0.00     0.031 A 
ATOM     38  C   UNL     1      15.888   3.625  -7.094  1.00  0.00     0.074 A 
ATOM     39  C   UNL     1      16.172   3.551  -9.550  1.00  0.00     0.049 A 
ATOM     40  N   UNL     1      17.030   4.145  -6.727  1.00  0.00    -0.248 NA
ATOM     41  C   UNL     1      14.970   3.352  -5.974  1.00  0.00     0.031 C 
ATOM     42  C   UNL     1      15.781   3.342 -10.944  1.00  0.00     0.029 A 
ATOM     43  N   UNL     1      17.445   4.060  -9.633  1.00  0.00    -0.354 N 
ATOM     44  C   UNL     1      16.956   4.294  -5.347  1.00  0.00     0.074 A 
ATOM     45  C   UNL     1      15.645   3.839  -4.943  1.00  0.00     0.031 C 
ATOM     46  C   UNL     1      16.791   3.719 -11.744  1.00  0.00     0.029 A 
ATOM     47  C   UNL     1      17.890   4.221 -10.924  1.00  0.00     0.049 A 
ATOM     48  H   UNL     1      17.986   4.289  -8.843  1.00  0.00     0.167 HD
ATOM     49  C   UNL     1      17.906   4.738  -4.490  1.00  0.00     0.034 A 
ATOM     50  C   UNL     1      19.050   4.721 -11.396  1.00  0.00     0.034 A 
ATOM     51  C   UNL     1      19.228   5.134  -4.892  1.00  0.00     0.049 A 
ATOM     52  C   UNL     1      20.106   5.168 -10.421  1.00  0.00     0.074 A 
ATOM     53  C   UNL     1      20.290   5.511  -4.090  1.00  0.00     0.029 A 
ATOM     54  N   UNL     1      19.671   5.204  -6.203  1.00  0.00    -0.354 N 
ATOM     55  N   UNL     1      20.069   5.165  -9.111  1.00  0.00    -0.248 NA
ATOM     56  C   UNL     1      21.374   5.654 -10.984  1.00  0.00     0.031 C 
ATOM     57  C   UNL     1      21.370   5.829  -4.918  1.00  0.00     0.029 A 
ATOM     58  C   UNL     1      20.988   5.625  -6.234  1.00  0.00     0.049 A 
ATOM     59  H   UNL     1      19.128   4.986  -6.995  1.00  0.00     0.167 HD
ATOM     60  C   UNL     1      21.315   5.617  -8.692  1.00  0.00     0.074 A 
ATOM     61  C   UNL     1      22.092   5.868  -9.888  1.00  0.00     0.031 C 
ATOM     62  C   UNL     1      21.768   5.820  -7.430  1.00  0.00     0.034 A 
BRANCH  49  63
ATOM     63  C   UNL     1      17.583   4.756  -3.018  1.00  0.00     0.023 A 
ATOM     64  C   UNL     1      17.502   3.538  -2.313  1.00  0.00     0.012 A 
ATOM     65  C   UNL     1      17.460   5.970  -2.314  1.00  0.00     0.148 A 
ATOM     66  C   UNL     1      17.281   3.525  -0.937  1.00  0.00     0.002 A 
ATOM     67  C   UNL     1      17.284   5.951  -0.935  1.00  0.00     0.091 A 
ATOM     68  F   UNL     1      17.521   7.118  -3.004  1.00  0.00    -0.205 F 
ATOM     69  C   UNL     1      17.185   4.731  -0.247  1.00  0.00     0.022 A 
BRANCH  67  70
ATOM     70  S   UNL     1      17.235   7.446   0.060  1.00  0.00     0.127 S 
ATOM     71  O   UNL     1      15.840   7.461   0.500  1.00  0.00    -0.237 OA
ATOM     72  O   UNL     1      18.203   7.145   1.115  1.00  0.00    -0.237 OA
ATOM     73  O   UNL     1      17.619   8.535  -0.827  1.00  0.00    -0.744 OA
ENDBRANCH  67  70
ENDBRANCH  49  63
BRANCH  50  74
ATOM     74  C   UNL     1      19.294   4.741 -12.866  1.00  0.00     0.023 A 
ATOM     75  C   UNL     1      20.218   3.834 -13.422  1.00  0.00     0.012 A 
ATOM     76  C   UNL     1      18.567   5.592 -13.722  1.00  0.00     0.148 A 
ATOM     77  C   UNL     1      20.426   3.786 -14.801  1.00  0.00     0.002 A 
ATOM     78  C   UNL     1      18.738   5.499 -15.098  1.00  0.00     0.091 A 
ATOM     79  F   UNL     1      17.701   6.455 -13.172  1.00  0.00    -0.205 F 
ATOM     80  C   UNL     1      19.677   4.607 -15.639  1.00  0.00     0.022 A 
BRANCH  78  81
ATOM     81  S   UNL     1      17.717   6.412 -16.262  1.00  0.00     0.127 S 
ATOM     82  O   UNL     1      18.680   7.350 -16.834  1.00  0.00    -0.237 OA
ATOM     83  O   UNL     1      17.275   5.353 -17.170  1.00  0.00    -0.237 OA
ATOM     84  O   UNL     1      16.651   7.007 -15.469  1.00  0.00    -0.744 OA
ENDBRANCH  78  81
ENDBRANCH  50  74
BRANCH  62  85
ATOM     85  C   UNL     1      23.177   6.322  -7.253  1.00  0.00     0.023 A 
ATOM     86  C   UNL     1      23.476   7.668  -7.534  1.00  0.00     0.012 A 
ATOM     87  C   UNL     1      24.169   5.495  -6.687  1.00  0.00     0.148 A 
ATOM     88  C   UNL     1      24.745   8.182  -7.271  1.00  0.00     0.002 A 
ATOM     89  C   UNL     1      25.416   6.025  -6.382  1.00  0.00     0.091 A 
ATOM     90  F   UNL     1      23.866   4.211  -6.441  1.00  0.00    -0.205 F 
ATOM     91  C   UNL     1      25.709   7.366  -6.682  1.00  0.00     0.022 A 
BRANCH  89  92
ATOM     92  S   UNL     1      26.684   5.082  -5.528  1.00  0.00     0.127 S 
ATOM     93  O   UNL     1      27.671   4.882  -6.588  1.00  0.00    -0.237 OA
ATOM     94  O   UNL     1      27.101   6.006  -4.473  1.00  0.00    -0.237 OA
ATOM     95  O   UNL     1      26.031   3.871  -5.049  1.00  0.00    -0.744 OA
ENDBRANCH  89  92
ENDBRANCH  62  85
ENDBRANCH  36  37
ENDBRANCH  28  31
ENDBRANCH  26  27
ENDBRANCH  25  26
ENDBRANCH   1  25
TORSDOF 17
