REMARK SMILES COc1ccc2c(c1)c(CC(=O)NCCCCNC(=O)c1ccc(-c3c4nc(c(-c5cccc(S(=O)(=O)[O-])c5F)c5ccc([nH]5)c(-c5cccc(S(=O)(=O)[O-])c5F)c5nc(c(-c6cccc(S(=O)(=O)[O-])c6F)c6ccc3[nH]6)C=C5)C=C4)cc1)c(C(F)(F)F)n2C(=O)c1ccc(Cl)cc1
REMARK SMILES IDX 15 1 14 2 13 3 11 4 12 5 10 7 9 8 3 9 4 10 8 11 5 12 7 13
REMARK SMILES IDX 6 14 89 15 84 16 2 17 1 18 90 19 91 20 92 21 93 22 98 23
REMARK SMILES IDX 94 24 97 25 95 26 96 27 85 28 86 29 87 30 88 31 16 32 17 33
REMARK SMILES IDX 18 34 19 35 20 37 21 38 22 39 83 40 23 41 82 42 24 43 25 44
REMARK SMILES IDX 26 45 76 46 27 47 81 48 75 49 77 50 28 51 80 52 74 53 73 54
REMARK SMILES IDX 29 56 61 57 41 58 60 59 42 60 45 61 59 62 78 63 43 64 44 65
REMARK SMILES IDX 58 67 79 68 46 69 30 70 31 71 39 72 32 73 34 74 40 75 33 76
REMARK SMILES IDX 35 77 36 78 37 79 38 80 62 81 63 82 71 83 64 84 66 85 72 86
REMARK SMILES IDX 65 87 67 88 68 89 69 90 70 91 47 92 48 93 56 94 49 95 51 96
REMARK SMILES IDX 57 97 50 98 52 99 53 100 54 101 55 102
REMARK H PARENT 13 6 18 36 77 55 45 66
REMARK Flexibility Score: inf
ROOT
ATOM      1  C   UNL     1       0.442  -6.448  -4.590  1.00  0.00     0.023 C 
ENDROOT
BRANCH   1   2
ATOM      2  C   UNL     1      -0.914  -6.025  -5.152  1.00  0.00     0.116 C 
BRANCH   2   3
ATOM      3  N   UNL     1      -1.790  -5.492  -4.129  1.00  0.00    -0.356 N 
ATOM      4  C   UNL     1      -2.310  -4.232  -4.035  1.00  0.00     0.224 C 
ATOM      5  O   UNL     1      -3.085  -3.978  -3.111  1.00  0.00    -0.275 OA
ATOM      6  H   UNL     1      -2.044  -6.117  -3.411  1.00  0.00     0.163 HD
BRANCH   4   7
ATOM      7  C   UNL     1      -1.973  -3.193  -5.096  1.00  0.00     0.138 C 
BRANCH   7   8
ATOM      8  C   UNL     1      -0.514  -2.819  -5.127  1.00  0.00     0.000 A 
ATOM      9  C   UNL     1       0.872  -1.524  -1.821  1.00  0.00     0.119 A 
ATOM     10  C   UNL     1       2.154  -1.273  -2.282  1.00  0.00     0.048 A 
ATOM     11  C   UNL     1      -0.080  -2.072  -2.679  1.00  0.00     0.057 A 
ATOM     12  C   UNL     1       2.499  -1.533  -3.612  1.00  0.00     0.031 A 
ATOM     13  C   UNL     1       0.247  -2.345  -4.026  1.00  0.00     0.008 A 
ATOM     14  C   UNL     1       1.548  -2.106  -4.480  1.00  0.00     0.057 A 
ATOM     15  N   UNL     1       1.633  -2.589  -5.795  1.00  0.00    -0.271 N 
ATOM     16  C   UNL     1       0.326  -2.803  -6.240  1.00  0.00     0.135 A 
BRANCH   9  17
ATOM     17  O   UNL     1       0.460  -1.294  -0.537  1.00  0.00    -0.497 OA
ATOM     18  C   UNL     1       0.963  -0.086   0.025  1.00  0.00     0.278 C 
ENDBRANCH   9  17
BRANCH  15  19
ATOM     19  C   UNL     1       2.823  -2.853  -6.535  1.00  0.00     0.262 C 
ATOM     20  O   UNL     1       2.721  -3.413  -7.612  1.00  0.00    -0.268 OA
BRANCH  19  21
ATOM     21  C   UNL     1       4.189  -2.517  -6.081  1.00  0.00     0.040 A 
ATOM     22  C   UNL     1       4.804  -3.257  -5.065  1.00  0.00     0.015 A 
ATOM     23  C   UNL     1       4.828  -1.409  -6.648  1.00  0.00     0.015 A 
ATOM     24  C   UNL     1       6.031  -2.825  -4.551  1.00  0.00     0.021 A 
ATOM     25  C   UNL     1       6.060  -0.991  -6.138  1.00  0.00     0.021 A 
ATOM     26  C   UNL     1       6.644  -1.687  -5.078  1.00  0.00     0.041 A 
ATOM     27  Cl  UNL     1       8.117  -1.114  -4.397  1.00  0.00    -0.084 Cl
ENDBRANCH  19  21
ENDBRANCH  15  19
BRANCH  16  28
ATOM     28  C   UNL     1      -0.040  -3.030  -7.670  1.00  0.00     0.432 C 
ATOM     29  F   UNL     1      -0.100  -4.347  -7.981  1.00  0.00    -0.165 F 
ATOM     30  F   UNL     1      -1.292  -2.537  -7.905  1.00  0.00    -0.165 F 
ATOM     31  F   UNL     1       0.749  -2.402  -8.570  1.00  0.00    -0.165 F 
ENDBRANCH  16  28
ENDBRANCH   7   8
ENDBRANCH   4   7
ENDBRANCH   2   3
ENDBRANCH   1   2
BRANCH   1  32
ATOM     32  C   UNL     1       0.400  -7.726  -3.740  1.00  0.00     0.023 C 
BRANCH  32  33
ATOM     33  C   UNL     1      -0.329  -8.893  -4.409  1.00  0.00     0.116 C 
BRANCH  33  34
ATOM     34  N   UNL     1       0.229  -9.255  -5.695  1.00  0.00    -0.352 N 
ATOM     35  C   UNL     1       1.151 -10.171  -6.119  1.00  0.00     0.251 C 
ATOM     36  H   UNL     1      -0.140  -8.719  -6.434  1.00  0.00     0.163 HD
ATOM     37  O   UNL     1       1.262 -10.293  -7.342  1.00  0.00    -0.269 OA
BRANCH  35  38
ATOM     38  C   UNL     1       2.054 -10.944  -5.228  1.00  0.00     0.039 A 
ATOM     39  C   UNL     1       2.005 -10.944  -3.834  1.00  0.00     0.014 A 
ATOM     40  C   UNL     1       3.082 -11.662  -5.870  1.00  0.00     0.014 A 
ATOM     41  C   UNL     1       3.014 -11.539  -3.097  1.00  0.00     0.010 A 
ATOM     42  C   UNL     1       4.087 -12.276  -5.138  1.00  0.00     0.010 A 
ATOM     43  C   UNL     1       4.075 -12.158  -3.754  1.00  0.00    -0.014 A 
BRANCH  43  44
ATOM     44  C   UNL     1       5.110 -12.747  -2.924  1.00  0.00     0.031 A 
ATOM     45  C   UNL     1       4.637 -13.862  -2.056  1.00  0.00     0.074 A 
ATOM     46  C   UNL     1       6.396 -12.353  -2.997  1.00  0.00     0.049 A 
ATOM     47  N   UNL     1       4.628 -13.917  -0.763  1.00  0.00    -0.248 NA
ATOM     48  C   UNL     1       3.953 -14.990  -2.710  1.00  0.00     0.031 C 
ATOM     49  C   UNL     1       7.008 -11.457  -3.982  1.00  0.00     0.029 A 
ATOM     50  N   UNL     1       7.464 -12.797  -2.282  1.00  0.00    -0.354 N 
ATOM     51  C   UNL     1       4.134 -15.181  -0.447  1.00  0.00     0.074 A 
ATOM     52  C   UNL     1       3.586 -15.727  -1.662  1.00  0.00     0.031 C 
ATOM     53  C   UNL     1       8.345 -11.648  -3.976  1.00  0.00     0.029 A 
ATOM     54  C   UNL     1       8.684 -12.576  -2.913  1.00  0.00     0.049 A 
ATOM     55  H   UNL     1       7.381 -13.233  -1.403  1.00  0.00     0.167 HD
ATOM     56  C   UNL     1       4.408 -15.792   0.737  1.00  0.00     0.034 A 
ATOM     57  C   UNL     1       9.849 -13.217  -2.644  1.00  0.00     0.034 A 
ATOM     58  C   UNL     1       4.889 -14.872   1.726  1.00  0.00     0.049 A 
ATOM     59  C   UNL     1       9.731 -13.761  -1.268  1.00  0.00     0.074 A 
ATOM     60  C   UNL     1       4.369 -13.751   2.341  1.00  0.00     0.029 A 
ATOM     61  N   UNL     1       6.246 -14.826   1.933  1.00  0.00    -0.354 N 
ATOM     62  N   UNL     1       9.610 -13.011  -0.207  1.00  0.00    -0.248 NA
ATOM     63  C   UNL     1       9.286 -15.138  -1.119  1.00  0.00     0.031 C 
ATOM     64  C   UNL     1       5.469 -12.852   2.440  1.00  0.00     0.029 A 
ATOM     65  C   UNL     1       6.600 -13.503   1.941  1.00  0.00     0.049 A 
ATOM     66  H   UNL     1       6.848 -15.596   2.053  1.00  0.00     0.167 HD
ATOM     67  C   UNL     1       8.680 -13.676   0.581  1.00  0.00     0.074 A 
ATOM     68  C   UNL     1       8.585 -15.019   0.012  1.00  0.00     0.031 C 
ATOM     69  C   UNL     1       7.854 -12.999   1.430  1.00  0.00     0.034 A 
BRANCH  56  70
ATOM     70  C   UNL     1       4.565 -17.279   0.894  1.00  0.00     0.023 A 
ATOM     71  C   UNL     1       4.538 -17.825   2.194  1.00  0.00     0.012 A 
ATOM     72  C   UNL     1       5.003 -18.120  -0.155  1.00  0.00     0.148 A 
ATOM     73  C   UNL     1       4.937 -19.144   2.437  1.00  0.00     0.002 A 
ATOM     74  C   UNL     1       5.327 -19.449   0.079  1.00  0.00     0.091 A 
ATOM     75  F   UNL     1       5.238 -17.599  -1.365  1.00  0.00    -0.205 F 
ATOM     76  C   UNL     1       5.317 -19.961   1.378  1.00  0.00     0.022 A 
BRANCH  74  77
ATOM     77  S   UNL     1       5.798 -20.550  -1.259  1.00  0.00     0.127 S 
ATOM     78  O   UNL     1       7.234 -20.684  -1.035  1.00  0.00    -0.237 OA
ATOM     79  O   UNL     1       5.007 -21.743  -0.956  1.00  0.00    -0.237 OA
ATOM     80  O   UNL     1       5.400 -19.865  -2.482  1.00  0.00    -0.744 OA
ENDBRANCH  74  77
ENDBRANCH  56  70
BRANCH  57  81
ATOM     81  C   UNL     1      10.885 -13.687  -3.604  1.00  0.00     0.023 A 
ATOM     82  C   UNL     1      12.129 -14.144  -3.120  1.00  0.00     0.012 A 
ATOM     83  C   UNL     1      10.580 -13.939  -4.962  1.00  0.00     0.148 A 
ATOM     84  C   UNL     1      13.016 -14.849  -3.947  1.00  0.00     0.002 A 
ATOM     85  C   UNL     1      11.475 -14.614  -5.787  1.00  0.00     0.091 A 
ATOM     86  F   UNL     1       9.369 -13.612  -5.430  1.00  0.00    -0.205 F 
ATOM     87  C   UNL     1      12.689 -15.086  -5.279  1.00  0.00     0.022 A 
BRANCH  85  88
ATOM     88  S   UNL     1      11.110 -14.930  -7.520  1.00  0.00     0.127 S 
ATOM     89  O   UNL     1      12.385 -14.613  -8.164  1.00  0.00    -0.237 OA
ATOM     90  O   UNL     1      10.766 -16.348  -7.506  1.00  0.00    -0.237 OA
ATOM     91  O   UNL     1      10.028 -14.015  -7.865  1.00  0.00    -0.744 OA
ENDBRANCH  85  88
ENDBRANCH  57  81
BRANCH  69  92
ATOM     92  C   UNL     1       8.093 -11.529   1.655  1.00  0.00     0.023 A 
ATOM     93  C   UNL     1       7.808 -10.569   0.661  1.00  0.00     0.012 A 
ATOM     94  C   UNL     1       8.338 -11.102   2.970  1.00  0.00     0.148 A 
ATOM     95  C   UNL     1       7.755  -9.208   0.979  1.00  0.00     0.002 A 
ATOM     96  C   UNL     1       8.243  -9.754   3.290  1.00  0.00     0.091 A 
ATOM     97  F   UNL     1       8.587 -12.037   3.899  1.00  0.00    -0.205 F 
ATOM     98  C   UNL     1       7.954  -8.803   2.297  1.00  0.00     0.022 A 
BRANCH  96  99
ATOM     99  S   UNL     1       8.354  -9.174   4.983  1.00  0.00     0.127 S 
ATOM    100  O   UNL     1       9.552  -8.338   4.942  1.00  0.00    -0.237 OA
ATOM    101  O   UNL     1       7.098  -8.438   5.138  1.00  0.00    -0.237 OA
ATOM    102  O   UNL     1       8.460 -10.365   5.817  1.00  0.00    -0.744 OA
ENDBRANCH  96  99
ENDBRANCH  69  92
ENDBRANCH  43  44
ENDBRANCH  35  38
ENDBRANCH  33  34
ENDBRANCH  32  33
ENDBRANCH   1  32
TORSDOF 19
