REMARK SMILES O=C(C[C@H]1CN(C(=O)NCc2ccc(Br)cc2)CCO1)NCCCCNC(=O)c1ccc(-c2c3nc(c(-c4cccc(S(=O)(=O)[O-])c4F)c4ccc([nH]4)c(-c4cccc(S(=O)(=O)[O-])c4F)c4nc(c(-c5cccc(S(=O)(=O)[O-])c5F)c5ccc2[nH]5)C=C4)C=C3)cc1
REMARK SMILES IDX 23 1 22 2 21 3 1 4 2 5 3 7 4 8 5 9 20 10 6 11 19 12 18 13
REMARK SMILES IDX 7 14 8 15 9 16 10 18 11 19 12 20 17 21 13 22 16 23 14 24
REMARK SMILES IDX 15 25 24 26 25 27 26 28 27 29 28 31 29 32 30 33 91 34 31 35
REMARK SMILES IDX 90 36 32 37 33 38 34 39 84 40 35 41 89 42 83 43 85 44 36 45
REMARK SMILES IDX 88 46 82 47 81 48 37 50 69 51 49 52 68 53 50 54 53 55 67 56
REMARK SMILES IDX 86 57 51 58 52 59 66 61 87 62 54 63 38 64 39 65 47 66 40 67
REMARK SMILES IDX 42 68 48 69 41 70 43 71 44 72 45 73 46 74 70 75 71 76 79 77
REMARK SMILES IDX 72 78 74 79 80 80 73 81 75 82 76 83 77 84 78 85 55 86 56 87
REMARK SMILES IDX 64 88 57 89 59 90 65 91 58 92 60 93 61 94 62 95 63 96
REMARK H PARENT 21 6 9 17 26 30 85 49 53 60
REMARK Flexibility Score: inf
ROOT
ATOM      1  C   UNL     1       9.537   3.804  -0.321  1.00  0.00     0.023 C 
ENDROOT
BRANCH   1   2
ATOM      2  C   UNL     1       8.677   2.551  -0.476  1.00  0.00     0.116 C 
BRANCH   2   3
ATOM      3  N   UNL     1       7.344   2.786  -1.005  1.00  0.00    -0.356 N 
ATOM      4  O   UNL     1       7.405   1.073  -2.523  1.00  0.00    -0.275 OA
ATOM      5  C   UNL     1       6.787   1.983  -1.974  1.00  0.00     0.222 C 
ATOM      6  H   UNL     1       6.822   3.545  -0.659  1.00  0.00     0.163 HD
BRANCH   5   7
ATOM      7  C   UNL     1       5.367   2.309  -2.403  1.00  0.00     0.133 C 
BRANCH   7   8
ATOM      8  C   UNL     1       4.207   1.948  -1.461  1.00  0.00     0.147 C 
ATOM      9  C   UNL     1       4.529   1.125  -0.204  1.00  0.00     0.154 C 
ATOM     10  O   UNL     1       3.409   3.103  -1.143  1.00  0.00    -0.374 OA
ATOM     11  N   UNL     1       5.039   1.921   0.909  1.00  0.00    -0.320 N 
ATOM     12  C   UNL     1       4.030   3.949  -0.172  1.00  0.00     0.182 C 
ATOM     13  C   UNL     1       4.326   3.195   1.127  1.00  0.00     0.150 C 
BRANCH  11  14
ATOM     14  C   UNL     1       5.968   1.544   1.837  1.00  0.00     0.317 C 
ATOM     15  O   UNL     1       6.321   2.302   2.744  1.00  0.00    -0.249 OA
ATOM     16  N   UNL     1       6.614   0.361   1.781  1.00  0.00    -0.334 N 
ATOM     17  H   UNL     1       7.574   0.415   1.990  1.00  0.00     0.165 HD
BRANCH  16  18
ATOM     18  C   UNL     1       6.148  -0.976   1.467  1.00  0.00     0.153 C 
BRANCH  18  19
ATOM     19  C   UNL     1       6.894  -1.686   0.357  1.00  0.00    -0.029 A 
ATOM     20  C   UNL     1       7.958  -1.110  -0.346  1.00  0.00     0.007 A 
ATOM     21  C   UNL     1       6.501  -2.986  -0.002  1.00  0.00     0.007 A 
ATOM     22  C   UNL     1       8.580  -1.778  -1.407  1.00  0.00     0.016 A 
ATOM     23  C   UNL     1       7.130  -3.668  -1.051  1.00  0.00     0.016 A 
ATOM     24  C   UNL     1       8.160  -3.054  -1.758  1.00  0.00     0.017 A 
ATOM     25  Br  UNL     1       8.981  -3.953  -3.204  1.00  0.00    -0.051 Br
ENDBRANCH  18  19
ENDBRANCH  16  18
ENDBRANCH  11  14
ENDBRANCH   7   8
ENDBRANCH   5   7
ENDBRANCH   2   3
ENDBRANCH   1   2
BRANCH   1  26
ATOM     26  C   UNL     1       9.025   4.867   0.652  1.00  0.00     0.023 C 
BRANCH  26  27
ATOM     27  C   UNL     1       8.743   4.403   2.077  1.00  0.00     0.116 C 
BRANCH  27  28
ATOM     28  N   UNL     1       9.918   4.048   2.856  1.00  0.00    -0.352 N 
ATOM     29  C   UNL     1      10.271   4.440   4.129  1.00  0.00     0.251 C 
ATOM     30  H   UNL     1      10.553   3.442   2.410  1.00  0.00     0.163 HD
ATOM     31  O   UNL     1      11.301   4.002   4.639  1.00  0.00    -0.269 OA
BRANCH  29  32
ATOM     32  C   UNL     1       9.462   5.446   4.860  1.00  0.00     0.039 A 
ATOM     33  C   UNL     1      10.120   6.561   5.387  1.00  0.00     0.014 A 
ATOM     34  C   UNL     1       8.075   5.330   4.993  1.00  0.00     0.014 A 
ATOM     35  C   UNL     1       9.382   7.609   5.946  1.00  0.00     0.010 A 
ATOM     36  C   UNL     1       7.335   6.406   5.492  1.00  0.00     0.010 A 
ATOM     37  C   UNL     1       7.978   7.566   5.952  1.00  0.00    -0.014 A 
BRANCH  37  38
ATOM     38  C   UNL     1       7.185   8.755   6.371  1.00  0.00     0.031 A 
ATOM     39  C   UNL     1       6.291   8.708   7.579  1.00  0.00     0.074 A 
ATOM     40  C   UNL     1       7.215   9.870   5.611  1.00  0.00     0.049 A 
ATOM     41  N   UNL     1       5.534   9.652   8.079  1.00  0.00    -0.248 NA
ATOM     42  C   UNL     1       6.222   7.434   8.309  1.00  0.00     0.031 C 
ATOM     43  C   UNL     1       7.967  10.023   4.364  1.00  0.00     0.029 A 
ATOM     44  N   UNL     1       6.578  11.079   5.761  1.00  0.00    -0.354 N 
ATOM     45  C   UNL     1       4.882   9.083   9.166  1.00  0.00     0.074 A 
ATOM     46  C   UNL     1       5.307   7.700   9.232  1.00  0.00     0.031 C 
ATOM     47  C   UNL     1       7.753  11.251   3.866  1.00  0.00     0.029 A 
ATOM     48  C   UNL     1       6.834  11.970   4.744  1.00  0.00     0.049 A 
ATOM     49  H   UNL     1       5.994  11.289   6.525  1.00  0.00     0.167 HD
ATOM     50  C   UNL     1       4.033   9.663  10.049  1.00  0.00     0.034 A 
ATOM     51  C   UNL     1       6.383  13.224   4.537  1.00  0.00     0.034 A 
ATOM     52  C   UNL     1       3.637  11.046  10.008  1.00  0.00     0.049 A 
ATOM     53  C   UNL     1       5.478  13.860   5.557  1.00  0.00     0.074 A 
ATOM     54  C   UNL     1       2.849  11.741  10.909  1.00  0.00     0.029 A 
ATOM     55  N   UNL     1       3.991  11.944   9.014  1.00  0.00    -0.354 N 
ATOM     56  N   UNL     1       5.016  13.357   6.676  1.00  0.00    -0.248 NA
ATOM     57  C   UNL     1       5.065  15.249   5.308  1.00  0.00     0.031 C 
ATOM     58  C   UNL     1       2.715  13.057  10.452  1.00  0.00     0.029 A 
ATOM     59  C   UNL     1       3.433  13.184   9.274  1.00  0.00     0.049 A 
ATOM     60  H   UNL     1       4.556  11.731   8.236  1.00  0.00     0.167 HD
ATOM     61  C   UNL     1       4.286  14.375   7.279  1.00  0.00     0.074 A 
ATOM     62  C   UNL     1       4.386  15.532   6.413  1.00  0.00     0.031 C 
ATOM     63  C   UNL     1       3.582  14.347   8.437  1.00  0.00     0.034 A 
BRANCH  50  64
ATOM     64  C   UNL     1       3.525   8.814  11.184  1.00  0.00     0.023 A 
ATOM     65  C   UNL     1       4.403   8.473  12.234  1.00  0.00     0.012 A 
ATOM     66  C   UNL     1       2.179   8.406  11.250  1.00  0.00     0.148 A 
ATOM     67  C   UNL     1       3.959   7.713  13.314  1.00  0.00     0.002 A 
ATOM     68  C   UNL     1       1.733   7.682  12.350  1.00  0.00     0.091 A 
ATOM     69  F   UNL     1       1.363   8.721  10.233  1.00  0.00    -0.205 F 
ATOM     70  C   UNL     1       2.623   7.326  13.377  1.00  0.00     0.022 A 
BRANCH  68  71
ATOM     71  S   UNL     1       0.015   7.200  12.558  1.00  0.00     0.127 S 
ATOM     72  O   UNL     1       0.072   5.769  12.265  1.00  0.00    -0.237 OA
ATOM     73  O   UNL     1      -0.231   7.525  13.964  1.00  0.00    -0.237 OA
ATOM     74  O   UNL     1      -0.743   8.006  11.611  1.00  0.00    -0.744 OA
ENDBRANCH  68  71
ENDBRANCH  50  64
BRANCH  51  75
ATOM     75  C   UNL     1       6.846  13.990   3.345  1.00  0.00     0.023 A 
ATOM     76  C   UNL     1       7.738  15.066   3.519  1.00  0.00     0.012 A 
ATOM     77  C   UNL     1       6.437  13.641   2.043  1.00  0.00     0.148 A 
ATOM     78  C   UNL     1       8.192  15.799   2.421  1.00  0.00     0.002 A 
ATOM     79  C   UNL     1       6.935  14.340   0.950  1.00  0.00     0.091 A 
ATOM     80  F   UNL     1       5.575  12.624   1.899  1.00  0.00    -0.205 F 
ATOM     81  C   UNL     1       7.800  15.430   1.137  1.00  0.00     0.022 A 
BRANCH  79  82
ATOM     82  S   UNL     1       6.588  13.847  -0.742  1.00  0.00     0.127 S 
ATOM     83  O   UNL     1       5.641  14.874  -1.166  1.00  0.00    -0.237 OA
ATOM     84  O   UNL     1       7.910  13.933  -1.363  1.00  0.00    -0.237 OA
ATOM     85  O   UNL     1       6.059  12.492  -0.651  1.00  0.00    -0.744 OA
ENDBRANCH  79  82
ENDBRANCH  51  75
BRANCH  63  86
ATOM     86  C   UNL     1       2.876  15.610   8.860  1.00  0.00     0.023 A 
ATOM     87  C   UNL     1       1.709  16.015   8.182  1.00  0.00     0.012 A 
ATOM     88  C   UNL     1       3.321  16.350   9.973  1.00  0.00     0.148 A 
ATOM     89  C   UNL     1       1.012  17.152   8.588  1.00  0.00     0.002 A 
ATOM     90  C   UNL     1       2.596  17.457  10.399  1.00  0.00     0.091 A 
ATOM     91  F   UNL     1       4.445  15.961  10.592  1.00  0.00    -0.205 F 
ATOM     92  C   UNL     1       1.447  17.865   9.702  1.00  0.00     0.022 A 
BRANCH  90  93
ATOM     93  S   UNL     1       3.033  18.380  11.878  1.00  0.00     0.127 S 
ATOM     94  O   UNL     1       3.622  19.591  11.310  1.00  0.00    -0.237 OA
ATOM     95  O   UNL     1       1.732  18.578  12.519  1.00  0.00    -0.237 OA
ATOM     96  O   UNL     1       3.947  17.527  12.624  1.00  0.00    -0.744 OA
ENDBRANCH  90  93
ENDBRANCH  63  86
ENDBRANCH  37  38
ENDBRANCH  29  32
ENDBRANCH  27  28
ENDBRANCH  26  27
ENDBRANCH   1  26
TORSDOF 18
