REMARK SMILES CC1(C)CCC(CCCO)(C(=O)NCCCCNC(=O)c2ccc(-c3c4nc(c(-c5cccc(S(=O)(=O)[O-])c5F)c5ccc([nH]5)c(-c5cccc(S(=O)(=O)[O-])c5F)c5nc(c(-c6cccc(S(=O)(=O)[O-])c6F)c6ccc3[nH]6)C=C5)C=C4)cc2)CC1
REMARK SMILES IDX 15 1 14 2 13 3 11 4 12 5 6 7 1 8 2 9 3 10 4 11 85 12 5 13
REMARK SMILES IDX 84 14 7 15 8 16 9 17 10 18 16 20 17 21 18 22 19 23 20 25
REMARK SMILES IDX 21 26 22 27 83 28 23 29 82 30 24 31 25 32 26 33 76 34 27 35
REMARK SMILES IDX 81 36 75 37 77 38 28 39 80 40 74 41 73 42 29 44 61 45 41 46
REMARK SMILES IDX 60 47 42 48 45 49 59 50 78 51 43 52 44 53 58 55 79 56 46 57
REMARK SMILES IDX 30 58 31 59 39 60 32 61 34 62 40 63 33 64 35 65 36 66 37 67
REMARK SMILES IDX 38 68 62 69 63 70 71 71 64 72 66 73 72 74 65 75 67 76 68 77
REMARK SMILES IDX 69 78 70 79 47 80 48 81 56 82 49 83 51 84 57 85 50 86 52 87
REMARK SMILES IDX 53 88 54 89 55 90
REMARK H PARENT 13 6 10 19 18 24 77 43 45 54
REMARK Flexibility Score: inf
ROOT
ATOM      1  C   UNL     1      -2.457  -3.129   4.018  1.00  0.00     0.023 C 
ENDROOT
BRANCH   1   2
ATOM      2  C   UNL     1      -1.172  -3.859   3.659  1.00  0.00     0.116 C 
BRANCH   2   3
ATOM      3  N   UNL     1      -1.128  -4.343   2.292  1.00  0.00    -0.356 N 
ATOM      4  C   UNL     1      -0.114  -4.399   1.381  1.00  0.00     0.226 C 
ATOM      5  O   UNL     1      -0.263  -5.203   0.456  1.00  0.00    -0.274 OA
ATOM      6  H   UNL     1      -1.986  -4.695   1.962  1.00  0.00     0.163 HD
BRANCH   4   7
ATOM      7  C   UNL     1       1.176  -3.551   1.496  1.00  0.00     0.049 C 
ATOM      8  C   UNL     1       1.846  -0.311  -0.531  1.00  0.00     0.011 C 
ATOM      9  C   UNL     1       0.670  -1.313  -0.588  1.00  0.00    -0.035 C 
ATOM     10  C   UNL     1      -0.344  -0.812  -1.635  1.00  0.00     0.011 C 
ATOM     11  C   UNL     1       1.147  -2.721  -1.007  1.00  0.00     0.007 C 
ATOM     12  C   UNL     1      -0.014  -1.397   0.790  1.00  0.00     0.007 C 
ATOM     13  C   UNL     1       1.886  -3.499   0.090  1.00  0.00     0.017 C 
ATOM     14  C   UNL     1       0.887  -2.067   1.839  1.00  0.00     0.017 C 
BRANCH   7  15
ATOM     15  C   UNL     1       2.243  -4.212   2.435  1.00  0.00     0.019 C 
BRANCH  15  16
ATOM     16  C   UNL     1       1.887  -4.973   3.720  1.00  0.00     0.029 C 
BRANCH  16  17
ATOM     17  C   UNL     1       1.261  -6.359   3.552  1.00  0.00     0.156 C 
BRANCH  17  18
ATOM     18  O   UNL     1       2.038  -7.160   2.676  1.00  0.00    -0.396 OA
ATOM     19  H   UNL     1       2.080  -6.738   1.804  1.00  0.00     0.210 HD
ENDBRANCH  17  18
ENDBRANCH  16  17
ENDBRANCH  15  16
ENDBRANCH   7  15
ENDBRANCH   4   7
ENDBRANCH   2   3
ENDBRANCH   1   2
BRANCH   1  20
ATOM     20  C   UNL     1      -3.689  -4.024   4.135  1.00  0.00     0.023 C 
BRANCH  20  21
ATOM     21  C   UNL     1      -3.513  -5.290   4.969  1.00  0.00     0.116 C 
BRANCH  21  22
ATOM     22  N   UNL     1      -3.009  -5.040   6.314  1.00  0.00    -0.352 N 
ATOM     23  C   UNL     1      -3.478  -5.524   7.516  1.00  0.00     0.251 C 
ATOM     24  H   UNL     1      -2.228  -4.444   6.372  1.00  0.00     0.163 HD
ATOM     25  O   UNL     1      -2.989  -5.146   8.571  1.00  0.00    -0.269 OA
BRANCH  23  26
ATOM     26  C   UNL     1      -4.609  -6.473   7.507  1.00  0.00     0.039 A 
ATOM     27  C   UNL     1      -5.742  -6.179   8.269  1.00  0.00     0.014 A 
ATOM     28  C   UNL     1      -4.577  -7.602   6.685  1.00  0.00     0.014 A 
ATOM     29  C   UNL     1      -6.881  -6.976   8.139  1.00  0.00     0.010 A 
ATOM     30  C   UNL     1      -5.737  -8.344   6.497  1.00  0.00     0.010 A 
ATOM     31  C   UNL     1      -6.902  -8.037   7.218  1.00  0.00    -0.014 A 
BRANCH  31  32
ATOM     32  C   UNL     1      -8.135  -8.826   6.973  1.00  0.00     0.031 A 
ATOM     33  C   UNL     1      -8.157 -10.300   7.268  1.00  0.00     0.074 A 
ATOM     34  C   UNL     1      -9.201  -8.237   6.395  1.00  0.00     0.049 A 
ATOM     35  N   UNL     1      -9.111 -11.169   7.060  1.00  0.00    -0.248 NA
ATOM     36  C   UNL     1      -6.932 -10.881   7.845  1.00  0.00     0.031 C 
ATOM     37  C   UNL     1      -9.277  -6.832   5.988  1.00  0.00     0.029 A 
ATOM     38  N   UNL     1     -10.419  -8.753   6.027  1.00  0.00    -0.354 N 
ATOM     39  C   UNL     1      -8.594 -12.399   7.446  1.00  0.00     0.074 A 
ATOM     40  C   UNL     1      -7.226 -12.172   7.859  1.00  0.00     0.031 C 
ATOM     41  C   UNL     1     -10.481  -6.596   5.442  1.00  0.00     0.029 A 
ATOM     42  C   UNL     1     -11.252  -7.835   5.431  1.00  0.00     0.049 A 
ATOM     43  H   UNL     1     -10.672  -9.693   6.175  1.00  0.00     0.167 HD
ATOM     44  C   UNL     1      -9.210 -13.605   7.490  1.00  0.00     0.034 A 
ATOM     45  C   UNL     1     -12.497  -7.975   4.935  1.00  0.00     0.034 A 
ATOM     46  C   UNL     1     -10.583 -13.819   7.122  1.00  0.00     0.049 A 
ATOM     47  C   UNL     1     -13.171  -9.318   5.023  1.00  0.00     0.074 A 
ATOM     48  C   UNL     1     -11.325 -14.983   7.207  1.00  0.00     0.029 A 
ATOM     49  N   UNL     1     -11.421 -12.847   6.598  1.00  0.00    -0.354 N 
ATOM     50  N   UNL     1     -12.719 -10.437   5.537  1.00  0.00    -0.248 NA
ATOM     51  C   UNL     1     -14.540  -9.411   4.495  1.00  0.00     0.031 C 
ATOM     52  C   UNL     1     -12.610 -14.718   6.721  1.00  0.00     0.029 A 
ATOM     53  C   UNL     1     -12.672 -13.384   6.350  1.00  0.00     0.049 A 
ATOM     54  H   UNL     1     -11.164 -11.912   6.427  1.00  0.00     0.167 HD
ATOM     55  C   UNL     1     -13.759 -11.353   5.431  1.00  0.00     0.074 A 
ATOM     56  C   UNL     1     -14.870 -10.653   4.819  1.00  0.00     0.031 C 
ATOM     57  C   UNL     1     -13.787 -12.659   5.795  1.00  0.00     0.034 A 
BRANCH  44  58
ATOM     58  C   UNL     1      -8.413 -14.770   8.017  1.00  0.00     0.023 A 
ATOM     59  C   UNL     1      -8.092 -14.823   9.389  1.00  0.00     0.012 A 
ATOM     60  C   UNL     1      -8.006 -15.820   7.172  1.00  0.00     0.148 A 
ATOM     61  C   UNL     1      -7.343 -15.879   9.905  1.00  0.00     0.002 A 
ATOM     62  C   UNL     1      -7.298 -16.893   7.703  1.00  0.00     0.091 A 
ATOM     63  F   UNL     1      -8.297 -15.743   5.866  1.00  0.00    -0.205 F 
ATOM     64  C   UNL     1      -6.954 -16.918   9.065  1.00  0.00     0.022 A 
BRANCH  62  65
ATOM     65  S   UNL     1      -6.821 -18.316   6.715  1.00  0.00     0.127 S 
ATOM     66  O   UNL     1      -5.393 -18.076   6.521  1.00  0.00    -0.237 OA
ATOM     67  O   UNL     1      -7.135 -19.433   7.608  1.00  0.00    -0.237 OA
ATOM     68  O   UNL     1      -7.641 -18.256   5.513  1.00  0.00    -0.744 OA
ENDBRANCH  62  65
ENDBRANCH  44  58
BRANCH  45  69
ATOM     69  C   UNL     1     -13.224  -6.790   4.396  1.00  0.00     0.023 A 
ATOM     70  C   UNL     1     -14.305  -6.262   5.129  1.00  0.00     0.012 A 
ATOM     71  C   UNL     1     -12.840  -6.168   3.193  1.00  0.00     0.148 A 
ATOM     72  C   UNL     1     -15.010  -5.153   4.660  1.00  0.00     0.002 A 
ATOM     73  C   UNL     1     -13.514  -5.032   2.757  1.00  0.00     0.091 A 
ATOM     74  F   UNL     1     -11.816  -6.692   2.505  1.00  0.00    -0.205 F 
ATOM     75  C   UNL     1     -14.609  -4.533   3.480  1.00  0.00     0.022 A 
BRANCH  73  76
ATOM     76  S   UNL     1     -12.991  -4.093   1.318  1.00  0.00     0.127 S 
ATOM     77  O   UNL     1     -14.060  -4.383   0.366  1.00  0.00    -0.237 OA
ATOM     78  O   UNL     1     -12.982  -2.724   1.837  1.00  0.00    -0.237 OA
ATOM     79  O   UNL     1     -11.674  -4.609   0.970  1.00  0.00    -0.744 OA
ENDBRANCH  73  76
ENDBRANCH  45  69
BRANCH  57  80
ATOM     80  C   UNL     1     -15.071 -13.417   5.579  1.00  0.00     0.023 A 
ATOM     81  C   UNL     1     -15.451 -13.791   4.275  1.00  0.00     0.012 A 
ATOM     82  C   UNL     1     -15.858 -13.825   6.673  1.00  0.00     0.148 A 
ATOM     83  C   UNL     1     -16.611 -14.535   4.061  1.00  0.00     0.002 A 
ATOM     84  C   UNL     1     -16.987 -14.606   6.457  1.00  0.00     0.091 A 
ATOM     85  F   UNL     1     -15.490 -13.441   7.905  1.00  0.00    -0.205 F 
ATOM     86  C   UNL     1     -17.371 -14.953   5.151  1.00  0.00     0.022 A 
BRANCH  84  87
ATOM     87  S   UNL     1     -17.971 -15.268   7.806  1.00  0.00     0.127 S 
ATOM     88  O   UNL     1     -19.165 -14.428   7.745  1.00  0.00    -0.237 OA
ATOM     89  O   UNL     1     -18.179 -16.655   7.389  1.00  0.00    -0.237 OA
ATOM     90  O   UNL     1     -17.158 -15.115   9.006  1.00  0.00    -0.744 OA
ENDBRANCH  84  87
ENDBRANCH  57  80
ENDBRANCH  31  32
ENDBRANCH  23  26
ENDBRANCH  21  22
ENDBRANCH  20  21
ENDBRANCH   1  20
TORSDOF 18
