REMARK SMILES O=C(NCCCCNC(=O)c1ccc(C[N@H+]2CC[N@H+]3CCCC[C@@H]3C2)c(F)c1)c1ccc(-c2c3nc(c(-c4cccc(S(=O)(=O)[O-])c4F)c4ccc([nH]4)c(-c4cccc(S(=O)(=O)[O-])c4F)c4nc(c(-c5cccc(S(=O)(=O)[O-])c5F)c5ccc2[nH]5)C=C4)C=C3)cc1
REMARK SMILES IDX 5 1 4 2 3 3 1 4 2 5 29 7 30 8 91 9 31 10 90 11 32 12 33 13
REMARK SMILES IDX 34 14 84 15 35 16 89 17 83 18 85 19 36 20 88 21 82 22 81 23
REMARK SMILES IDX 37 25 69 26 49 27 68 28 50 29 53 30 67 31 86 32 51 33 52 34
REMARK SMILES IDX 66 36 87 37 54 38 38 39 39 40 47 41 40 42 42 43 48 44 41 45
REMARK SMILES IDX 43 46 44 47 45 48 46 49 70 50 71 51 79 52 72 53 74 54 80 55
REMARK SMILES IDX 73 56 75 57 76 58 77 59 78 60 55 61 56 62 64 63 57 64 59 65
REMARK SMILES IDX 65 66 58 67 60 68 61 69 62 70 63 71 6 72 7 73 8 74 9 75
REMARK SMILES IDX 10 77 11 78 12 79 28 80 13 81 26 82 14 83 27 84 15 85 16 86
REMARK SMILES IDX 17 87 25 88 18 90 24 91 19 92 23 93 20 94 22 96 21 97
REMARK H PARENT 3 6 85 24 53 35 8 76 16 89 19 95
REMARK Flexibility Score: inf
ROOT
ATOM      1  C   UNL     1       5.135  -0.633   2.383  1.00  0.00     0.023 C 
ENDROOT
BRANCH   1   2
ATOM      2  C   UNL     1       4.669  -0.818   0.942  1.00  0.00     0.116 C 
BRANCH   2   3
ATOM      3  N   UNL     1       3.221  -0.862   0.808  1.00  0.00    -0.352 N 
ATOM      4  O   UNL     1       1.165  -0.170   0.213  1.00  0.00    -0.269 OA
ATOM      5  C   UNL     1       2.380  -0.043   0.089  1.00  0.00     0.251 C 
ATOM      6  H   UNL     1       2.776  -1.586   1.306  1.00  0.00     0.163 HD
BRANCH   5   7
ATOM      7  C   UNL     1       2.937   1.004  -0.798  1.00  0.00     0.039 A 
ATOM      8  C   UNL     1       3.994   0.726  -1.668  1.00  0.00     0.014 A 
ATOM      9  C   UNL     1       2.389   2.289  -0.756  1.00  0.00     0.014 A 
ATOM     10  C   UNL     1       4.601   1.760  -2.378  1.00  0.00     0.010 A 
ATOM     11  C   UNL     1       2.949   3.310  -1.530  1.00  0.00     0.010 A 
ATOM     12  C   UNL     1       4.083   3.063  -2.321  1.00  0.00    -0.014 A 
BRANCH  12  13
ATOM     13  C   UNL     1       4.691   4.153  -3.130  1.00  0.00     0.031 A 
ATOM     14  C   UNL     1       5.309   5.356  -2.467  1.00  0.00     0.074 A 
ATOM     15  C   UNL     1       4.655   4.069  -4.475  1.00  0.00     0.049 A 
ATOM     16  N   UNL     1       5.787   6.443  -3.017  1.00  0.00    -0.248 NA
ATOM     17  C   UNL     1       5.402   5.340  -0.997  1.00  0.00     0.031 C 
ATOM     18  C   UNL     1       4.081   2.958  -5.237  1.00  0.00     0.029 A 
ATOM     19  N   UNL     1       5.091   4.942  -5.441  1.00  0.00    -0.354 N 
ATOM     20  C   UNL     1       6.204   7.254  -1.967  1.00  0.00     0.074 A 
ATOM     21  C   UNL     1       5.921   6.535  -0.743  1.00  0.00     0.031 C 
ATOM     22  C   UNL     1       4.199   3.214  -6.548  1.00  0.00     0.029 A 
ATOM     23  C   UNL     1       4.796   4.533  -6.722  1.00  0.00     0.049 A 
ATOM     24  H   UNL     1       5.567   5.779  -5.238  1.00  0.00     0.167 HD
ATOM     25  C   UNL     1       6.782   8.478  -2.022  1.00  0.00     0.034 A 
ATOM     26  C   UNL     1       4.952   5.161  -7.903  1.00  0.00     0.034 A 
ATOM     27  C   UNL     1       7.089   9.176  -3.244  1.00  0.00     0.049 A 
ATOM     28  C   UNL     1       5.569   6.532  -7.924  1.00  0.00     0.074 A 
ATOM     29  C   UNL     1       7.704  10.408  -3.395  1.00  0.00     0.029 A 
ATOM     30  N   UNL     1       6.808   8.714  -4.519  1.00  0.00    -0.354 N 
ATOM     31  N   UNL     1       6.035   7.244  -6.927  1.00  0.00    -0.248 NA
ATOM     32  C   UNL     1       5.705   7.177  -9.238  1.00  0.00     0.031 C 
ATOM     33  C   UNL     1       7.771  10.701  -4.760  1.00  0.00     0.029 A 
ATOM     34  C   UNL     1       7.230   9.637  -5.461  1.00  0.00     0.049 A 
ATOM     35  H   UNL     1       6.372   7.855  -4.725  1.00  0.00     0.167 HD
ATOM     36  C   UNL     1       6.545   8.405  -7.495  1.00  0.00     0.074 A 
ATOM     37  C   UNL     1       6.365   8.284  -8.927  1.00  0.00     0.031 C 
ATOM     38  C   UNL     1       7.094   9.485  -6.886  1.00  0.00     0.034 A 
BRANCH  25  39
ATOM     39  C   UNL     1       7.174   9.149  -0.730  1.00  0.00     0.023 A 
ATOM     40  C   UNL     1       8.320   8.706  -0.041  1.00  0.00     0.012 A 
ATOM     41  C   UNL     1       6.501  10.305  -0.283  1.00  0.00     0.148 A 
ATOM     42  C   UNL     1       8.789   9.399   1.075  1.00  0.00     0.002 A 
ATOM     43  C   UNL     1       7.000  11.014   0.803  1.00  0.00     0.091 A 
ATOM     44  F   UNL     1       5.407  10.702  -0.948  1.00  0.00    -0.205 F 
ATOM     45  C   UNL     1       8.139  10.559   1.487  1.00  0.00     0.022 A 
BRANCH  43  46
ATOM     46  S   UNL     1       6.291  12.568   1.364  1.00  0.00     0.127 S 
ATOM     47  O   UNL     1       5.860  12.223   2.719  1.00  0.00    -0.237 OA
ATOM     48  O   UNL     1       7.442  13.468   1.301  1.00  0.00    -0.237 OA
ATOM     49  O   UNL     1       5.213  12.880   0.436  1.00  0.00    -0.744 OA
ENDBRANCH  43  46
ENDBRANCH  25  39
BRANCH  26  50
ATOM     50  C   UNL     1       4.539   4.491  -9.169  1.00  0.00     0.023 A 
ATOM     51  C   UNL     1       5.523   4.122 -10.107  1.00  0.00     0.012 A 
ATOM     52  C   UNL     1       3.187   4.207  -9.445  1.00  0.00     0.148 A 
ATOM     53  C   UNL     1       5.165   3.518 -11.313  1.00  0.00     0.002 A 
ATOM     54  C   UNL     1       2.844   3.546 -10.618  1.00  0.00     0.091 A 
ATOM     55  F   UNL     1       2.263   4.579  -8.548  1.00  0.00    -0.205 F 
ATOM     56  C   UNL     1       3.829   3.220 -11.563  1.00  0.00     0.022 A 
BRANCH  54  57
ATOM     57  S   UNL     1       1.169   2.995 -10.957  1.00  0.00     0.127 S 
ATOM     58  O   UNL     1       0.765   3.905 -12.025  1.00  0.00    -0.237 OA
ATOM     59  O   UNL     1       1.386   1.610 -11.376  1.00  0.00    -0.237 OA
ATOM     60  O   UNL     1       0.448   3.134  -9.699  1.00  0.00    -0.744 OA
ENDBRANCH  54  57
ENDBRANCH  26  50
BRANCH  38  61
ATOM     61  C   UNL     1       7.569  10.615  -7.763  1.00  0.00     0.023 A 
ATOM     62  C   UNL     1       6.630  11.422  -8.437  1.00  0.00     0.012 A 
ATOM     63  C   UNL     1       8.941  10.919  -7.870  1.00  0.00     0.148 A 
ATOM     64  C   UNL     1       7.050  12.485  -9.236  1.00  0.00     0.002 A 
ATOM     65  C   UNL     1       9.349  12.014  -8.622  1.00  0.00     0.091 A 
ATOM     66  F   UNL     1       9.823  10.131  -7.236  1.00  0.00    -0.205 F 
ATOM     67  C   UNL     1       8.407  12.788  -9.319  1.00  0.00     0.022 A 
BRANCH  65  68
ATOM     68  S   UNL     1      11.064  12.544  -8.701  1.00  0.00     0.127 S 
ATOM     69  O   UNL     1      11.437  12.146 -10.057  1.00  0.00    -0.237 OA
ATOM     70  O   UNL     1      10.953  13.989  -8.499  1.00  0.00    -0.237 OA
ATOM     71  O   UNL     1      11.752  11.836  -7.630  1.00  0.00    -0.744 OA
ENDBRANCH  65  68
ENDBRANCH  38  61
ENDBRANCH  12  13
ENDBRANCH   5   7
ENDBRANCH   2   3
ENDBRANCH   1   2
BRANCH   1  72
ATOM     72  C   UNL     1       4.763  -1.761   3.344  1.00  0.00     0.023 C 
BRANCH  72  73
ATOM     73  C   UNL     1       5.229  -3.156   2.933  1.00  0.00     0.116 C 
BRANCH  73  74
ATOM     74  N   UNL     1       6.675  -3.294   2.958  1.00  0.00    -0.352 N 
ATOM     75  C   UNL     1       7.431  -4.246   3.600  1.00  0.00     0.251 C 
ATOM     76  H   UNL     1       7.179  -2.618   2.449  1.00  0.00     0.163 HD
ATOM     77  O   UNL     1       8.652  -4.185   3.623  1.00  0.00    -0.269 OA
BRANCH  75  78
ATOM     78  C   UNL     1       6.746  -5.353   4.292  1.00  0.00     0.042 A 
ATOM     79  C   UNL     1       6.062  -6.324   3.557  1.00  0.00     0.014 A 
ATOM     80  C   UNL     1       6.778  -5.402   5.684  1.00  0.00     0.053 A 
ATOM     81  C   UNL     1       5.341  -7.313   4.230  1.00  0.00     0.013 A 
ATOM     82  C   UNL     1       6.024  -6.370   6.340  1.00  0.00     0.132 A 
ATOM     83  C   UNL     1       5.257  -7.304   5.635  1.00  0.00     0.042 A 
ATOM     84  F   UNL     1       6.015  -6.375   7.681  1.00  0.00    -0.206 F 
BRANCH  83  85
ATOM     85  C   UNL     1       4.338  -8.256   6.363  1.00  0.00     0.302 C 
BRANCH  85  86
ATOM     86  N   UNL     1       2.923  -7.885   6.508  1.00  0.00    -0.322 N 
ATOM     87  C   UNL     1       2.619  -6.839   7.494  1.00  0.00     0.324 C 
ATOM     88  C   UNL     1       2.171  -7.666   5.266  1.00  0.00     0.328 C 
ATOM     89  H   UNL     1       2.573  -8.759   6.899  1.00  0.00     0.348 HD
ATOM     90  C   UNL     1       2.529  -5.383   6.967  1.00  0.00     0.324 C 
ATOM     91  C   UNL     1       2.245  -6.217   4.717  1.00  0.00     0.239 C 
ATOM     92  N   UNL     1       1.774  -5.224   5.703  1.00  0.00    -0.323 N 
ATOM     93  C   UNL     1       1.470  -6.102   3.399  1.00  0.00     0.071 C 
ATOM     94  C   UNL     1       1.939  -3.854   5.187  1.00  0.00     0.262 C 
ATOM     95  H   UNL     1       0.781  -5.382   5.877  1.00  0.00     0.348 HD
ATOM     96  C   UNL     1       1.653  -4.708   2.811  1.00  0.00     0.012 C 
ATOM     97  C   UNL     1       1.253  -3.648   3.832  1.00  0.00     0.062 C 
ENDBRANCH  85  86
ENDBRANCH  83  85
ENDBRANCH  75  78
ENDBRANCH  73  74
ENDBRANCH  72  73
ENDBRANCH   1  72
TORSDOF 16
