REMARK SMILES O=C(NCCCCNC(=O)[C@@H]1CCCCC[C@H]1NC(=O)c1ccc(Cl)o1)c1ccc(-c2c3nc(c(-c4cccc(S(=O)(=O)[O-])c4F)c4ccc([nH]4)c(-c4cccc(S(=O)(=O)[O-])c4F)c4nc(c(-c5cccc(S(=O)(=O)[O-])c5F)c5ccc2[nH]5)C=C4)C=C3)cc1
REMARK SMILES IDX 5 1 4 2 3 3 1 4 2 5 27 7 28 8 89 9 29 10 88 11 30 12 31 13
REMARK SMILES IDX 32 14 82 15 33 16 87 17 81 18 83 19 34 20 86 21 80 22 79 23
REMARK SMILES IDX 35 25 67 26 47 27 66 28 48 29 51 30 65 31 84 32 49 33 50 34
REMARK SMILES IDX 64 36 85 37 52 38 36 39 37 40 45 41 38 42 40 43 46 44 39 45
REMARK SMILES IDX 41 46 42 47 43 48 44 49 68 50 69 51 77 52 70 53 72 54 78 55
REMARK SMILES IDX 71 56 73 57 74 58 75 59 76 60 53 61 54 62 62 63 55 64 57 65
REMARK SMILES IDX 63 66 56 67 58 68 59 69 60 70 61 71 6 72 7 73 8 74 9 75
REMARK SMILES IDX 10 77 11 78 12 79 13 80 14 81 17 83 16 84 15 85 18 87 19 88
REMARK SMILES IDX 20 90 21 91 22 92 26 93 23 94 24 95 25 96
REMARK H PARENT 3 6 83 24 51 35 8 76 18 89
REMARK Flexibility Score: 90.00
ROOT
ATOM      1  C   UNL     1       4.892  -2.494  -0.737  1.00  0.00     0.023 C 
ENDROOT
BRANCH   1   2
ATOM      2  C   UNL     1       4.535  -1.048  -0.434  1.00  0.00     0.116 C 
BRANCH   2   3
ATOM      3  N   UNL     1       3.120  -0.747  -0.606  1.00  0.00    -0.352 N 
ATOM      4  O   UNL     1       1.142   0.208  -0.068  1.00  0.00    -0.269 OA
ATOM      5  C   UNL     1       2.348   0.125   0.129  1.00  0.00     0.251 C 
ATOM      6  H   UNL     1       2.661  -1.224  -1.334  1.00  0.00     0.163 HD
BRANCH   5   7
ATOM      7  C   UNL     1       3.008   0.915   1.187  1.00  0.00     0.039 A 
ATOM      8  C   UNL     1       4.192   1.597   0.901  1.00  0.00     0.014 A 
ATOM      9  C   UNL     1       2.505   0.874   2.488  1.00  0.00     0.014 A 
ATOM     10  C   UNL     1       4.969   2.074   1.945  1.00  0.00     0.010 A 
ATOM     11  C   UNL     1       3.242   1.452   3.525  1.00  0.00     0.010 A 
ATOM     12  C   UNL     1       4.504   2.010   3.270  1.00  0.00    -0.014 A 
BRANCH  12  13
ATOM     13  C   UNL     1       5.349   2.571   4.355  1.00  0.00     0.031 A 
ATOM     14  C   UNL     1       5.877   1.708   5.469  1.00  0.00     0.074 A 
ATOM     15  C   UNL     1       5.662   3.881   4.306  1.00  0.00     0.049 A 
ATOM     16  N   UNL     1       6.667   2.039   6.458  1.00  0.00    -0.248 NA
ATOM     17  C   UNL     1       5.459   0.296   5.488  1.00  0.00     0.031 C 
ATOM     18  C   UNL     1       5.176   4.824   3.294  1.00  0.00     0.029 A 
ATOM     19  N   UNL     1       6.469   4.644   5.109  1.00  0.00    -0.354 N 
ATOM     20  C   UNL     1       6.799   0.900   7.244  1.00  0.00     0.074 A 
ATOM     21  C   UNL     1       6.006  -0.135   6.618  1.00  0.00     0.031 C 
ATOM     22  C   UNL     1       5.730   6.024   3.508  1.00  0.00     0.029 A 
ATOM     23  C   UNL     1       6.559   5.955   4.705  1.00  0.00     0.049 A 
ATOM     24  H   UNL     1       6.938   4.289   5.898  1.00  0.00     0.167 HD
ATOM     25  C   UNL     1       7.523   0.732   8.378  1.00  0.00     0.034 A 
ATOM     26  C   UNL     1       7.225   6.994   5.242  1.00  0.00     0.034 A 
ATOM     27  C   UNL     1       8.349   1.754   8.966  1.00  0.00     0.049 A 
ATOM     28  C   UNL     1       8.051   6.763   6.473  1.00  0.00     0.074 A 
ATOM     29  C   UNL     1       9.180   1.660  10.070  1.00  0.00     0.029 A 
ATOM     30  N   UNL     1       8.446   3.059   8.507  1.00  0.00    -0.354 N 
ATOM     31  N   UNL     1       8.262   5.647   7.127  1.00  0.00    -0.248 NA
ATOM     32  C   UNL     1       8.754   7.929   7.024  1.00  0.00     0.031 C 
ATOM     33  C   UNL     1       9.759   2.914  10.291  1.00  0.00     0.029 A 
ATOM     34  C   UNL     1       9.312   3.783   9.309  1.00  0.00     0.049 A 
ATOM     35  H   UNL     1       7.968   3.419   7.724  1.00  0.00     0.167 HD
ATOM     36  C   UNL     1       9.144   5.969   8.150  1.00  0.00     0.074 A 
ATOM     37  C   UNL     1       9.448   7.379   8.011  1.00  0.00     0.031 C 
ATOM     38  C   UNL     1       9.644   5.173   9.127  1.00  0.00     0.034 A 
BRANCH  25  39
ATOM     39  C   UNL     1       7.482  -0.617   9.050  1.00  0.00     0.023 A 
ATOM     40  C   UNL     1       8.158  -1.711   8.473  1.00  0.00     0.012 A 
ATOM     41  C   UNL     1       6.836  -0.785  10.292  1.00  0.00     0.148 A 
ATOM     42  C   UNL     1       8.167  -2.955   9.103  1.00  0.00     0.002 A 
ATOM     43  C   UNL     1       6.884  -2.017  10.935  1.00  0.00     0.091 A 
ATOM     44  F   UNL     1       6.180   0.259  10.818  1.00  0.00    -0.205 F 
ATOM     45  C   UNL     1       7.540  -3.106  10.338  1.00  0.00     0.022 A 
BRANCH  43  46
ATOM     46  S   UNL     1       6.175  -2.286  12.564  1.00  0.00     0.127 S 
ATOM     47  O   UNL     1       4.990  -3.080  12.242  1.00  0.00    -0.237 OA
ATOM     48  O   UNL     1       7.237  -3.028  13.246  1.00  0.00    -0.237 OA
ATOM     49  O   UNL     1       5.915  -0.962  13.110  1.00  0.00    -0.744 OA
ENDBRANCH  43  46
ENDBRANCH  25  39
BRANCH  26  50
ATOM     50  C   UNL     1       7.175   8.326   4.578  1.00  0.00     0.023 A 
ATOM     51  C   UNL     1       8.332   8.831   3.954  1.00  0.00     0.012 A 
ATOM     52  C   UNL     1       5.980   9.067   4.516  1.00  0.00     0.148 A 
ATOM     53  C   UNL     1       8.304  10.063   3.300  1.00  0.00     0.002 A 
ATOM     54  C   UNL     1       5.943  10.263   3.810  1.00  0.00     0.091 A 
ATOM     55  F   UNL     1       4.894   8.575   5.129  1.00  0.00    -0.205 F 
ATOM     56  C   UNL     1       7.108  10.772   3.216  1.00  0.00     0.022 A 
BRANCH  54  57
ATOM     57  S   UNL     1       4.414  11.161   3.529  1.00  0.00     0.127 S 
ATOM     58  O   UNL     1       4.573  12.307   4.419  1.00  0.00    -0.237 OA
ATOM     59  O   UNL     1       4.502  11.471   2.101  1.00  0.00    -0.237 OA
ATOM     60  O   UNL     1       3.346  10.231   3.873  1.00  0.00    -0.744 OA
ENDBRANCH  54  57
ENDBRANCH  26  50
BRANCH  38  61
ATOM     61  C   UNL     1      10.603   5.801  10.103  1.00  0.00     0.023 A 
ATOM     62  C   UNL     1      10.127   6.707  11.072  1.00  0.00     0.012 A 
ATOM     63  C   UNL     1      11.968   5.455  10.090  1.00  0.00     0.148 A 
ATOM     64  C   UNL     1      11.002   7.289  11.987  1.00  0.00     0.002 A 
ATOM     65  C   UNL     1      12.825   6.000  11.038  1.00  0.00     0.091 A 
ATOM     66  F   UNL     1      12.407   4.609   9.146  1.00  0.00    -0.205 F 
ATOM     67  C   UNL     1      12.347   6.928  11.978  1.00  0.00     0.022 A 
BRANCH  65  68
ATOM     68  S   UNL     1      14.551   5.516  11.157  1.00  0.00     0.127 S 
ATOM     69  O   UNL     1      15.226   6.664  10.554  1.00  0.00    -0.237 OA
ATOM     70  O   UNL     1      14.741   5.386  12.602  1.00  0.00    -0.237 OA
ATOM     71  O   UNL     1      14.662   4.263  10.422  1.00  0.00    -0.744 OA
ENDBRANCH  65  68
ENDBRANCH  38  61
ENDBRANCH  12  13
ENDBRANCH   5   7
ENDBRANCH   2   3
ENDBRANCH   1   2
BRANCH   1  72
ATOM     72  C   UNL     1       4.451  -2.987  -2.114  1.00  0.00     0.023 C 
BRANCH  72  73
ATOM     73  C   UNL     1       5.029  -2.189  -3.286  1.00  0.00     0.116 C 
BRANCH  73  74
ATOM     74  N   UNL     1       6.409  -2.552  -3.519  1.00  0.00    -0.356 N 
ATOM     75  C   UNL     1       7.001  -3.514  -4.267  1.00  0.00     0.225 C 
ATOM     76  H   UNL     1       7.051  -1.982  -3.035  1.00  0.00     0.163 HD
ATOM     77  O   UNL     1       8.210  -3.653  -4.045  1.00  0.00    -0.275 OA
BRANCH  75  78
ATOM     78  C   UNL     1       6.300  -4.308  -5.408  1.00  0.00     0.101 C 
BRANCH  78  79
ATOM     79  C   UNL     1       4.825  -4.658  -5.160  1.00  0.00     0.015 C 
BRANCH  79  80
ATOM     80  C   UNL     1       4.192  -5.859  -5.852  1.00  0.00     0.001 C 
BRANCH  80  81
ATOM     81  C   UNL     1       4.479  -7.174  -5.141  1.00  0.00     0.000 CG0
ATOM     82  G   UNL     1       5.888  -7.709  -5.330  1.00  0.00     0.000 G0
ENDBRANCH  80  81
ENDBRANCH  79  80
ENDBRANCH  78  79
BRANCH  78  83
ATOM     83  C   UNL     1       7.216  -5.513  -5.781  1.00  0.00     0.094 C 
BRANCH  83  84
ATOM     84  C   UNL     1       7.009  -6.763  -4.908  1.00  0.00     0.026 C 
BRANCH  84  85
ATOM     85  C   UNL     1       5.888  -7.709  -5.330  1.00  0.00     0.002 CG0
ATOM     86  G   UNL     1       4.479  -7.174  -5.141  1.00  0.00     0.000 G0
ENDBRANCH  84  85
ENDBRANCH  83  84
BRANCH  83  87
ATOM     87  N   UNL     1       7.174  -5.824  -7.214  1.00  0.00    -0.346 N 
ATOM     88  C   UNL     1       8.147  -5.688  -8.180  1.00  0.00     0.287 C 
ATOM     89  H   UNL     1       6.317  -6.186  -7.536  1.00  0.00     0.164 HD
ATOM     90  O   UNL     1       7.780  -5.814  -9.349  1.00  0.00    -0.266 OA
BRANCH  88  91
ATOM     91  C   UNL     1       9.518  -5.413  -7.806  1.00  0.00     0.193 A 
ATOM     92  C   UNL     1      10.341  -5.877  -6.795  1.00  0.00     0.058 A 
ATOM     93  O   UNL     1      10.231  -4.552  -8.599  1.00  0.00    -0.440 OA
ATOM     94  C   UNL     1      11.590  -5.228  -6.950  1.00  0.00     0.064 A 
ATOM     95  C   UNL     1      11.475  -4.428  -8.064  1.00  0.00     0.194 A 
ATOM     96  Cl  UNL     1      12.692  -3.412  -8.727  1.00  0.00    -0.043 Cl
ENDBRANCH  88  91
ENDBRANCH  83  87
ENDBRANCH  78  83
ENDBRANCH  75  78
ENDBRANCH  73  74
ENDBRANCH  72  73
ENDBRANCH   1  72
TORSDOF 16
