REMARK SMILES [NH3+][C@H](CCC(=O)NCCCCNC(=O)c1ccc(-c2c3nc(c(-c4cccc(S(=O)(=O)[O-])c4F)c4ccc([nH]4)c(-c4cccc(S(=O)(=O)[O-])c4F)c4nc(c(-c5cccc(S(=O)(=O)[O-])c5F)c5ccc2[nH]5)C=C4)C=C3)cc1)Cc1c[nH]c2ccccc12
REMARK SMILES IDX 9 1 8 2 7 3 5 4 6 5 4 7 3 8 2 9 1 10 78 14 79 15 80 16 87 17
REMARK SMILES IDX 81 18 82 19 86 20 83 22 85 23 84 24 10 25 11 26 12 27 13 28
REMARK SMILES IDX 14 30 15 31 16 32 77 33 17 34 76 35 18 36 19 37 20 38 70 39
REMARK SMILES IDX 21 40 75 41 69 42 71 43 22 44 74 45 68 46 67 47 23 49 55 50
REMARK SMILES IDX 35 51 54 52 36 53 39 54 53 55 72 56 37 57 38 58 52 60 73 61
REMARK SMILES IDX 40 62 24 63 25 64 33 65 26 66 28 67 34 68 27 69 29 70 30 71
REMARK SMILES IDX 31 72 32 73 56 74 57 75 65 76 58 77 60 78 66 79 59 80 61 81
REMARK SMILES IDX 62 82 63 83 64 84 41 85 42 86 50 87 43 88 45 89 51 90 44 91
REMARK SMILES IDX 46 92 47 93 48 94 49 95
REMARK H PARENT 7 6 1 11 1 12 1 13 81 21 12 29 71 48 39 59
REMARK Flexibility Score: inf
ROOT
ATOM      1  C   UNL     1       1.597  -1.281   3.674  1.00  0.00     0.023 C 
ENDROOT
BRANCH   1   2
ATOM      2  C   UNL     1       1.610   0.244   3.766  1.00  0.00     0.116 C 
BRANCH   2   3
ATOM      3  N   UNL     1       2.711   0.819   3.025  1.00  0.00    -0.356 N 
ATOM      4  C   UNL     1       2.723   1.295   1.744  1.00  0.00     0.220 C 
ATOM      5  O   UNL     1       3.777   1.736   1.286  1.00  0.00    -0.275 OA
ATOM      6  H   UNL     1       3.567   0.874   3.508  1.00  0.00     0.163 HD
BRANCH   4   7
ATOM      7  C   UNL     1       1.448   1.264   0.908  1.00  0.00     0.106 C 
BRANCH   7   8
ATOM      8  C   UNL     1       1.213  -0.110   0.272  1.00  0.00     0.075 C 
BRANCH   8   9
ATOM      9  C   UNL     1      -0.251  -0.632   0.163  1.00  0.00     0.185 C 
BRANCH   9  10
ATOM     10  N   UNL     1      -0.907  -0.742   1.467  1.00  0.00    -0.355 N 
ATOM     11  H   UNL     1      -1.859  -1.087   1.342  1.00  0.00     0.344 HD
ATOM     12  H   UNL     1      -0.933   0.175   1.913  1.00  0.00     0.344 HD
ATOM     13  H   UNL     1      -0.385  -1.392   2.056  1.00  0.00     0.344 HD
ENDBRANCH   9  10
BRANCH   9  14
ATOM     14  C   UNL     1      -1.184   0.121  -0.837  1.00  0.00     0.102 C 
BRANCH  14  15
ATOM     15  C   UNL     1      -0.805  -0.169  -2.262  1.00  0.00    -0.017 A 
ATOM     16  C   UNL     1      -0.264  -1.330  -2.788  1.00  0.00     0.087 A 
ATOM     17  C   UNL     1      -0.541   0.762  -3.292  1.00  0.00     0.003 A 
ATOM     18  N   UNL     1       0.952  -0.857  -3.242  1.00  0.00    -0.361 N 
ATOM     19  C   UNL     1       0.760   0.437  -3.668  1.00  0.00     0.046 A 
ATOM     20  C   UNL     1      -1.156   1.889  -3.853  1.00  0.00     0.010 A 
ATOM     21  H   UNL     1       1.801  -1.355  -3.258  1.00  0.00     0.166 HD
ATOM     22  C   UNL     1       1.586   1.308  -4.366  1.00  0.00     0.026 A 
ATOM     23  C   UNL     1      -0.408   2.659  -4.749  1.00  0.00     0.001 A 
ATOM     24  C   UNL     1       0.956   2.416  -4.937  1.00  0.00     0.002 A 
ENDBRANCH  14  15
ENDBRANCH   9  14
ENDBRANCH   8   9
ENDBRANCH   7   8
ENDBRANCH   4   7
ENDBRANCH   2   3
ENDBRANCH   1   2
BRANCH   1  25
ATOM     25  C   UNL     1       2.423  -1.999   4.729  1.00  0.00     0.023 C 
BRANCH  25  26
ATOM     26  C   UNL     1       1.946  -1.762   6.151  1.00  0.00     0.116 C 
BRANCH  26  27
ATOM     27  N   UNL     1       0.530  -2.049   6.369  1.00  0.00    -0.352 N 
ATOM     28  C   UNL     1      -0.066  -2.514   7.528  1.00  0.00     0.251 C 
ATOM     29  H   UNL     1      -0.069  -1.893   5.603  1.00  0.00     0.163 HD
ATOM     30  O   UNL     1      -1.243  -2.780   7.577  1.00  0.00    -0.269 OA
BRANCH  28  31
ATOM     31  C   UNL     1       0.823  -2.712   8.692  1.00  0.00     0.039 A 
ATOM     32  C   UNL     1       0.937  -3.987   9.246  1.00  0.00     0.014 A 
ATOM     33  C   UNL     1       1.666  -1.672   9.084  1.00  0.00     0.014 A 
ATOM     34  C   UNL     1       1.968  -4.238  10.151  1.00  0.00     0.010 A 
ATOM     35  C   UNL     1       2.759  -1.959   9.883  1.00  0.00     0.010 A 
ATOM     36  C   UNL     1       2.914  -3.239  10.438  1.00  0.00    -0.014 A 
BRANCH  36  37
ATOM     37  C   UNL     1       4.065  -3.491  11.337  1.00  0.00     0.031 A 
ATOM     38  C   UNL     1       4.229  -2.648  12.574  1.00  0.00     0.074 A 
ATOM     39  C   UNL     1       5.006  -4.394  10.995  1.00  0.00     0.049 A 
ATOM     40  N   UNL     1       5.203  -2.641  13.443  1.00  0.00    -0.248 NA
ATOM     41  C   UNL     1       3.181  -1.646  12.843  1.00  0.00     0.031 C 
ATOM     42  C   UNL     1       5.010  -5.196   9.768  1.00  0.00     0.029 A 
ATOM     43  N   UNL     1       6.157  -4.771  11.638  1.00  0.00    -0.354 N 
ATOM     44  C   UNL     1       4.909  -1.610  14.327  1.00  0.00     0.074 A 
ATOM     45  C   UNL     1       3.702  -0.974  13.856  1.00  0.00     0.031 C 
ATOM     46  C   UNL     1       6.102  -5.979   9.756  1.00  0.00     0.029 A 
ATOM     47  C   UNL     1       6.889  -5.717  10.956  1.00  0.00     0.049 A 
ATOM     48  H   UNL     1       6.435  -4.400  12.506  1.00  0.00     0.167 HD
ATOM     49  C   UNL     1       5.558  -1.254  15.460  1.00  0.00     0.034 A 
ATOM     50  C   UNL     1       8.061  -6.304  11.268  1.00  0.00     0.034 A 
ATOM     51  C   UNL     1       6.717  -1.937  15.958  1.00  0.00     0.049 A 
ATOM     52  C   UNL     1       8.724  -5.943  12.571  1.00  0.00     0.074 A 
ATOM     53  C   UNL     1       7.396  -1.727  17.143  1.00  0.00     0.029 A 
ATOM     54  N   UNL     1       7.365  -2.969  15.298  1.00  0.00    -0.354 N 
ATOM     55  N   UNL     1       8.343  -5.077  13.479  1.00  0.00    -0.248 NA
ATOM     56  C   UNL     1       9.956  -6.668  12.914  1.00  0.00     0.031 C 
ATOM     57  C   UNL     1       8.469  -2.623  17.191  1.00  0.00     0.029 A 
ATOM     58  C   UNL     1       8.440  -3.408  16.049  1.00  0.00     0.049 A 
ATOM     59  H   UNL     1       7.100  -3.336  14.423  1.00  0.00     0.167 HD
ATOM     60  C   UNL     1       9.264  -5.176  14.514  1.00  0.00     0.074 A 
ATOM     61  C   UNL     1      10.210  -6.205  14.130  1.00  0.00     0.031 C 
ATOM     62  C   UNL     1       9.334  -4.472  15.670  1.00  0.00     0.034 A 
BRANCH  49  63
ATOM     63  C   UNL     1       4.979  -0.120  16.265  1.00  0.00     0.023 A 
ATOM     64  C   UNL     1       3.751  -0.298  16.935  1.00  0.00     0.012 A 
ATOM     65  C   UNL     1       5.659   1.107  16.384  1.00  0.00     0.148 A 
ATOM     66  C   UNL     1       3.186   0.739  17.674  1.00  0.00     0.002 A 
ATOM     67  C   UNL     1       5.114   2.120  17.165  1.00  0.00     0.091 A 
ATOM     68  F   UNL     1       6.812   1.268  15.720  1.00  0.00    -0.205 F 
ATOM     69  C   UNL     1       3.872   1.943  17.798  1.00  0.00     0.022 A 
BRANCH  67  70
ATOM     70  S   UNL     1       5.956   3.679  17.456  1.00  0.00     0.127 S 
ATOM     71  O   UNL     1       5.115   4.612  16.706  1.00  0.00    -0.237 OA
ATOM     72  O   UNL     1       5.864   3.810  18.910  1.00  0.00    -0.237 OA
ATOM     73  O   UNL     1       7.308   3.507  16.944  1.00  0.00    -0.744 OA
ENDBRANCH  67  70
ENDBRANCH  49  63
BRANCH  50  74
ATOM     74  C   UNL     1       8.639  -7.346  10.372  1.00  0.00     0.023 A 
ATOM     75  C   UNL     1       8.652  -8.691  10.791  1.00  0.00     0.012 A 
ATOM     76  C   UNL     1       9.150  -7.020   9.101  1.00  0.00     0.148 A 
ATOM     77  C   UNL     1       9.194  -9.686   9.977  1.00  0.00     0.002 A 
ATOM     78  C   UNL     1       9.638  -8.024   8.272  1.00  0.00     0.091 A 
ATOM     79  F   UNL     1       9.138  -5.734   8.722  1.00  0.00    -0.205 F 
ATOM     80  C   UNL     1       9.678  -9.355   8.714  1.00  0.00     0.022 A 
BRANCH  78  81
ATOM     81  S   UNL     1      10.158  -7.709   6.581  1.00  0.00     0.127 S 
ATOM     82  O   UNL     1      11.606  -7.873   6.678  1.00  0.00    -0.237 OA
ATOM     83  O   UNL     1       9.465  -8.770   5.849  1.00  0.00    -0.237 OA
ATOM     84  O   UNL     1       9.691  -6.365   6.272  1.00  0.00    -0.744 OA
ENDBRANCH  78  81
ENDBRANCH  50  74
BRANCH  62  85
ATOM     85  C   UNL     1      10.445  -4.809  16.628  1.00  0.00     0.023 A 
ATOM     86  C   UNL     1      11.768  -4.428  16.329  1.00  0.00     0.012 A 
ATOM     87  C   UNL     1      10.161  -5.424  17.863  1.00  0.00     0.148 A 
ATOM     88  C   UNL     1      12.797  -4.683  17.233  1.00  0.00     0.002 A 
ATOM     89  C   UNL     1      11.183  -5.628  18.780  1.00  0.00     0.091 A 
ATOM     90  F   UNL     1       8.897  -5.793  18.118  1.00  0.00    -0.205 F 
ATOM     91  C   UNL     1      12.504  -5.270  18.462  1.00  0.00     0.022 A 
BRANCH  89  92
ATOM     92  S   UNL     1      10.882  -6.283  20.425  1.00  0.00     0.127 S 
ATOM     93  O   UNL     1      11.446  -7.627  20.319  1.00  0.00    -0.237 OA
ATOM     94  O   UNL     1      11.647  -5.364  21.269  1.00  0.00    -0.237 OA
ATOM     95  O   UNL     1       9.440  -6.224  20.623  1.00  0.00    -0.744 OA
ENDBRANCH  89  92
ENDBRANCH  62  85
ENDBRANCH  36  37
ENDBRANCH  28  31
ENDBRANCH  26  27
ENDBRANCH  25  26
ENDBRANCH   1  25
TORSDOF 19
