REMARK SMILES COc1cccc(C(=O)NNC(=O)[C@H]2CC(C)=C(C)C[C@@H]2C(=O)NCCCCNC(=O)c2ccc(-c3c4nc(c(-c5cccc(S(=O)(=O)[O-])c5F)c5ccc([nH]5)c(-c5cccc(S(=O)(=O)[O-])c5F)c5nc(c(-c6cccc(S(=O)(=O)[O-])c6F)c6ccc3[nH]6)C=C5)C=C4)cc2)c1
REMARK SMILES IDX 26 1 25 2 24 3 22 4 23 5 21 7 14 8 15 9 16 10 20 11 17 12
REMARK SMILES IDX 18 13 19 14 12 15 11 16 13 18 10 19 8 20 9 21 7 23 3 24 4 25
REMARK SMILES IDX 95 26 5 27 6 28 2 29 1 30 27 31 28 32 29 33 30 34 31 36
REMARK SMILES IDX 32 37 33 38 94 39 34 40 93 41 35 42 36 43 37 44 87 45 38 46
REMARK SMILES IDX 92 47 86 48 88 49 39 50 91 51 85 52 84 53 40 55 72 56 52 57
REMARK SMILES IDX 71 58 53 59 56 60 70 61 89 62 54 63 55 64 69 66 90 67 57 68
REMARK SMILES IDX 41 69 42 70 50 71 43 72 45 73 51 74 44 75 46 76 47 77 48 78
REMARK SMILES IDX 49 79 73 80 74 81 82 82 75 83 77 84 83 85 76 86 78 87 79 88
REMARK SMILES IDX 80 89 81 90 58 91 59 92 67 93 60 94 62 95 68 96 61 97 63 98
REMARK SMILES IDX 64 99 65 100 66 101
REMARK H PARENT 24 6 11 17 10 22 29 35 88 54 56 65
REMARK Flexibility Score: inf
ROOT
ATOM      1  C   UNL     1      10.943   3.261   0.889  1.00  0.00     0.023 C 
ENDROOT
BRANCH   1   2
ATOM      2  C   UNL     1      10.678   1.920   1.572  1.00  0.00     0.116 C 
BRANCH   2   3
ATOM      3  N   UNL     1       9.553   1.992   2.471  1.00  0.00    -0.356 N 
ATOM      4  C   UNL     1       8.237   1.771   2.301  1.00  0.00     0.224 C 
ATOM      5  O   UNL     1       7.518   1.979   3.291  1.00  0.00    -0.275 OA
ATOM      6  H   UNL     1       9.795   2.255   3.388  1.00  0.00     0.163 HD
BRANCH   4   7
ATOM      7  C   UNL     1       7.546   1.312   1.024  1.00  0.00     0.095 C 
ATOM      8  C   UNL     1       6.694   0.067   1.372  1.00  0.00     0.097 C 
ATOM      9  C   UNL     1       7.359  -1.271   1.012  1.00  0.00     0.045 C 
ATOM     10  C   UNL     1       8.476  -1.260  -0.008  1.00  0.00    -0.074 C 
ATOM     11  C   UNL     1       8.223   1.192  -0.337  1.00  0.00     0.045 C 
ATOM     12  C   UNL     1       9.083  -2.619  -0.258  1.00  0.00     0.039 C 
ATOM     13  C   UNL     1       8.870  -0.134  -0.636  1.00  0.00    -0.074 C 
ATOM     14  C   UNL     1       9.965  -0.098  -1.673  1.00  0.00     0.039 C 
BRANCH   8  15
ATOM     15  C   UNL     1       5.319   0.286   0.756  1.00  0.00     0.242 C 
ATOM     16  N   UNL     1       4.517   1.252   1.333  1.00  0.00    -0.267 N 
ATOM     17  H   UNL     1       3.755   1.589   0.809  1.00  0.00     0.191 HD
ATOM     18  O   UNL     1       4.937  -0.288  -0.263  1.00  0.00    -0.273 OA
BRANCH  16  19
ATOM     19  N   UNL     1       4.714   1.786   2.615  1.00  0.00    -0.263 N 
ATOM     20  C   UNL     1       3.743   2.381   3.401  1.00  0.00     0.269 C 
ATOM     21  O   UNL     1       4.042   2.874   4.486  1.00  0.00    -0.267 OA
ATOM     22  H   UNL     1       5.623   1.732   2.988  1.00  0.00     0.191 HD
BRANCH  20  23
ATOM     23  C   UNL     1       2.340   2.503   2.933  1.00  0.00     0.045 A 
ATOM     24  C   UNL     1       0.419   1.714   1.692  1.00  0.00     0.119 A 
ATOM     25  C   UNL     1      -0.258   2.897   2.000  1.00  0.00     0.046 A 
ATOM     26  C   UNL     1       1.693   1.492   2.214  1.00  0.00     0.060 A 
ATOM     27  C   UNL     1       0.348   3.874   2.790  1.00  0.00     0.005 A 
ATOM     28  C   UNL     1       1.651   3.683   3.245  1.00  0.00     0.014 A 
BRANCH  24  29
ATOM     29  O   UNL     1      -0.255   0.845   0.878  1.00  0.00    -0.497 OA
ATOM     30  C   UNL     1       0.555  -0.093   0.172  1.00  0.00     0.278 C 
ENDBRANCH  24  29
ENDBRANCH  20  23
ENDBRANCH  16  19
ENDBRANCH   8  15
ENDBRANCH   4   7
ENDBRANCH   2   3
ENDBRANCH   1   2
BRANCH   1  31
ATOM     31  C   UNL     1      11.479   4.352   1.819  1.00  0.00     0.023 C 
BRANCH  31  32
ATOM     32  C   UNL     1      12.701   3.963   2.644  1.00  0.00     0.116 C 
BRANCH  32  33
ATOM     33  N   UNL     1      13.787   3.421   1.839  1.00  0.00    -0.352 N 
ATOM     34  C   UNL     1      15.139   3.522   2.061  1.00  0.00     0.251 C 
ATOM     35  H   UNL     1      13.519   2.919   1.036  1.00  0.00     0.163 HD
ATOM     36  O   UNL     1      15.938   3.086   1.237  1.00  0.00    -0.269 OA
BRANCH  34  37
ATOM     37  C   UNL     1      15.614   4.202   3.281  1.00  0.00     0.039 A 
ATOM     38  C   UNL     1      16.526   5.252   3.154  1.00  0.00     0.014 A 
ATOM     39  C   UNL     1      15.110   3.843   4.534  1.00  0.00     0.014 A 
ATOM     40  C   UNL     1      16.881   5.992   4.282  1.00  0.00     0.010 A 
ATOM     41  C   UNL     1      15.417   4.621   5.645  1.00  0.00     0.010 A 
ATOM     42  C   UNL     1      16.300   5.706   5.528  1.00  0.00    -0.014 A 
BRANCH  42  43
ATOM     43  C   UNL     1      16.573   6.552   6.717  1.00  0.00     0.031 A 
ATOM     44  C   UNL     1      17.267   5.970   7.916  1.00  0.00     0.074 A 
ATOM     45  C   UNL     1      16.099   7.813   6.752  1.00  0.00     0.049 A 
ATOM     46  N   UNL     1      17.530   6.532   9.066  1.00  0.00    -0.248 NA
ATOM     47  C   UNL     1      17.698   4.565   7.822  1.00  0.00     0.031 C 
ATOM     48  C   UNL     1      15.329   8.459   5.685  1.00  0.00     0.029 A 
ATOM     49  N   UNL     1      16.163   8.768   7.737  1.00  0.00    -0.354 N 
ATOM     50  C   UNL     1      18.120   5.545   9.845  1.00  0.00     0.074 A 
ATOM     51  C   UNL     1      18.154   4.339   9.047  1.00  0.00     0.031 C 
ATOM     52  C   UNL     1      14.989   9.698   6.075  1.00  0.00     0.029 A 
ATOM     53  C   UNL     1      15.493   9.928   7.425  1.00  0.00     0.049 A 
ATOM     54  H   UNL     1      16.644   8.634   8.585  1.00  0.00     0.167 HD
ATOM     55  C   UNL     1      18.616   5.642  11.101  1.00  0.00     0.034 A 
ATOM     56  C   UNL     1      15.299  11.048   8.149  1.00  0.00     0.034 A 
ATOM     57  C   UNL     1      18.630   6.857  11.870  1.00  0.00     0.049 A 
ATOM     58  C   UNL     1      15.912  11.145   9.520  1.00  0.00     0.074 A 
ATOM     59  C   UNL     1      19.208   7.085  13.106  1.00  0.00     0.029 A 
ATOM     60  N   UNL     1      18.034   8.046  11.480  1.00  0.00    -0.354 N 
ATOM     61  N   UNL     1      16.630  10.259  10.167  1.00  0.00    -0.248 NA
ATOM     62  C   UNL     1      15.720  12.409  10.248  1.00  0.00     0.031 C 
ATOM     63  C   UNL     1      18.947   8.409  13.472  1.00  0.00     0.029 A 
ATOM     64  C   UNL     1      18.221   9.009  12.456  1.00  0.00     0.049 A 
ATOM     65  H   UNL     1      17.550   8.185  10.635  1.00  0.00     0.167 HD
ATOM     66  C   UNL     1      17.001  10.867  11.360  1.00  0.00     0.074 A 
ATOM     67  C   UNL     1      16.451  12.207  11.336  1.00  0.00     0.031 C 
ATOM     68  C   UNL     1      17.717  10.357  12.392  1.00  0.00     0.034 A 
BRANCH  55  69
ATOM     69  C   UNL     1      19.247   4.415  11.705  1.00  0.00     0.023 A 
ATOM     70  C   UNL     1      20.507   3.987  11.240  1.00  0.00     0.012 A 
ATOM     71  C   UNL     1      18.636   3.736  12.776  1.00  0.00     0.148 A 
ATOM     72  C   UNL     1      21.139   2.885  11.814  1.00  0.00     0.002 A 
ATOM     73  C   UNL     1      19.291   2.663  13.371  1.00  0.00     0.091 A 
ATOM     74  F   UNL     1      17.428   4.146  13.189  1.00  0.00    -0.205 F 
ATOM     75  C   UNL     1      20.536   2.231  12.886  1.00  0.00     0.022 A 
BRANCH  73  76
ATOM     76  S   UNL     1      18.636   1.800  14.804  1.00  0.00     0.127 S 
ATOM     77  O   UNL     1      18.271   0.506  14.227  1.00  0.00    -0.237 OA
ATOM     78  O   UNL     1      19.794   1.763  15.697  1.00  0.00    -0.237 OA
ATOM     79  O   UNL     1      17.523   2.605  15.285  1.00  0.00    -0.744 OA
ENDBRANCH  73  76
ENDBRANCH  55  69
BRANCH  56  80
ATOM     80  C   UNL     1      14.545  12.193   7.565  1.00  0.00     0.023 A 
ATOM     81  C   UNL     1      15.237  13.371   7.221  1.00  0.00     0.012 A 
ATOM     82  C   UNL     1      13.159  12.118   7.328  1.00  0.00     0.148 A 
ATOM     83  C   UNL     1      14.558  14.464   6.683  1.00  0.00     0.002 A 
ATOM     84  C   UNL     1      12.498  13.191   6.740  1.00  0.00     0.091 A 
ATOM     85  F   UNL     1      12.514  10.996   7.676  1.00  0.00    -0.205 F 
ATOM     86  C   UNL     1      13.192  14.371   6.433  1.00  0.00     0.022 A 
BRANCH  84  87
ATOM     87  S   UNL     1      10.769  13.100   6.260  1.00  0.00     0.127 S 
ATOM     88  O   UNL     1      10.125  13.881   7.312  1.00  0.00    -0.237 OA
ATOM     89  O   UNL     1      10.783  13.735   4.941  1.00  0.00    -0.237 OA
ATOM     90  O   UNL     1      10.451  11.679   6.232  1.00  0.00    -0.744 OA
ENDBRANCH  84  87
ENDBRANCH  56  80
BRANCH  68  91
ATOM     91  C   UNL     1      17.974  11.251  13.575  1.00  0.00     0.023 A 
ATOM     92  C   UNL     1      16.925  11.538  14.471  1.00  0.00     0.012 A 
ATOM     93  C   UNL     1      19.268  11.737  13.845  1.00  0.00     0.148 A 
ATOM     94  C   UNL     1      17.155  12.318  15.604  1.00  0.00     0.002 A 
ATOM     95  C   UNL     1      19.500  12.475  14.999  1.00  0.00     0.091 A 
ATOM     96  F   UNL     1      20.248  11.468  12.969  1.00  0.00    -0.205 F 
ATOM     97  C   UNL     1      18.443  12.775  15.874  1.00  0.00     0.022 A 
BRANCH  95  98
ATOM     98  S   UNL     1      21.143  13.023  15.476  1.00  0.00     0.127 S 
ATOM     99  O   UNL     1      21.073  14.456  15.193  1.00  0.00    -0.237 OA
ATOM    100  O   UNL     1      21.184  12.684  16.899  1.00  0.00    -0.237 OA
ATOM    101  O   UNL     1      22.073  12.266  14.649  1.00  0.00    -0.744 OA
ENDBRANCH  95  98
ENDBRANCH  68  91
ENDBRANCH  42  43
ENDBRANCH  34  37
ENDBRANCH  32  33
ENDBRANCH  31  32
ENDBRANCH   1  31
TORSDOF 18
