REMARK SMILES C[C@H](NC(=O)OCc1ccccc1)C(=O)NCC(=O)N1CCC[C@H]1C(=O)NCCCCNC(=O)c1ccc(-c2c3nc(c(-c4cccc(S(=O)(=O)[O-])c4F)c4ccc([nH]4)c(-c4cccc(S(=O)(=O)[O-])c4F)c4nc(c(-c5cccc(S(=O)(=O)[O-])c5F)c5ccc2[nH]5)C=C4)C=C3)cc1
REMARK SMILES IDX 25 1 26 2 27 3 24 5 20 6 21 7 22 8 23 9 18 10 19 11 17 12
REMARK SMILES IDX 16 13 14 14 15 15 2 17 1 18 3 19 4 20 5 22 6 23 7 24 8 25
REMARK SMILES IDX 9 26 13 27 10 28 12 29 11 30 28 31 29 32 30 33 31 34 32 35
REMARK SMILES IDX 33 36 34 38 35 39 36 40 97 41 37 42 96 43 38 44 39 45 40 46
REMARK SMILES IDX 90 47 41 48 95 49 89 50 91 51 42 52 94 53 88 54 87 55 43 57
REMARK SMILES IDX 75 58 55 59 74 60 56 61 59 62 73 63 92 64 57 65 58 66 72 68
REMARK SMILES IDX 93 69 60 70 44 71 45 72 53 73 46 74 48 75 54 76 47 77 49 78
REMARK SMILES IDX 50 79 51 80 52 81 76 82 77 83 85 84 78 85 80 86 86 87 79 88
REMARK SMILES IDX 81 89 82 90 83 91 84 92 61 93 62 94 70 95 63 96 65 97 71 98
REMARK SMILES IDX 64 99 66 100 67 101 68 102 69 103
REMARK H PARENT 27 4 16 16 3 21 32 37 91 56 59 67
REMARK Flexibility Score: inf
ROOT
ATOM      1  C   UNL     1      -1.474  -2.804   3.672  1.00  0.00     0.242 C 
ATOM      2  O   UNL     1      -2.100  -2.340   4.627  1.00  0.00    -0.273 OA
ATOM      3  N   UNL     1      -1.658  -4.127   3.368  1.00  0.00    -0.354 N 
ATOM      4  H   UNL     1      -2.053  -4.681   4.080  1.00  0.00     0.163 HD
ENDROOT
BRANCH   1   5
ATOM      5  C   UNL     1      -0.524  -1.947   2.797  1.00  0.00     0.174 C 
ATOM      6  N   UNL     1      -1.173  -1.276   1.665  1.00  0.00    -0.329 N 
ATOM      7  C   UNL     1      -1.484   0.091   2.000  1.00  0.00     0.120 C 
ATOM      8  C   UNL     1      -0.329   0.502   2.887  1.00  0.00     0.024 C 
ATOM      9  C   UNL     1       0.041  -0.776   3.639  1.00  0.00     0.037 C 
BRANCH   6  10
ATOM     10  C   UNL     1      -1.836  -1.934   0.658  1.00  0.00     0.242 C 
ATOM     11  O   UNL     1      -2.901  -2.520   0.829  1.00  0.00    -0.273 OA
BRANCH  10  12
ATOM     12  C   UNL     1      -1.232  -1.771  -0.739  1.00  0.00     0.216 C 
BRANCH  12  13
ATOM     13  N   UNL     1      -1.631  -0.497  -1.311  1.00  0.00    -0.345 N 
ATOM     14  C   UNL     1      -0.880   0.564  -1.715  1.00  0.00     0.242 C 
ATOM     15  O   UNL     1      -1.473   1.591  -2.055  1.00  0.00    -0.273 OA
ATOM     16  H   UNL     1      -2.602  -0.383  -1.426  1.00  0.00     0.164 HD
BRANCH  14  17
ATOM     17  C   UNL     1       0.656   0.467  -1.852  1.00  0.00     0.171 C 
ATOM     18  C   UNL     1       0.999  -0.380  -3.070  1.00  0.00     0.042 C 
BRANCH  17  19
ATOM     19  N   UNL     1       1.242   0.107  -0.564  1.00  0.00    -0.310 N 
ATOM     20  C   UNL     1       2.132  -0.847  -0.197  1.00  0.00     0.408 C 
ATOM     21  H   UNL     1       0.931   0.667   0.183  1.00  0.00     0.167 HD
ATOM     22  O   UNL     1       2.295  -1.107   0.994  1.00  0.00    -0.225 OA
BRANCH  20  23
ATOM     23  O   UNL     1       2.745  -1.470  -1.224  1.00  0.00    -0.445 OA
BRANCH  23  24
ATOM     24  C   UNL     1       3.647  -2.525  -0.853  1.00  0.00     0.270 C 
BRANCH  24  25
ATOM     25  C   UNL     1       4.908  -1.989  -0.223  1.00  0.00    -0.011 A 
ATOM     26  C   UNL     1       5.313  -2.444   1.040  1.00  0.00     0.007 A 
ATOM     27  C   UNL     1       5.666  -1.002  -0.867  1.00  0.00     0.007 A 
ATOM     28  C   UNL     1       6.438  -1.901   1.659  1.00  0.00     0.000 A 
ATOM     29  C   UNL     1       6.790  -0.459  -0.245  1.00  0.00     0.000 A 
ATOM     30  C   UNL     1       7.172  -0.904   1.020  1.00  0.00     0.000 A 
ENDBRANCH  24  25
ENDBRANCH  23  24
ENDBRANCH  20  23
ENDBRANCH  17  19
ENDBRANCH  14  17
ENDBRANCH  12  13
ENDBRANCH  10  12
ENDBRANCH   6  10
ENDBRANCH   1   5
BRANCH   3  31
ATOM     31  C   UNL     1      -1.344  -4.814   2.132  1.00  0.00     0.116 C 
BRANCH  31  32
ATOM     32  C   UNL     1      -0.851  -6.241   2.330  1.00  0.00     0.023 C 
BRANCH  32  33
ATOM     33  C   UNL     1      -1.839  -7.186   3.013  1.00  0.00     0.023 C 
BRANCH  33  34
ATOM     34  C   UNL     1      -3.249  -7.208   2.431  1.00  0.00     0.116 C 
BRANCH  34  35
ATOM     35  N   UNL     1      -3.286  -7.598   1.028  1.00  0.00    -0.352 N 
ATOM     36  C   UNL     1      -3.969  -8.629   0.425  1.00  0.00     0.251 C 
ATOM     37  H   UNL     1      -2.743  -7.043   0.423  1.00  0.00     0.163 HD
ATOM     38  O   UNL     1      -3.773  -8.885  -0.760  1.00  0.00    -0.269 OA
BRANCH  36  39
ATOM     39  C   UNL     1      -4.913  -9.449   1.216  1.00  0.00     0.039 A 
ATOM     40  C   UNL     1      -4.836 -10.841   1.134  1.00  0.00     0.014 A 
ATOM     41  C   UNL     1      -5.847  -8.847   2.062  1.00  0.00     0.014 A 
ATOM     42  C   UNL     1      -5.637 -11.628   1.966  1.00  0.00     0.010 A 
ATOM     43  C   UNL     1      -6.581  -9.630   2.949  1.00  0.00     0.010 A 
ATOM     44  C   UNL     1      -6.483 -11.029   2.915  1.00  0.00    -0.014 A 
BRANCH  44  45
ATOM     45  C   UNL     1      -7.245 -11.847   3.896  1.00  0.00     0.031 A 
ATOM     46  C   UNL     1      -8.750 -11.793   3.928  1.00  0.00     0.074 A 
ATOM     47  C   UNL     1      -6.580 -12.569   4.821  1.00  0.00     0.049 A 
ATOM     48  N   UNL     1      -9.578 -12.389   4.747  1.00  0.00    -0.248 NA
ATOM     49  C   UNL     1      -9.412 -10.940   2.927  1.00  0.00     0.031 C 
ATOM     50  C   UNL     1      -5.122 -12.639   4.954  1.00  0.00     0.029 A 
ATOM     51  N   UNL     1      -7.041 -13.360   5.845  1.00  0.00    -0.354 N 
ATOM     52  C   UNL     1     -10.848 -11.956   4.387  1.00  0.00     0.074 A 
ATOM     53  C   UNL     1     -10.682 -11.023   3.295  1.00  0.00     0.031 C 
ATOM     54  C   UNL     1      -4.810 -13.430   5.993  1.00  0.00     0.029 A 
ATOM     55  C   UNL     1      -6.040 -13.896   6.624  1.00  0.00     0.049 A 
ATOM     56  H   UNL     1      -7.997 -13.528   6.007  1.00  0.00     0.167 HD
ATOM     57  C   UNL     1     -12.047 -12.322   4.899  1.00  0.00     0.034 A 
ATOM     58  C   UNL     1      -6.104 -14.664   7.730  1.00  0.00     0.034 A 
ATOM     59  C   UNL     1     -12.214 -13.282   5.957  1.00  0.00     0.049 A 
ATOM     60  C   UNL     1      -7.452 -15.084   8.254  1.00  0.00     0.074 A 
ATOM     61  C   UNL     1     -13.392 -13.788   6.478  1.00  0.00     0.029 A 
ATOM     62  N   UNL     1     -11.179 -13.871   6.664  1.00  0.00    -0.354 N 
ATOM     63  N   UNL     1      -8.643 -14.796   7.790  1.00  0.00    -0.248 NA
ATOM     64  C   UNL     1      -7.464 -15.963   9.433  1.00  0.00     0.031 C 
ATOM     65  C   UNL     1     -13.069 -14.659   7.523  1.00  0.00     0.029 A 
ATOM     66  C   UNL     1     -11.689 -14.725   7.626  1.00  0.00     0.049 A 
ATOM     67  H   UNL     1     -10.221 -13.706   6.505  1.00  0.00     0.167 HD
ATOM     68  C   UNL     1      -9.543 -15.489   8.593  1.00  0.00     0.074 A 
ATOM     69  C   UNL     1      -8.757 -16.228   9.559  1.00  0.00     0.031 C 
ATOM     70  C   UNL     1     -10.897 -15.500   8.546  1.00  0.00     0.034 A 
BRANCH  57  71
ATOM     71  C   UNL     1     -13.288 -11.720   4.291  1.00  0.00     0.023 A 
ATOM     72  C   UNL     1     -13.693 -12.114   2.999  1.00  0.00     0.012 A 
ATOM     73  C   UNL     1     -14.098 -10.834   5.029  1.00  0.00     0.148 A 
ATOM     74  C   UNL     1     -14.866 -11.613   2.438  1.00  0.00     0.002 A 
ATOM     75  C   UNL     1     -15.291 -10.376   4.482  1.00  0.00     0.091 A 
ATOM     76  F   UNL     1     -13.688 -10.459   6.248  1.00  0.00    -0.205 F 
ATOM     77  C   UNL     1     -15.670 -10.755   3.184  1.00  0.00     0.022 A 
BRANCH  75  78
ATOM     78  S   UNL     1     -16.440  -9.336   5.390  1.00  0.00     0.127 S 
ATOM     79  O   UNL     1     -16.357  -8.082   4.642  1.00  0.00    -0.237 OA
ATOM     80  O   UNL     1     -17.701 -10.060   5.227  1.00  0.00    -0.237 OA
ATOM     81  O   UNL     1     -15.941  -9.280   6.756  1.00  0.00    -0.744 OA
ENDBRANCH  75  78
ENDBRANCH  57  71
BRANCH  58  82
ATOM     82  C   UNL     1      -4.853 -15.131   8.396  1.00  0.00     0.023 A 
ATOM     83  C   UNL     1      -4.518 -16.499   8.364  1.00  0.00     0.012 A 
ATOM     84  C   UNL     1      -3.996 -14.231   9.058  1.00  0.00     0.148 A 
ATOM     85  C   UNL     1      -3.377 -16.968   9.016  1.00  0.00     0.002 A 
ATOM     86  C   UNL     1      -2.830 -14.696   9.654  1.00  0.00     0.091 A 
ATOM     87  F   UNL     1      -4.337 -12.935   9.088  1.00  0.00    -0.205 F 
ATOM     88  C   UNL     1      -2.529 -16.067   9.653  1.00  0.00     0.022 A 
BRANCH  86  89
ATOM     89  S   UNL     1      -1.615 -13.591  10.381  1.00  0.00     0.127 S 
ATOM     90  O   UNL     1      -1.784 -13.856  11.807  1.00  0.00    -0.237 OA
ATOM     91  O   UNL     1      -0.367 -14.092   9.804  1.00  0.00    -0.237 OA
ATOM     92  O   UNL     1      -1.985 -12.254   9.935  1.00  0.00    -0.744 OA
ENDBRANCH  86  89
ENDBRANCH  58  82
BRANCH  70  93
ATOM     93  C   UNL     1     -11.627 -16.373   9.532  1.00  0.00     0.023 A 
ATOM     94  C   UNL     1     -11.668 -16.018  10.895  1.00  0.00     0.012 A 
ATOM     95  C   UNL     1     -12.335 -17.510   9.093  1.00  0.00     0.148 A 
ATOM     96  C   UNL     1     -12.371 -16.800  11.811  1.00  0.00     0.002 A 
ATOM     97  C   UNL     1     -13.078 -18.254  10.002  1.00  0.00     0.091 A 
ATOM     98  F   UNL     1     -12.271 -17.841   7.795  1.00  0.00    -0.205 F 
ATOM     99  C   UNL     1     -13.085 -17.909  11.363  1.00  0.00     0.022 A 
BRANCH  97 100
ATOM    100  S   UNL     1     -14.107 -19.638   9.502  1.00  0.00     0.127 S 
ATOM    101  O   UNL     1     -13.367 -20.773  10.050  1.00  0.00    -0.237 OA
ATOM    102  O   UNL     1     -15.370 -19.346  10.182  1.00  0.00    -0.237 OA
ATOM    103  O   UNL     1     -14.178 -19.583   8.048  1.00  0.00    -0.744 OA
ENDBRANCH  97 100
ENDBRANCH  70  93
ENDBRANCH  44  45
ENDBRANCH  36  39
ENDBRANCH  34  35
ENDBRANCH  33  34
ENDBRANCH  32  33
ENDBRANCH  31  32
ENDBRANCH   3  31
TORSDOF 22
