REMARK SMILES CC[C@@H](NC(=O)[C@H](C)C[NH2+]C)C(=O)NCCCCNC(=O)c1ccc(-c2c3nc(c(-c4cccc(S(=O)(=O)[O-])c4F)c4ccc([nH]4)c(-c4cccc(S(=O)(=O)[O-])c4F)c4nc(c(-c5cccc(S(=O)(=O)[O-])c5F)c5ccc2[nH]5)C=C4)C=C3)cc1
REMARK SMILES IDX 16 1 15 2 14 3 12 4 13 5 3 7 2 8 1 9 4 10 5 11 6 13 7 14
REMARK SMILES IDX 8 15 9 16 10 17 11 18 17 21 18 22 19 23 20 24 21 26 22 27
REMARK SMILES IDX 23 28 84 29 24 30 83 31 25 32 26 33 27 34 77 35 28 36 82 37
REMARK SMILES IDX 76 38 78 39 29 40 81 41 75 42 74 43 30 45 62 46 42 47 61 48
REMARK SMILES IDX 43 49 46 50 60 51 79 52 44 53 45 54 59 56 80 57 47 58 31 59
REMARK SMILES IDX 32 60 40 61 33 62 35 63 41 64 34 65 36 66 37 67 38 68 39 69
REMARK SMILES IDX 63 70 64 71 72 72 65 73 67 74 73 75 66 76 68 77 69 78 70 79
REMARK SMILES IDX 71 80 48 81 49 82 57 83 50 84 52 85 58 86 51 87 53 88 54 89
REMARK SMILES IDX 55 90 56 91
REMARK H PARENT 14 6 4 12 10 19 10 20 19 25 78 44 46 55
REMARK Flexibility Score: inf
ROOT
ATOM      1  C   UNL     1       3.178   6.043  -1.603  1.00  0.00     0.023 C 
ENDROOT
BRANCH   1   2
ATOM      2  C   UNL     1       2.027   5.047  -1.512  1.00  0.00     0.116 C 
BRANCH   2   3
ATOM      3  N   UNL     1       2.418   3.719  -1.965  1.00  0.00    -0.354 N 
ATOM      4  C   UNL     1       1.797   2.517  -1.773  1.00  0.00     0.242 C 
ATOM      5  O   UNL     1       2.326   1.508  -2.246  1.00  0.00    -0.273 OA
ATOM      6  H   UNL     1       3.253   3.682  -2.486  1.00  0.00     0.163 HD
BRANCH   4   7
ATOM      7  C   UNL     1       0.585   2.400  -0.832  1.00  0.00     0.171 C 
BRANCH   7   8
ATOM      8  C   UNL     1       1.190   2.483   0.597  1.00  0.00     0.031 C 
ATOM      9  C   UNL     1       0.224   2.554   1.765  1.00  0.00     0.006 C 
ENDBRANCH   7   8
BRANCH   7  10
ATOM     10  N   UNL     1      -0.465   3.391  -1.100  1.00  0.00    -0.344 N 
ATOM     11  C   UNL     1      -1.335   3.534  -2.141  1.00  0.00     0.229 C 
ATOM     12  H   UNL     1      -0.559   4.077  -0.400  1.00  0.00     0.164 HD
ATOM     13  O   UNL     1      -2.308   4.266  -1.921  1.00  0.00    -0.275 OA
BRANCH  11  14
ATOM     14  C   UNL     1      -1.129   2.954  -3.550  1.00  0.00     0.130 C 
ATOM     15  C   UNL     1      -0.892   1.451  -3.580  1.00  0.00     0.024 C 
BRANCH  14  16
ATOM     16  C   UNL     1      -0.103   3.811  -4.316  1.00  0.00     0.273 C 
BRANCH  16  17
ATOM     17  N   UNL     1       0.425   3.252  -5.564  1.00  0.00    -0.348 N 
ATOM     18  C   UNL     1       1.683   3.906  -5.932  1.00  0.00     0.330 C 
ATOM     19  H   UNL     1      -0.257   3.394  -6.310  1.00  0.00     0.346 HD
ATOM     20  H   UNL     1       0.600   2.256  -5.430  1.00  0.00     0.346 HD
ENDBRANCH  16  17
ENDBRANCH  14  16
ENDBRANCH  11  14
ENDBRANCH   7  10
ENDBRANCH   4   7
ENDBRANCH   2   3
ENDBRANCH   1   2
BRANCH   1  21
ATOM     21  C   UNL     1       3.665   6.326  -3.026  1.00  0.00     0.023 C 
BRANCH  21  22
ATOM     22  C   UNL     1       2.613   6.896  -3.972  1.00  0.00     0.116 C 
BRANCH  22  23
ATOM     23  N   UNL     1       2.211   8.245  -3.617  1.00  0.00    -0.352 N 
ATOM     24  C   UNL     1       2.289   9.396  -4.367  1.00  0.00     0.251 C 
ATOM     25  H   UNL     1       1.829   8.351  -2.716  1.00  0.00     0.163 HD
ATOM     26  O   UNL     1       2.035  10.478  -3.855  1.00  0.00    -0.269 OA
BRANCH  24  27
ATOM     27  C   UNL     1       2.716   9.325  -5.784  1.00  0.00     0.039 A 
ATOM     28  C   UNL     1       3.734  10.178  -6.215  1.00  0.00     0.014 A 
ATOM     29  C   UNL     1       2.125   8.430  -6.680  1.00  0.00     0.014 A 
ATOM     30  C   UNL     1       4.195  10.097  -7.531  1.00  0.00     0.010 A 
ATOM     31  C   UNL     1       2.631   8.307  -7.976  1.00  0.00     0.010 A 
ATOM     32  C   UNL     1       3.669   9.142  -8.418  1.00  0.00    -0.014 A 
BRANCH  32  33
ATOM     33  C   UNL     1       4.214   9.012  -9.798  1.00  0.00     0.031 A 
ATOM     34  C   UNL     1       3.354   9.309 -10.998  1.00  0.00     0.074 A 
ATOM     35  C   UNL     1       5.481   8.587  -9.977  1.00  0.00     0.049 A 
ATOM     36  N   UNL     1       3.670   9.266 -12.267  1.00  0.00    -0.248 NA
ATOM     37  C   UNL     1       1.955   9.689 -10.742  1.00  0.00     0.031 C 
ATOM     38  C   UNL     1       6.403   8.201  -8.907  1.00  0.00     0.029 A 
ATOM     39  N   UNL     1       6.210   8.391 -11.126  1.00  0.00    -0.354 N 
ATOM     40  C   UNL     1       2.509   9.587 -12.961  1.00  0.00     0.074 A 
ATOM     41  C   UNL     1       1.473   9.793 -11.973  1.00  0.00     0.031 C 
ATOM     42  C   UNL     1       7.573   7.824  -9.447  1.00  0.00     0.029 A 
ATOM     43  C   UNL     1       7.479   7.909 -10.902  1.00  0.00     0.049 A 
ATOM     44  H   UNL     1       5.856   8.579 -12.025  1.00  0.00     0.167 HD
ATOM     45  C   UNL     1       2.326   9.724 -14.297  1.00  0.00     0.034 A 
ATOM     46  C   UNL     1       8.456   7.566 -11.765  1.00  0.00     0.034 A 
ATOM     47  C   UNL     1       3.361   9.546 -15.281  1.00  0.00     0.049 A 
ATOM     48  C   UNL     1       8.229   7.742 -13.243  1.00  0.00     0.074 A 
ATOM     49  C   UNL     1       3.287   9.743 -16.649  1.00  0.00     0.029 A 
ATOM     50  N   UNL     1       4.649   9.115 -15.010  1.00  0.00    -0.354 N 
ATOM     51  N   UNL     1       7.173   8.203 -13.867  1.00  0.00    -0.248 NA
ATOM     52  C   UNL     1       9.343   7.386 -14.135  1.00  0.00     0.031 C 
ATOM     53  C   UNL     1       4.519   9.393 -17.210  1.00  0.00     0.029 A 
ATOM     54  C   UNL     1       5.375   9.023 -16.186  1.00  0.00     0.049 A 
ATOM     55  H   UNL     1       4.998   8.905 -14.113  1.00  0.00     0.167 HD
ATOM     56  C   UNL     1       7.509   8.231 -15.217  1.00  0.00     0.074 A 
ATOM     57  C   UNL     1       8.874   7.759 -15.318  1.00  0.00     0.031 C 
ATOM     58  C   UNL     1       6.750   8.603 -16.277  1.00  0.00     0.034 A 
BRANCH  45  59
ATOM     59  C   UNL     1       0.957  10.127 -14.782  1.00  0.00     0.023 A 
ATOM     60  C   UNL     1       0.495  11.440 -14.556  1.00  0.00     0.012 A 
ATOM     61  C   UNL     1       0.163   9.236 -15.531  1.00  0.00     0.148 A 
ATOM     62  C   UNL     1      -0.748  11.850 -15.037  1.00  0.00     0.002 A 
ATOM     63  C   UNL     1      -1.053   9.666 -16.048  1.00  0.00     0.091 A 
ATOM     64  F   UNL     1       0.612   7.987 -15.723  1.00  0.00    -0.205 F 
ATOM     65  C   UNL     1      -1.516  10.967 -15.792  1.00  0.00     0.022 A 
BRANCH  63  66
ATOM     66  S   UNL     1      -2.077   8.636 -17.105  1.00  0.00     0.127 S 
ATOM     67  O   UNL     1      -3.232   8.386 -16.244  1.00  0.00    -0.237 OA
ATOM     68  O   UNL     1      -2.342   9.525 -18.236  1.00  0.00    -0.237 OA
ATOM     69  O   UNL     1      -1.275   7.464 -17.426  1.00  0.00    -0.744 OA
ENDBRANCH  63  66
ENDBRANCH  45  59
BRANCH  46  70
ATOM     70  C   UNL     1       9.762   7.061 -11.255  1.00  0.00     0.023 A 
ATOM     71  C   UNL     1      10.922   7.845 -11.409  1.00  0.00     0.012 A 
ATOM     72  C   UNL     1       9.860   5.810 -10.614  1.00  0.00     0.148 A 
ATOM     73  C   UNL     1      12.162   7.375 -10.972  1.00  0.00     0.002 A 
ATOM     74  C   UNL     1      11.086   5.375 -10.127  1.00  0.00     0.091 A 
ATOM     75  F   UNL     1       8.747   5.074 -10.488  1.00  0.00    -0.205 F 
ATOM     76  C   UNL     1      12.242   6.146 -10.323  1.00  0.00     0.022 A 
BRANCH  74  77
ATOM     77  S   UNL     1      11.258   3.870  -9.162  1.00  0.00     0.127 S 
ATOM     78  O   UNL     1      11.993   3.007 -10.083  1.00  0.00    -0.237 OA
ATOM     79  O   UNL     1      12.027   4.339  -8.009  1.00  0.00    -0.237 OA
ATOM     80  O   UNL     1       9.900   3.448  -8.845  1.00  0.00    -0.744 OA
ENDBRANCH  74  77
ENDBRANCH  46  70
BRANCH  58  81
ATOM     81  C   UNL     1       7.384   8.569 -17.644  1.00  0.00     0.023 A 
ATOM     82  C   UNL     1       7.666   7.335 -18.264  1.00  0.00     0.012 A 
ATOM     83  C   UNL     1       7.633   9.766 -18.346  1.00  0.00     0.148 A 
ATOM     84  C   UNL     1       8.219   7.294 -19.544  1.00  0.00     0.002 A 
ATOM     85  C   UNL     1       8.134   9.716 -19.641  1.00  0.00     0.091 A 
ATOM     86  F   UNL     1       7.375  10.931 -17.734  1.00  0.00    -0.205 F 
ATOM     87  C   UNL     1       8.441   8.482 -20.236  1.00  0.00     0.022 A 
BRANCH  85  88
ATOM     88  S   UNL     1       8.361  11.188 -20.646  1.00  0.00     0.127 S 
ATOM     89  O   UNL     1       9.819  11.284 -20.710  1.00  0.00    -0.237 OA
ATOM     90  O   UNL     1       7.719  10.805 -21.904  1.00  0.00    -0.237 OA
ATOM     91  O   UNL     1       7.697  12.270 -19.932  1.00  0.00    -0.744 OA
ENDBRANCH  85  88
ENDBRANCH  58  81
ENDBRANCH  32  33
ENDBRANCH  24  27
ENDBRANCH  22  23
ENDBRANCH  21  22
ENDBRANCH   1  21
TORSDOF 19
