REMARK SMILES CC[C@@H](C)N(CC)c1cc(C(=O)NCCCCNC(=O)c2ccc(-c3c4nc(c(-c5cccc(S(=O)(=O)[O-])c5F)c5ccc([nH]5)c(-c5cccc(S(=O)(=O)[O-])c5F)c5nc(c(-c6cccc(S(=O)(=O)[O-])c6F)c6ccc3[nH]6)C=C5)C=C4)cc2)c2ccccc2n1
REMARK SMILES IDX 15 1 14 2 13 3 11 4 12 5 10 7 8 8 9 9 90 10 89 11 84 12
REMARK SMILES IDX 88 13 85 14 87 15 86 16 5 17 3 18 4 19 2 20 1 21 6 22 7 23
REMARK SMILES IDX 16 24 17 25 18 26 19 27 20 29 21 30 22 31 83 32 23 33 82 34
REMARK SMILES IDX 24 35 25 36 26 37 76 38 27 39 81 40 75 41 77 42 28 43 80 44
REMARK SMILES IDX 74 45 73 46 29 48 61 49 41 50 60 51 42 52 45 53 59 54 78 55
REMARK SMILES IDX 43 56 44 57 58 59 79 60 46 61 30 62 31 63 39 64 32 65 34 66
REMARK SMILES IDX 40 67 33 68 35 69 36 70 37 71 38 72 62 73 63 74 71 75 64 76
REMARK SMILES IDX 66 77 72 78 65 79 67 80 68 81 69 82 70 83 47 84 48 85 56 86
REMARK SMILES IDX 49 87 51 88 57 89 50 90 52 91 53 92 54 93 55 94
REMARK H PARENT 13 6 18 28 77 47 45 58
REMARK Flexibility Score: inf
ROOT
ATOM      1  C   UNL     1      -6.381   0.606  -6.984  1.00  0.00     0.023 C 
ENDROOT
BRANCH   1   2
ATOM      2  C   UNL     1      -5.623  -0.658  -6.558  1.00  0.00     0.116 C 
BRANCH   2   3
ATOM      3  N   UNL     1      -4.303  -0.617  -7.147  1.00  0.00    -0.352 N 
ATOM      4  C   UNL     1      -3.099  -0.124  -6.724  1.00  0.00     0.252 C 
ATOM      5  O   UNL     1      -2.235   0.010  -7.596  1.00  0.00    -0.269 OA
ATOM      6  H   UNL     1      -4.263  -1.030  -8.040  1.00  0.00     0.163 HD
BRANCH   4   7
ATOM      7  C   UNL     1      -2.696   0.123  -5.306  1.00  0.00     0.052 A 
ATOM      8  C   UNL     1      -0.780  -0.113  -3.833  1.00  0.00     0.130 A 
ATOM      9  C   UNL     1      -1.372  -0.279  -5.068  1.00  0.00     0.061 A 
ATOM     10  N   UNL     1      -1.533   0.279  -2.797  1.00  0.00    -0.231 NA
ATOM     11  C   UNL     1      -2.784   0.707  -2.986  1.00  0.00     0.073 A 
ATOM     12  C   UNL     1      -3.405   0.739  -4.248  1.00  0.00     0.013 A 
ATOM     13  C   UNL     1      -3.452   1.191  -1.868  1.00  0.00     0.029 A 
ATOM     14  C   UNL     1      -4.633   1.434  -4.324  1.00  0.00     0.011 A 
ATOM     15  C   UNL     1      -4.720   1.760  -1.952  1.00  0.00     0.002 A 
ATOM     16  C   UNL     1      -5.306   1.905  -3.195  1.00  0.00     0.001 A 
BRANCH   8  17
ATOM     17  N   UNL     1       0.581  -0.316  -3.650  1.00  0.00    -0.354 N 
BRANCH  17  18
ATOM     18  C   UNL     1       1.111  -0.719  -2.330  1.00  0.00     0.080 C 
ATOM     19  C   UNL     1       0.549  -2.087  -1.938  1.00  0.00     0.031 C 
BRANCH  18  20
ATOM     20  C   UNL     1       0.932   0.364  -1.244  1.00  0.00     0.021 C 
ATOM     21  C   UNL     1       1.694   0.070   0.041  1.00  0.00     0.006 C 
ENDBRANCH  18  20
ENDBRANCH  17  18
BRANCH  17  22
ATOM     22  C   UNL     1       1.499   0.367  -4.574  1.00  0.00     0.115 C 
ATOM     23  C   UNL     1       1.888  -0.505  -5.760  1.00  0.00     0.027 C 
ENDBRANCH  17  22
ENDBRANCH   8  17
ENDBRANCH   4   7
ENDBRANCH   2   3
ENDBRANCH   1   2
BRANCH   1  24
ATOM     24  C   UNL     1      -7.253   0.461  -8.223  1.00  0.00     0.023 C 
BRANCH  24  25
ATOM     25  C   UNL     1      -8.498  -0.381  -8.005  1.00  0.00     0.116 C 
BRANCH  25  26
ATOM     26  N   UNL     1      -9.349   0.093  -6.914  1.00  0.00    -0.352 N 
ATOM     27  C   UNL     1     -10.717   0.002  -6.820  1.00  0.00     0.251 C 
ATOM     28  H   UNL     1      -8.888   0.528  -6.160  1.00  0.00     0.163 HD
ATOM     29  O   UNL     1     -11.326   0.489  -5.873  1.00  0.00    -0.269 OA
BRANCH  27  30
ATOM     30  C   UNL     1     -11.432  -0.655  -7.926  1.00  0.00     0.039 A 
ATOM     31  C   UNL     1     -12.359   0.082  -8.665  1.00  0.00     0.014 A 
ATOM     32  C   UNL     1     -11.034  -1.931  -8.329  1.00  0.00     0.014 A 
ATOM     33  C   UNL     1     -12.823  -0.431  -9.875  1.00  0.00     0.010 A 
ATOM     34  C   UNL     1     -11.426  -2.395  -9.573  1.00  0.00     0.010 A 
ATOM     35  C   UNL     1     -12.318  -1.647 -10.361  1.00  0.00    -0.014 A 
BRANCH  35  36
ATOM     36  C   UNL     1     -12.680  -2.171 -11.699  1.00  0.00     0.031 A 
ATOM     37  C   UNL     1     -13.349  -3.511 -11.804  1.00  0.00     0.074 A 
ATOM     38  C   UNL     1     -12.262  -1.527 -12.806  1.00  0.00     0.049 A 
ATOM     39  N   UNL     1     -13.589  -4.231 -12.867  1.00  0.00    -0.248 NA
ATOM     40  C   UNL     1     -13.752  -4.151 -10.540  1.00  0.00     0.031 C 
ATOM     41  C   UNL     1     -11.506  -0.272 -12.824  1.00  0.00     0.029 A 
ATOM     42  N   UNL     1     -12.371  -1.866 -14.132  1.00  0.00    -0.354 N 
ATOM     43  C   UNL     1     -14.104  -5.432 -12.396  1.00  0.00     0.074 A 
ATOM     44  C   UNL     1     -14.118  -5.355 -10.953  1.00  0.00     0.031 C 
ATOM     45  C   UNL     1     -11.209   0.045 -14.095  1.00  0.00     0.029 A 
ATOM     46  C   UNL     1     -11.729  -0.993 -14.979  1.00  0.00     0.049 A 
ATOM     47  H   UNL     1     -12.863  -2.659 -14.446  1.00  0.00     0.167 HD
ATOM     48  C   UNL     1     -14.555  -6.492 -13.105  1.00  0.00     0.034 A 
ATOM     49  C   UNL     1     -11.567  -1.032 -16.317  1.00  0.00     0.034 A 
ATOM     50  C   UNL     1     -14.626  -6.519 -14.538  1.00  0.00     0.049 A 
ATOM     51  C   UNL     1     -12.185  -2.164 -17.091  1.00  0.00     0.074 A 
ATOM     52  C   UNL     1     -15.203  -7.477 -15.352  1.00  0.00     0.029 A 
ATOM     53  N   UNL     1     -14.109  -5.539 -15.371  1.00  0.00    -0.354 N 
ATOM     54  N   UNL     1     -12.842  -3.206 -16.639  1.00  0.00    -0.248 NA
ATOM     55  C   UNL     1     -12.078  -2.112 -18.556  1.00  0.00     0.031 C 
ATOM     56  C   UNL     1     -15.032  -7.075 -16.680  1.00  0.00     0.029 A 
ATOM     57  C   UNL     1     -14.353  -5.866 -16.692  1.00  0.00     0.049 A 
ATOM     58  H   UNL     1     -13.639  -4.730 -15.066  1.00  0.00     0.167 HD
ATOM     59  C   UNL     1     -13.252  -3.916 -17.761  1.00  0.00     0.074 A 
ATOM     60  C   UNL     1     -12.783  -3.178 -18.916  1.00  0.00     0.031 C 
ATOM     61  C   UNL     1     -13.938  -5.083 -17.827  1.00  0.00     0.034 A 
BRANCH  48  62
ATOM     62  C   UNL     1     -15.072  -7.673 -12.332  1.00  0.00     0.023 A 
ATOM     63  C   UNL     1     -16.305  -7.574 -11.655  1.00  0.00     0.012 A 
ATOM     64  C   UNL     1     -14.358  -8.886 -12.294  1.00  0.00     0.148 A 
ATOM     65  C   UNL     1     -16.800  -8.648 -10.919  1.00  0.00     0.002 A 
ATOM     66  C   UNL     1     -14.879  -9.967 -11.592  1.00  0.00     0.091 A 
ATOM     67  F   UNL     1     -13.172  -8.955 -12.916  1.00  0.00    -0.205 F 
ATOM     68  C   UNL     1     -16.093  -9.847 -10.896  1.00  0.00     0.022 A 
BRANCH  66  69
ATOM     69  S   UNL     1     -14.068 -11.570 -11.574  1.00  0.00     0.127 S 
ATOM     70  O   UNL     1     -13.368 -11.534 -10.292  1.00  0.00    -0.237 OA
ATOM     71  O   UNL     1     -15.201 -12.496 -11.623  1.00  0.00    -0.237 OA
ATOM     72  O   UNL     1     -13.223 -11.594 -12.760  1.00  0.00    -0.744 OA
ENDBRANCH  66  69
ENDBRANCH  48  62
BRANCH  49  73
ATOM     73  C   UNL     1     -10.856   0.082 -17.005  1.00  0.00     0.023 A 
ATOM     74  C   UNL     1     -11.602   1.018 -17.747  1.00  0.00     0.012 A 
ATOM     75  C   UNL     1      -9.465   0.260 -16.873  1.00  0.00     0.148 A 
ATOM     76  C   UNL     1     -10.974   2.100 -18.364  1.00  0.00     0.002 A 
ATOM     77  C   UNL     1      -8.852   1.369 -17.449  1.00  0.00     0.091 A 
ATOM     78  F   UNL     1      -8.772  -0.647 -16.171  1.00  0.00    -0.205 F 
ATOM     79  C   UNL     1      -9.602   2.282 -18.205  1.00  0.00     0.022 A 
BRANCH  77  80
ATOM     80  S   UNL     1      -7.118   1.756 -17.184  1.00  0.00     0.127 S 
ATOM     81  O   UNL     1      -6.539   1.444 -18.488  1.00  0.00    -0.237 OA
ATOM     82  O   UNL     1      -7.171   3.181 -16.858  1.00  0.00    -0.237 OA
ATOM     83  O   UNL     1      -6.693   0.906 -16.080  1.00  0.00    -0.744 OA
ENDBRANCH  77  80
ENDBRANCH  49  73
BRANCH  61  84
ATOM     84  C   UNL     1     -14.261  -5.635 -19.188  1.00  0.00     0.023 A 
ATOM     85  C   UNL     1     -13.257  -6.290 -19.926  1.00  0.00     0.012 A 
ATOM     86  C   UNL     1     -15.584  -5.619 -19.674  1.00  0.00     0.148 A 
ATOM     87  C   UNL     1     -13.562  -6.912 -21.135  1.00  0.00     0.002 A 
ATOM     88  C   UNL     1     -15.888  -6.276 -20.859  1.00  0.00     0.091 A 
ATOM     89  F   UNL     1     -16.518  -4.973 -18.961  1.00  0.00    -0.205 F 
ATOM     90  C   UNL     1     -14.878  -6.918 -21.594  1.00  0.00     0.022 A 
BRANCH  88  91
ATOM     91  S   UNL     1     -17.570  -6.418 -21.475  1.00  0.00     0.127 S 
ATOM     92  O   UNL     1     -17.547  -5.502 -22.614  1.00  0.00    -0.237 OA
ATOM     93  O   UNL     1     -17.653  -7.835 -21.833  1.00  0.00    -0.237 OA
ATOM     94  O   UNL     1     -18.436  -6.023 -20.372  1.00  0.00    -0.744 OA
ENDBRANCH  88  91
ENDBRANCH  61  84
ENDBRANCH  35  36
ENDBRANCH  27  30
ENDBRANCH  25  26
ENDBRANCH  24  25
ENDBRANCH   1  24
TORSDOF 18
