REMARK SMILES Cc1cc(C(=O)NCCCCNC(=O)c2ccc(-c3c4nc(c(-c5cccc(S(=O)(=O)[O-])c5F)c5ccc([nH]5)c(-c5cccc(S(=O)(=O)[O-])c5F)c5nc(c(-c6cccc(S(=O)(=O)[O-])c6F)c6ccc3[nH]6)C=C5)C=C4)cc2)cc(S(=O)(=O)NNC(=O)c2c[nH]c3ccccc23)c1C
REMARK SMILES IDX 9 1 8 2 7 3 5 4 6 5 4 7 1 8 2 9 3 10 96 11 79 12 97 13 78 14
REMARK SMILES IDX 80 15 81 16 82 17 83 18 84 20 85 21 86 23 87 24 88 25 95 26
REMARK SMILES IDX 89 27 90 28 94 29 91 31 93 32 92 33 10 34 11 35 12 36 13 37
REMARK SMILES IDX 14 39 15 40 16 41 77 42 17 43 76 44 18 45 19 46 20 47 70 48
REMARK SMILES IDX 21 49 75 50 69 51 71 52 22 53 74 54 68 55 67 56 23 58 55 59
REMARK SMILES IDX 35 60 54 61 36 62 39 63 53 64 72 65 37 66 38 67 52 69 73 70
REMARK SMILES IDX 40 71 24 72 25 73 33 74 26 75 28 76 34 77 27 78 29 79 30 80
REMARK SMILES IDX 31 81 32 82 56 83 57 84 65 85 58 86 60 87 66 88 59 89 61 90
REMARK SMILES IDX 62 91 63 92 64 93 41 94 42 95 50 96 43 97 45 98 51 99 44 100
REMARK SMILES IDX 46 101 47 102 48 103 49 104
REMARK H PARENT 7 6 83 19 84 22 89 30 12 38 71 57 39 68
REMARK Flexibility Score: inf
ROOT
ATOM      1  C   UNL     1      -1.891   4.288  -0.753  1.00  0.00     0.023 C 
ENDROOT
BRANCH   1   2
ATOM      2  C   UNL     1      -2.339   3.494   0.479  1.00  0.00     0.116 C 
BRANCH   2   3
ATOM      3  N   UNL     1      -3.289   2.455   0.122  1.00  0.00    -0.352 N 
ATOM      4  C   UNL     1      -3.174   1.120  -0.174  1.00  0.00     0.251 C 
ATOM      5  O   UNL     1      -4.215   0.503  -0.410  1.00  0.00    -0.269 OA
ATOM      6  H   UNL     1      -4.218   2.779   0.083  1.00  0.00     0.163 HD
BRANCH   4   7
ATOM      7  C   UNL     1      -1.891   0.354  -0.206  1.00  0.00     0.041 A 
ATOM      8  C   UNL     1       1.874   0.879  -0.237  1.00  0.00     0.044 C 
ATOM      9  C   UNL     1       0.551   0.156  -0.250  1.00  0.00    -0.046 A 
ATOM     10  C   UNL     1      -0.623   0.929  -0.287  1.00  0.00     0.017 A 
ATOM     11  C   UNL     1       0.458  -1.250  -0.236  1.00  0.00    -0.028 A 
ATOM     12  C   UNL     1      -0.830  -1.841  -0.284  1.00  0.00     0.088 A 
ATOM     13  C   UNL     1       1.702  -2.106  -0.181  1.00  0.00     0.046 C 
ATOM     14  C   UNL     1      -1.983  -1.050  -0.219  1.00  0.00     0.036 A 
BRANCH  12  15
ATOM     15  S   UNL     1      -0.958  -3.591  -0.602  1.00  0.00     0.257 S 
ATOM     16  O   UNL     1      -0.434  -3.793  -1.951  1.00  0.00    -0.205 OA
ATOM     17  O   UNL     1      -0.396  -4.283   0.522  1.00  0.00    -0.205 OA
BRANCH  15  18
ATOM     18  N   UNL     1      -2.601  -4.035  -0.615  1.00  0.00    -0.123 NA
ATOM     19  H   UNL     1      -3.038  -3.556   0.172  1.00  0.00     0.167 HD
BRANCH  18  20
ATOM     20  N   UNL     1      -3.446  -3.768  -1.789  1.00  0.00    -0.273 N 
ATOM     21  C   UNL     1      -4.384  -4.707  -2.200  1.00  0.00     0.268 C 
ATOM     22  H   UNL     1      -3.347  -2.924  -2.284  1.00  0.00     0.186 HD
ATOM     23  O   UNL     1      -5.589  -4.512  -2.067  1.00  0.00    -0.268 OA
BRANCH  21  24
ATOM     24  C   UNL     1      -3.840  -5.742  -3.080  1.00  0.00     0.066 A 
ATOM     25  C   UNL     1      -2.504  -5.923  -3.396  1.00  0.00     0.097 A 
ATOM     26  C   UNL     1      -4.550  -6.620  -3.963  1.00  0.00     0.012 A 
ATOM     27  N   UNL     1      -2.477  -6.321  -4.705  1.00  0.00    -0.360 N 
ATOM     28  C   UNL     1      -3.717  -6.775  -5.074  1.00  0.00     0.046 A 
ATOM     29  C   UNL     1      -5.847  -7.168  -4.024  1.00  0.00     0.011 A 
ATOM     30  H   UNL     1      -1.688  -6.287  -5.293  1.00  0.00     0.166 HD
ATOM     31  C   UNL     1      -4.167  -7.275  -6.298  1.00  0.00     0.027 A 
ATOM     32  C   UNL     1      -6.265  -7.808  -5.200  1.00  0.00     0.001 A 
ATOM     33  C   UNL     1      -5.457  -7.805  -6.336  1.00  0.00     0.002 A 
ENDBRANCH  21  24
ENDBRANCH  18  20
ENDBRANCH  15  18
ENDBRANCH  12  15
ENDBRANCH   4   7
ENDBRANCH   2   3
ENDBRANCH   1   2
BRANCH   1  34
ATOM     34  C   UNL     1      -2.884   5.367  -1.203  1.00  0.00     0.023 C 
BRANCH  34  35
ATOM     35  C   UNL     1      -3.078   6.521  -0.221  1.00  0.00     0.116 C 
BRANCH  35  36
ATOM     36  N   UNL     1      -1.855   7.262   0.051  1.00  0.00    -0.352 N 
ATOM     37  C   UNL     1      -1.715   8.593   0.372  1.00  0.00     0.251 C 
ATOM     38  H   UNL     1      -1.019   6.744  -0.001  1.00  0.00     0.163 HD
ATOM     39  O   UNL     1      -0.597   9.087   0.476  1.00  0.00    -0.269 OA
BRANCH  37  40
ATOM     40  C   UNL     1      -2.921   9.432   0.547  1.00  0.00     0.039 A 
ATOM     41  C   UNL     1      -2.995  10.656  -0.123  1.00  0.00     0.014 A 
ATOM     42  C   UNL     1      -3.986   8.999   1.340  1.00  0.00     0.014 A 
ATOM     43  C   UNL     1      -4.167  11.413  -0.055  1.00  0.00     0.010 A 
ATOM     44  C   UNL     1      -5.176   9.721   1.353  1.00  0.00     0.010 A 
ATOM     45  C   UNL     1      -5.281  10.933   0.654  1.00  0.00    -0.014 A 
BRANCH  45  46
ATOM     46  C   UNL     1      -6.572  11.668   0.655  1.00  0.00     0.031 A 
ATOM     47  C   UNL     1      -7.135  12.214   1.938  1.00  0.00     0.074 A 
ATOM     48  C   UNL     1      -7.289  11.751  -0.483  1.00  0.00     0.049 A 
ATOM     49  N   UNL     1      -8.274  12.824   2.145  1.00  0.00    -0.248 NA
ATOM     50  C   UNL     1      -6.328  12.023   3.154  1.00  0.00     0.031 C 
ATOM     51  C   UNL     1      -6.894  11.181  -1.774  1.00  0.00     0.029 A 
ATOM     52  N   UNL     1      -8.514  12.318  -0.732  1.00  0.00    -0.354 N 
ATOM     53  C   UNL     1      -8.338  13.056   3.513  1.00  0.00     0.074 A 
ATOM     54  C   UNL     1      -7.139  12.490   4.093  1.00  0.00     0.031 C 
ATOM     55  C   UNL     1      -7.857  11.427  -2.676  1.00  0.00     0.029 A 
ATOM     56  C   UNL     1      -8.947  12.149  -2.026  1.00  0.00     0.049 A 
ATOM     57  H   UNL     1      -9.033  12.800  -0.048  1.00  0.00     0.167 HD
ATOM     58  C   UNL     1      -9.291  13.707   4.221  1.00  0.00     0.034 A 
ATOM     59  C   UNL     1     -10.094  12.530  -2.623  1.00  0.00     0.034 A 
ATOM     60  C   UNL     1     -10.458  14.310   3.635  1.00  0.00     0.049 A 
ATOM     61  C   UNL     1     -11.111  13.303  -1.829  1.00  0.00     0.074 A 
ATOM     62  C   UNL     1     -11.431  15.078   4.250  1.00  0.00     0.029 A 
ATOM     63  N   UNL     1     -10.814  14.209   2.299  1.00  0.00    -0.354 N 
ATOM     64  N   UNL     1     -11.072  13.665  -0.570  1.00  0.00    -0.248 NA
ATOM     65  C   UNL     1     -12.313  13.754  -2.546  1.00  0.00     0.031 C 
ATOM     66  C   UNL     1     -12.385  15.428   3.288  1.00  0.00     0.029 A 
ATOM     67  C   UNL     1     -11.995  14.894   2.070  1.00  0.00     0.049 A 
ATOM     68  H   UNL     1     -10.303  13.722   1.614  1.00  0.00     0.167 HD
ATOM     69  C   UNL     1     -12.222  14.414  -0.351  1.00  0.00     0.074 A 
ATOM     70  C   UNL     1     -12.929  14.470  -1.615  1.00  0.00     0.031 C 
ATOM     71  C   UNL     1     -12.662  14.988   0.795  1.00  0.00     0.034 A 
BRANCH  58  72
ATOM     72  C   UNL     1      -9.077  13.855   5.705  1.00  0.00     0.023 A 
ATOM     73  C   UNL     1      -8.073  14.727   6.176  1.00  0.00     0.012 A 
ATOM     74  C   UNL     1      -9.886  13.171   6.632  1.00  0.00     0.148 A 
ATOM     75  C   UNL     1      -7.851  14.885   7.543  1.00  0.00     0.002 A 
ATOM     76  C   UNL     1      -9.688  13.368   7.994  1.00  0.00     0.091 A 
ATOM     77  F   UNL     1     -10.820  12.328   6.169  1.00  0.00    -0.205 F 
ATOM     78  C   UNL     1      -8.664  14.214   8.451  1.00  0.00     0.022 A 
BRANCH  76  79
ATOM     79  S   UNL     1     -10.734  12.606   9.241  1.00  0.00     0.127 S 
ATOM     80  O   UNL     1      -9.862  11.551   9.754  1.00  0.00    -0.237 OA
ATOM     81  O   UNL     1     -10.964  13.712  10.171  1.00  0.00    -0.237 OA
ATOM     82  O   UNL     1     -11.925  12.152   8.537  1.00  0.00    -0.744 OA
ENDBRANCH  76  79
ENDBRANCH  58  72
BRANCH  59  83
ATOM     83  C   UNL     1     -10.299  12.252  -4.073  1.00  0.00     0.023 A 
ATOM     84  C   UNL     1     -10.242  13.318  -4.992  1.00  0.00     0.012 A 
ATOM     85  C   UNL     1     -10.499  10.943  -4.551  1.00  0.00     0.148 A 
ATOM     86  C   UNL     1     -10.406  13.089  -6.359  1.00  0.00     0.002 A 
ATOM     87  C   UNL     1     -10.609  10.715  -5.918  1.00  0.00     0.091 A 
ATOM     88  F   UNL     1     -10.560   9.944  -3.659  1.00  0.00    -0.205 F 
ATOM     89  C   UNL     1     -10.579  11.788  -6.822  1.00  0.00     0.022 A 
BRANCH  87  90
ATOM     90  S   UNL     1     -10.698   9.062  -6.616  1.00  0.00     0.127 S 
ATOM     91  O   UNL     1     -12.077   9.013  -7.094  1.00  0.00    -0.237 OA
ATOM     92  O   UNL     1      -9.682   9.124  -7.668  1.00  0.00    -0.237 OA
ATOM     93  O   UNL     1     -10.373   8.156  -5.522  1.00  0.00    -0.744 OA
ENDBRANCH  87  90
ENDBRANCH  59  83
BRANCH  71  94
ATOM     94  C   UNL     1     -13.955  15.758   0.742  1.00  0.00     0.023 A 
ATOM     95  C   UNL     1     -15.177  15.064   0.643  1.00  0.00     0.012 A 
ATOM     96  C   UNL     1     -13.965  17.161   0.870  1.00  0.00     0.148 A 
ATOM     97  C   UNL     1     -16.388  15.756   0.645  1.00  0.00     0.002 A 
ATOM     98  C   UNL     1     -15.177  17.840   0.918  1.00  0.00     0.091 A 
ATOM     99  F   UNL     1     -12.791  17.805   0.942  1.00  0.00    -0.205 F 
ATOM    100  C   UNL     1     -16.388  17.141   0.795  1.00  0.00     0.022 A 
BRANCH  98 101
ATOM    101  S   UNL     1     -15.274  19.611   1.204  1.00  0.00     0.127 S 
ATOM    102  O   UNL     1     -15.622  20.109  -0.126  1.00  0.00    -0.237 OA
ATOM    103  O   UNL     1     -16.349  19.709   2.192  1.00  0.00    -0.237 OA
ATOM    104  O   UNL     1     -13.963  20.009   1.699  1.00  0.00    -0.744 OA
ENDBRANCH  98 101
ENDBRANCH  71  94
ENDBRANCH  45  46
ENDBRANCH  37  40
ENDBRANCH  35  36
ENDBRANCH  34  35
ENDBRANCH   1  34
TORSDOF 18
