REMARK SMILES C[C@@H](C(=O)NCCCCNC(=O)c1ccc(-c2c3nc(c(-c4cccc(S(=O)(=O)[O-])c4F)c4ccc([nH]4)c(-c4cccc(S(=O)(=O)[O-])c4F)c4nc(c(-c5cccc(S(=O)(=O)[O-])c5F)c5ccc2[nH]5)C=C4)C=C3)cc1)c1ccc(-c2cccc(OC(=O)Nc3ccccc3)c2)c(F)c1
REMARK SMILES IDX 6 1 5 2 3 3 4 4 2 6 1 7 76 8 77 9 98 10 78 11 96 12 79 13
REMARK SMILES IDX 97 14 80 15 81 16 95 17 82 18 84 19 83 20 85 21 86 22 87 23
REMARK SMILES IDX 88 24 89 26 90 27 94 28 91 29 93 30 92 31 7 32 8 33 9 34
REMARK SMILES IDX 10 35 11 36 12 38 13 39 14 40 75 41 15 42 74 43 16 44 17 45
REMARK SMILES IDX 18 46 68 47 19 48 73 49 67 50 69 51 20 52 72 53 66 54 65 55
REMARK SMILES IDX 21 57 53 58 33 59 52 60 34 61 37 62 51 63 70 64 35 65 36 66
REMARK SMILES IDX 50 68 71 69 38 70 22 71 23 72 31 73 24 74 26 75 32 76 25 77
REMARK SMILES IDX 27 78 28 79 29 80 30 81 54 82 55 83 63 84 56 85 58 86 64 87
REMARK SMILES IDX 57 88 59 89 60 90 61 91 62 92 39 93 40 94 48 95 41 96 43 97
REMARK SMILES IDX 49 98 42 99 44 100 45 101 46 102 47 103
REMARK H PARENT 5 5 88 25 10 37 69 56 37 67
REMARK Flexibility Score: inf
ROOT
ATOM      1  C   UNL     1       3.531   1.905   0.037  1.00  0.00     0.116 C 
ENDROOT
BRANCH   1   2
ATOM      2  N   UNL     1       2.465   2.456  -0.774  1.00  0.00    -0.356 N 
ATOM      3  C   UNL     1       1.149   2.100  -0.852  1.00  0.00     0.227 C 
ATOM      4  O   UNL     1       0.485   2.614  -1.754  1.00  0.00    -0.274 OA
ATOM      5  H   UNL     1       2.730   3.202  -1.359  1.00  0.00     0.163 HD
BRANCH   3   6
ATOM      6  C   UNL     1       0.543   1.146   0.195  1.00  0.00     0.105 C 
ATOM      7  C   UNL     1       1.056  -0.285  -0.015  1.00  0.00     0.023 C 
BRANCH   6   8
ATOM      8  C   UNL     1      -0.988   1.225   0.238  1.00  0.00    -0.033 A 
ATOM      9  C   UNL     1      -1.627   2.467   0.408  1.00  0.00     0.005 A 
ATOM     10  C   UNL     1      -1.798   0.086   0.141  1.00  0.00     0.044 A 
ATOM     11  C   UNL     1      -3.024   2.567   0.468  1.00  0.00     0.012 A 
ATOM     12  C   UNL     1      -3.182   0.189   0.218  1.00  0.00     0.131 A 
ATOM     13  C   UNL     1      -3.823   1.420   0.390  1.00  0.00     0.018 A 
ATOM     14  F   UNL     1      -3.898  -0.945   0.145  1.00  0.00    -0.206 F 
BRANCH  13  15
ATOM     15  C   UNL     1      -5.276   1.473   0.565  1.00  0.00    -0.012 A 
ATOM     16  C   UNL     1      -6.114   2.164  -0.319  1.00  0.00     0.009 A 
ATOM     17  C   UNL     1      -5.853   0.781   1.643  1.00  0.00     0.056 A 
ATOM     18  C   UNL     1      -7.500   2.146  -0.139  1.00  0.00     0.004 A 
ATOM     19  C   UNL     1      -7.228   0.774   1.829  1.00  0.00     0.133 A 
ATOM     20  C   UNL     1      -8.059   1.449   0.935  1.00  0.00     0.047 A 
BRANCH  19  21
ATOM     21  O   UNL     1      -7.877   0.115   2.901  1.00  0.00    -0.410 OA
BRANCH  21  22
ATOM     22  C   UNL     1      -7.253  -0.468   4.005  1.00  0.00     0.417 C 
ATOM     23  O   UNL     1      -6.043  -0.580   4.179  1.00  0.00    -0.224 OA
ATOM     24  N   UNL     1      -8.102  -0.841   5.013  1.00  0.00    -0.291 N 
ATOM     25  H   UNL     1      -7.657  -1.106   5.850  1.00  0.00     0.173 HD
BRANCH  24  26
ATOM     26  C   UNL     1      -9.501  -0.907   5.048  1.00  0.00     0.044 A 
ATOM     27  C   UNL     1     -10.103  -0.887   6.311  1.00  0.00     0.026 A 
ATOM     28  C   UNL     1     -10.303  -1.026   3.912  1.00  0.00     0.026 A 
ATOM     29  C   UNL     1     -11.492  -0.934   6.434  1.00  0.00     0.002 A 
ATOM     30  C   UNL     1     -11.693  -1.094   4.037  1.00  0.00     0.002 A 
ATOM     31  C   UNL     1     -12.287  -1.037   5.295  1.00  0.00     0.000 A 
ENDBRANCH  24  26
ENDBRANCH  21  22
ENDBRANCH  19  21
ENDBRANCH  13  15
ENDBRANCH   6   8
ENDBRANCH   3   6
ENDBRANCH   1   2
BRANCH   1  32
ATOM     32  C   UNL     1       4.357   0.893  -0.762  1.00  0.00     0.023 C 
BRANCH  32  33
ATOM     33  C   UNL     1       5.155   1.494  -1.919  1.00  0.00     0.023 C 
BRANCH  33  34
ATOM     34  C   UNL     1       6.167   2.553  -1.512  1.00  0.00     0.116 C 
BRANCH  34  35
ATOM     35  N   UNL     1       7.167   2.052  -0.577  1.00  0.00    -0.352 N 
ATOM     36  C   UNL     1       8.512   2.337  -0.549  1.00  0.00     0.251 C 
ATOM     37  H   UNL     1       6.840   1.435   0.118  1.00  0.00     0.163 HD
ATOM     38  O   UNL     1       9.264   1.753   0.224  1.00  0.00    -0.269 OA
BRANCH  36  39
ATOM     39  C   UNL     1       9.033   3.340  -1.498  1.00  0.00     0.039 A 
ATOM     40  C   UNL     1      10.071   2.985  -2.362  1.00  0.00     0.014 A 
ATOM     41  C   UNL     1       8.420   4.591  -1.589  1.00  0.00     0.014 A 
ATOM     42  C   UNL     1      10.448   3.867  -3.377  1.00  0.00     0.010 A 
ATOM     43  C   UNL     1       8.746   5.433  -2.642  1.00  0.00     0.010 A 
ATOM     44  C   UNL     1       9.760   5.079  -3.548  1.00  0.00    -0.014 A 
BRANCH  44  45
ATOM     45  C   UNL     1      10.054   6.003  -4.670  1.00  0.00     0.031 A 
ATOM     46  C   UNL     1      10.527   7.398  -4.374  1.00  0.00     0.074 A 
ATOM     47  C   UNL     1       9.744   5.645  -5.931  1.00  0.00     0.049 A 
ATOM     48  N   UNL     1      10.661   8.414  -5.185  1.00  0.00    -0.248 NA
ATOM     49  C   UNL     1      10.847   7.700  -2.969  1.00  0.00     0.031 C 
ATOM     50  C   UNL     1       9.193   4.348  -6.331  1.00  0.00     0.029 A 
ATOM     51  N   UNL     1       9.795   6.361  -7.101  1.00  0.00    -0.354 N 
ATOM     52  C   UNL     1      11.020   9.489  -4.383  1.00  0.00     0.074 A 
ATOM     53  C   UNL     1      11.062   9.006  -3.019  1.00  0.00     0.031 C 
ATOM     54  C   UNL     1       8.935   4.369  -7.649  1.00  0.00     0.029 A 
ATOM     55  C   UNL     1       9.269   5.688  -8.180  1.00  0.00     0.049 A 
ATOM     56  H   UNL     1      10.171   7.268  -7.163  1.00  0.00     0.167 HD
ATOM     57  C   UNL     1      11.312  10.759  -4.750  1.00  0.00     0.034 A 
ATOM     58  C   UNL     1       9.057   6.093  -9.448  1.00  0.00     0.034 A 
ATOM     59  C   UNL     1      11.332  11.213  -6.113  1.00  0.00     0.049 A 
ATOM     60  C   UNL     1       9.466   7.483  -9.851  1.00  0.00     0.074 A 
ATOM     61  C   UNL     1      11.733  12.443  -6.604  1.00  0.00     0.029 A 
ATOM     62  N   UNL     1      10.929  10.457  -7.203  1.00  0.00    -0.354 N 
ATOM     63  N   UNL     1       9.970   8.439  -9.108  1.00  0.00    -0.248 NA
ATOM     64  C   UNL     1       9.315   7.841 -11.268  1.00  0.00     0.031 C 
ATOM     65  C   UNL     1      11.560  12.434  -7.992  1.00  0.00     0.029 A 
ATOM     66  C   UNL     1      11.067  11.194  -8.366  1.00  0.00     0.049 A 
ATOM     67  H   UNL     1      10.595   9.533  -7.156  1.00  0.00     0.167 HD
ATOM     68  C   UNL     1      10.227   9.498  -9.970  1.00  0.00     0.074 A 
ATOM     69  C   UNL     1       9.835   9.062 -11.295  1.00  0.00     0.031 C 
ATOM     70  C   UNL     1      10.730  10.725  -9.687  1.00  0.00     0.034 A 
BRANCH  57  71
ATOM     71  C   UNL     1      11.685  11.727  -3.659  1.00  0.00     0.023 A 
ATOM     72  C   UNL     1      12.923  11.588  -2.999  1.00  0.00     0.012 A 
ATOM     73  C   UNL     1      10.828  12.785  -3.303  1.00  0.00     0.148 A 
ATOM     74  C   UNL     1      13.281  12.457  -1.969  1.00  0.00     0.002 A 
ATOM     75  C   UNL     1      11.212  13.675  -2.305  1.00  0.00     0.091 A 
ATOM     76  F   UNL     1       9.642  12.888  -3.920  1.00  0.00    -0.205 F 
ATOM     77  C   UNL     1      12.430  13.505  -1.629  1.00  0.00     0.022 A 
BRANCH  75  78
ATOM     78  S   UNL     1      10.210  15.098  -1.861  1.00  0.00     0.127 S 
ATOM     79  O   UNL     1       9.530  14.619  -0.659  1.00  0.00    -0.237 OA
ATOM     80  O   UNL     1      11.220  16.130  -1.618  1.00  0.00    -0.237 OA
ATOM     81  O   UNL     1       9.358  15.353  -3.014  1.00  0.00    -0.744 OA
ENDBRANCH  75  78
ENDBRANCH  57  71
BRANCH  58  82
ATOM     82  C   UNL     1       8.484   5.134 -10.433  1.00  0.00     0.023 A 
ATOM     83  C   UNL     1       9.323   4.571 -11.414  1.00  0.00     0.012 A 
ATOM     84  C   UNL     1       7.141   4.718 -10.354  1.00  0.00     0.148 A 
ATOM     85  C   UNL     1       8.830   3.622 -12.311  1.00  0.00     0.002 A 
ATOM     86  C   UNL     1       6.670   3.735 -11.216  1.00  0.00     0.091 A 
ATOM     87  F   UNL     1       6.360   5.272  -9.416  1.00  0.00    -0.205 F 
ATOM     88  C   UNL     1       7.509   3.196 -12.204  1.00  0.00     0.022 A 
BRANCH  86  89
ATOM     89  S   UNL     1       5.027   3.022 -11.067  1.00  0.00     0.127 S 
ATOM     90  O   UNL     1       4.387   3.487 -12.294  1.00  0.00    -0.237 OA
ATOM     91  O   UNL     1       5.325   1.589 -11.032  1.00  0.00    -0.237 OA
ATOM     92  O   UNL     1       4.478   3.553  -9.827  1.00  0.00    -0.744 OA
ENDBRANCH  86  89
ENDBRANCH  58  82
BRANCH  70  93
ATOM     93  C   UNL     1      10.930  11.687 -10.828  1.00  0.00     0.023 A 
ATOM     94  C   UNL     1       9.819  12.343 -11.390  1.00  0.00     0.012 A 
ATOM     95  C   UNL     1      12.228  12.021 -11.262  1.00  0.00     0.148 A 
ATOM     96  C   UNL     1       9.995  13.308 -12.381  1.00  0.00     0.002 A 
ATOM     97  C   UNL     1      12.399  13.016 -12.218  1.00  0.00     0.091 A 
ATOM     98  F   UNL     1      13.270  11.369 -10.726  1.00  0.00    -0.205 F 
ATOM     99  C   UNL     1      11.284  13.654 -12.784  1.00  0.00     0.022 A 
BRANCH  97 100
ATOM    100  S   UNL     1      14.023  13.593 -12.725  1.00  0.00     0.127 S 
ATOM    101  O   UNL     1      14.131  13.033 -14.071  1.00  0.00    -0.237 OA
ATOM    102  O   UNL     1      13.864  15.047 -12.680  1.00  0.00    -0.237 OA
ATOM    103  O   UNL     1      14.962  13.059 -11.748  1.00  0.00    -0.744 OA
ENDBRANCH  97 100
ENDBRANCH  70  93
ENDBRANCH  44  45
ENDBRANCH  36  39
ENDBRANCH  34  35
ENDBRANCH  33  34
ENDBRANCH  32  33
ENDBRANCH   1  32
TORSDOF 19
