REMARK SMILES O=C(C[C@H]1C(=O)NCC[N@H+]1[C@H]1CCO[C@@]2(CCSC2)C1)NCCCCNC(=O)c1ccc(-c2c3nc(c(-c4cccc(S(=O)(=O)[O-])c4F)c4ccc([nH]4)c(-c4cccc(S(=O)(=O)[O-])c4F)c4nc(c(-c5cccc(S(=O)(=O)[O-])c5F)c5ccc2[nH]5)C=C4)C=C3)cc1
REMARK SMILES IDX 24 1 23 2 22 3 21 4 1 5 2 6 3 8 4 9 5 10 10 11 6 12 7 13
REMARK SMILES IDX 9 14 8 16 11 18 12 19 20 20 13 21 15 22 14 23 16 24 19 25
REMARK SMILES IDX 17 26 18 27 25 28 26 29 27 30 28 32 29 33 30 34 91 35 31 36
REMARK SMILES IDX 90 37 32 38 33 39 34 40 84 41 35 42 89 43 83 44 85 45 36 46
REMARK SMILES IDX 88 47 82 48 81 49 37 51 69 52 49 53 68 54 50 55 53 56 67 57
REMARK SMILES IDX 86 58 51 59 52 60 66 62 87 63 54 64 38 65 39 66 47 67 40 68
REMARK SMILES IDX 42 69 48 70 41 71 43 72 44 73 45 74 46 75 70 76 71 77 79 78
REMARK SMILES IDX 72 79 74 80 80 81 73 82 75 83 76 84 77 85 78 86 55 87 56 88
REMARK SMILES IDX 64 89 57 90 59 91 65 92 58 93 60 94 61 95 62 96 63 97
REMARK H PARENT 21 7 10 15 7 17 26 31 85 50 53 61
REMARK Flexibility Score: inf
ROOT
ATOM      1  C   UNL     1       0.912   7.699   2.994  1.00  0.00     0.023 C 
ENDROOT
BRANCH   1   2
ATOM      2  C   UNL     1      -0.616   7.632   2.872  1.00  0.00     0.023 C 
BRANCH   2   3
ATOM      3  C   UNL     1      -1.177   7.881   1.468  1.00  0.00     0.116 C 
BRANCH   3   4
ATOM      4  N   UNL     1      -0.619   6.944   0.521  1.00  0.00    -0.356 N 
ATOM      5  O   UNL     1      -2.594   6.185  -0.380  1.00  0.00    -0.275 OA
ATOM      6  C   UNL     1      -1.376   6.109  -0.270  1.00  0.00     0.226 C 
ATOM      7  H   UNL     1       0.360   6.900   0.435  1.00  0.00     0.163 HD
BRANCH   6   8
ATOM      8  C   UNL     1      -0.584   4.924  -0.787  1.00  0.00     0.175 C 
BRANCH   8   9
ATOM      9  C   UNL     1       0.578   5.122  -1.776  1.00  0.00     0.283 C 
ATOM     10  C   UNL     1       0.585   6.586  -2.279  1.00  0.00     0.279 C 
ATOM     11  N   UNL     1       1.942   4.655  -1.360  1.00  0.00    -0.320 N 
ATOM     12  O   UNL     1      -0.275   7.023  -3.043  1.00  0.00    -0.268 OA
ATOM     13  N   UNL     1       1.494   7.452  -1.728  1.00  0.00    -0.345 N 
ATOM     14  C   UNL     1       2.642   5.623  -0.501  1.00  0.00     0.284 C 
ATOM     15  H   UNL     1       2.371   4.615  -2.284  1.00  0.00     0.349 HD
ATOM     16  C   UNL     1       2.745   6.997  -1.172  1.00  0.00     0.177 C 
ATOM     17  H   UNL     1       1.287   8.414  -1.711  1.00  0.00     0.163 HD
BRANCH  11  18
ATOM     18  C   UNL     1       2.171   3.256  -0.921  1.00  0.00     0.189 C 
ATOM     19  C   UNL     1       1.517   2.828   0.403  1.00  0.00     0.093 C 
ATOM     20  C   UNL     1       1.873   2.191  -2.000  1.00  0.00     0.101 C 
ATOM     21  C   UNL     1       1.953   1.434   0.797  1.00  0.00     0.167 C 
ATOM     22  C   UNL     1       2.196   0.752  -1.498  1.00  0.00     0.084 C 
ATOM     23  O   UNL     1       1.559   0.524  -0.226  1.00  0.00    -0.374 OA
ATOM     24  C   UNL     1       1.603  -0.318  -2.431  1.00  0.00     0.047 C 
ATOM     25  C   UNL     1       3.706   0.439  -1.399  1.00  0.00     0.105 C 
ATOM     26  C   UNL     1       2.541  -0.537  -3.598  1.00  0.00     0.072 C 
ATOM     27  S   UNL     1       4.190  -0.497  -2.878  1.00  0.00    -0.159 SA
ENDBRANCH  11  18
ENDBRANCH   8   9
ENDBRANCH   6   8
ENDBRANCH   3   4
ENDBRANCH   2   3
ENDBRANCH   1   2
BRANCH   1  28
ATOM     28  C   UNL     1       1.565   8.962   2.439  1.00  0.00     0.116 C 
BRANCH  28  29
ATOM     29  N   UNL     1       1.084  10.170   3.085  1.00  0.00    -0.352 N 
ATOM     30  C   UNL     1       1.782  11.194   3.678  1.00  0.00     0.251 C 
ATOM     31  H   UNL     1       0.105  10.271   3.100  1.00  0.00     0.163 HD
ATOM     32  O   UNL     1       1.170  12.054   4.304  1.00  0.00    -0.269 OA
BRANCH  30  33
ATOM     33  C   UNL     1       3.260  11.256   3.591  1.00  0.00     0.039 A 
ATOM     34  C   UNL     1       3.981  11.612   4.735  1.00  0.00     0.014 A 
ATOM     35  C   UNL     1       3.936  10.996   2.397  1.00  0.00     0.014 A 
ATOM     36  C   UNL     1       5.378  11.646   4.697  1.00  0.00     0.010 A 
ATOM     37  C   UNL     1       5.331  10.961   2.380  1.00  0.00     0.010 A 
ATOM     38  C   UNL     1       6.068  11.286   3.529  1.00  0.00    -0.014 A 
BRANCH  38  39
ATOM     39  C   UNL     1       7.554  11.223   3.502  1.00  0.00     0.031 A 
ATOM     40  C   UNL     1       8.345  12.115   2.583  1.00  0.00     0.074 A 
ATOM     41  C   UNL     1       8.194  10.301   4.250  1.00  0.00     0.049 A 
ATOM     42  N   UNL     1       9.637  12.153   2.381  1.00  0.00    -0.248 NA
ATOM     43  C   UNL     1       7.584  13.072   1.764  1.00  0.00     0.031 C 
ATOM     44  C   UNL     1       7.543   9.327   5.129  1.00  0.00     0.029 A 
ATOM     45  N   UNL     1       9.532  10.013   4.369  1.00  0.00    -0.354 N 
ATOM     46  C   UNL     1       9.843  13.110   1.395  1.00  0.00     0.074 A 
ATOM     47  C   UNL     1       8.537  13.605   1.012  1.00  0.00     0.031 C 
ATOM     48  C   UNL     1       8.480   8.550   5.694  1.00  0.00     0.029 A 
ATOM     49  C   UNL     1       9.794   8.944   5.195  1.00  0.00     0.049 A 
ATOM     50  H   UNL     1      10.236  10.522   3.908  1.00  0.00     0.167 HD
ATOM     51  C   UNL     1      11.010  13.560   0.873  1.00  0.00     0.034 A 
ATOM     52  C   UNL     1      10.957   8.338   5.507  1.00  0.00     0.034 A 
ATOM     53  C   UNL     1      12.310  13.093   1.277  1.00  0.00     0.049 A 
ATOM     54  C   UNL     1      12.241   8.872   4.936  1.00  0.00     0.074 A 
ATOM     55  C   UNL     1      13.552  13.543   0.864  1.00  0.00     0.029 A 
ATOM     56  N   UNL     1      12.539  12.065   2.178  1.00  0.00    -0.354 N 
ATOM     57  N   UNL     1      12.423   9.879   4.116  1.00  0.00    -0.248 NA
ATOM     58  C   UNL     1      13.484   8.211   5.360  1.00  0.00     0.031 C 
ATOM     59  C   UNL     1      14.531  12.767   1.493  1.00  0.00     0.029 A 
ATOM     60  C   UNL     1      13.900  11.857   2.326  1.00  0.00     0.049 A 
ATOM     61  H   UNL     1      11.837  11.556   2.645  1.00  0.00     0.167 HD
ATOM     62  C   UNL     1      13.799   9.995   3.955  1.00  0.00     0.074 A 
ATOM     63  C   UNL     1      14.404   8.969   4.779  1.00  0.00     0.031 C 
ATOM     64  C   UNL     1      14.497  10.866   3.184  1.00  0.00     0.034 A 
BRANCH  51  65
ATOM     65  C   UNL     1      10.939  14.650  -0.165  1.00  0.00     0.023 A 
ATOM     66  C   UNL     1      10.555  15.953   0.217  1.00  0.00     0.012 A 
ATOM     67  C   UNL     1      11.305  14.405  -1.503  1.00  0.00     0.148 A 
ATOM     68  C   UNL     1      10.499  16.983  -0.720  1.00  0.00     0.002 A 
ATOM     69  C   UNL     1      11.293  15.448  -2.422  1.00  0.00     0.091 A 
ATOM     70  F   UNL     1      11.649  13.158  -1.853  1.00  0.00    -0.205 F 
ATOM     71  C   UNL     1      10.878  16.733  -2.036  1.00  0.00     0.022 A 
BRANCH  69  72
ATOM     72  S   UNL     1      11.839  15.248  -4.122  1.00  0.00     0.127 S 
ATOM     73  O   UNL     1      10.576  15.352  -4.851  1.00  0.00    -0.237 OA
ATOM     74  O   UNL     1      12.738  16.391  -4.292  1.00  0.00    -0.237 OA
ATOM     75  O   UNL     1      12.491  13.948  -4.184  1.00  0.00    -0.744 OA
ENDBRANCH  69  72
ENDBRANCH  51  65
BRANCH  52  76
ATOM     76  C   UNL     1      10.960   7.181   6.447  1.00  0.00     0.023 A 
ATOM     77  C   UNL     1      11.514   7.330   7.733  1.00  0.00     0.012 A 
ATOM     78  C   UNL     1      10.392   5.945   6.082  1.00  0.00     0.148 A 
ATOM     79  C   UNL     1      11.532   6.259   8.627  1.00  0.00     0.002 A 
ATOM     80  C   UNL     1      10.359   4.901   6.999  1.00  0.00     0.091 A 
ATOM     81  F   UNL     1       9.879   5.821   4.850  1.00  0.00    -0.205 F 
ATOM     82  C   UNL     1      10.946   5.049   8.265  1.00  0.00     0.022 A 
BRANCH  80  83
ATOM     83  S   UNL     1       9.502   3.358   6.667  1.00  0.00     0.127 S 
ATOM     84  O   UNL     1      10.612   2.418   6.544  1.00  0.00    -0.237 OA
ATOM     85  O   UNL     1       8.688   3.200   7.873  1.00  0.00    -0.237 OA
ATOM     86  O   UNL     1       8.730   3.589   5.452  1.00  0.00    -0.744 OA
ENDBRANCH  80  83
ENDBRANCH  52  76
BRANCH  64  87
ATOM     87  C   UNL     1      16.001  10.782   3.218  1.00  0.00     0.023 A 
ATOM     88  C   UNL     1      16.662   9.699   2.605  1.00  0.00     0.012 A 
ATOM     89  C   UNL     1      16.763  11.816   3.798  1.00  0.00     0.148 A 
ATOM     90  C   UNL     1      18.055   9.629   2.599  1.00  0.00     0.002 A 
ATOM     91  C   UNL     1      18.151  11.766   3.742  1.00  0.00     0.091 A 
ATOM     92  F   UNL     1      16.117  12.830   4.393  1.00  0.00    -0.205 F 
ATOM     93  C   UNL     1      18.798  10.667   3.155  1.00  0.00     0.022 A 
BRANCH  91  94
ATOM     94  S   UNL     1      19.189  13.102   4.346  1.00  0.00     0.127 S 
ATOM     95  O   UNL     1      19.783  12.501   5.540  1.00  0.00    -0.237 OA
ATOM     96  O   UNL     1      20.120  13.297   3.234  1.00  0.00    -0.237 OA
ATOM     97  O   UNL     1      18.296  14.226   4.592  1.00  0.00    -0.744 OA
ENDBRANCH  91  94
ENDBRANCH  64  87
ENDBRANCH  38  39
ENDBRANCH  30  33
ENDBRANCH  28  29
ENDBRANCH   1  28
TORSDOF 16
