REMARK SMILES Cc1c(C(=O)NCCCCNC(=O)c2ccc(-c3c4nc(c(-c5cccc(S(=O)(=O)[O-])c5F)c5ccc([nH]5)c(-c5cccc(S(=O)(=O)[O-])c5F)c5nc(c(-c6cccc(S(=O)(=O)[O-])c6F)c6ccc3[nH]6)C=C5)C=C4)cc2)sc2ncnc(NCc3cn4c(n3)SCC4)c12
REMARK SMILES IDX 8 1 7 2 6 3 4 4 5 5 3 7 1 8 2 9 93 10 77 11 78 12 82 13
REMARK SMILES IDX 79 14 81 15 80 16 83 17 84 19 85 20 86 21 89 22 87 23 88 24
REMARK SMILES IDX 92 25 90 26 91 27 9 28 10 29 11 30 12 31 13 33 14 34 15 35
REMARK SMILES IDX 76 36 16 37 75 38 17 39 18 40 19 41 69 42 20 43 74 44 68 45
REMARK SMILES IDX 70 46 21 47 73 48 67 49 66 50 22 52 54 53 34 54 53 55 35 56
REMARK SMILES IDX 38 57 52 58 71 59 36 60 37 61 51 63 72 64 39 65 23 66 24 67
REMARK SMILES IDX 32 68 25 69 27 70 33 71 26 72 28 73 29 74 30 75 31 76 55 77
REMARK SMILES IDX 56 78 64 79 57 80 59 81 65 82 58 83 60 84 61 85 62 86 63 87
REMARK SMILES IDX 40 88 41 89 49 90 42 91 44 92 50 93 43 94 45 95 46 96 47 97
REMARK SMILES IDX 48 98
REMARK H PARENT 6 6 83 18 11 32 70 51 38 62
REMARK Flexibility Score: inf
ROOT
ATOM      1  C   UNL     1      -0.609  -0.125   6.351  1.00  0.00     0.023 C 
ENDROOT
BRANCH   1   2
ATOM      2  C   UNL     1      -1.667  -0.261   5.256  1.00  0.00     0.116 C 
BRANCH   2   3
ATOM      3  N   UNL     1      -1.404   0.640   4.159  1.00  0.00    -0.351 N 
ATOM      4  C   UNL     1      -0.713   0.541   2.980  1.00  0.00     0.261 C 
ATOM      5  O   UNL     1      -0.675   1.613   2.369  1.00  0.00    -0.268 OA
ATOM      6  H   UNL     1      -1.814   1.526   4.287  1.00  0.00     0.163 HD
BRANCH   4   7
ATOM      7  C   UNL     1      -0.099  -0.690   2.459  1.00  0.00     0.098 A 
ATOM      8  C   UNL     1       0.738   0.279   0.272  1.00  0.00     0.047 C 
ATOM      9  C   UNL     1       0.491  -0.871   1.196  1.00  0.00    -0.014 A 
ATOM     10  C   UNL     1       0.786  -2.289   0.903  1.00  0.00     0.057 A 
ATOM     11  S   UNL     1       0.064  -2.111   3.374  1.00  0.00    -0.110 S 
ATOM     12  C   UNL     1       0.583  -3.027   2.062  1.00  0.00     0.129 A 
ATOM     13  C   UNL     1       1.212  -3.074  -0.208  1.00  0.00     0.138 A 
ATOM     14  N   UNL     1       0.754  -4.344   2.257  1.00  0.00    -0.225 NA
ATOM     15  N   UNL     1       1.380  -4.413  -0.029  1.00  0.00    -0.219 NA
ATOM     16  C   UNL     1       1.152  -4.966   1.160  1.00  0.00     0.225 A 
BRANCH  13  17
ATOM     17  N   UNL     1       1.452  -2.761  -1.518  1.00  0.00    -0.364 N 
ATOM     18  H   UNL     1       1.431  -3.529  -2.133  1.00  0.00     0.162 HD
BRANCH  17  19
ATOM     19  C   UNL     1       1.729  -1.502  -2.144  1.00  0.00     0.172 C 
BRANCH  19  20
ATOM     20  C   UNL     1       3.079  -0.898  -1.895  1.00  0.00     0.079 A 
ATOM     21  C   UNL     1       3.595   0.276  -2.428  1.00  0.00     0.113 A 
ATOM     22  N   UNL     1       4.046  -1.578  -1.161  1.00  0.00    -0.226 NA
ATOM     23  N   UNL     1       4.909   0.226  -2.103  1.00  0.00    -0.325 N 
ATOM     24  C   UNL     1       5.124  -0.867  -1.318  1.00  0.00     0.168 A 
ATOM     25  C   UNL     1       6.073   0.760  -2.783  1.00  0.00     0.135 C 
ATOM     26  S   UNL     1       6.788  -1.332  -1.280  1.00  0.00    -0.086 SA
ATOM     27  C   UNL     1       7.053  -0.413  -2.849  1.00  0.00     0.100 C 
ENDBRANCH  19  20
ENDBRANCH  17  19
ENDBRANCH  13  17
ENDBRANCH   4   7
ENDBRANCH   2   3
ENDBRANCH   1   2
BRANCH   1  28
ATOM     28  C   UNL     1      -0.698   1.173   7.169  1.00  0.00     0.023 C 
BRANCH  28  29
ATOM     29  C   UNL     1      -2.030   1.384   7.881  1.00  0.00     0.116 C 
BRANCH  29  30
ATOM     30  N   UNL     1      -2.361   0.286   8.792  1.00  0.00    -0.352 N 
ATOM     31  C   UNL     1      -3.561   0.058   9.430  1.00  0.00     0.251 C 
ATOM     32  H   UNL     1      -1.643  -0.365   8.969  1.00  0.00     0.163 HD
ATOM     33  O   UNL     1      -3.621  -0.639  10.444  1.00  0.00    -0.269 OA
BRANCH  31  34
ATOM     34  C   UNL     1      -4.778   0.637   8.847  1.00  0.00     0.039 A 
ATOM     35  C   UNL     1      -5.729   1.306   9.617  1.00  0.00     0.014 A 
ATOM     36  C   UNL     1      -4.918   0.529   7.465  1.00  0.00     0.014 A 
ATOM     37  C   UNL     1      -6.787   1.929   8.962  1.00  0.00     0.010 A 
ATOM     38  C   UNL     1      -5.859   1.277   6.811  1.00  0.00     0.010 A 
ATOM     39  C   UNL     1      -6.833   1.922   7.556  1.00  0.00    -0.014 A 
BRANCH  39  40
ATOM     40  C   UNL     1      -7.833   2.691   6.832  1.00  0.00     0.031 A 
ATOM     41  C   UNL     1      -7.858   4.129   7.196  1.00  0.00     0.074 A 
ATOM     42  C   UNL     1      -8.549   2.192   5.801  1.00  0.00     0.049 A 
ATOM     43  N   UNL     1      -8.714   4.715   7.964  1.00  0.00    -0.248 NA
ATOM     44  C   UNL     1      -6.705   4.968   6.841  1.00  0.00     0.031 C 
ATOM     45  C   UNL     1      -8.413   0.891   5.130  1.00  0.00     0.029 A 
ATOM     46  N   UNL     1      -9.504   2.806   5.058  1.00  0.00    -0.354 N 
ATOM     47  C   UNL     1      -8.362   6.061   7.958  1.00  0.00     0.074 A 
ATOM     48  C   UNL     1      -7.011   6.107   7.468  1.00  0.00     0.031 C 
ATOM     49  C   UNL     1      -9.083   0.913   3.955  1.00  0.00     0.029 A 
ATOM     50  C   UNL     1      -9.843   2.144   3.881  1.00  0.00     0.049 A 
ATOM     51  H   UNL     1      -9.925   3.654   5.329  1.00  0.00     0.167 HD
ATOM     52  C   UNL     1      -9.319   7.023   8.087  1.00  0.00     0.034 A 
ATOM     53  C   UNL     1     -10.688   2.589   2.920  1.00  0.00     0.034 A 
ATOM     54  C   UNL     1     -10.559   6.446   8.562  1.00  0.00     0.049 A 
ATOM     55  C   UNL     1     -11.576   3.580   3.570  1.00  0.00     0.074 A 
ATOM     56  C   UNL     1     -10.944   5.733   9.680  1.00  0.00     0.029 A 
ATOM     57  N   UNL     1     -11.528   6.210   7.615  1.00  0.00    -0.354 N 
ATOM     58  N   UNL     1     -12.425   3.269   4.510  1.00  0.00    -0.248 NA
ATOM     59  C   UNL     1     -11.194   4.979   3.501  1.00  0.00     0.031 C 
ATOM     60  C   UNL     1     -11.849   4.743   9.191  1.00  0.00     0.029 A 
ATOM     61  C   UNL     1     -12.030   4.954   7.822  1.00  0.00     0.049 A 
ATOM     62  H   UNL     1     -11.812   6.837   6.911  1.00  0.00     0.167 HD
ATOM     63  C   UNL     1     -12.313   4.306   5.427  1.00  0.00     0.074 A 
ATOM     64  C   UNL     1     -11.626   5.376   4.701  1.00  0.00     0.031 C 
ATOM     65  C   UNL     1     -12.519   4.096   6.761  1.00  0.00     0.034 A 
BRANCH  52  66
ATOM     66  C   UNL     1      -9.301   8.381   7.407  1.00  0.00     0.023 A 
ATOM     67  C   UNL     1     -10.402   9.232   7.667  1.00  0.00     0.012 A 
ATOM     68  C   UNL     1      -8.448   8.761   6.345  1.00  0.00     0.148 A 
ATOM     69  C   UNL     1     -10.694  10.334   6.857  1.00  0.00     0.002 A 
ATOM     70  C   UNL     1      -8.703   9.899   5.585  1.00  0.00     0.091 A 
ATOM     71  F   UNL     1      -7.440   7.975   5.971  1.00  0.00    -0.205 F 
ATOM     72  C   UNL     1      -9.845  10.667   5.812  1.00  0.00     0.022 A 
BRANCH  70  73
ATOM     73  S   UNL     1      -7.612  10.408   4.248  1.00  0.00     0.127 S 
ATOM     74  O   UNL     1      -8.433  10.118   3.076  1.00  0.00    -0.237 OA
ATOM     75  O   UNL     1      -7.429  11.830   4.541  1.00  0.00    -0.237 OA
ATOM     76  O   UNL     1      -6.403   9.608   4.395  1.00  0.00    -0.744 OA
ENDBRANCH  70  73
ENDBRANCH  52  66
BRANCH  53  77
ATOM     77  C   UNL     1     -10.625   2.448   1.446  1.00  0.00     0.023 A 
ATOM     78  C   UNL     1     -11.784   2.671   0.673  1.00  0.00     0.012 A 
ATOM     79  C   UNL     1      -9.378   2.417   0.784  1.00  0.00     0.148 A 
ATOM     80  C   UNL     1     -11.700   2.899  -0.707  1.00  0.00     0.002 A 
ATOM     81  C   UNL     1      -9.299   2.652  -0.587  1.00  0.00     0.091 A 
ATOM     82  F   UNL     1      -8.268   2.248   1.515  1.00  0.00    -0.205 F 
ATOM     83  C   UNL     1     -10.457   2.906  -1.333  1.00  0.00     0.022 A 
BRANCH  81  84
ATOM     84  S   UNL     1      -7.731   2.736  -1.465  1.00  0.00     0.127 S 
ATOM     85  O   UNL     1      -7.942   1.774  -2.548  1.00  0.00    -0.237 OA
ATOM     86  O   UNL     1      -7.696   4.134  -1.889  1.00  0.00    -0.237 OA
ATOM     87  O   UNL     1      -6.712   2.346  -0.501  1.00  0.00    -0.744 OA
ENDBRANCH  81  84
ENDBRANCH  53  77
BRANCH  65  88
ATOM     88  C   UNL     1     -13.082   2.760   7.196  1.00  0.00     0.023 A 
ATOM     89  C   UNL     1     -12.376   1.549   7.028  1.00  0.00     0.012 A 
ATOM     90  C   UNL     1     -14.253   2.753   7.972  1.00  0.00     0.148 A 
ATOM     91  C   UNL     1     -12.830   0.361   7.613  1.00  0.00     0.002 A 
ATOM     92  C   UNL     1     -14.675   1.582   8.593  1.00  0.00     0.091 A 
ATOM     93  F   UNL     1     -14.914   3.910   8.127  1.00  0.00    -0.205 F 
ATOM     94  C   UNL     1     -13.971   0.382   8.409  1.00  0.00     0.022 A 
BRANCH  92  95
ATOM     95  S   UNL     1     -16.053   1.568   9.742  1.00  0.00     0.127 S 
ATOM     96  O   UNL     1     -17.064   0.821   8.998  1.00  0.00    -0.237 OA
ATOM     97  O   UNL     1     -15.492   0.859  10.893  1.00  0.00    -0.237 OA
ATOM     98  O   UNL     1     -16.376   2.966  10.003  1.00  0.00    -0.744 OA
ENDBRANCH  92  95
ENDBRANCH  65  88
ENDBRANCH  39  40
ENDBRANCH  31  34
ENDBRANCH  29  30
ENDBRANCH  28  29
ENDBRANCH   1  28
TORSDOF 17
