REMARK SMILES Cn1c(C(=O)NCCCCNC(=O)c2ccc(-c3c4nc(c(-c5cccc(S(=O)(=O)[O-])c5F)c5ccc([nH]5)c(-c5cccc(S(=O)(=O)[O-])c5F)c5nc(c(-c6cccc(S(=O)(=O)[O-])c6F)c6ccc3[nH]6)C=C5)C=C4)cc2)cc2cc(OCc3ccccc3)ccc21
REMARK SMILES IDX 8 1 7 2 6 3 4 4 5 5 3 7 1 8 2 9 91 10 77 11 78 12 90 13
REMARK SMILES IDX 79 14 89 15 80 16 81 17 82 18 83 19 84 20 88 21 85 22 87 23
REMARK SMILES IDX 86 24 9 25 10 26 11 27 12 28 13 30 14 31 15 32 76 33 16 34
REMARK SMILES IDX 75 35 17 36 18 37 19 38 69 39 20 40 74 41 68 42 70 43 21 44
REMARK SMILES IDX 73 45 67 46 66 47 22 49 54 50 34 51 53 52 35 53 38 54 52 55
REMARK SMILES IDX 71 56 36 57 37 58 51 60 72 61 39 62 23 63 24 64 32 65 25 66
REMARK SMILES IDX 27 67 33 68 26 69 28 70 29 71 30 72 31 73 55 74 56 75 64 76
REMARK SMILES IDX 57 77 59 78 65 79 58 80 60 81 61 82 62 83 63 84 40 85 41 86
REMARK SMILES IDX 49 87 42 88 44 89 50 90 43 91 45 92 46 93 47 94 48 95
REMARK H PARENT 6 6 11 29 70 48 38 59
REMARK Flexibility Score: inf
ROOT
ATOM      1  C   UNL     1       5.197   1.323   2.023  1.00  0.00     0.023 C 
ENDROOT
BRANCH   1   2
ATOM      2  C   UNL     1       4.191   0.970   0.934  1.00  0.00     0.116 C 
BRANCH   2   3
ATOM      3  N   UNL     1       4.280  -0.378   0.419  1.00  0.00    -0.351 N 
ATOM      4  C   UNL     1       3.302  -1.192  -0.110  1.00  0.00     0.267 C 
ATOM      5  O   UNL     1       3.643  -2.324  -0.444  1.00  0.00    -0.268 OA
ATOM      6  H   UNL     1       5.180  -0.776   0.451  1.00  0.00     0.163 HD
BRANCH   4   7
ATOM      7  C   UNL     1       1.920  -0.750  -0.198  1.00  0.00     0.107 A 
ATOM      8  C   UNL     1       2.100   1.547  -1.253  1.00  0.00     0.150 C 
ATOM      9  N   UNL     1       1.405   0.474  -0.575  1.00  0.00    -0.340 N 
ATOM     10  C   UNL     1       0.041   0.515  -0.359  1.00  0.00     0.049 A 
ATOM     11  C   UNL     1       0.808  -1.570  -0.016  1.00  0.00     0.042 A 
ATOM     12  C   UNL     1      -0.372  -0.784  -0.087  1.00  0.00     0.004 A 
ATOM     13  C   UNL     1      -0.859   1.582  -0.438  1.00  0.00     0.031 A 
ATOM     14  C   UNL     1      -1.752  -1.042   0.062  1.00  0.00     0.056 A 
ATOM     15  C   UNL     1      -2.217   1.304  -0.278  1.00  0.00     0.048 A 
ATOM     16  C   UNL     1      -2.675   0.012  -0.033  1.00  0.00     0.120 A 
BRANCH  16  17
ATOM     17  O   UNL     1      -3.987  -0.345   0.149  1.00  0.00    -0.489 OA
BRANCH  17  18
ATOM     18  C   UNL     1      -4.992   0.675   0.061  1.00  0.00     0.265 C 
BRANCH  18  19
ATOM     19  C   UNL     1      -5.036   1.562   1.288  1.00  0.00    -0.011 A 
ATOM     20  C   UNL     1      -5.119   0.996   2.567  1.00  0.00     0.007 A 
ATOM     21  C   UNL     1      -4.955   2.958   1.168  1.00  0.00     0.007 A 
ATOM     22  C   UNL     1      -5.073   1.805   3.702  1.00  0.00     0.000 A 
ATOM     23  C   UNL     1      -4.889   3.764   2.305  1.00  0.00     0.000 A 
ATOM     24  C   UNL     1      -4.944   3.187   3.571  1.00  0.00     0.000 A 
ENDBRANCH  18  19
ENDBRANCH  17  18
ENDBRANCH  16  17
ENDBRANCH   4   7
ENDBRANCH   2   3
ENDBRANCH   1   2
BRANCH   1  25
ATOM     25  C   UNL     1       6.675   1.244   1.640  1.00  0.00     0.023 C 
BRANCH  25  26
ATOM     26  C   UNL     1       7.078   1.876   0.310  1.00  0.00     0.116 C 
BRANCH  26  27
ATOM     27  N   UNL     1       6.796   3.303   0.218  1.00  0.00    -0.352 N 
ATOM     28  C   UNL     1       7.651   4.369   0.034  1.00  0.00     0.251 C 
ATOM     29  H   UNL     1       5.845   3.544   0.299  1.00  0.00     0.163 HD
ATOM     30  O   UNL     1       7.208   5.512   0.049  1.00  0.00    -0.269 OA
BRANCH  28  31
ATOM     31  C   UNL     1       9.104   4.140  -0.137  1.00  0.00     0.039 A 
ATOM     32  C   UNL     1      10.000   4.891   0.630  1.00  0.00     0.014 A 
ATOM     33  C   UNL     1       9.584   3.168  -1.016  1.00  0.00     0.014 A 
ATOM     34  C   UNL     1      11.366   4.590   0.594  1.00  0.00     0.010 A 
ATOM     35  C   UNL     1      10.929   2.811  -0.982  1.00  0.00     0.010 A 
ATOM     36  C   UNL     1      11.836   3.509  -0.169  1.00  0.00    -0.014 A 
BRANCH  36  37
ATOM     37  C   UNL     1      13.257   3.070  -0.110  1.00  0.00     0.031 A 
ATOM     38  C   UNL     1      14.103   3.055  -1.356  1.00  0.00     0.074 A 
ATOM     39  C   UNL     1      13.757   2.578   1.044  1.00  0.00     0.049 A 
ATOM     40  N   UNL     1      15.327   2.624  -1.517  1.00  0.00    -0.248 NA
ATOM     41  C   UNL     1      13.482   3.561  -2.592  1.00  0.00     0.031 C 
ATOM     42  C   UNL     1      13.018   2.451   2.303  1.00  0.00     0.029 A 
ATOM     43  N   UNL     1      14.996   2.062   1.339  1.00  0.00    -0.354 N 
ATOM     44  C   UNL     1      15.606   2.762  -2.871  1.00  0.00     0.074 A 
ATOM     45  C   UNL     1      14.412   3.290  -3.495  1.00  0.00     0.031 C 
ATOM     46  C   UNL     1      13.817   1.902   3.232  1.00  0.00     0.029 A 
ATOM     47  C   UNL     1      15.114   1.606   2.632  1.00  0.00     0.049 A 
ATOM     48  H   UNL     1      15.731   2.023   0.685  1.00  0.00     0.167 HD
ATOM     49  C   UNL     1      16.759   2.505  -3.533  1.00  0.00     0.034 A 
ATOM     50  C   UNL     1      16.145   1.009   3.263  1.00  0.00     0.034 A 
ATOM     51  C   UNL     1      17.964   2.040  -2.903  1.00  0.00     0.049 A 
ATOM     52  C   UNL     1      17.433   0.789   2.515  1.00  0.00     0.074 A 
ATOM     53  C   UNL     1      19.212   1.851  -3.470  1.00  0.00     0.029 A 
ATOM     54  N   UNL     1      18.074   1.688  -1.568  1.00  0.00    -0.354 N 
ATOM     55  N   UNL     1      17.728   1.089   1.274  1.00  0.00    -0.248 NA
ATOM     56  C   UNL     1      18.543   0.181   3.265  1.00  0.00     0.031 C 
ATOM     57  C   UNL     1      20.073   1.365  -2.481  1.00  0.00     0.029 A 
ATOM     58  C   UNL     1      19.367   1.276  -1.293  1.00  0.00     0.049 A 
ATOM     59  H   UNL     1      17.342   1.725  -0.911  1.00  0.00     0.167 HD
ATOM     60  C   UNL     1      19.064   0.746   1.106  1.00  0.00     0.074 A 
ATOM     61  C   UNL     1      19.528   0.234   2.379  1.00  0.00     0.031 C 
ATOM     62  C   UNL     1      19.834   0.831  -0.006  1.00  0.00     0.034 A 
BRANCH  49  63
ATOM     63  C   UNL     1      16.798   2.782  -5.014  1.00  0.00     0.023 A 
ATOM     64  C   UNL     1      16.812   4.115  -5.470  1.00  0.00     0.012 A 
ATOM     65  C   UNL     1      16.898   1.731  -5.946  1.00  0.00     0.148 A 
ATOM     66  C   UNL     1      16.895   4.400  -6.832  1.00  0.00     0.002 A 
ATOM     67  C   UNL     1      17.026   2.023  -7.299  1.00  0.00     0.091 A 
ATOM     68  F   UNL     1      16.864   0.469  -5.494  1.00  0.00    -0.205 F 
ATOM     69  C   UNL     1      17.014   3.355  -7.744  1.00  0.00     0.022 A 
BRANCH  67  70
ATOM     70  S   UNL     1      17.266   0.754  -8.549  1.00  0.00     0.127 S 
ATOM     71  O   UNL     1      15.997   0.812  -9.274  1.00  0.00    -0.237 OA
ATOM     72  O   UNL     1      18.416   1.269  -9.292  1.00  0.00    -0.237 OA
ATOM     73  O   UNL     1      17.514  -0.484  -7.824  1.00  0.00    -0.744 OA
ENDBRANCH  67  70
ENDBRANCH  49  63
BRANCH  50  74
ATOM     74  C   UNL     1      16.032   0.638   4.704  1.00  0.00     0.023 A 
ATOM     75  C   UNL     1      16.787   1.348   5.659  1.00  0.00     0.012 A 
ATOM     76  C   UNL     1      15.185  -0.401   5.135  1.00  0.00     0.148 A 
ATOM     77  C   UNL     1      16.731   1.004   7.011  1.00  0.00     0.002 A 
ATOM     78  C   UNL     1      15.091  -0.701   6.489  1.00  0.00     0.091 A 
ATOM     79  F   UNL     1      14.485  -1.075   4.212  1.00  0.00    -0.205 F 
ATOM     80  C   UNL     1      15.877  -0.013   7.427  1.00  0.00     0.022 A 
BRANCH  78  81
ATOM     81  S   UNL     1      13.921  -1.906   7.126  1.00  0.00     0.127 S 
ATOM     82  O   UNL     1      14.796  -3.025   7.464  1.00  0.00    -0.237 OA
ATOM     83  O   UNL     1      13.351  -1.199   8.274  1.00  0.00    -0.237 OA
ATOM     84  O   UNL     1      12.976  -2.140   6.042  1.00  0.00    -0.744 OA
ENDBRANCH  78  81
ENDBRANCH  50  74
BRANCH  62  85
ATOM     85  C   UNL     1      21.275   0.407   0.103  1.00  0.00     0.023 A 
ATOM     86  C   UNL     1      21.599  -0.960   0.209  1.00  0.00     0.012 A 
ATOM     87  C   UNL     1      22.311   1.359   0.018  1.00  0.00     0.148 A 
ATOM     88  C   UNL     1      22.931  -1.370   0.260  1.00  0.00     0.002 A 
ATOM     89  C   UNL     1      23.635   0.939   0.019  1.00  0.00     0.091 A 
ATOM     90  F   UNL     1      21.982   2.657  -0.064  1.00  0.00    -0.205 F 
ATOM     91  C   UNL     1      23.947  -0.423   0.152  1.00  0.00     0.022 A 
BRANCH  89  92
ATOM     92  S   UNL     1      25.005   2.077  -0.214  1.00  0.00     0.127 S 
ATOM     93  O   UNL     1      25.574   2.138   1.131  1.00  0.00    -0.237 OA
ATOM     94  O   UNL     1      25.832   1.373  -1.195  1.00  0.00    -0.237 OA
ATOM     95  O   UNL     1      24.417   3.318  -0.702  1.00  0.00    -0.744 OA
ENDBRANCH  89  92
ENDBRANCH  62  85
ENDBRANCH  36  37
ENDBRANCH  28  31
ENDBRANCH  26  27
ENDBRANCH  25  26
ENDBRANCH   1  25
TORSDOF 17
