REMARK SMILES CN(C)C(=O)CSc1ccc(C(=O)NCCCCNC(=O)c2ccc(-c3c4nc(c(-c5cccc(S(=O)(=O)[O-])c5F)c5ccc([nH]5)c(-c5cccc(S(=O)(=O)[O-])c5F)c5nc(c(-c6cccc(S(=O)(=O)[O-])c6F)c6ccc3[nH]6)C=C5)C=C4)cc2)cc1
REMARK SMILES IDX 16 1 15 2 14 3 12 4 13 5 11 7 8 8 9 9 86 10 10 11 85 12 7 13
REMARK SMILES IDX 6 14 4 15 1 16 2 17 3 18 5 19 17 20 18 21 19 22 20 23 21 25
REMARK SMILES IDX 22 26 23 27 84 28 24 29 83 30 25 31 26 32 27 33 77 34 28 35
REMARK SMILES IDX 82 36 76 37 78 38 29 39 81 40 75 41 74 42 30 44 62 45 42 46
REMARK SMILES IDX 61 47 43 48 46 49 60 50 79 51 44 52 45 53 59 55 80 56 47 57
REMARK SMILES IDX 31 58 32 59 40 60 33 61 35 62 41 63 34 64 36 65 37 66 38 67
REMARK SMILES IDX 39 68 63 69 64 70 72 71 65 72 67 73 73 74 66 75 68 76 69 77
REMARK SMILES IDX 70 78 71 79 48 80 49 81 57 82 50 83 52 84 58 85 51 86 53 87
REMARK SMILES IDX 54 88 55 89 56 90
REMARK H PARENT 14 6 19 24 78 43 46 54
REMARK Flexibility Score: inf
ROOT
ATOM      1  C   UNL     1       7.345   6.931   3.968  1.00  0.00     0.023 C 
ENDROOT
BRANCH   1   2
ATOM      2  C   UNL     1       7.311   6.048   2.719  1.00  0.00     0.116 C 
BRANCH   2   3
ATOM      3  N   UNL     1       7.680   4.686   3.046  1.00  0.00    -0.352 N 
ATOM      4  C   UNL     1       6.931   3.572   3.320  1.00  0.00     0.251 C 
ATOM      5  O   UNL     1       7.530   2.517   3.531  1.00  0.00    -0.269 OA
ATOM      6  H   UNL     1       8.652   4.532   3.077  1.00  0.00     0.163 HD
BRANCH   4   7
ATOM      7  C   UNL     1       5.440   3.558   3.316  1.00  0.00     0.039 A 
ATOM      8  C   UNL     1       2.611   3.326   3.182  1.00  0.00     0.008 A 
ATOM      9  C   UNL     1       3.429   2.225   2.942  1.00  0.00     0.016 A 
ATOM     10  C   UNL     1       3.227   4.534   3.535  1.00  0.00     0.016 A 
ATOM     11  C   UNL     1       4.824   2.340   3.006  1.00  0.00     0.015 A 
ATOM     12  C   UNL     1       4.621   4.643   3.627  1.00  0.00     0.015 A 
BRANCH   8  13
ATOM     13  S   UNL     1       0.840   3.378   2.980  1.00  0.00    -0.116 SA
BRANCH  13  14
ATOM     14  C   UNL     1       0.251   1.678   3.282  1.00  0.00     0.175 C 
BRANCH  14  15
ATOM     15  C   UNL     1       0.658   0.649   2.240  1.00  0.00     0.232 C 
ATOM     16  C   UNL     1       0.980  -0.067  -0.050  1.00  0.00     0.146 C 
ATOM     17  N   UNL     1       0.349   0.833   0.900  1.00  0.00    -0.348 N 
ATOM     18  C   UNL     1      -0.442   1.922   0.353  1.00  0.00     0.146 C 
ATOM     19  O   UNL     1       1.243  -0.376   2.614  1.00  0.00    -0.274 OA
ENDBRANCH  14  15
ENDBRANCH  13  14
ENDBRANCH   8  13
ENDBRANCH   4   7
ENDBRANCH   2   3
ENDBRANCH   1   2
BRANCH   1  20
ATOM     20  C   UNL     1       8.751   7.334   4.419  1.00  0.00     0.023 C 
BRANCH  20  21
ATOM     21  C   UNL     1       9.528   8.189   3.424  1.00  0.00     0.116 C 
BRANCH  21  22
ATOM     22  N   UNL     1       8.836   9.416   3.060  1.00  0.00    -0.352 N 
ATOM     23  C   UNL     1       9.379  10.631   2.711  1.00  0.00     0.251 C 
ATOM     24  H   UNL     1       7.853   9.372   3.065  1.00  0.00     0.163 HD
ATOM     25  O   UNL     1       8.657  11.602   2.532  1.00  0.00    -0.269 OA
BRANCH  23  26
ATOM     26  C   UNL     1      10.848  10.755   2.595  1.00  0.00     0.039 A 
ATOM     27  C   UNL     1      11.490  11.794   3.272  1.00  0.00     0.014 A 
ATOM     28  C   UNL     1      11.585   9.828   1.854  1.00  0.00     0.014 A 
ATOM     29  C   UNL     1      12.884  11.865   3.259  1.00  0.00     0.010 A 
ATOM     30  C   UNL     1      12.975   9.864   1.896  1.00  0.00     0.010 A 
ATOM     31  C   UNL     1      13.638  10.882   2.598  1.00  0.00    -0.014 A 
BRANCH  31  32
ATOM     32  C   UNL     1      15.121  10.887   2.643  1.00  0.00     0.031 A 
ATOM     33  C   UNL     1      15.915  11.077   1.380  1.00  0.00     0.074 A 
ATOM     34  C   UNL     1      15.750  10.623   3.806  1.00  0.00     0.049 A 
ATOM     35  N   UNL     1      17.212  11.053   1.212  1.00  0.00    -0.248 NA
ATOM     36  C   UNL     1      15.153  11.292   0.139  1.00  0.00     0.031 C 
ATOM     37  C   UNL     1      15.087  10.336   5.080  1.00  0.00     0.029 A 
ATOM     38  N   UNL     1      17.087  10.524   4.098  1.00  0.00    -0.354 N 
ATOM     39  C   UNL     1      17.420  11.211  -0.152  1.00  0.00     0.074 A 
ATOM     40  C   UNL     1      16.116  11.299  -0.772  1.00  0.00     0.031 C 
ATOM     41  C   UNL     1      16.019  10.096   6.016  1.00  0.00     0.029 A 
ATOM     42  C   UNL     1      17.342  10.189   5.408  1.00  0.00     0.049 A 
ATOM     43  H   UNL     1      17.797  10.679   3.434  1.00  0.00     0.167 HD
ATOM     44  C   UNL     1      18.591  11.305  -0.826  1.00  0.00     0.034 A 
ATOM     45  C   UNL     1      18.511   9.980   6.045  1.00  0.00     0.034 A 
ATOM     46  C   UNL     1      19.884  11.274  -0.198  1.00  0.00     0.049 A 
ATOM     47  C   UNL     1      19.798  10.151   5.284  1.00  0.00     0.074 A 
ATOM     48  C   UNL     1      21.126  11.465  -0.777  1.00  0.00     0.029 A 
ATOM     49  N   UNL     1      20.103  11.035   1.149  1.00  0.00    -0.354 N 
ATOM     50  N   UNL     1      19.975  10.475   4.026  1.00  0.00    -0.248 NA
ATOM     51  C   UNL     1      21.046   9.966   6.038  1.00  0.00     0.031 C 
ATOM     52  C   UNL     1      22.098  11.328   0.219  1.00  0.00     0.029 A 
ATOM     53  C   UNL     1      21.460  11.067   1.421  1.00  0.00     0.049 A 
ATOM     54  H   UNL     1      19.398  10.867   1.815  1.00  0.00     0.167 HD
ATOM     55  C   UNL     1      21.350  10.568   3.847  1.00  0.00     0.074 A 
ATOM     56  C   UNL     1      21.959  10.286   5.131  1.00  0.00     0.031 C 
ATOM     57  C   UNL     1      22.047  10.845   2.717  1.00  0.00     0.034 A 
BRANCH  44  58
ATOM     58  C   UNL     1      18.527  11.519  -2.315  1.00  0.00     0.023 A 
ATOM     59  C   UNL     1      18.119  12.773  -2.816  1.00  0.00     0.012 A 
ATOM     60  C   UNL     1      18.923  10.511  -3.214  1.00  0.00     0.148 A 
ATOM     61  C   UNL     1      18.075  13.009  -4.189  1.00  0.00     0.002 A 
ATOM     62  C   UNL     1      18.916  10.768  -4.581  1.00  0.00     0.091 A 
ATOM     63  F   UNL     1      19.285   9.318  -2.720  1.00  0.00    -0.205 F 
ATOM     64  C   UNL     1      18.484  12.012  -5.070  1.00  0.00     0.022 A 
BRANCH  62  65
ATOM     65  S   UNL     1      19.495   9.575  -5.793  1.00  0.00     0.127 S 
ATOM     66  O   UNL     1      18.239   9.143  -6.405  1.00  0.00    -0.237 OA
ATOM     67  O   UNL     1      20.343  10.397  -6.657  1.00  0.00    -0.237 OA
ATOM     68  O   UNL     1      20.209   8.553  -5.040  1.00  0.00    -0.744 OA
ENDBRANCH  62  65
ENDBRANCH  44  58
BRANCH  45  69
ATOM     69  C   UNL     1      18.519   9.670   7.503  1.00  0.00     0.023 A 
ATOM     70  C   UNL     1      18.978  10.646   8.409  1.00  0.00     0.012 A 
ATOM     71  C   UNL     1      18.052   8.438   7.999  1.00  0.00     0.148 A 
ATOM     72  C   UNL     1      19.001  10.390   9.780  1.00  0.00     0.002 A 
ATOM     73  C   UNL     1      18.029   8.209   9.370  1.00  0.00     0.091 A 
ATOM     74  F   UNL     1      17.633   7.516   7.120  1.00  0.00    -0.205 F 
ATOM     75  C   UNL     1      18.518   9.176  10.262  1.00  0.00     0.022 A 
BRANCH  73  76
ATOM     76  S   UNL     1      17.303   6.728  10.083  1.00  0.00     0.127 S 
ATOM     77  O   UNL     1      18.489   5.981  10.493  1.00  0.00    -0.237 OA
ATOM     78  O   UNL     1      16.509   7.276  11.183  1.00  0.00    -0.237 OA
ATOM     79  O   UNL     1      16.511   6.131   9.016  1.00  0.00    -0.744 OA
ENDBRANCH  73  76
ENDBRANCH  45  69
BRANCH  57  80
ATOM     80  C   UNL     1      23.549  10.891   2.816  1.00  0.00     0.023 A 
ATOM     81  C   UNL     1      24.277   9.692   2.944  1.00  0.00     0.012 A 
ATOM     82  C   UNL     1      24.241  12.113   2.700  1.00  0.00     0.148 A 
ATOM     83  C   UNL     1      25.670   9.710   2.982  1.00  0.00     0.002 A 
ATOM     84  C   UNL     1      25.631  12.119   2.693  1.00  0.00     0.091 A 
ATOM     85  F   UNL     1      23.529  13.245   2.600  1.00  0.00    -0.205 F 
ATOM     86  C   UNL     1      26.347  10.921   2.844  1.00  0.00     0.022 A 
BRANCH  84  87
ATOM     87  S   UNL     1      26.582  13.620   2.425  1.00  0.00     0.127 S 
ATOM     88  O   UNL     1      27.070  13.908   3.772  1.00  0.00    -0.237 OA
ATOM     89  O   UNL     1      27.611  13.174   1.485  1.00  0.00    -0.237 OA
ATOM     90  O   UNL     1      25.646  14.591   1.875  1.00  0.00    -0.744 OA
ENDBRANCH  84  87
ENDBRANCH  57  80
ENDBRANCH  31  32
ENDBRANCH  23  26
ENDBRANCH  21  22
ENDBRANCH  20  21
ENDBRANCH   1  20
TORSDOF 17
