REMARK SMILES CC1=C(C(=O)NCCCCNC(=O)c2ccc(-c3c4nc(c(-c5cccc(S(=O)(=O)[O-])c5F)c5ccc([nH]5)c(-c5cccc(S(=O)(=O)[O-])c5F)c5nc(c(-c6cccc(S(=O)(=O)[O-])c6F)c6ccc3[nH]6)C=C5)C=C4)cc2)N2C(=O)[C@H](NC(=O)c3c(Cl)c(C(F)(F)F)nn3C)[C@@H]2SC1
REMARK SMILES IDX 8 1 7 2 6 3 4 4 5 5 3 7 1 8 2 9 97 10 77 11 96 12 78 13
REMARK SMILES IDX 95 14 79 15 80 16 81 17 82 18 83 20 84 21 85 22 93 23 86 24
REMARK SMILES IDX 87 25 92 26 94 27 88 28 89 29 90 30 91 31 9 32 10 33 11 34
REMARK SMILES IDX 12 35 13 37 14 38 15 39 76 40 16 41 75 42 17 43 18 44 19 45
REMARK SMILES IDX 69 46 20 47 74 48 68 49 70 50 21 51 73 52 67 53 66 54 22 56
REMARK SMILES IDX 54 57 34 58 53 59 35 60 38 61 52 62 71 63 36 64 37 65 51 67
REMARK SMILES IDX 72 68 39 69 23 70 24 71 32 72 25 73 27 74 33 75 26 76 28 77
REMARK SMILES IDX 29 78 30 79 31 80 55 81 56 82 64 83 57 84 59 85 65 86 58 87
REMARK SMILES IDX 60 88 61 89 62 90 63 91 40 92 41 93 49 94 42 95 44 96 50 97
REMARK SMILES IDX 43 98 45 99 46 100 47 101 48 102
REMARK H PARENT 6 6 81 19 11 36 70 55 38 66
REMARK Flexibility Score: inf
ROOT
ATOM      1  C   UNL     1      -1.206  -2.362   0.329  1.00  0.00     0.023 C 
ENDROOT
BRANCH   1   2
ATOM      2  C   UNL     1      -0.269  -1.253  -0.142  1.00  0.00     0.116 C 
BRANCH   2   3
ATOM      3  N   UNL     1      -0.189  -1.040  -1.578  1.00  0.00    -0.351 N 
ATOM      4  C   UNL     1       0.280   0.048  -2.283  1.00  0.00     0.268 C 
ATOM      5  O   UNL     1       0.513  -0.077  -3.480  1.00  0.00    -0.268 OA
ATOM      6  H   UNL     1      -0.519  -1.785  -2.130  1.00  0.00     0.163 HD
BRANCH   4   7
ATOM      7  C   UNL     1       0.426   1.381  -1.582  1.00  0.00     0.110 C 
ATOM      8  C   UNL     1       2.288   0.539  -0.089  1.00  0.00     0.043 C 
ATOM      9  C   UNL     1       1.242   1.542  -0.511  1.00  0.00    -0.034 C 
ATOM     10  C   UNL     1       1.279   2.798   0.323  1.00  0.00     0.104 C 
ATOM     11  N   UNL     1      -0.201   2.470  -2.132  1.00  0.00    -0.290 N 
ATOM     12  S   UNL     1       1.141   4.292  -0.672  1.00  0.00    -0.129 SA
ATOM     13  C   UNL     1      -0.546   2.866  -3.379  1.00  0.00     0.253 C 
ATOM     14  C   UNL     1      -0.388   3.751  -1.491  1.00  0.00     0.181 C 
ATOM     15  O   UNL     1      -0.611   2.326  -4.464  1.00  0.00    -0.272 OA
ATOM     16  C   UNL     1      -0.643   4.356  -2.912  1.00  0.00     0.206 C 
BRANCH  16  17
ATOM     17  N   UNL     1       0.423   5.264  -3.429  1.00  0.00    -0.336 N 
ATOM     18  C   UNL     1       0.394   6.600  -3.736  1.00  0.00     0.271 C 
ATOM     19  H   UNL     1       1.294   4.830  -3.575  1.00  0.00     0.164 HD
ATOM     20  O   UNL     1       1.443   7.139  -4.080  1.00  0.00    -0.267 OA
BRANCH  18  21
ATOM     21  C   UNL     1      -0.849   7.314  -3.672  1.00  0.00     0.145 A 
ATOM     22  C   UNL     1      -1.448   8.055  -4.674  1.00  0.00     0.104 A 
ATOM     23  N   UNL     1      -1.622   7.545  -2.566  1.00  0.00    -0.261 N 
ATOM     24  Cl  UNL     1      -0.900   8.286  -6.266  1.00  0.00    -0.079 Cl
ATOM     25  C   UNL     1      -2.634   8.592  -4.119  1.00  0.00     0.185 A 
ATOM     26  N   UNL     1      -2.748   8.238  -2.821  1.00  0.00    -0.166 NA
ATOM     27  C   UNL     1      -1.340   7.200  -1.191  1.00  0.00     0.174 C 
BRANCH  25  28
ATOM     28  C   UNL     1      -3.634   9.457  -4.828  1.00  0.00     0.436 C 
ATOM     29  F   UNL     1      -3.124  10.687  -5.114  1.00  0.00    -0.164 F 
ATOM     30  F   UNL     1      -4.034   8.919  -6.011  1.00  0.00    -0.164 F 
ATOM     31  F   UNL     1      -4.767   9.672  -4.105  1.00  0.00    -0.164 F 
ENDBRANCH  25  28
ENDBRANCH  18  21
ENDBRANCH  16  17
ENDBRANCH   4   7
ENDBRANCH   2   3
ENDBRANCH   1   2
BRANCH   1  32
ATOM     32  C   UNL     1      -0.988  -3.753  -0.267  1.00  0.00     0.023 C 
BRANCH  32  33
ATOM     33  C   UNL     1       0.453  -4.247  -0.373  1.00  0.00     0.116 C 
BRANCH  33  34
ATOM     34  N   UNL     1       1.115  -4.437   0.912  1.00  0.00    -0.352 N 
ATOM     35  C   UNL     1       1.607  -5.588   1.492  1.00  0.00     0.251 C 
ATOM     36  H   UNL     1       1.228  -3.619   1.448  1.00  0.00     0.163 HD
ATOM     37  O   UNL     1       2.078  -5.548   2.625  1.00  0.00    -0.269 OA
BRANCH  35  38
ATOM     38  C   UNL     1       1.526  -6.877   0.770  1.00  0.00     0.039 A 
ATOM     39  C   UNL     1       0.973  -7.986   1.419  1.00  0.00     0.014 A 
ATOM     40  C   UNL     1       1.951  -6.983  -0.555  1.00  0.00     0.014 A 
ATOM     41  C   UNL     1       0.737  -9.165   0.703  1.00  0.00     0.010 A 
ATOM     42  C   UNL     1       1.641  -8.126  -1.286  1.00  0.00     0.010 A 
ATOM     43  C   UNL     1       1.014  -9.223  -0.671  1.00  0.00    -0.014 A 
BRANCH  43  44
ATOM     44  C   UNL     1       0.639 -10.391  -1.515  1.00  0.00     0.031 A 
ATOM     45  C   UNL     1       1.704 -11.137  -2.271  1.00  0.00     0.074 A 
ATOM     46  C   UNL     1      -0.662 -10.679  -1.723  1.00  0.00     0.049 A 
ATOM     47  N   UNL     1       1.575 -12.027  -3.219  1.00  0.00    -0.248 NA
ATOM     48  C   UNL     1       3.101 -10.807  -1.942  1.00  0.00     0.031 C 
ATOM     49  C   UNL     1      -1.796  -9.992  -1.100  1.00  0.00     0.029 A 
ATOM     50  N   UNL     1      -1.254 -11.598  -2.558  1.00  0.00    -0.354 N 
ATOM     51  C   UNL     1       2.866 -12.318  -3.644  1.00  0.00     0.074 A 
ATOM     52  C   UNL     1       3.764 -11.497  -2.860  1.00  0.00     0.031 C 
ATOM     53  C   UNL     1      -2.941 -10.502  -1.581  1.00  0.00     0.029 A 
ATOM     54  C   UNL     1      -2.629 -11.521  -2.578  1.00  0.00     0.049 A 
ATOM     55  H   UNL     1      -0.743 -12.248  -3.092  1.00  0.00     0.167 HD
ATOM     56  C   UNL     1       3.271 -13.202  -4.585  1.00  0.00     0.034 A 
ATOM     57  C   UNL     1      -3.535 -12.179  -3.328  1.00  0.00     0.034 A 
ATOM     58  C   UNL     1       2.381 -14.066  -5.312  1.00  0.00     0.049 A 
ATOM     59  C   UNL     1      -3.058 -13.200  -4.327  1.00  0.00     0.074 A 
ATOM     60  C   UNL     1       2.700 -15.059  -6.221  1.00  0.00     0.029 A 
ATOM     61  N   UNL     1       1.000 -14.046  -5.208  1.00  0.00    -0.354 N 
ATOM     62  N   UNL     1      -1.831 -13.555  -4.619  1.00  0.00    -0.248 NA
ATOM     63  C   UNL     1      -4.088 -13.933  -5.080  1.00  0.00     0.031 C 
ATOM     64  C   UNL     1       1.509 -15.637  -6.671  1.00  0.00     0.029 A 
ATOM     65  C   UNL     1       0.451 -15.013  -6.031  1.00  0.00     0.049 A 
ATOM     66  H   UNL     1       0.485 -13.434  -4.634  1.00  0.00     0.167 HD
ATOM     67  C   UNL     1      -1.941 -14.581  -5.551  1.00  0.00     0.074 A 
ATOM     68  C   UNL     1      -3.356 -14.797  -5.771  1.00  0.00     0.031 C 
ATOM     69  C   UNL     1      -0.958 -15.273  -6.176  1.00  0.00     0.034 A 
BRANCH  56  70
ATOM     70  C   UNL     1       4.749 -13.326  -4.842  1.00  0.00     0.023 A 
ATOM     71  C   UNL     1       5.568 -13.955  -3.883  1.00  0.00     0.012 A 
ATOM     72  C   UNL     1       5.318 -12.877  -6.050  1.00  0.00     0.148 A 
ATOM     73  C   UNL     1       6.936 -14.104  -4.104  1.00  0.00     0.002 A 
ATOM     74  C   UNL     1       6.675 -13.068  -6.282  1.00  0.00     0.091 A 
ATOM     75  F   UNL     1       4.528 -12.262  -6.941  1.00  0.00    -0.205 F 
ATOM     76  C   UNL     1       7.487 -13.670  -5.307  1.00  0.00     0.022 A 
BRANCH  74  77
ATOM     77  S   UNL     1       7.462 -12.616  -7.833  1.00  0.00     0.127 S 
ATOM     78  O   UNL     1       8.205 -11.417  -7.448  1.00  0.00    -0.237 OA
ATOM     79  O   UNL     1       8.296 -13.786  -8.110  1.00  0.00    -0.237 OA
ATOM     80  O   UNL     1       6.379 -12.407  -8.783  1.00  0.00    -0.744 OA
ENDBRANCH  74  77
ENDBRANCH  56  70
BRANCH  57  81
ATOM     81  C   UNL     1      -4.992 -11.943  -3.115  1.00  0.00     0.023 A 
ATOM     82  C   UNL     1      -5.768 -12.951  -2.509  1.00  0.00     0.012 A 
ATOM     83  C   UNL     1      -5.608 -10.728  -3.475  1.00  0.00     0.148 A 
ATOM     84  C   UNL     1      -7.133 -12.767  -2.291  1.00  0.00     0.002 A 
ATOM     85  C   UNL     1      -6.959 -10.530  -3.206  1.00  0.00     0.091 A 
ATOM     86  F   UNL     1      -4.859  -9.785  -4.063  1.00  0.00    -0.205 F 
ATOM     87  C   UNL     1      -7.726 -11.554  -2.629  1.00  0.00     0.022 A 
BRANCH  85  88
ATOM     88  S   UNL     1      -7.774  -8.953  -3.485  1.00  0.00     0.127 S 
ATOM     89  O   UNL     1      -8.587  -9.240  -4.663  1.00  0.00    -0.237 OA
ATOM     90  O   UNL     1      -8.528  -8.776  -2.243  1.00  0.00    -0.237 OA
ATOM     91  O   UNL     1      -6.699  -7.987  -3.672  1.00  0.00    -0.744 OA
ENDBRANCH  85  88
ENDBRANCH  57  81
BRANCH  69  92
ATOM     92  C   UNL     1      -1.355 -16.378  -7.117  1.00  0.00     0.023 A 
ATOM     93  C   UNL     1      -1.835 -16.066  -8.402  1.00  0.00     0.012 A 
ATOM     94  C   UNL     1      -1.130 -17.725  -6.766  1.00  0.00     0.148 A 
ATOM     95  C   UNL     1      -2.098 -17.080  -9.323  1.00  0.00     0.002 A 
ATOM     96  C   UNL     1      -1.353 -18.726  -7.702  1.00  0.00     0.091 A 
ATOM     97  F   UNL     1      -0.689 -17.997  -5.529  1.00  0.00    -0.205 F 
ATOM     98  C   UNL     1      -1.844 -18.406  -8.979  1.00  0.00     0.022 A 
BRANCH  96  99
ATOM     99  S   UNL     1      -0.961 -20.450  -7.382  1.00  0.00     0.127 S 
ATOM    100  O   UNL     1      -2.294 -21.046  -7.293  1.00  0.00    -0.237 OA
ATOM    101  O   UNL     1      -0.205 -20.823  -8.578  1.00  0.00    -0.237 OA
ATOM    102  O   UNL     1      -0.188 -20.466  -6.148  1.00  0.00    -0.744 OA
ENDBRANCH  96  99
ENDBRANCH  69  92
ENDBRANCH  43  44
ENDBRANCH  35  38
ENDBRANCH  33  34
ENDBRANCH  32  33
ENDBRANCH   1  32
TORSDOF 17
