REMARK SMILES Cc1cccc(CN(C)c2nc(C)c(C(=O)NCCCCNC(=O)c3ccc(-c4c5nc(c(-c6cccc(S(=O)(=O)[O-])c6F)c6ccc([nH]6)c(-c6cccc(S(=O)(=O)[O-])c6F)c6nc(c(-c7cccc(S(=O)(=O)[O-])c7F)c7ccc4[nH]7)C=C6)C=C5)cc3)s2)n1
REMARK SMILES IDX 19 1 18 2 17 3 15 4 16 5 14 7 10 8 11 9 88 10 12 11 13 12
REMARK SMILES IDX 8 13 9 14 7 15 6 16 1 17 2 18 3 19 89 20 4 21 5 22 20 23
REMARK SMILES IDX 21 24 22 25 23 26 24 28 25 29 26 30 87 31 27 32 86 33 28 34
REMARK SMILES IDX 29 35 30 36 80 37 31 38 85 39 79 40 81 41 32 42 84 43 78 44
REMARK SMILES IDX 77 45 33 47 65 48 45 49 64 50 46 51 49 52 63 53 82 54 47 55
REMARK SMILES IDX 48 56 62 58 83 59 50 60 34 61 35 62 43 63 36 64 38 65 44 66
REMARK SMILES IDX 37 67 39 68 40 69 41 70 42 71 66 72 67 73 75 74 68 75 70 76
REMARK SMILES IDX 76 77 69 78 71 79 72 80 73 81 74 82 51 83 52 84 60 85 53 86
REMARK SMILES IDX 55 87 61 88 54 89 56 90 57 91 58 92 59 93
REMARK H PARENT 17 6 22 27 81 46 49 57
REMARK Flexibility Score: inf
ROOT
ATOM      1  C   UNL     1      -3.433   2.113   8.008  1.00  0.00     0.023 C 
ENDROOT
BRANCH   1   2
ATOM      2  C   UNL     1      -1.972   1.826   7.658  1.00  0.00     0.116 C 
BRANCH   2   3
ATOM      3  N   UNL     1      -1.903   0.705   6.761  1.00  0.00    -0.351 N 
ATOM      4  C   UNL     1      -1.907   0.595   5.397  1.00  0.00     0.263 C 
ATOM      5  O   UNL     1      -1.952  -0.582   5.016  1.00  0.00    -0.268 OA
ATOM      6  H   UNL     1      -1.841  -0.163   7.223  1.00  0.00     0.163 HD
BRANCH   4   7
ATOM      7  C   UNL     1      -1.812   1.714   4.463  1.00  0.00     0.117 A 
ATOM      8  C   UNL     1      -1.354   2.850   2.300  1.00  0.00     0.186 A 
ATOM      9  N   UNL     1      -1.727   3.707   3.219  1.00  0.00    -0.225 NA
ATOM     10  S   UNL     1      -1.274   1.246   2.882  1.00  0.00    -0.091 S 
ATOM     11  C   UNL     1      -2.068   3.082   4.418  1.00  0.00     0.063 A 
ATOM     12  C   UNL     1      -2.686   4.012   5.394  1.00  0.00     0.068 C 
BRANCH   8  13
ATOM     13  N   UNL     1      -1.029   3.220   1.030  1.00  0.00    -0.345 N 
ATOM     14  C   UNL     1      -0.570   4.580   0.828  1.00  0.00     0.146 C 
BRANCH  13  15
ATOM     15  C   UNL     1      -1.513   2.475  -0.137  1.00  0.00     0.174 C 
BRANCH  15  16
ATOM     16  C   UNL     1      -0.879   1.104  -0.300  1.00  0.00     0.060 A 
ATOM     17  C   UNL     1       2.546  -0.215  -0.163  1.00  0.00     0.067 C 
ATOM     18  C   UNL     1       1.053  -0.189  -0.275  1.00  0.00     0.038 A 
ATOM     19  C   UNL     1       0.311  -1.365  -0.248  1.00  0.00     0.023 A 
ATOM     20  N   UNL     1       0.478   1.035  -0.331  1.00  0.00    -0.256 NA
ATOM     21  C   UNL     1      -1.076  -1.284  -0.290  1.00  0.00     0.004 A 
ATOM     22  C   UNL     1      -1.684  -0.035  -0.318  1.00  0.00     0.026 A 
ENDBRANCH  15  16
ENDBRANCH  13  15
ENDBRANCH   8  13
ENDBRANCH   4   7
ENDBRANCH   2   3
ENDBRANCH   1   2
BRANCH   1  23
ATOM     23  C   UNL     1      -3.962   1.332   9.210  1.00  0.00     0.023 C 
BRANCH  23  24
ATOM     24  C   UNL     1      -3.305   1.694  10.535  1.00  0.00     0.116 C 
BRANCH  24  25
ATOM     25  N   UNL     1      -3.365   3.117  10.845  1.00  0.00    -0.352 N 
ATOM     26  C   UNL     1      -3.353   3.716  12.083  1.00  0.00     0.251 C 
ATOM     27  H   UNL     1      -3.421   3.724  10.072  1.00  0.00     0.163 HD
ATOM     28  O   UNL     1      -3.490   4.926  12.191  1.00  0.00    -0.269 OA
BRANCH  26  29
ATOM     29  C   UNL     1      -3.223   2.858  13.277  1.00  0.00     0.039 A 
ATOM     30  C   UNL     1      -4.181   2.964  14.286  1.00  0.00     0.014 A 
ATOM     31  C   UNL     1      -2.209   1.900  13.350  1.00  0.00     0.014 A 
ATOM     32  C   UNL     1      -4.164   2.053  15.342  1.00  0.00     0.010 A 
ATOM     33  C   UNL     1      -2.242   0.947  14.359  1.00  0.00     0.010 A 
ATOM     34  C   UNL     1      -3.217   1.016  15.365  1.00  0.00    -0.014 A 
BRANCH  34  35
ATOM     35  C   UNL     1      -3.237  -0.019  16.427  1.00  0.00     0.031 A 
ATOM     36  C   UNL     1      -2.070  -0.156  17.364  1.00  0.00     0.074 A 
ATOM     37  C   UNL     1      -4.258  -0.897  16.479  1.00  0.00     0.049 A 
ATOM     38  N   UNL     1      -1.879  -1.028  18.318  1.00  0.00    -0.248 NA
ATOM     39  C   UNL     1      -0.954   0.789  17.183  1.00  0.00     0.031 C 
ATOM     40  C   UNL     1      -5.397  -0.927  15.558  1.00  0.00     0.029 A 
ATOM     41  N   UNL     1      -4.490  -1.950  17.326  1.00  0.00    -0.354 N 
ATOM     42  C   UNL     1      -0.612  -0.766  18.822  1.00  0.00     0.074 A 
ATOM     43  C   UNL     1      -0.062   0.323  18.045  1.00  0.00     0.031 C 
ATOM     44  C   UNL     1      -6.208  -1.943  15.895  1.00  0.00     0.029 A 
ATOM     45  C   UNL     1      -5.641  -2.647  17.040  1.00  0.00     0.049 A 
ATOM     46  H   UNL     1      -3.889  -2.186  18.070  1.00  0.00     0.167 HD
ATOM     47  C   UNL     1       0.023  -1.352  19.864  1.00  0.00     0.034 A 
ATOM     48  C   UNL     1      -6.179  -3.728  17.639  1.00  0.00     0.034 A 
ATOM     49  C   UNL     1      -0.556  -2.388  20.674  1.00  0.00     0.049 A 
ATOM     50  C   UNL     1      -5.492  -4.308  18.845  1.00  0.00     0.074 A 
ATOM     51  C   UNL     1      -0.043  -2.975  21.816  1.00  0.00     0.029 A 
ATOM     52  N   UNL     1      -1.779  -2.993  20.426  1.00  0.00    -0.354 N 
ATOM     53  N   UNL     1      -4.377  -3.927  19.421  1.00  0.00    -0.248 NA
ATOM     54  C   UNL     1      -6.156  -5.438  19.510  1.00  0.00     0.031 C 
ATOM     55  C   UNL     1      -0.954  -3.941  22.256  1.00  0.00     0.029 A 
ATOM     56  C   UNL     1      -2.039  -3.947  21.393  1.00  0.00     0.049 A 
ATOM     57  H   UNL     1      -2.374  -2.774  19.673  1.00  0.00     0.167 HD
ATOM     58  C   UNL     1      -4.224  -4.746  20.534  1.00  0.00     0.074 A 
ATOM     59  C   UNL     1      -5.372  -5.630  20.563  1.00  0.00     0.031 C 
ATOM     60  C   UNL     1      -3.216  -4.775  21.441  1.00  0.00     0.034 A 
BRANCH  47  61
ATOM     61  C   UNL     1       1.387  -0.832  20.231  1.00  0.00     0.023 A 
ATOM     62  C   UNL     1       1.502   0.436  20.838  1.00  0.00     0.012 A 
ATOM     63  C   UNL     1       2.544  -1.606  20.021  1.00  0.00     0.148 A 
ATOM     64  C   UNL     1       2.751   0.940  21.199  1.00  0.00     0.002 A 
ATOM     65  C   UNL     1       3.781  -1.114  20.422  1.00  0.00     0.091 A 
ATOM     66  F   UNL     1       2.418  -2.797  19.418  1.00  0.00    -0.205 F 
ATOM     67  C   UNL     1       3.887   0.162  21.001  1.00  0.00     0.022 A 
BRANCH  65  68
ATOM     68  S   UNL     1       5.293  -2.072  20.278  1.00  0.00     0.127 S 
ATOM     69  O   UNL     1       5.956  -1.411  19.155  1.00  0.00    -0.237 OA
ATOM     70  O   UNL     1       5.928  -1.847  21.577  1.00  0.00    -0.237 OA
ATOM     71  O   UNL     1       4.873  -3.446  20.040  1.00  0.00    -0.744 OA
ENDBRANCH  65  68
ENDBRANCH  47  61
BRANCH  48  72
ATOM     72  C   UNL     1      -7.483  -4.268  17.161  1.00  0.00     0.023 A 
ATOM     73  C   UNL     1      -8.634  -4.079  17.950  1.00  0.00     0.012 A 
ATOM     74  C   UNL     1      -7.600  -4.927  15.923  1.00  0.00     0.148 A 
ATOM     75  C   UNL     1      -9.874  -4.562  17.529  1.00  0.00     0.002 A 
ATOM     76  C   UNL     1      -8.847  -5.360  15.485  1.00  0.00     0.091 A 
ATOM     77  F   UNL     1      -6.491  -5.108  15.192  1.00  0.00    -0.205 F 
ATOM     78  C   UNL     1      -9.982  -5.193  16.293  1.00  0.00     0.022 A 
BRANCH  76  79
ATOM     79  S   UNL     1      -9.098  -6.064  13.851  1.00  0.00     0.127 S 
ATOM     80  O   UNL     1      -9.282  -7.479  14.159  1.00  0.00    -0.237 OA
ATOM     81  O   UNL     1     -10.306  -5.368  13.402  1.00  0.00    -0.237 OA
ATOM     82  O   UNL     1      -7.900  -5.726  13.094  1.00  0.00    -0.744 OA
ENDBRANCH  76  79
ENDBRANCH  48  72
BRANCH  60  83
ATOM     83  C   UNL     1      -3.315  -5.772  22.563  1.00  0.00     0.023 A 
ATOM     84  C   UNL     1      -3.079  -7.137  22.305  1.00  0.00     0.012 A 
ATOM     85  C   UNL     1      -3.553  -5.347  23.885  1.00  0.00     0.148 A 
ATOM     86  C   UNL     1      -3.104  -8.068  23.342  1.00  0.00     0.002 A 
ATOM     87  C   UNL     1      -3.531  -6.274  24.920  1.00  0.00     0.091 A 
ATOM     88  F   UNL     1      -3.795  -4.047  24.106  1.00  0.00    -0.205 F 
ATOM     89  C   UNL     1      -3.317  -7.636  24.650  1.00  0.00     0.022 A 
BRANCH  87  90
ATOM     90  S   UNL     1      -3.700  -5.791  26.642  1.00  0.00     0.127 S 
ATOM     91  O   UNL     1      -5.073  -6.199  26.933  1.00  0.00    -0.237 OA
ATOM     92  O   UNL     1      -2.671  -6.599  27.297  1.00  0.00    -0.237 OA
ATOM     93  O   UNL     1      -3.450  -4.356  26.678  1.00  0.00    -0.744 OA
ENDBRANCH  87  90
ENDBRANCH  60  83
ENDBRANCH  34  35
ENDBRANCH  26  29
ENDBRANCH  24  25
ENDBRANCH  23  24
ENDBRANCH   1  23
TORSDOF 17
