REMARK SMILES C[C@H](Sc1ccnc(C(=O)NCCCCNC(=O)c2ccc(-c3c4nc(c(-c5cccc(S(=O)(=O)[O-])c5F)c5ccc([nH]5)c(-c5cccc(S(=O)(=O)[O-])c5F)c5nc(c(-c6cccc(S(=O)(=O)[O-])c6F)c6ccc3[nH]6)C=C5)C=C4)cc2)c1)[C@@H](C)O
REMARK SMILES IDX 13 1 12 2 11 3 9 4 10 5 8 7 4 8 5 9 82 10 6 11 7 12 3 13
REMARK SMILES IDX 2 14 1 15 83 16 84 17 85 18 14 20 15 21 16 22 17 23 18 25
REMARK SMILES IDX 19 26 20 27 81 28 21 29 80 30 22 31 23 32 24 33 74 34 25 35
REMARK SMILES IDX 79 36 73 37 75 38 26 39 78 40 72 41 71 42 27 44 59 45 39 46
REMARK SMILES IDX 58 47 40 48 43 49 57 50 76 51 41 52 42 53 56 55 77 56 44 57
REMARK SMILES IDX 28 58 29 59 37 60 30 61 32 62 38 63 31 64 33 65 34 66 35 67
REMARK SMILES IDX 36 68 60 69 61 70 69 71 62 72 64 73 70 74 63 75 65 76 66 77
REMARK SMILES IDX 67 78 68 79 45 80 46 81 54 82 47 83 49 84 55 85 48 86 50 87
REMARK SMILES IDX 51 88 52 89 53 90
REMARK H PARENT 11 6 85 19 16 24 75 43 43 54
REMARK Flexibility Score: inf
ROOT
ATOM      1  C   UNL     1       3.466   4.595  -0.827  1.00  0.00     0.023 C 
ENDROOT
BRANCH   1   2
ATOM      2  C   UNL     1       3.188   4.130  -2.259  1.00  0.00     0.116 C 
BRANCH   2   3
ATOM      3  N   UNL     1       4.370   3.543  -2.857  1.00  0.00    -0.351 N 
ATOM      4  C   UNL     1       4.846   2.253  -2.938  1.00  0.00     0.269 C 
ATOM      5  O   UNL     1       5.889   2.102  -3.579  1.00  0.00    -0.268 OA
ATOM      6  H   UNL     1       4.955   4.203  -3.295  1.00  0.00     0.163 HD
BRANCH   4   7
ATOM      7  C   UNL     1       4.174   1.046  -2.326  1.00  0.00     0.129 A 
ATOM      8  C   UNL     1       2.628  -0.094  -0.858  1.00  0.00     0.011 A 
ATOM      9  C   UNL     1       3.110  -1.303  -1.340  1.00  0.00     0.035 A 
ATOM     10  C   UNL     1       3.211   1.091  -1.330  1.00  0.00     0.049 A 
ATOM     11  C   UNL     1       4.097  -1.275  -2.308  1.00  0.00     0.113 A 
ATOM     12  N   UNL     1       4.615  -0.143  -2.817  1.00  0.00    -0.251 NA
BRANCH   8  13
ATOM     13  S   UNL     1       1.304   0.124   0.327  1.00  0.00    -0.120 SA
BRANCH  13  14
ATOM     14  C   UNL     1       0.562  -1.544   0.569  1.00  0.00     0.077 C 
ATOM     15  C   UNL     1       1.052  -2.056   1.925  1.00  0.00     0.022 C 
BRANCH  14  16
ATOM     16  C   UNL     1      -0.985  -1.486   0.511  1.00  0.00     0.124 C 
ATOM     17  C   UNL     1      -1.529  -1.100  -0.864  1.00  0.00     0.039 C 
BRANCH  16  18
ATOM     18  O   UNL     1      -1.530  -2.772   0.842  1.00  0.00    -0.392 OA
ATOM     19  H   UNL     1      -1.242  -3.424   0.183  1.00  0.00     0.210 HD
ENDBRANCH  16  18
ENDBRANCH  14  16
ENDBRANCH  13  14
ENDBRANCH   8  13
ENDBRANCH   4   7
ENDBRANCH   2   3
ENDBRANCH   1   2
BRANCH   1  20
ATOM     20  C   UNL     1       4.087   5.992  -0.722  1.00  0.00     0.023 C 
BRANCH  20  21
ATOM     21  C   UNL     1       3.218   7.131  -1.250  1.00  0.00     0.116 C 
BRANCH  21  22
ATOM     22  N   UNL     1       1.903   7.196  -0.630  1.00  0.00    -0.352 N 
ATOM     23  C   UNL     1       1.092   8.296  -0.469  1.00  0.00     0.251 C 
ATOM     24  H   UNL     1       1.548   6.346  -0.283  1.00  0.00     0.163 HD
ATOM     25  O   UNL     1       0.042   8.204   0.156  1.00  0.00    -0.269 OA
BRANCH  23  26
ATOM     26  C   UNL     1       1.527   9.598  -1.016  1.00  0.00     0.039 A 
ATOM     27  C   UNL     1       1.544  10.710  -0.172  1.00  0.00     0.014 A 
ATOM     28  C   UNL     1       1.959   9.707  -2.340  1.00  0.00     0.014 A 
ATOM     29  C   UNL     1       2.064  11.920  -0.635  1.00  0.00     0.010 A 
ATOM     30  C   UNL     1       2.535  10.895  -2.780  1.00  0.00     0.010 A 
ATOM     31  C   UNL     1       2.598  12.011  -1.931  1.00  0.00    -0.014 A 
BRANCH  31  32
ATOM     32  C   UNL     1       3.252  13.254  -2.411  1.00  0.00     0.031 A 
ATOM     33  C   UNL     1       2.667  14.021  -3.564  1.00  0.00     0.074 A 
ATOM     34  C   UNL     1       4.429  13.632  -1.873  1.00  0.00     0.049 A 
ATOM     35  N   UNL     1       3.133  15.085  -4.165  1.00  0.00    -0.248 NA
ATOM     36  C   UNL     1       1.410  13.511  -4.136  1.00  0.00     0.031 C 
ATOM     37  C   UNL     1       5.143  12.919  -0.811  1.00  0.00     0.029 A 
ATOM     38  N   UNL     1       5.249  14.693  -2.168  1.00  0.00    -0.354 N 
ATOM     39  C   UNL     1       2.249  15.351  -5.204  1.00  0.00     0.074 A 
ATOM     40  C   UNL     1       1.236  14.319  -5.172  1.00  0.00     0.031 C 
ATOM     41  C   UNL     1       6.292  13.562  -0.544  1.00  0.00     0.029 A 
ATOM     42  C   UNL     1       6.409  14.717  -1.428  1.00  0.00     0.049 A 
ATOM     43  H   UNL     1       5.029  15.372  -2.846  1.00  0.00     0.167 HD
ATOM     44  C   UNL     1       2.261  16.380  -6.084  1.00  0.00     0.034 A 
ATOM     45  C   UNL     1       7.449  15.574  -1.459  1.00  0.00     0.034 A 
ATOM     46  C   UNL     1       3.237  17.436  -6.076  1.00  0.00     0.049 A 
ATOM     47  C   UNL     1       7.403  16.743  -2.405  1.00  0.00     0.074 A 
ATOM     48  C   UNL     1       3.282  18.572  -6.865  1.00  0.00     0.029 A 
ATOM     49  N   UNL     1       4.339  17.487  -5.237  1.00  0.00    -0.354 N 
ATOM     50  N   UNL     1       6.470  17.072  -3.265  1.00  0.00    -0.248 NA
ATOM     51  C   UNL     1       8.534  17.682  -2.358  1.00  0.00     0.031 C 
ATOM     52  C   UNL     1       4.416  19.308  -6.506  1.00  0.00     0.029 A 
ATOM     53  C   UNL     1       5.071  18.635  -5.487  1.00  0.00     0.049 A 
ATOM     54  H   UNL     1       4.567  16.808  -4.562  1.00  0.00     0.167 HD
ATOM     55  C   UNL     1       6.883  18.270  -3.836  1.00  0.00     0.074 A 
ATOM     56  C   UNL     1       8.139  18.622  -3.207  1.00  0.00     0.031 C 
ATOM     57  C   UNL     1       6.286  19.003  -4.808  1.00  0.00     0.034 A 
BRANCH  44  58
ATOM     58  C   UNL     1       1.139  16.457  -7.084  1.00  0.00     0.023 A 
ATOM     59  C   UNL     1      -0.146  16.839  -6.648  1.00  0.00     0.012 A 
ATOM     60  C   UNL     1       1.361  16.216  -8.454  1.00  0.00     0.148 A 
ATOM     61  C   UNL     1      -1.200  16.953  -7.553  1.00  0.00     0.002 A 
ATOM     62  C   UNL     1       0.315  16.370  -9.357  1.00  0.00     0.091 A 
ATOM     63  F   UNL     1       2.584  15.832  -8.847  1.00  0.00    -0.205 F 
ATOM     64  C   UNL     1      -0.967  16.729  -8.907  1.00  0.00     0.022 A 
BRANCH  62  65
ATOM     65  S   UNL     1       0.527  16.174 -11.130  1.00  0.00     0.127 S 
ATOM     66  O   UNL     1      -0.167  14.910 -11.372  1.00  0.00    -0.237 OA
ATOM     67  O   UNL     1      -0.158  17.356 -11.655  1.00  0.00    -0.237 OA
ATOM     68  O   UNL     1       1.965  16.154 -11.361  1.00  0.00    -0.744 OA
ENDBRANCH  62  65
ENDBRANCH  44  58
BRANCH  45  69
ATOM     69  C   UNL     1       8.582  15.405  -0.506  1.00  0.00     0.023 A 
ATOM     70  C   UNL     1       8.731  16.323   0.552  1.00  0.00     0.012 A 
ATOM     71  C   UNL     1       9.492  14.338  -0.622  1.00  0.00     0.148 A 
ATOM     72  C   UNL     1       9.785  16.199   1.459  1.00  0.00     0.002 A 
ATOM     73  C   UNL     1      10.509  14.191   0.315  1.00  0.00     0.091 A 
ATOM     74  F   UNL     1       9.346  13.483  -1.645  1.00  0.00    -0.205 F 
ATOM     75  C   UNL     1      10.667  15.129   1.347  1.00  0.00     0.022 A 
BRANCH  73  76
ATOM     76  S   UNL     1      11.605  12.767   0.317  1.00  0.00     0.127 S 
ATOM     77  O   UNL     1      12.821  13.323  -0.268  1.00  0.00    -0.237 OA
ATOM     78  O   UNL     1      11.697  12.450   1.744  1.00  0.00    -0.237 OA
ATOM     79  O   UNL     1      10.919  11.753  -0.473  1.00  0.00    -0.744 OA
ENDBRANCH  73  76
ENDBRANCH  45  69
BRANCH  57  80
ATOM     80  C   UNL     1       6.964  20.276  -5.238  1.00  0.00     0.023 A 
ATOM     81  C   UNL     1       8.119  20.211  -6.041  1.00  0.00     0.012 A 
ATOM     82  C   UNL     1       6.412  21.532  -4.917  1.00  0.00     0.148 A 
ATOM     83  C   UNL     1       8.731  21.378  -6.496  1.00  0.00     0.002 A 
ATOM     84  C   UNL     1       7.002  22.689  -5.411  1.00  0.00     0.091 A 
ATOM     85  F   UNL     1       5.324  21.573  -4.134  1.00  0.00    -0.205 F 
ATOM     86  C   UNL     1       8.166  22.615  -6.193  1.00  0.00     0.022 A 
BRANCH  84  87
ATOM     87  S   UNL     1       6.288  24.317  -5.146  1.00  0.00     0.127 S 
ATOM     88  O   UNL     1       7.166  24.862  -4.112  1.00  0.00    -0.237 OA
ATOM     89  O   UNL     1       6.434  24.942  -6.461  1.00  0.00    -0.237 OA
ATOM     90  O   UNL     1       4.908  24.084  -4.741  1.00  0.00    -0.744 OA
ENDBRANCH  84  87
ENDBRANCH  57  80
ENDBRANCH  31  32
ENDBRANCH  23  26
ENDBRANCH  21  22
ENDBRANCH  20  21
ENDBRANCH   1  20
TORSDOF 18
