REMARK SMILES Cc1ccc(S(=O)(=O)Nc2cc(C(=O)NCCCCNC(=O)c3ccc(-c4c5nc(c(-c6cccc(S(=O)(=O)[O-])c6F)c6ccc([nH]6)c(-c6cccc(S(=O)(=O)[O-])c6F)c6nc(c(-c7cccc(S(=O)(=O)[O-])c7F)c7ccc4[nH]7)C=C6)C=C5)cc3)ccc2C)c(Br)c1
REMARK SMILES IDX 17 1 16 2 15 3 13 4 14 5 12 7 10 8 11 9 88 10 87 11 89 12
REMARK SMILES IDX 86 13 9 14 6 16 7 17 8 18 5 19 1 20 2 21 3 22 92 23 4 24
REMARK SMILES IDX 90 25 91 26 18 27 19 28 20 29 21 30 22 32 23 33 24 34 85 35
REMARK SMILES IDX 25 36 84 37 26 38 27 39 28 40 78 41 29 42 83 43 77 44 79 45
REMARK SMILES IDX 30 46 82 47 76 48 75 49 31 51 63 52 43 53 62 54 44 55 47 56
REMARK SMILES IDX 61 57 80 58 45 59 46 60 60 62 81 63 48 64 32 65 33 66 41 67
REMARK SMILES IDX 34 68 36 69 42 70 35 71 37 72 38 73 39 74 40 75 64 76 65 77
REMARK SMILES IDX 73 78 66 79 68 80 74 81 67 82 69 83 70 84 71 85 72 86 49 87
REMARK SMILES IDX 50 88 58 89 51 90 53 91 59 92 52 93 54 94 55 95 56 96 57 97
REMARK H PARENT 15 6 9 15 20 31 79 50 47 61
REMARK Flexibility Score: inf
ROOT
ATOM      1  C   UNL     1      -2.016   2.421   4.296  1.00  0.00     0.023 C 
ENDROOT
BRANCH   1   2
ATOM      2  C   UNL     1      -2.652   1.772   3.062  1.00  0.00     0.116 C 
BRANCH   2   3
ATOM      3  N   UNL     1      -4.018   2.234   2.856  1.00  0.00    -0.352 N 
ATOM      4  C   UNL     1      -4.589   3.253   2.138  1.00  0.00     0.251 C 
ATOM      5  O   UNL     1      -5.816   3.363   2.191  1.00  0.00    -0.269 OA
ATOM      6  H   UNL     1      -4.680   1.692   3.342  1.00  0.00     0.163 HD
BRANCH   4   7
ATOM      7  C   UNL     1      -3.839   4.177   1.240  1.00  0.00     0.041 A 
ATOM      8  C   UNL     1      -1.804   5.027   0.242  1.00  0.00     0.053 A 
ATOM      9  C   UNL     1      -2.467   4.386   1.294  1.00  0.00     0.040 A 
ATOM     10  C   UNL     1      -2.508   5.633  -0.808  1.00  0.00    -0.027 A 
ATOM     11  C   UNL     1      -3.906   5.546  -0.787  1.00  0.00     0.006 A 
ATOM     12  C   UNL     1      -1.849   6.356  -1.948  1.00  0.00     0.046 C 
ATOM     13  C   UNL     1      -4.558   4.797   0.203  1.00  0.00     0.014 A 
BRANCH   8  14
ATOM     14  N   UNL     1      -0.397   4.861   0.214  1.00  0.00    -0.279 N 
ATOM     15  H   UNL     1       0.182   5.564   0.587  1.00  0.00     0.180 HD
BRANCH  14  16
ATOM     16  S   UNL     1       0.309   3.456  -0.459  1.00  0.00     0.263 S 
ATOM     17  O   UNL     1       1.286   3.098   0.564  1.00  0.00    -0.201 OA
ATOM     18  O   UNL     1       0.735   3.849  -1.777  1.00  0.00    -0.201 OA
BRANCH  16  19
ATOM     19  C   UNL     1      -0.791   2.067  -0.652  1.00  0.00     0.101 A 
ATOM     20  C   UNL     1      -3.377  -1.376  -0.165  1.00  0.00     0.044 C 
ATOM     21  C   UNL     1      -2.499  -0.179  -0.384  1.00  0.00    -0.050 A 
ATOM     22  C   UNL     1      -3.017   1.067  -0.719  1.00  0.00     0.005 A 
ATOM     23  C   UNL     1      -1.113  -0.316  -0.353  1.00  0.00     0.020 A 
ATOM     24  C   UNL     1      -2.163   2.170  -0.880  1.00  0.00     0.024 A 
ATOM     25  C   UNL     1      -0.266   0.782  -0.539  1.00  0.00     0.038 A 
ATOM     26  Br  UNL     1       1.542   0.397  -0.955  1.00  0.00    -0.049 Br
ENDBRANCH  16  19
ENDBRANCH  14  16
ENDBRANCH   8  14
ENDBRANCH   4   7
ENDBRANCH   2   3
ENDBRANCH   1   2
BRANCH   1  27
ATOM     27  C   UNL     1      -2.644   2.026   5.642  1.00  0.00     0.023 C 
BRANCH  27  28
ATOM     28  C   UNL     1      -2.312   0.623   6.143  1.00  0.00     0.116 C 
BRANCH  28  29
ATOM     29  N   UNL     1      -0.883   0.456   6.382  1.00  0.00    -0.352 N 
ATOM     30  C   UNL     1      -0.119  -0.692   6.457  1.00  0.00     0.251 C 
ATOM     31  H   UNL     1      -0.384   1.295   6.510  1.00  0.00     0.163 HD
ATOM     32  O   UNL     1       0.868  -0.674   7.186  1.00  0.00    -0.269 OA
BRANCH  30  33
ATOM     33  C   UNL     1      -0.446  -1.875   5.632  1.00  0.00     0.039 A 
ATOM     34  C   UNL     1       0.108  -3.140   5.884  1.00  0.00     0.014 A 
ATOM     35  C   UNL     1      -1.204  -1.683   4.487  1.00  0.00     0.014 A 
ATOM     36  C   UNL     1      -0.070  -4.181   4.962  1.00  0.00     0.010 A 
ATOM     37  C   UNL     1      -1.537  -2.734   3.684  1.00  0.00     0.010 A 
ATOM     38  C   UNL     1      -0.871  -3.950   3.849  1.00  0.00    -0.014 A 
BRANCH  38  39
ATOM     39  C   UNL     1      -0.967  -4.784   2.662  1.00  0.00     0.031 A 
ATOM     40  C   UNL     1      -1.826  -5.968   2.599  1.00  0.00     0.074 A 
ATOM     41  C   UNL     1      -0.540  -4.167   1.536  1.00  0.00     0.049 A 
ATOM     42  N   UNL     1      -1.846  -6.776   1.597  1.00  0.00    -0.248 NA
ATOM     43  C   UNL     1      -2.756  -6.325   3.659  1.00  0.00     0.031 C 
ATOM     44  C   UNL     1      -0.999  -4.343   0.171  1.00  0.00     0.029 A 
ATOM     45  N   UNL     1       0.486  -3.221   1.433  1.00  0.00    -0.354 N 
ATOM     46  C   UNL     1      -2.973  -7.557   1.725  1.00  0.00     0.074 A 
ATOM     47  C   UNL     1      -3.440  -7.315   3.072  1.00  0.00     0.031 C 
ATOM     48  C   UNL     1      -0.111  -3.764  -0.654  1.00  0.00     0.029 A 
ATOM     49  C   UNL     1       1.034  -3.365   0.160  1.00  0.00     0.049 A 
ATOM     50  H   UNL     1       0.766  -2.579   2.125  1.00  0.00     0.167 HD
ATOM     51  C   UNL     1      -3.473  -8.172   0.614  1.00  0.00     0.034 A 
ATOM     52  C   UNL     1       2.333  -3.723  -0.054  1.00  0.00     0.034 A 
ATOM     53  C   UNL     1      -2.658  -7.839  -0.572  1.00  0.00     0.049 A 
ATOM     54  C   UNL     1       2.378  -5.017  -0.827  1.00  0.00     0.074 A 
ATOM     55  C   UNL     1      -2.837  -6.924  -1.599  1.00  0.00     0.029 A 
ATOM     56  N   UNL     1      -1.333  -8.263  -0.656  1.00  0.00    -0.354 N 
ATOM     57  N   UNL     1       1.363  -5.833  -0.904  1.00  0.00    -0.248 NA
ATOM     58  C   UNL     1       3.508  -5.465  -1.628  1.00  0.00     0.031 C 
ATOM     59  C   UNL     1      -1.587  -6.748  -2.256  1.00  0.00     0.029 A 
ATOM     60  C   UNL     1      -0.653  -7.575  -1.651  1.00  0.00     0.049 A 
ATOM     61  H   UNL     1      -0.933  -8.958  -0.084  1.00  0.00     0.167 HD
ATOM     62  C   UNL     1       1.649  -6.874  -1.732  1.00  0.00     0.074 A 
ATOM     63  C   UNL     1       3.010  -6.594  -2.169  1.00  0.00     0.031 C 
ATOM     64  C   UNL     1       0.746  -7.876  -1.960  1.00  0.00     0.034 A 
BRANCH  51  65
ATOM     65  C   UNL     1      -4.861  -8.796   0.506  1.00  0.00     0.023 A 
ATOM     66  C   UNL     1      -5.417  -8.929  -0.788  1.00  0.00     0.012 A 
ATOM     67  C   UNL     1      -5.681  -9.238   1.571  1.00  0.00     0.148 A 
ATOM     68  C   UNL     1      -6.727  -9.369  -1.011  1.00  0.00     0.002 A 
ATOM     69  C   UNL     1      -7.013  -9.618   1.358  1.00  0.00     0.091 A 
ATOM     70  F   UNL     1      -5.160  -9.388   2.792  1.00  0.00    -0.205 F 
ATOM     71  C   UNL     1      -7.540  -9.680   0.066  1.00  0.00     0.022 A 
BRANCH  69  72
ATOM     72  S   UNL     1      -8.150  -9.977   2.711  1.00  0.00     0.127 S 
ATOM     73  O   UNL     1      -9.311  -9.154   2.366  1.00  0.00    -0.237 OA
ATOM     74  O   UNL     1      -8.364 -11.416   2.570  1.00  0.00    -0.237 OA
ATOM     75  O   UNL     1      -7.469  -9.557   3.930  1.00  0.00    -0.744 OA
ENDBRANCH  69  72
ENDBRANCH  51  65
BRANCH  52  76
ATOM     76  C   UNL     1       3.271  -3.252   1.016  1.00  0.00     0.023 A 
ATOM     77  C   UNL     1       3.458  -1.854   1.090  1.00  0.00     0.012 A 
ATOM     78  C   UNL     1       3.517  -4.010   2.171  1.00  0.00     0.148 A 
ATOM     79  C   UNL     1       3.615  -1.201   2.314  1.00  0.00     0.002 A 
ATOM     80  C   UNL     1       3.725  -3.357   3.392  1.00  0.00     0.091 A 
ATOM     81  F   UNL     1       3.446  -5.344   2.087  1.00  0.00    -0.205 F 
ATOM     82  C   UNL     1       3.701  -1.955   3.475  1.00  0.00     0.022 A 
BRANCH  80  83
ATOM     83  S   UNL     1       3.916  -4.283   4.920  1.00  0.00     0.127 S 
ATOM     84  O   UNL     1       5.362  -4.474   4.964  1.00  0.00    -0.237 OA
ATOM     85  O   UNL     1       3.390  -3.366   5.930  1.00  0.00    -0.237 OA
ATOM     86  O   UNL     1       3.107  -5.478   4.727  1.00  0.00    -0.744 OA
ENDBRANCH  80  83
ENDBRANCH  52  76
BRANCH  64  87
ATOM     87  C   UNL     1       1.099  -9.240  -2.511  1.00  0.00     0.023 A 
ATOM     88  C   UNL     1       2.424  -9.714  -2.529  1.00  0.00     0.012 A 
ATOM     89  C   UNL     1       0.084 -10.174  -2.842  1.00  0.00     0.148 A 
ATOM     90  C   UNL     1       2.737 -11.026  -2.892  1.00  0.00     0.002 A 
ATOM     91  C   UNL     1       0.390 -11.510  -3.072  1.00  0.00     0.091 A 
ATOM     92  F   UNL     1      -1.192  -9.776  -2.949  1.00  0.00    -0.205 F 
ATOM     93  C   UNL     1       1.718 -11.934  -3.130  1.00  0.00     0.022 A 
BRANCH  91  94
ATOM     94  S   UNL     1      -0.902 -12.759  -3.108  1.00  0.00     0.127 S 
ATOM     95  O   UNL     1      -1.134 -12.911  -4.543  1.00  0.00    -0.237 OA
ATOM     96  O   UNL     1      -0.247 -13.903  -2.471  1.00  0.00    -0.237 OA
ATOM     97  O   UNL     1      -1.999 -12.195  -2.334  1.00  0.00    -0.744 OA
ENDBRANCH  91  94
ENDBRANCH  64  87
ENDBRANCH  38  39
ENDBRANCH  30  33
ENDBRANCH  28  29
ENDBRANCH  27  28
ENDBRANCH   1  27
TORSDOF 17
