REMARK SMILES O=C(NCCCCNC(=O)c1cccnc1C(=O)Nc1ccc([N+](=O)[O-])cc1)c1ccc(-c2c3nc(c(-c4cccc(S(=O)(=O)[O-])c4F)c4ccc([nH]4)c(-c4cccc(S(=O)(=O)[O-])c4F)c4nc(c(-c5cccc(S(=O)(=O)[O-])c5F)c5ccc2[nH]5)C=C4)C=C3)cc1
REMARK SMILES IDX 5 1 4 2 3 3 1 4 2 5 29 7 30 8 91 9 31 10 90 11 32 12 33 13
REMARK SMILES IDX 34 14 84 15 35 16 89 17 83 18 85 19 36 20 88 21 82 22 81 23
REMARK SMILES IDX 37 25 69 26 49 27 68 28 50 29 53 30 67 31 86 32 51 33 52 34
REMARK SMILES IDX 66 36 87 37 54 38 38 39 39 40 47 41 40 42 42 43 48 44 41 45
REMARK SMILES IDX 43 46 44 47 45 48 46 49 70 50 71 51 79 52 72 53 74 54 80 55
REMARK SMILES IDX 73 56 75 57 76 58 77 59 78 60 55 61 56 62 64 63 57 64 59 65
REMARK SMILES IDX 65 66 58 67 60 68 61 69 62 70 63 71 6 72 7 73 8 74 9 75
REMARK SMILES IDX 10 77 11 78 12 79 16 80 13 81 15 82 14 83 17 84 18 85 19 86
REMARK SMILES IDX 20 88 21 89 28 90 22 91 27 92 23 93 24 94 25 95 26 96
REMARK H PARENT 3 6 85 24 53 35 8 76 19 87
REMARK Flexibility Score: inf
ROOT
ATOM      1  C   UNL     1       4.080  -0.708   2.680  1.00  0.00     0.023 C 
ENDROOT
BRANCH   1   2
ATOM      2  C   UNL     1       4.005  -0.838   1.163  1.00  0.00     0.116 C 
BRANCH   2   3
ATOM      3  N   UNL     1       2.634  -0.888   0.694  1.00  0.00    -0.352 N 
ATOM      4  O   UNL     1       0.762  -0.111  -0.266  1.00  0.00    -0.269 OA
ATOM      5  C   UNL     1       1.985  -0.037  -0.170  1.00  0.00     0.251 C 
ATOM      6  H   UNL     1       2.094  -1.634   1.041  1.00  0.00     0.163 HD
BRANCH   5   7
ATOM      7  C   UNL     1       2.734   0.971  -0.963  1.00  0.00     0.039 A 
ATOM      8  C   UNL     1       3.918   0.648  -1.638  1.00  0.00     0.014 A 
ATOM      9  C   UNL     1       2.193   2.254  -1.094  1.00  0.00     0.014 A 
ATOM     10  C   UNL     1       4.593   1.623  -2.380  1.00  0.00     0.010 A 
ATOM     11  C   UNL     1       2.845   3.215  -1.872  1.00  0.00     0.010 A 
ATOM     12  C   UNL     1       4.057   2.913  -2.514  1.00  0.00    -0.014 A 
BRANCH  12  13
ATOM     13  C   UNL     1       4.702   3.930  -3.386  1.00  0.00     0.031 A 
ATOM     14  C   UNL     1       5.288   5.185  -2.804  1.00  0.00     0.074 A 
ATOM     15  C   UNL     1       4.668   3.766  -4.723  1.00  0.00     0.049 A 
ATOM     16  N   UNL     1       5.779   6.230  -3.420  1.00  0.00    -0.248 NA
ATOM     17  C   UNL     1       5.315   5.285  -1.337  1.00  0.00     0.031 C 
ATOM     18  C   UNL     1       4.084   2.616  -5.414  1.00  0.00     0.029 A 
ATOM     19  N   UNL     1       5.091   4.587  -5.740  1.00  0.00    -0.354 N 
ATOM     20  C   UNL     1       6.134   7.130  -2.423  1.00  0.00     0.074 A 
ATOM     21  C   UNL     1       5.801   6.507  -1.159  1.00  0.00     0.031 C 
ATOM     22  C   UNL     1       4.158   2.816  -6.738  1.00  0.00     0.029 A 
ATOM     23  C   UNL     1       4.758   4.123  -6.991  1.00  0.00     0.049 A 
ATOM     24  H   UNL     1       5.583   5.426  -5.588  1.00  0.00     0.167 HD
ATOM     25  C   UNL     1       6.698   8.356  -2.548  1.00  0.00     0.034 A 
ATOM     26  C   UNL     1       4.888   4.692  -8.206  1.00  0.00     0.034 A 
ATOM     27  C   UNL     1       7.061   8.958  -3.803  1.00  0.00     0.049 A 
ATOM     28  C   UNL     1       5.537   6.042  -8.322  1.00  0.00     0.074 A 
ATOM     29  C   UNL     1       7.711  10.160  -4.024  1.00  0.00     0.029 A 
ATOM     30  N   UNL     1       6.797   8.412  -5.050  1.00  0.00    -0.354 N 
ATOM     31  N   UNL     1       6.000   6.816  -7.370  1.00  0.00    -0.248 NA
ATOM     32  C   UNL     1       5.713   6.587  -9.676  1.00  0.00     0.031 C 
ATOM     33  C   UNL     1       7.827  10.347  -5.406  1.00  0.00     0.029 A 
ATOM     34  C   UNL     1       7.262   9.255  -6.045  1.00  0.00     0.049 A 
ATOM     35  H   UNL     1       6.345   7.552  -5.205  1.00  0.00     0.167 HD
ATOM     36  C   UNL     1       6.550   7.921  -8.008  1.00  0.00     0.074 A 
ATOM     37  C   UNL     1       6.372   7.713  -9.431  1.00  0.00     0.031 C 
ATOM     38  C   UNL     1       7.137   9.013  -7.461  1.00  0.00     0.034 A 
BRANCH  25  39
ATOM     39  C   UNL     1       7.000   9.117  -1.284  1.00  0.00     0.023 A 
ATOM     40  C   UNL     1       8.090   8.723  -0.482  1.00  0.00     0.012 A 
ATOM     41  C   UNL     1       6.247  10.249  -0.916  1.00  0.00     0.148 A 
ATOM     42  C   UNL     1       8.405   9.422   0.683  1.00  0.00     0.002 A 
ATOM     43  C   UNL     1       6.590  10.963   0.228  1.00  0.00     0.091 A 
ATOM     44  F   UNL     1       5.198  10.598  -1.675  1.00  0.00    -0.205 F 
ATOM     45  C   UNL     1       7.662  10.546   1.032  1.00  0.00     0.022 A 
BRANCH  43  46
ATOM     46  S   UNL     1       5.723  12.463   0.706  1.00  0.00     0.127 S 
ATOM     47  O   UNL     1       4.768  11.954   1.687  1.00  0.00    -0.237 OA
ATOM     48  O   UNL     1       6.796  13.283   1.271  1.00  0.00    -0.237 OA
ATOM     49  O   UNL     1       5.153  12.991  -0.526  1.00  0.00    -0.744 OA
ENDBRANCH  43  46
ENDBRANCH  25  39
BRANCH  26  50
ATOM     50  C   UNL     1       4.428   3.943  -9.408  1.00  0.00     0.023 A 
ATOM     51  C   UNL     1       5.382   3.369 -10.270  1.00  0.00     0.012 A 
ATOM     52  C   UNL     1       3.058   3.720  -9.648  1.00  0.00     0.148 A 
ATOM     53  C   UNL     1       4.978   2.592 -11.356  1.00  0.00     0.002 A 
ATOM     54  C   UNL     1       2.665   2.901 -10.700  1.00  0.00     0.091 A 
ATOM     55  F   UNL     1       2.168   4.286  -8.820  1.00  0.00    -0.205 F 
ATOM     56  C   UNL     1       3.623   2.347 -11.562  1.00  0.00     0.022 A 
BRANCH  54  57
ATOM     57  S   UNL     1       0.955   2.415 -10.961  1.00  0.00     0.127 S 
ATOM     58  O   UNL     1       0.635   3.106 -12.208  1.00  0.00    -0.237 OA
ATOM     59  O   UNL     1       1.069   0.961 -11.074  1.00  0.00    -0.237 OA
ATOM     60  O   UNL     1       0.230   2.872  -9.783  1.00  0.00    -0.744 OA
ENDBRANCH  54  57
ENDBRANCH  26  50
BRANCH  38  61
ATOM     61  C   UNL     1       7.671  10.069  -8.391  1.00  0.00     0.023 A 
ATOM     62  C   UNL     1       6.780  10.961  -9.018  1.00  0.00     0.012 A 
ATOM     63  C   UNL     1       9.060  10.244  -8.557  1.00  0.00     0.148 A 
ATOM     64  C   UNL     1       7.262  12.005  -9.807  1.00  0.00     0.002 A 
ATOM     65  C   UNL     1       9.534  11.311  -9.312  1.00  0.00     0.091 A 
ATOM     66  F   UNL     1       9.889   9.371  -7.967  1.00  0.00    -0.205 F 
ATOM     67  C   UNL     1       8.636  12.188  -9.943  1.00  0.00     0.022 A 
BRANCH  65  68
ATOM     68  S   UNL     1      11.286  11.677  -9.468  1.00  0.00     0.127 S 
ATOM     69  O   UNL     1      11.546  11.302 -10.859  1.00  0.00    -0.237 OA
ATOM     70  O   UNL     1      11.327  13.118  -9.209  1.00  0.00    -0.237 OA
ATOM     71  O   UNL     1      11.958  10.865  -8.467  1.00  0.00    -0.744 OA
ENDBRANCH  65  68
ENDBRANCH  38  61
ENDBRANCH  12  13
ENDBRANCH   5   7
ENDBRANCH   2   3
ENDBRANCH   1   2
BRANCH   1  72
ATOM     72  C   UNL     1       3.841  -1.958   3.534  1.00  0.00     0.023 C 
BRANCH  72  73
ATOM     73  C   UNL     1       4.145  -3.336   2.947  1.00  0.00     0.116 C 
BRANCH  73  74
ATOM     74  N   UNL     1       5.551  -3.620   2.669  1.00  0.00    -0.352 N 
ATOM     75  C   UNL     1       6.427  -4.491   3.290  1.00  0.00     0.253 C 
ATOM     76  H   UNL     1       5.935  -3.110   1.920  1.00  0.00     0.163 HD
ATOM     77  O   UNL     1       7.484  -4.809   2.752  1.00  0.00    -0.269 OA
BRANCH  75  78
ATOM     78  C   UNL     1       6.039  -5.160   4.529  1.00  0.00     0.071 A 
ATOM     79  C   UNL     1       5.040  -6.142   4.334  1.00  0.00     0.018 A 
ATOM     80  C   UNL     1       6.576  -4.990   5.804  1.00  0.00     0.141 A 
ATOM     81  C   UNL     1       4.529  -6.865   5.399  1.00  0.00     0.021 A 
ATOM     82  N   UNL     1       6.022  -5.692   6.854  1.00  0.00    -0.250 NA
ATOM     83  C   UNL     1       5.040  -6.591   6.642  1.00  0.00     0.112 A 
BRANCH  80  84
ATOM     84  C   UNL     1       7.818  -4.251   6.315  1.00  0.00     0.275 C 
ATOM     85  O   UNL     1       8.079  -4.315   7.526  1.00  0.00    -0.267 OA
ATOM     86  N   UNL     1       8.831  -3.724   5.551  1.00  0.00    -0.321 N 
ATOM     87  H   UNL     1       9.730  -3.990   5.853  1.00  0.00     0.170 HD
BRANCH  86  88
ATOM     88  C   UNL     1       8.842  -2.893   4.438  1.00  0.00     0.042 A 
ATOM     89  C   UNL     1       9.938  -3.005   3.569  1.00  0.00     0.033 A 
ATOM     90  C   UNL     1       7.826  -1.980   4.176  1.00  0.00     0.033 A 
ATOM     91  C   UNL     1       9.904  -2.386   2.320  1.00  0.00     0.088 A 
ATOM     92  C   UNL     1       7.817  -1.316   2.949  1.00  0.00     0.088 A 
ATOM     93  C   UNL     1       8.802  -1.597   1.998  1.00  0.00     0.269 A 
BRANCH  93  94
ATOM     94  N   UNL     1       8.591  -1.172   0.617  1.00  0.00     0.062 N 
ATOM     95  O   UNL     1       9.589  -0.996  -0.092  1.00  0.00    -0.258 OA
ATOM     96  O   UNL     1       7.412  -1.062   0.239  1.00  0.00    -0.258 OA
ENDBRANCH  93  94
ENDBRANCH  86  88
ENDBRANCH  80  84
ENDBRANCH  75  78
ENDBRANCH  73  74
ENDBRANCH  72  73
ENDBRANCH   1  72
TORSDOF 17
