REMARK SMILES COc1cc([C@H]2[NH2+]CCC3=c4ccccc4=N[C@H]32)ccc1OCC(=O)NCCCCNC(=O)c1ccc(-c2c3nc(c(-c4cccc(S(=O)(=O)[O-])c4F)c4ccc([nH]4)c(-c4cccc(S(=O)(=O)[O-])c4F)c4nc(c(-c5cccc(S(=O)(=O)[O-])c5F)c5ccc2[nH]5)C=C4)C=C3)cc1
REMARK SMILES IDX 28 1 27 2 26 3 24 4 25 5 23 7 22 8 21 9 3 10 4 11 5 12 20 13
REMARK SMILES IDX 19 14 2 15 1 16 6 17 7 18 18 19 8 20 10 23 17 24 9 25 11 26
REMARK SMILES IDX 16 27 12 28 15 29 13 30 14 31 29 32 30 33 31 34 32 35 33 37
REMARK SMILES IDX 34 38 35 39 96 40 36 41 95 42 37 43 38 44 39 45 89 46 40 47
REMARK SMILES IDX 94 48 88 49 90 50 41 51 93 52 87 53 86 54 42 56 74 57 54 58
REMARK SMILES IDX 73 59 55 60 58 61 72 62 91 63 56 64 57 65 71 67 92 68 59 69
REMARK SMILES IDX 43 70 44 71 52 72 45 73 47 74 53 75 46 76 48 77 49 78 50 79
REMARK SMILES IDX 51 80 75 81 76 82 84 83 77 84 79 85 85 86 78 87 80 88 81 89
REMARK SMILES IDX 82 90 83 91 60 92 61 93 69 94 62 95 64 96 70 97 63 98 65 99
REMARK SMILES IDX 66 100 67 101 68 102
REMARK H PARENT 26 6 7 21 7 22 31 36 90 55 58 66
REMARK Flexibility Score: inf
ROOT
ATOM      1  C   UNL     1      -0.495  -9.486   8.344  1.00  0.00     0.023 C 
ENDROOT
BRANCH   1   2
ATOM      2  C   UNL     1       0.840 -10.214   8.193  1.00  0.00     0.116 C 
BRANCH   2   3
ATOM      3  N   UNL     1       1.089 -10.671   6.841  1.00  0.00    -0.353 N 
ATOM      4  C   UNL     1       2.155 -10.422   6.028  1.00  0.00     0.257 C 
ATOM      5  O   UNL     1       2.270 -11.111   5.010  1.00  0.00    -0.271 OA
ATOM      6  H   UNL     1       0.388 -11.244   6.454  1.00  0.00     0.163 HD
BRANCH   4   7
ATOM      7  C   UNL     1       3.221  -9.387   6.413  1.00  0.00     0.329 C 
BRANCH   7   8
ATOM      8  O   UNL     1       2.830  -8.150   6.971  1.00  0.00    -0.480 OA
BRANCH   8   9
ATOM      9  C   UNL     1       2.030  -7.307   6.256  1.00  0.00     0.161 A 
ATOM     10  C   UNL     1       1.970  -7.106   4.878  1.00  0.00     0.161 A 
ATOM     11  C   UNL     1       1.138  -6.096   4.346  1.00  0.00     0.060 A 
ATOM     12  C   UNL     1       0.320  -5.294   5.175  1.00  0.00     0.016 A 
ATOM     13  C   UNL     1       1.218  -6.527   7.074  1.00  0.00     0.051 A 
ATOM     14  C   UNL     1       0.349  -5.576   6.541  1.00  0.00     0.014 A 
BRANCH  10  15
ATOM     15  O   UNL     1       2.823  -7.775   4.041  1.00  0.00    -0.493 OA
ATOM     16  C   UNL     1       2.129  -8.675   3.174  1.00  0.00     0.278 C 
ENDBRANCH  10  15
BRANCH  12  17
ATOM     17  C   UNL     1      -0.515  -4.155   4.564  1.00  0.00     0.243 C 
ATOM     18  N   UNL     1      -1.640  -4.697   3.748  1.00  0.00    -0.338 N 
ATOM     19  C   UNL     1      -1.048  -2.970   5.465  1.00  0.00     0.196 C 
ATOM     20  C   UNL     1      -2.783  -5.134   4.571  1.00  0.00     0.265 C 
ATOM     21  H   UNL     1      -1.299  -5.496   3.213  1.00  0.00     0.346 HD
ATOM     22  H   UNL     1      -1.968  -3.948   3.139  1.00  0.00     0.346 HD
ATOM     23  C   UNL     1      -2.273  -3.370   6.236  1.00  0.00    -0.025 C 
ATOM     24  N   UNL     1      -0.079  -2.477   6.491  1.00  0.00    -0.270 NA
ATOM     25  C   UNL     1      -3.365  -4.021   5.461  1.00  0.00     0.095 C 
ATOM     26  C   UNL     1      -2.101  -3.189   7.540  1.00  0.00     0.001 A 
ATOM     27  C   UNL     1      -0.735  -2.630   7.605  1.00  0.00     0.066 A 
ATOM     28  C   UNL     1      -2.834  -3.539   8.711  1.00  0.00     0.010 A 
ATOM     29  C   UNL     1      -0.201  -2.381   8.963  1.00  0.00     0.028 A 
ATOM     30  C   UNL     1      -2.258  -3.343   9.909  1.00  0.00     0.001 A 
ATOM     31  C   UNL     1      -0.936  -2.747  10.027  1.00  0.00     0.002 A 
ENDBRANCH  12  17
ENDBRANCH   8   9
ENDBRANCH   7   8
ENDBRANCH   4   7
ENDBRANCH   2   3
ENDBRANCH   1   2
BRANCH   1  32
ATOM     32  C   UNL     1      -1.738 -10.262   7.904  1.00  0.00     0.023 C 
BRANCH  32  33
ATOM     33  C   UNL     1      -1.864 -11.683   8.437  1.00  0.00     0.116 C 
BRANCH  33  34
ATOM     34  N   UNL     1      -1.838 -11.757   9.889  1.00  0.00    -0.352 N 
ATOM     35  C   UNL     1      -2.681 -12.428  10.746  1.00  0.00     0.251 C 
ATOM     36  H   UNL     1      -1.111 -11.253  10.322  1.00  0.00     0.163 HD
ATOM     37  O   UNL     1      -2.560 -12.286  11.954  1.00  0.00    -0.269 OA
BRANCH  35  38
ATOM     38  C   UNL     1      -3.755 -13.290  10.200  1.00  0.00     0.039 A 
ATOM     39  C   UNL     1      -5.044 -13.166  10.726  1.00  0.00     0.014 A 
ATOM     40  C   UNL     1      -3.503 -14.199   9.169  1.00  0.00     0.014 A 
ATOM     41  C   UNL     1      -6.094 -13.901  10.168  1.00  0.00     0.010 A 
ATOM     42  C   UNL     1      -4.563 -14.874   8.568  1.00  0.00     0.010 A 
ATOM     43  C   UNL     1      -5.871 -14.732   9.059  1.00  0.00    -0.014 A 
BRANCH  43  44
ATOM     44  C   UNL     1      -6.991 -15.441   8.385  1.00  0.00     0.031 A 
ATOM     45  C   UNL     1      -7.015 -16.946   8.330  1.00  0.00     0.074 A 
ATOM     46  C   UNL     1      -7.936 -14.730   7.736  1.00  0.00     0.049 A 
ATOM     47  N   UNL     1      -7.864 -17.734   7.722  1.00  0.00    -0.248 NA
ATOM     48  C   UNL     1      -5.931 -17.660   9.026  1.00  0.00     0.031 C 
ATOM     49  C   UNL     1      -7.981 -13.268   7.642  1.00  0.00     0.029 A 
ATOM     50  N   UNL     1      -9.021 -15.140   6.999  1.00  0.00    -0.354 N 
ATOM     51  C   UNL     1      -7.394 -19.027   7.921  1.00  0.00     0.074 A 
ATOM     52  C   UNL     1      -6.175 -18.920   8.692  1.00  0.00     0.031 C 
ATOM     53  C   UNL     1      -9.030 -12.906   6.885  1.00  0.00     0.029 A 
ATOM     54  C   UNL     1      -9.714 -14.105   6.412  1.00  0.00     0.049 A 
ATOM     55  H   UNL     1      -9.279 -16.085   6.900  1.00  0.00     0.167 HD
ATOM     56  C   UNL     1      -7.939 -20.198   7.517  1.00  0.00     0.034 A 
ATOM     57  C   UNL     1     -10.768 -14.118   5.571  1.00  0.00     0.034 A 
ATOM     58  C   UNL     1      -9.181 -20.306   6.800  1.00  0.00     0.049 A 
ATOM     59  C   UNL     1     -11.381 -15.439   5.185  1.00  0.00     0.074 A 
ATOM     60  C   UNL     1      -9.869 -21.454   6.449  1.00  0.00     0.029 A 
ATOM     61  N   UNL     1      -9.912 -19.236   6.314  1.00  0.00    -0.354 N 
ATOM     62  N   UNL     1     -11.024 -16.649   5.538  1.00  0.00    -0.248 NA
ATOM     63  C   UNL     1     -12.567 -15.396   4.315  1.00  0.00     0.031 C 
ATOM     64  C   UNL     1     -11.002 -21.079   5.721  1.00  0.00     0.029 A 
ATOM     65  C   UNL     1     -11.037 -19.696   5.652  1.00  0.00     0.049 A 
ATOM     66  H   UNL     1      -9.668 -18.288   6.424  1.00  0.00     0.167 HD
ATOM     67  C   UNL     1     -11.960 -17.505   4.970  1.00  0.00     0.074 A 
ATOM     68  C   UNL     1     -12.915 -16.674   4.267  1.00  0.00     0.031 C 
ATOM     69  C   UNL     1     -12.016 -18.858   5.012  1.00  0.00     0.034 A 
BRANCH  56  70
ATOM     70  C   UNL     1      -7.230 -21.477   7.878  1.00  0.00     0.023 A 
ATOM     71  C   UNL     1      -7.260 -21.940   9.208  1.00  0.00     0.012 A 
ATOM     72  C   UNL     1      -6.634 -22.272   6.879  1.00  0.00     0.148 A 
ATOM     73  C   UNL     1      -6.689 -23.167   9.544  1.00  0.00     0.002 A 
ATOM     74  C   UNL     1      -6.108 -23.514   7.213  1.00  0.00     0.091 A 
ATOM     75  F   UNL     1      -6.603 -21.804   5.623  1.00  0.00    -0.205 F 
ATOM     76  C   UNL     1      -6.126 -23.959   8.546  1.00  0.00     0.022 A 
BRANCH  74  77
ATOM     77  S   UNL     1      -5.438 -24.647   5.991  1.00  0.00     0.127 S 
ATOM     78  O   UNL     1      -4.025 -24.685   6.368  1.00  0.00    -0.237 OA
ATOM     79  O   UNL     1      -6.178 -25.876   6.275  1.00  0.00    -0.237 OA
ATOM     80  O   UNL     1      -5.716 -24.052   4.692  1.00  0.00    -0.744 OA
ENDBRANCH  74  77
ENDBRANCH  56  70
BRANCH  57  81
ATOM     81  C   UNL     1     -11.342 -12.840   5.059  1.00  0.00     0.023 A 
ATOM     82  C   UNL     1     -12.630 -12.442   5.467  1.00  0.00     0.012 A 
ATOM     83  C   UNL     1     -10.624 -12.022   4.166  1.00  0.00     0.148 A 
ATOM     84  C   UNL     1     -13.212 -11.280   4.957  1.00  0.00     0.002 A 
ATOM     85  C   UNL     1     -11.184 -10.835   3.709  1.00  0.00     0.091 A 
ATOM     86  F   UNL     1      -9.405 -12.422   3.776  1.00  0.00    -0.205 F 
ATOM     87  C   UNL     1     -12.486 -10.473   4.085  1.00  0.00     0.022 A 
BRANCH  85  88
ATOM     88  S   UNL     1     -10.263  -9.672   2.696  1.00  0.00     0.127 S 
ATOM     89  O   UNL     1     -10.854  -9.888   1.379  1.00  0.00    -0.237 OA
ATOM     90  O   UNL     1     -10.598  -8.391   3.321  1.00  0.00    -0.237 OA
ATOM     91  O   UNL     1      -8.865 -10.055   2.840  1.00  0.00    -0.744 OA
ENDBRANCH  85  88
ENDBRANCH  57  81
BRANCH  69  92
ATOM     92  C   UNL     1     -13.172 -19.538   4.327  1.00  0.00     0.023 A 
ATOM     93  C   UNL     1     -13.230 -19.585   2.921  1.00  0.00     0.012 A 
ATOM     94  C   UNL     1     -14.158 -20.203   5.083  1.00  0.00     0.148 A 
ATOM     95  C   UNL     1     -14.268 -20.258   2.277  1.00  0.00     0.002 A 
ATOM     96  C   UNL     1     -15.159 -20.915   4.436  1.00  0.00     0.091 A 
ATOM     97  F   UNL     1     -14.094 -20.132   6.421  1.00  0.00    -0.205 F 
ATOM     98  C   UNL     1     -15.224 -20.933   3.033  1.00  0.00     0.022 A 
BRANCH  96  99
ATOM     99  S   UNL     1     -16.372 -21.897   5.325  1.00  0.00     0.127 S 
ATOM    100  O   UNL     1     -17.590 -21.110   5.135  1.00  0.00    -0.237 OA
ATOM    101  O   UNL     1     -16.343 -23.163   4.593  1.00  0.00    -0.237 OA
ATOM    102  O   UNL     1     -15.893 -21.981   6.699  1.00  0.00    -0.744 OA
ENDBRANCH  96  99
ENDBRANCH  69  92
ENDBRANCH  43  44
ENDBRANCH  35  38
ENDBRANCH  33  34
ENDBRANCH  32  33
ENDBRANCH   1  32
TORSDOF 18
