REMARK SMILES Cc1cc(C)cc(Oc2nc3ccccn3c(=O)c2/C=C2\SC(=S)N(CCC(=O)NCCCCNC(=O)c3ccc(-c4c5nc(c(-c6cccc(S(=O)(=O)[O-])c6F)c6ccc([nH]6)c(-c6cccc(S(=O)(=O)[O-])c6F)c6nc(c(-c7cccc(S(=O)(=O)[O-])c7F)c7ccc4[nH]7)C=C6)C=C5)cc3)C2=O)c1
REMARK SMILES IDX 31 1 30 2 28 3 29 4 27 6 26 7 25 8 20 9 21 10 22 11 101 12
REMARK SMILES IDX 23 13 102 14 24 15 19 16 9 17 10 18 11 19 17 20 12 21 16 22
REMARK SMILES IDX 18 23 13 24 15 25 14 26 8 27 7 28 1 29 2 30 3 31 103 32 4 33
REMARK SMILES IDX 5 34 6 35 32 36 33 37 34 38 35 39 36 40 37 42 38 43 39 44
REMARK SMILES IDX 100 45 40 46 99 47 41 48 42 49 43 50 93 51 44 52 98 53 92 54
REMARK SMILES IDX 94 55 45 56 97 57 91 58 90 59 46 61 78 62 58 63 77 64 59 65
REMARK SMILES IDX 62 66 76 67 95 68 60 69 61 70 75 72 96 73 63 74 47 75 48 76
REMARK SMILES IDX 56 77 49 78 51 79 57 80 50 81 52 82 53 83 54 84 55 85 79 86
REMARK SMILES IDX 80 87 88 88 81 89 83 90 89 91 82 92 84 93 85 94 86 95 87 96
REMARK SMILES IDX 64 97 65 98 73 99 66 100 68 101 74 102 67 103 69 104 70 105
REMARK SMILES IDX 71 106 72 107
REMARK H PARENT 30 5 35 41 94 60 62 71
REMARK Flexibility Score: inf
ROOT
ATOM      1  C   UNL     1       0.671   0.970   3.282  1.00  0.00     0.116 C 
ENDROOT
BRANCH   1   2
ATOM      2  N   UNL     1       0.877   1.552   4.603  1.00  0.00    -0.356 N 
ATOM      3  C   UNL     1       2.019   1.984   5.204  1.00  0.00     0.221 C 
ATOM      4  O   UNL     1       1.965   2.419   6.354  1.00  0.00    -0.275 OA
ATOM      5  H   UNL     1       0.061   1.648   5.145  1.00  0.00     0.163 HD
BRANCH   3   6
ATOM      6  C   UNL     1       3.334   1.958   4.452  1.00  0.00     0.122 C 
BRANCH   6   7
ATOM      7  C   UNL     1       4.321   0.907   5.009  1.00  0.00     0.137 C 
BRANCH   7   8
ATOM      8  N   UNL     1       4.436  -0.357   4.248  1.00  0.00    -0.292 N 
ATOM      9  C   UNL     1       2.621  -3.302   3.460  1.00  0.00     0.041 C 
ATOM     10  C   UNL     1       3.725  -2.528   3.633  1.00  0.00     0.081 C 
ATOM     11  S   UNL     1       5.046  -2.204   2.556  1.00  0.00    -0.054 SA
ATOM     12  C   UNL     1       3.811  -1.514   4.744  1.00  0.00     0.266 C 
ATOM     13  C   UNL     1       5.120  -0.509   3.058  1.00  0.00     0.148 C 
ATOM     14  O   UNL     1       3.328  -1.662   5.826  1.00  0.00    -0.268 OA
ATOM     15  S   UNL     1       5.847   0.672   2.126  1.00  0.00    -0.052 S 
BRANCH   9  16
ATOM     16  C   UNL     1       2.334  -4.211   2.332  1.00  0.00     0.104 A 
ATOM     17  C   UNL     1       1.279  -4.363   1.431  1.00  0.00     0.234 A 
ATOM     18  N   UNL     1       1.417  -5.438   0.522  1.00  0.00    -0.194 NA
ATOM     19  C   UNL     1       2.587  -5.928   0.198  1.00  0.00     0.143 A 
ATOM     20  C   UNL     1       3.522  -5.161   2.163  1.00  0.00     0.269 A 
ATOM     21  C   UNL     1       2.837  -6.800  -1.018  1.00  0.00     0.048 A 
ATOM     22  N   UNL     1       3.722  -5.694   0.927  1.00  0.00    -0.267 N 
ATOM     23  O   UNL     1       4.293  -5.382   3.103  1.00  0.00    -0.268 OA
ATOM     24  C   UNL     1       4.071  -7.142  -1.410  1.00  0.00     0.005 A 
ATOM     25  C   UNL     1       4.986  -6.151   0.551  1.00  0.00     0.096 A 
ATOM     26  C   UNL     1       5.196  -6.813  -0.592  1.00  0.00     0.019 A 
BRANCH  17  27
ATOM     27  O   UNL     1      -0.108  -3.558   1.397  1.00  0.00    -0.438 OA
BRANCH  27  28
ATOM     28  C   UNL     1      -0.699  -2.343   0.662  1.00  0.00     0.130 A 
ATOM     29  C   UNL     1       0.481   0.710  -1.479  1.00  0.00     0.044 C 
ATOM     30  C   UNL     1      -0.492  -0.147  -0.697  1.00  0.00    -0.047 A 
ATOM     31  C   UNL     1      -1.591   0.372  -0.086  1.00  0.00     0.007 A 
ATOM     32  C   UNL     1      -0.220  -1.514  -0.440  1.00  0.00     0.050 A 
ATOM     33  C   UNL     1      -2.358  -0.473   0.742  1.00  0.00    -0.047 A 
ATOM     34  C   UNL     1      -3.672   0.120   1.165  1.00  0.00     0.044 C 
ATOM     35  C   UNL     1      -1.885  -1.780   1.182  1.00  0.00     0.050 A 
ENDBRANCH  27  28
ENDBRANCH  17  27
ENDBRANCH   9  16
ENDBRANCH   7   8
ENDBRANCH   6   7
ENDBRANCH   3   6
ENDBRANCH   1   2
BRANCH   1  36
ATOM     36  C   UNL     1       1.621  -0.207   3.020  1.00  0.00     0.023 C 
BRANCH  36  37
ATOM     37  C   UNL     1       1.191  -1.194   1.949  1.00  0.00     0.023 C 
BRANCH  37  38
ATOM     38  C   UNL     1       2.121  -1.605   0.645  1.00  0.00     0.116 C 
BRANCH  38  39
ATOM     39  N   UNL     1       2.004  -2.834  -0.555  1.00  0.00    -0.352 N 
ATOM     40  C   UNL     1       1.192  -3.751  -1.461  1.00  0.00     0.251 C 
ATOM     41  H   UNL     1       2.940  -3.061  -0.759  1.00  0.00     0.163 HD
ATOM     42  O   UNL     1       1.857  -4.127  -2.444  1.00  0.00    -0.269 OA
BRANCH  40  43
ATOM     43  C   UNL     1      -0.300  -4.455  -1.365  1.00  0.00     0.039 A 
ATOM     44  C   UNL     1      -0.405  -5.858  -1.382  1.00  0.00     0.014 A 
ATOM     45  C   UNL     1      -1.578  -3.905  -1.307  1.00  0.00     0.014 A 
ATOM     46  C   UNL     1      -1.503  -6.614  -0.869  1.00  0.00     0.010 A 
ATOM     47  C   UNL     1      -2.685  -4.609  -0.721  1.00  0.00     0.010 A 
ATOM     48  C   UNL     1      -2.647  -5.980  -0.413  1.00  0.00    -0.014 A 
BRANCH  48  49
ATOM     49  C   UNL     1      -3.837  -6.733   0.158  1.00  0.00     0.031 A 
ATOM     50  C   UNL     1      -5.172  -6.630  -0.551  1.00  0.00     0.074 A 
ATOM     51  C   UNL     1      -3.816  -7.485   1.289  1.00  0.00     0.049 A 
ATOM     52  N   UNL     1      -6.359  -7.047  -0.180  1.00  0.00    -0.248 NA
ATOM     53  C   UNL     1      -5.166  -5.929  -1.842  1.00  0.00     0.031 C 
ATOM     54  C   UNL     1      -2.655  -7.736   2.143  1.00  0.00     0.029 A 
ATOM     55  N   UNL     1      -4.835  -8.175   1.934  1.00  0.00    -0.354 N 
ATOM     56  C   UNL     1      -7.244  -6.577  -1.144  1.00  0.00     0.074 A 
ATOM     57  C   UNL     1      -6.459  -5.812  -2.090  1.00  0.00     0.031 C 
ATOM     58  C   UNL     1      -3.021  -8.516   3.181  1.00  0.00     0.029 A 
ATOM     59  C   UNL     1      -4.453  -8.813   3.099  1.00  0.00     0.049 A 
ATOM     60  H   UNL     1      -5.757  -8.207   1.589  1.00  0.00     0.167 HD
ATOM     61  C   UNL     1      -8.576  -6.784  -1.285  1.00  0.00     0.034 A 
ATOM     62  C   UNL     1      -5.157  -9.548   3.997  1.00  0.00     0.034 A 
ATOM     63  C   UNL     1      -9.378  -7.633  -0.453  1.00  0.00     0.049 A 
ATOM     64  C   UNL     1      -6.644  -9.793   3.811  1.00  0.00     0.074 A 
ATOM     65  C   UNL     1     -10.718  -7.954  -0.597  1.00  0.00     0.029 A 
ATOM     66  N   UNL     1      -8.921  -8.318   0.658  1.00  0.00    -0.354 N 
ATOM     67  N   UNL     1      -7.428  -9.429   2.827  1.00  0.00    -0.248 NA
ATOM     68  C   UNL     1      -7.337 -10.583   4.850  1.00  0.00     0.031 C 
ATOM     69  C   UNL     1     -11.072  -8.835   0.429  1.00  0.00     0.029 A 
ATOM     70  C   UNL     1      -9.949  -9.068   1.204  1.00  0.00     0.049 A 
ATOM     71  H   UNL     1      -8.002  -8.278   1.008  1.00  0.00     0.167 HD
ATOM     72  C   UNL     1      -8.677  -9.992   3.097  1.00  0.00     0.074 A 
ATOM     73  C   UNL     1      -8.554 -10.722   4.337  1.00  0.00     0.031 C 
ATOM     74  C   UNL     1      -9.821  -9.894   2.377  1.00  0.00     0.034 A 
BRANCH  61  75
ATOM     75  C   UNL     1      -9.241  -6.104  -2.450  1.00  0.00     0.023 A 
ATOM     76  C   UNL     1      -8.990  -6.565  -3.759  1.00  0.00     0.012 A 
ATOM     77  C   UNL     1     -10.094  -5.003  -2.254  1.00  0.00     0.148 A 
ATOM     78  C   UNL     1      -9.520  -5.896  -4.859  1.00  0.00     0.002 A 
ATOM     79  C   UNL     1     -10.662  -4.373  -3.354  1.00  0.00     0.091 A 
ATOM     80  F   UNL     1     -10.307  -4.566  -1.004  1.00  0.00    -0.205 F 
ATOM     81  C   UNL     1     -10.361  -4.805  -4.657  1.00  0.00     0.022 A 
BRANCH  79  82
ATOM     82  S   UNL     1     -11.824  -3.017  -3.172  1.00  0.00     0.127 S 
ATOM     83  O   UNL     1     -10.955  -1.855  -3.348  1.00  0.00    -0.237 OA
ATOM     84  O   UNL     1     -12.757  -3.250  -4.275  1.00  0.00    -0.237 OA
ATOM     85  O   UNL     1     -12.409  -3.182  -1.849  1.00  0.00    -0.744 OA
ENDBRANCH  79  82
ENDBRANCH  61  75
BRANCH  62  86
ATOM     86  C   UNL     1      -4.475 -10.213   5.157  1.00  0.00     0.023 A 
ATOM     87  C   UNL     1      -4.356 -11.620   5.157  1.00  0.00     0.012 A 
ATOM     88  C   UNL     1      -4.016  -9.493   6.278  1.00  0.00     0.148 A 
ATOM     89  C   UNL     1      -3.829 -12.298   6.258  1.00  0.00     0.002 A 
ATOM     90  C   UNL     1      -3.452 -10.173   7.356  1.00  0.00     0.091 A 
ATOM     91  F   UNL     1      -4.158  -8.161   6.276  1.00  0.00    -0.205 F 
ATOM     92  C   UNL     1      -3.372 -11.575   7.354  1.00  0.00     0.022 A 
BRANCH  90  93
ATOM     93  S   UNL     1      -2.765  -9.337   8.792  1.00  0.00     0.127 S 
ATOM     94  O   UNL     1      -3.614  -9.842   9.869  1.00  0.00    -0.237 OA
ATOM     95  O   UNL     1      -1.393  -9.845   8.802  1.00  0.00    -0.237 OA
ATOM     96  O   UNL     1      -2.887  -7.913   8.517  1.00  0.00    -0.744 OA
ENDBRANCH  90  93
ENDBRANCH  62  86
BRANCH  74  97
ATOM     97  C   UNL     1     -11.050 -10.649   2.824  1.00  0.00     0.023 A 
ATOM     98  C   UNL     1     -11.812 -10.176   3.909  1.00  0.00     0.012 A 
ATOM     99  C   UNL     1     -11.534 -11.737   2.066  1.00  0.00     0.148 A 
ATOM    100  C   UNL     1     -13.031 -10.774   4.236  1.00  0.00     0.002 A 
ATOM    101  C   UNL     1     -12.770 -12.301   2.371  1.00  0.00     0.091 A 
ATOM    102  F   UNL     1     -10.789 -12.186   1.046  1.00  0.00    -0.205 F 
ATOM    103  C   UNL     1     -13.517 -11.825   3.460  1.00  0.00     0.022 A 
BRANCH 101 104
ATOM    104  S   UNL     1     -13.522 -13.588   1.365  1.00  0.00     0.127 S 
ATOM    105  O   UNL     1     -13.420 -14.753   2.243  1.00  0.00    -0.237 OA
ATOM    106  O   UNL     1     -14.883 -13.083   1.180  1.00  0.00    -0.237 OA
ATOM    107  O   UNL     1     -12.732 -13.658   0.143  1.00  0.00    -0.744 OA
ENDBRANCH 101 104
ENDBRANCH  74  97
ENDBRANCH  48  49
ENDBRANCH  40  43
ENDBRANCH  38  39
ENDBRANCH  37  38
ENDBRANCH  36  37
ENDBRANCH   1  36
TORSDOF 19
