REMARK SMILES COc1ccc(-c2nc(C(C)C)cc3nn(CC(=O)NCCCCNC(=O)c4ccc(-c5c6nc(c(-c7cccc(S(=O)(=O)[O-])c7F)c7ccc([nH]7)c(-c7cccc(S(=O)(=O)[O-])c7F)c7nc(c(-c8cccc(S(=O)(=O)[O-])c8F)c8ccc5[nH]8)C=C7)C=C6)cc4)c(=O)n23)cc1
REMARK SMILES IDX 22 1 21 2 20 3 18 4 19 5 17 7 16 8 7 9 8 10 93 11 9 12 14 13
REMARK SMILES IDX 91 14 13 15 15 16 92 17 6 18 3 19 4 20 95 21 5 22 94 23 2 24
REMARK SMILES IDX 1 25 10 26 11 27 12 28 23 29 24 30 25 31 26 32 27 34 28 35
REMARK SMILES IDX 29 36 90 37 30 38 89 39 31 40 32 41 33 42 83 43 34 44 88 45
REMARK SMILES IDX 82 46 84 47 35 48 87 49 81 50 80 51 36 53 68 54 48 55 67 56
REMARK SMILES IDX 49 57 52 58 66 59 85 60 50 61 51 62 65 64 86 65 53 66 37 67
REMARK SMILES IDX 38 68 46 69 39 70 41 71 47 72 40 73 42 74 43 75 44 76 45 77
REMARK SMILES IDX 69 78 70 79 78 80 71 81 73 82 79 83 72 84 74 85 75 86 76 87
REMARK SMILES IDX 77 88 54 89 55 90 63 91 56 92 58 93 64 94 57 95 59 96 60 97
REMARK SMILES IDX 61 98 62 99
REMARK H PARENT 20 6 25 33 84 52 52 63
REMARK Flexibility Score: inf
ROOT
ATOM      1  C   UNL     1      -0.831   8.230  -5.524  1.00  0.00     0.023 C 
ENDROOT
BRANCH   1   2
ATOM      2  C   UNL     1      -1.141   9.341  -4.510  1.00  0.00     0.116 C 
BRANCH   2   3
ATOM      3  N   UNL     1      -1.921   8.858  -3.388  1.00  0.00    -0.354 N 
ATOM      4  C   UNL     1      -1.529   8.566  -2.111  1.00  0.00     0.241 C 
ATOM      5  O   UNL     1      -2.392   8.189  -1.315  1.00  0.00    -0.273 OA
ATOM      6  H   UNL     1      -2.878   8.720  -3.572  1.00  0.00     0.163 HD
BRANCH   4   7
ATOM      7  C   UNL     1      -0.083   8.764  -1.659  1.00  0.00     0.249 C 
BRANCH   7   8
ATOM      8  N   UNL     1       0.816   7.945  -2.435  1.00  0.00    -0.203 N 
ATOM      9  C   UNL     1       2.348   5.012  -3.822  1.00  0.00     0.150 A 
ATOM     10  N   UNL     1       3.286   4.963  -4.725  1.00  0.00    -0.234 NA
ATOM     11  N   UNL     1       1.841   6.213  -3.347  1.00  0.00    -0.226 N 
ATOM     12  C   UNL     1       3.765   6.155  -5.235  1.00  0.00     0.049 A 
ATOM     13  C   UNL     1       2.293   7.394  -3.819  1.00  0.00     0.165 A 
ATOM     14  C   UNL     1       0.895   6.549  -2.385  1.00  0.00     0.352 A 
ATOM     15  C   UNL     1       3.332   7.362  -4.839  1.00  0.00     0.073 A 
ATOM     16  N   UNL     1       1.744   8.454  -3.316  1.00  0.00    -0.149 NA
ATOM     17  O   UNL     1       0.265   5.807  -1.640  1.00  0.00    -0.245 OA
BRANCH   9  18
ATOM     18  C   UNL     1       1.830   3.762  -3.230  1.00  0.00     0.018 A 
ATOM     19  C   UNL     1       0.920   1.444  -1.975  1.00  0.00     0.118 A 
ATOM     20  C   UNL     1       0.037   2.228  -2.721  1.00  0.00     0.047 A 
ATOM     21  C   UNL     1       2.271   1.789  -1.906  1.00  0.00     0.047 A 
ATOM     22  C   UNL     1       0.487   3.393  -3.350  1.00  0.00     0.016 A 
ATOM     23  C   UNL     1       2.728   2.947  -2.536  1.00  0.00     0.016 A 
BRANCH  19  24
ATOM     24  O   UNL     1       0.397   0.320  -1.395  1.00  0.00    -0.497 OA
ATOM     25  C   UNL     1       0.835   0.110  -0.055  1.00  0.00     0.278 C 
ENDBRANCH  19  24
ENDBRANCH   9  18
BRANCH  12  26
ATOM     26  C   UNL     1       4.858   6.021  -6.288  1.00  0.00     0.032 C 
ATOM     27  C   UNL     1       4.448   6.635  -7.630  1.00  0.00     0.014 C 
ATOM     28  C   UNL     1       6.179   6.623  -5.798  1.00  0.00     0.014 C 
ENDBRANCH  12  26
ENDBRANCH   7   8
ENDBRANCH   4   7
ENDBRANCH   2   3
ENDBRANCH   1   2
BRANCH   1  29
ATOM     29  C   UNL     1      -2.037   7.640  -6.270  1.00  0.00     0.023 C 
BRANCH  29  30
ATOM     30  C   UNL     1      -2.787   8.630  -7.148  1.00  0.00     0.116 C 
BRANCH  30  31
ATOM     31  N   UNL     1      -1.978   9.134  -8.264  1.00  0.00    -0.352 N 
ATOM     32  C   UNL     1      -2.329  10.095  -9.196  1.00  0.00     0.251 C 
ATOM     33  H   UNL     1      -1.080   8.743  -8.361  1.00  0.00     0.163 HD
ATOM     34  O   UNL     1      -1.762  10.163 -10.281  1.00  0.00    -0.269 OA
BRANCH  32  35
ATOM     35  C   UNL     1      -3.389  11.055  -8.843  1.00  0.00     0.039 A 
ATOM     36  C   UNL     1      -4.373  11.455  -9.753  1.00  0.00     0.014 A 
ATOM     37  C   UNL     1      -3.392  11.524  -7.534  1.00  0.00     0.014 A 
ATOM     38  C   UNL     1      -5.407  12.274  -9.303  1.00  0.00     0.010 A 
ATOM     39  C   UNL     1      -4.498  12.162  -7.051  1.00  0.00     0.010 A 
ATOM     40  C   UNL     1      -5.464  12.610  -7.944  1.00  0.00    -0.014 A 
BRANCH  40  41
ATOM     41  C   UNL     1      -6.578  13.356  -7.376  1.00  0.00     0.031 A 
ATOM     42  C   UNL     1      -7.891  12.659  -7.476  1.00  0.00     0.074 A 
ATOM     43  C   UNL     1      -6.357  14.426  -6.578  1.00  0.00     0.049 A 
ATOM     44  N   UNL     1      -8.934  13.021  -8.147  1.00  0.00    -0.248 NA
ATOM     45  C   UNL     1      -8.006  11.311  -6.892  1.00  0.00     0.031 C 
ATOM     46  C   UNL     1      -5.059  14.957  -6.127  1.00  0.00     0.029 A 
ATOM     47  N   UNL     1      -7.238  15.158  -5.847  1.00  0.00    -0.354 N 
ATOM     48  C   UNL     1      -9.915  12.072  -7.854  1.00  0.00     0.074 A 
ATOM     49  C   UNL     1      -9.222  10.944  -7.300  1.00  0.00     0.031 C 
ATOM     50  C   UNL     1      -5.238  15.703  -5.016  1.00  0.00     0.029 A 
ATOM     51  C   UNL     1      -6.660  15.848  -4.781  1.00  0.00     0.049 A 
ATOM     52  H   UNL     1      -8.200  15.198  -6.052  1.00  0.00     0.167 HD
ATOM     53  C   UNL     1     -11.237  12.409  -7.825  1.00  0.00     0.034 A 
ATOM     54  C   UNL     1      -7.308  16.434  -3.743  1.00  0.00     0.034 A 
ATOM     55  C   UNL     1     -11.447  13.702  -8.428  1.00  0.00     0.049 A 
ATOM     56  C   UNL     1      -8.720  16.599  -4.156  1.00  0.00     0.074 A 
ATOM     57  C   UNL     1     -11.206  14.255  -9.669  1.00  0.00     0.029 A 
ATOM     58  N   UNL     1     -11.614  14.757  -7.564  1.00  0.00    -0.354 N 
ATOM     59  N   UNL     1      -9.097  17.380  -5.130  1.00  0.00    -0.248 NA
ATOM     60  C   UNL     1      -9.653  15.544  -3.797  1.00  0.00     0.031 C 
ATOM     61  C   UNL     1     -10.764  15.581  -9.393  1.00  0.00     0.029 A 
ATOM     62  C   UNL     1     -10.843  15.791  -8.014  1.00  0.00     0.049 A 
ATOM     63  H   UNL     1     -12.188  14.766  -6.763  1.00  0.00     0.167 HD
ATOM     64  C   UNL     1     -10.062  16.642  -5.802  1.00  0.00     0.074 A 
ATOM     65  C   UNL     1     -10.438  15.572  -4.878  1.00  0.00     0.031 C 
ATOM     66  C   UNL     1     -10.238  16.778  -7.148  1.00  0.00     0.034 A 
BRANCH  53  67
ATOM     67  C   UNL     1     -12.293  11.805  -6.917  1.00  0.00     0.023 A 
ATOM     68  C   UNL     1     -13.621  12.264  -7.093  1.00  0.00     0.012 A 
ATOM     69  C   UNL     1     -12.034  11.057  -5.745  1.00  0.00     0.148 A 
ATOM     70  C   UNL     1     -14.608  12.068  -6.122  1.00  0.00     0.002 A 
ATOM     71  C   UNL     1     -13.039  10.799  -4.817  1.00  0.00     0.091 A 
ATOM     72  F   UNL     1     -10.790  10.690  -5.440  1.00  0.00    -0.205 F 
ATOM     73  C   UNL     1     -14.318  11.333  -4.982  1.00  0.00     0.022 A 
BRANCH  71  74
ATOM     74  S   UNL     1     -12.733   9.815  -3.343  1.00  0.00     0.127 S 
ATOM     75  O   UNL     1     -12.773  10.834  -2.299  1.00  0.00    -0.237 OA
ATOM     76  O   UNL     1     -13.871   8.896  -3.359  1.00  0.00    -0.237 OA
ATOM     77  O   UNL     1     -11.443   9.171  -3.560  1.00  0.00    -0.744 OA
ENDBRANCH  71  74
ENDBRANCH  53  67
BRANCH  54  78
ATOM     78  C   UNL     1      -6.882  16.609  -2.333  1.00  0.00     0.023 A 
ATOM     79  C   UNL     1      -7.502  17.587  -1.529  1.00  0.00     0.012 A 
ATOM     80  C   UNL     1      -6.074  15.640  -1.697  1.00  0.00     0.148 A 
ATOM     81  C   UNL     1      -7.348  17.581  -0.136  1.00  0.00     0.002 A 
ATOM     82  C   UNL     1      -5.917  15.643  -0.313  1.00  0.00     0.091 A 
ATOM     83  F   UNL     1      -5.537  14.662  -2.439  1.00  0.00    -0.205 F 
ATOM     84  C   UNL     1      -6.563  16.605   0.473  1.00  0.00     0.022 A 
BRANCH  82  85
ATOM     85  S   UNL     1      -4.941  14.399   0.543  1.00  0.00     0.127 S 
ATOM     86  O   UNL     1      -4.088  15.223   1.401  1.00  0.00    -0.237 OA
ATOM     87  O   UNL     1      -5.971  13.642   1.248  1.00  0.00    -0.237 OA
ATOM     88  O   UNL     1      -4.222  13.675  -0.498  1.00  0.00    -0.744 OA
ENDBRANCH  82  85
ENDBRANCH  54  78
BRANCH  66  89
ATOM     89  C   UNL     1      -9.556  17.923  -7.851  1.00  0.00     0.023 A 
ATOM     90  C   UNL     1      -8.155  18.002  -8.003  1.00  0.00     0.012 A 
ATOM     91  C   UNL     1     -10.372  18.805  -8.575  1.00  0.00     0.148 A 
ATOM     92  C   UNL     1      -7.585  18.946  -8.863  1.00  0.00     0.002 A 
ATOM     93  C   UNL     1      -9.806  19.701  -9.470  1.00  0.00     0.091 A 
ATOM     94  F   UNL     1     -11.701  18.712  -8.411  1.00  0.00    -0.205 F 
ATOM     95  C   UNL     1      -8.412  19.781  -9.612  1.00  0.00     0.022 A 
BRANCH  93  96
ATOM     96  S   UNL     1     -10.825  20.684 -10.570  1.00  0.00     0.127 S 
ATOM     97  O   UNL     1     -10.687  22.021  -9.998  1.00  0.00    -0.237 OA
ATOM     98  O   UNL     1     -10.161  20.497 -11.861  1.00  0.00    -0.237 OA
ATOM     99  O   UNL     1     -12.163  20.109 -10.501  1.00  0.00    -0.744 OA
ENDBRANCH  93  96
ENDBRANCH  66  89
ENDBRANCH  40  41
ENDBRANCH  32  35
ENDBRANCH  30  31
ENDBRANCH  29  30
ENDBRANCH   1  29
TORSDOF 18
