REMARK SMILES CC(=O)Nc1cnc(N(C)CCc2cn[nH]c2)c(C(=O)NCCCCNC(=O)c2ccc(-c3c4nc(c(-c5cccc(S(=O)(=O)[O-])c5F)c5ccc([nH]5)c(-c5cccc(S(=O)(=O)[O-])c5F)c5nc(c(-c6cccc(S(=O)(=O)[O-])c6F)c6ccc3[nH]6)C=C5)C=C4)cc2)c1
REMARK SMILES IDX 23 1 22 2 21 3 19 4 20 5 18 7 5 8 6 9 92 10 7 11 8 12 4 13
REMARK SMILES IDX 1 14 2 15 3 16 9 18 10 19 11 20 12 21 13 22 14 23 17 24
REMARK SMILES IDX 15 25 16 26 24 28 25 29 26 30 27 31 28 33 29 34 30 35 91 36
REMARK SMILES IDX 31 37 90 38 32 39 33 40 34 41 84 42 35 43 89 44 83 45 85 46
REMARK SMILES IDX 36 47 88 48 82 49 81 50 37 52 69 53 49 54 68 55 50 56 53 57
REMARK SMILES IDX 67 58 86 59 51 60 52 61 66 63 87 64 54 65 38 66 39 67 47 68
REMARK SMILES IDX 40 69 42 70 48 71 41 72 43 73 44 74 45 75 46 76 70 77 71 78
REMARK SMILES IDX 79 79 72 80 74 81 80 82 73 83 75 84 76 85 77 86 78 87 55 88
REMARK SMILES IDX 56 89 64 90 57 91 59 92 65 93 58 94 60 95 61 96 62 97 63 98
REMARK H PARENT 21 6 4 17 16 27 26 32 85 51 53 62
REMARK Flexibility Score: inf
ROOT
ATOM      1  C   UNL     1       5.456  -0.575   1.087  1.00  0.00     0.023 C 
ENDROOT
BRANCH   1   2
ATOM      2  C   UNL     1       4.975  -0.228  -0.324  1.00  0.00     0.116 C 
BRANCH   2   3
ATOM      3  N   UNL     1       5.703  -1.057  -1.263  1.00  0.00    -0.352 N 
ATOM      4  C   UNL     1       5.333  -2.223  -1.885  1.00  0.00     0.255 C 
ATOM      5  O   UNL     1       6.212  -2.999  -2.252  1.00  0.00    -0.269 OA
ATOM      6  H   UNL     1       6.604  -0.733  -1.491  1.00  0.00     0.163 HD
BRANCH   4   7
ATOM      7  C   UNL     1       3.916  -2.543  -2.155  1.00  0.00     0.084 A 
ATOM      8  C   UNL     1       1.728  -3.063  -1.248  1.00  0.00     0.060 A 
ATOM      9  C   UNL     1       1.403  -3.534  -2.501  1.00  0.00     0.139 A 
ATOM     10  C   UNL     1       3.031  -2.631  -1.060  1.00  0.00     0.045 A 
ATOM     11  N   UNL     1       2.224  -3.444  -3.569  1.00  0.00    -0.236 NA
ATOM     12  C   UNL     1       3.475  -2.908  -3.443  1.00  0.00     0.141 A 
BRANCH   8  13
ATOM     13  N   UNL     1       0.779  -3.096  -0.218  1.00  0.00    -0.325 N 
ATOM     14  C   UNL     1       0.907  -0.684   0.348  1.00  0.00     0.114 C 
ATOM     15  C   UNL     1       0.427  -2.084   0.637  1.00  0.00     0.221 C 
ATOM     16  O   UNL     1      -0.354  -2.314   1.560  1.00  0.00    -0.275 OA
ATOM     17  H   UNL     1       0.307  -3.951  -0.093  1.00  0.00     0.169 HD
ENDBRANCH   8  13
BRANCH  12  18
ATOM     18  N   UNL     1       4.152  -2.723  -4.636  1.00  0.00    -0.359 N 
ATOM     19  C   UNL     1       3.744  -3.516  -5.794  1.00  0.00     0.145 C 
BRANCH  18  20
ATOM     20  C   UNL     1       5.207  -1.727  -4.891  1.00  0.00     0.122 C 
BRANCH  20  21
ATOM     21  C   UNL     1       4.682  -0.335  -5.274  1.00  0.00     0.060 C 
BRANCH  21  22
ATOM     22  C   UNL     1       3.962   0.411  -4.201  1.00  0.00    -0.008 A 
ATOM     23  C   UNL     1       4.433   1.494  -3.421  1.00  0.00     0.138 A 
ATOM     24  C   UNL     1       2.662   0.244  -3.773  1.00  0.00     0.108 A 
ATOM     25  N   UNL     1       3.523   1.930  -2.544  1.00  0.00    -0.184 NA
ATOM     26  N   UNL     1       2.454   1.159  -2.789  1.00  0.00    -0.285 N 
ATOM     27  H   UNL     1       1.603   1.246  -2.303  1.00  0.00     0.189 HD
ENDBRANCH  21  22
ENDBRANCH  20  21
ENDBRANCH  18  20
ENDBRANCH  12  18
ENDBRANCH   4   7
ENDBRANCH   2   3
ENDBRANCH   1   2
BRANCH   1  28
ATOM     28  C   UNL     1       6.734   0.182   1.460  1.00  0.00     0.023 C 
BRANCH  28  29
ATOM     29  C   UNL     1       6.532   1.685   1.611  1.00  0.00     0.116 C 
BRANCH  29  30
ATOM     30  N   UNL     1       5.564   2.008   2.651  1.00  0.00    -0.352 N 
ATOM     31  C   UNL     1       5.672   2.937   3.658  1.00  0.00     0.251 C 
ATOM     32  H   UNL     1       4.724   1.495   2.629  1.00  0.00     0.163 HD
ATOM     33  O   UNL     1       4.850   2.980   4.559  1.00  0.00    -0.269 OA
BRANCH  31  34
ATOM     34  C   UNL     1       6.820   3.864   3.632  1.00  0.00     0.039 A 
ATOM     35  C   UNL     1       7.618   3.986   4.770  1.00  0.00     0.014 A 
ATOM     36  C   UNL     1       7.132   4.556   2.459  1.00  0.00     0.014 A 
ATOM     37  C   UNL     1       8.771   4.768   4.712  1.00  0.00     0.010 A 
ATOM     38  C   UNL     1       8.321   5.267   2.381  1.00  0.00     0.010 A 
ATOM     39  C   UNL     1       9.148   5.388   3.508  1.00  0.00    -0.014 A 
BRANCH  39  40
ATOM     40  C   UNL     1      10.406   6.167   3.405  1.00  0.00     0.031 A 
ATOM     41  C   UNL     1      10.355   7.636   3.086  1.00  0.00     0.074 A 
ATOM     42  C   UNL     1      11.591   5.535   3.512  1.00  0.00     0.049 A 
ATOM     43  N   UNL     1      11.342   8.473   2.902  1.00  0.00    -0.248 NA
ATOM     44  C   UNL     1       9.020   8.237   2.921  1.00  0.00     0.031 C 
ATOM     45  C   UNL     1      11.769   4.098   3.737  1.00  0.00     0.029 A 
ATOM     46  N   UNL     1      12.873   6.016   3.421  1.00  0.00    -0.354 N 
ATOM     47  C   UNL     1      10.752   9.686   2.567  1.00  0.00     0.074 A 
ATOM     48  C   UNL     1       9.323   9.467   2.532  1.00  0.00     0.031 C 
ATOM     49  C   UNL     1      13.082   3.818   3.775  1.00  0.00     0.029 A 
ATOM     50  C   UNL     1      13.838   5.045   3.547  1.00  0.00     0.049 A 
ATOM     51  H   UNL     1      13.082   6.968   3.279  1.00  0.00     0.167 HD
ATOM     52  C   UNL     1      11.343  10.883   2.342  1.00  0.00     0.034 A 
ATOM     53  C   UNL     1      15.181   5.133   3.482  1.00  0.00     0.034 A 
ATOM     54  C   UNL     1      12.761  11.104   2.422  1.00  0.00     0.049 A 
ATOM     55  C   UNL     1      15.812   6.483   3.270  1.00  0.00     0.074 A 
ATOM     56  C   UNL     1      13.454  12.294   2.300  1.00  0.00     0.029 A 
ATOM     57  N   UNL     1      13.705  10.111   2.639  1.00  0.00    -0.354 N 
ATOM     58  N   UNL     1      15.234   7.650   3.117  1.00  0.00    -0.248 NA
ATOM     59  C   UNL     1      17.281   6.535   3.259  1.00  0.00     0.031 C 
ATOM     60  C   UNL     1      14.820  12.018   2.419  1.00  0.00     0.029 A 
ATOM     61  C   UNL     1      14.975  10.660   2.645  1.00  0.00     0.049 A 
ATOM     62  H   UNL     1      13.501   9.157   2.770  1.00  0.00     0.167 HD
ATOM     63  C   UNL     1      16.265   8.578   3.030  1.00  0.00     0.074 A 
ATOM     64  C   UNL     1      17.503   7.839   3.169  1.00  0.00     0.031 C 
ATOM     65  C   UNL     1      16.195   9.918   2.839  1.00  0.00     0.034 A 
BRANCH  52  66
ATOM     66  C   UNL     1      10.450  12.058   2.042  1.00  0.00     0.023 A 
ATOM     67  C   UNL     1       9.642  12.596   3.065  1.00  0.00     0.012 A 
ATOM     68  C   UNL     1      10.447  12.663   0.771  1.00  0.00     0.148 A 
ATOM     69  C   UNL     1       8.817  13.692   2.818  1.00  0.00     0.002 A 
ATOM     70  C   UNL     1       9.658  13.785   0.545  1.00  0.00     0.091 A 
ATOM     71  F   UNL     1      11.205  12.125  -0.196  1.00  0.00    -0.205 F 
ATOM     72  C   UNL     1       8.834  14.293   1.563  1.00  0.00     0.022 A 
BRANCH  70  73
ATOM     73  S   UNL     1       9.669  14.681  -1.012  1.00  0.00     0.127 S 
ATOM     74  O   UNL     1       8.346  14.359  -1.546  1.00  0.00    -0.237 OA
ATOM     75  O   UNL     1       9.826  16.066  -0.568  1.00  0.00    -0.237 OA
ATOM     76  O   UNL     1      10.794  14.154  -1.771  1.00  0.00    -0.744 OA
ENDBRANCH  70  73
ENDBRANCH  52  66
BRANCH  53  77
ATOM     77  C   UNL     1      16.021   3.919   3.689  1.00  0.00     0.023 A 
ATOM     78  C   UNL     1      16.790   3.804   4.863  1.00  0.00     0.012 A 
ATOM     79  C   UNL     1      16.047   2.875   2.745  1.00  0.00     0.148 A 
ATOM     80  C   UNL     1      17.598   2.686   5.078  1.00  0.00     0.002 A 
ATOM     81  C   UNL     1      16.812   1.740   2.991  1.00  0.00     0.091 A 
ATOM     82  F   UNL     1      15.316   3.008   1.629  1.00  0.00    -0.205 F 
ATOM     83  C   UNL     1      17.602   1.651   4.147  1.00  0.00     0.022 A 
BRANCH  81  84
ATOM     84  S   UNL     1      16.778   0.304   1.912  1.00  0.00     0.127 S 
ATOM     85  O   UNL     1      18.103   0.358   1.300  1.00  0.00    -0.237 OA
ATOM     86  O   UNL     1      16.583  -0.787   2.867  1.00  0.00    -0.237 OA
ATOM     87  O   UNL     1      15.654   0.518   1.010  1.00  0.00    -0.744 OA
ENDBRANCH  81  84
ENDBRANCH  53  77
BRANCH  65  88
ATOM     88  C   UNL     1      17.489  10.688   2.806  1.00  0.00     0.023 A 
ATOM     89  C   UNL     1      18.347  10.574   1.694  1.00  0.00     0.012 A 
ATOM     90  C   UNL     1      17.816  11.584   3.843  1.00  0.00     0.148 A 
ATOM     91  C   UNL     1      19.527  11.314   1.631  1.00  0.00     0.002 A 
ATOM     92  C   UNL     1      18.967  12.356   3.749  1.00  0.00     0.091 A 
ATOM     93  F   UNL     1      16.996  11.665   4.901  1.00  0.00    -0.205 F 
ATOM     94  C   UNL     1      19.830  12.213   2.651  1.00  0.00     0.022 A 
BRANCH  92  95
ATOM     95  S   UNL     1      19.388  13.610   4.965  1.00  0.00     0.127 S 
ATOM     96  O   UNL     1      20.520  12.991   5.652  1.00  0.00    -0.237 OA
ATOM     97  O   UNL     1      19.737  14.754   4.122  1.00  0.00    -0.237 OA
ATOM     98  O   UNL     1      18.192  13.800   5.776  1.00  0.00    -0.744 OA
ENDBRANCH  92  95
ENDBRANCH  65  88
ENDBRANCH  39  40
ENDBRANCH  31  34
ENDBRANCH  29  30
ENDBRANCH  28  29
ENDBRANCH   1  28
TORSDOF 19
