REMARK SMILES CC(=O)Oc1cc(CCC(=O)NCCCCNC(=O)c2ccc(-c3c4nc(c(-c5cccc(S(=O)(=O)[O-])c5F)c5ccc([nH]5)c(-c5cccc(S(=O)(=O)[O-])c5F)c5nc(c(-c6cccc(S(=O)(=O)[O-])c6F)c6ccc3[nH]6)C=C5)C=C4)cc2)c(OC(C)=O)c2c1C(=O)c1ccccc1C2=O
REMARK SMILES IDX 14 1 13 2 12 3 10 4 11 5 9 7 8 8 7 9 5 10 6 11 89 12 88 13
REMARK SMILES IDX 90 14 83 15 98 16 91 17 92 18 97 19 99 20 93 21 96 22 94 23
REMARK SMILES IDX 95 24 4 25 2 26 1 27 3 28 84 29 85 30 86 31 87 32 15 33
REMARK SMILES IDX 16 34 17 35 18 36 19 38 20 39 21 40 82 41 22 42 81 43 23 44
REMARK SMILES IDX 24 45 25 46 75 47 26 48 80 49 74 50 76 51 27 52 79 53 73 54
REMARK SMILES IDX 72 55 28 57 60 58 40 59 59 60 41 61 44 62 58 63 77 64 42 65
REMARK SMILES IDX 43 66 57 68 78 69 45 70 29 71 30 72 38 73 31 74 33 75 39 76
REMARK SMILES IDX 32 77 34 78 35 79 36 80 37 81 61 82 62 83 70 84 63 85 65 86
REMARK SMILES IDX 71 87 64 88 66 89 67 90 68 91 69 92 46 93 47 94 55 95 48 96
REMARK SMILES IDX 50 97 56 98 49 99 51 100 52 101 53 102 54 103
REMARK H PARENT 12 6 17 37 76 56 44 67
REMARK Flexibility Score: inf
ROOT
ATOM      1  C   UNL     1      -0.722  -6.263  -0.846  1.00  0.00     0.023 C 
ENDROOT
BRANCH   1   2
ATOM      2  C   UNL     1       0.360  -6.949  -0.032  1.00  0.00     0.116 C 
BRANCH   2   3
ATOM      3  N   UNL     1       0.990  -7.986  -0.836  1.00  0.00    -0.356 N 
ATOM      4  C   UNL     1       1.856  -7.845  -1.882  1.00  0.00     0.220 C 
ATOM      5  O   UNL     1       2.136  -8.837  -2.558  1.00  0.00    -0.275 OA
ATOM      6  H   UNL     1       0.761  -8.912  -0.593  1.00  0.00     0.163 HD
BRANCH   4   7
ATOM      7  C   UNL     1       2.501  -6.501  -2.182  1.00  0.00     0.105 C 
BRANCH   7   8
ATOM      8  C   UNL     1       2.117  -5.903  -3.549  1.00  0.00     0.049 C 
BRANCH   8   9
ATOM      9  C   UNL     1       1.033  -4.852  -3.478  1.00  0.00    -0.000 A 
ATOM     10  C   UNL     1       0.342  -2.687  -2.607  1.00  0.00     0.143 A 
ATOM     11  C   UNL     1       1.348  -3.615  -2.901  1.00  0.00     0.055 A 
ATOM     12  C   UNL     1      -1.006  -2.942  -2.907  1.00  0.00     0.080 A 
ATOM     13  C   UNL     1      -1.346  -4.150  -3.519  1.00  0.00     0.081 A 
ATOM     14  C   UNL     1      -2.066  -1.982  -2.517  1.00  0.00     0.198 C 
ATOM     15  C   UNL     1      -0.313  -5.065  -3.829  1.00  0.00     0.146 A 
ATOM     16  C   UNL     1      -2.780  -4.469  -3.712  1.00  0.00     0.198 C 
ATOM     17  O   UNL     1      -1.806  -0.809  -2.278  1.00  0.00    -0.288 OA
ATOM     18  C   UNL     1      -3.449  -2.473  -2.397  1.00  0.00     0.034 A 
ATOM     19  C   UNL     1      -3.791  -3.703  -2.951  1.00  0.00     0.034 A 
ATOM     20  O   UNL     1      -3.136  -5.337  -4.495  1.00  0.00    -0.288 OA
ATOM     21  C   UNL     1      -4.410  -1.706  -1.729  1.00  0.00     0.013 A 
ATOM     22  C   UNL     1      -5.096  -4.191  -2.809  1.00  0.00     0.013 A 
ATOM     23  C   UNL     1      -5.714  -2.185  -1.605  1.00  0.00     0.001 A 
ATOM     24  C   UNL     1      -6.053  -3.432  -2.131  1.00  0.00     0.001 A 
BRANCH  10  25
ATOM     25  O   UNL     1       0.741  -1.513  -1.962  1.00  0.00    -0.426 OA
BRANCH  25  26
ATOM     26  C   UNL     1       0.549  -1.587  -0.585  1.00  0.00     0.308 C 
ATOM     27  C   UNL     1       0.827  -0.243   0.020  1.00  0.00     0.139 C 
ATOM     28  O   UNL     1       0.277  -2.600   0.051  1.00  0.00    -0.252 OA
ENDBRANCH  25  26
ENDBRANCH  10  25
BRANCH  15  29
ATOM     29  O   UNL     1      -0.708  -6.430  -4.316  1.00  0.00    -0.426 OA
BRANCH  29  30
ATOM     30  C   UNL     1      -0.974  -7.755  -4.810  1.00  0.00     0.308 C 
ATOM     31  C   UNL     1       0.214  -8.324  -5.515  1.00  0.00     0.139 C 
ATOM     32  O   UNL     1      -2.025  -8.345  -4.617  1.00  0.00    -0.252 OA
ENDBRANCH  29  30
ENDBRANCH  15  29
ENDBRANCH   8   9
ENDBRANCH   7   8
ENDBRANCH   4   7
ENDBRANCH   2   3
ENDBRANCH   1   2
BRANCH   1  33
ATOM     33  C   UNL     1      -2.141  -6.760  -0.655  1.00  0.00     0.023 C 
BRANCH  33  34
ATOM     34  C   UNL     1      -2.807  -6.330   0.636  1.00  0.00     0.116 C 
BRANCH  34  35
ATOM     35  N   UNL     1      -2.726  -4.904   0.931  1.00  0.00    -0.352 N 
ATOM     36  C   UNL     1      -3.670  -4.054   1.464  1.00  0.00     0.251 C 
ATOM     37  H   UNL     1      -1.863  -4.483   0.716  1.00  0.00     0.163 HD
ATOM     38  O   UNL     1      -3.388  -2.868   1.625  1.00  0.00    -0.269 OA
BRANCH  36  39
ATOM     39  C   UNL     1      -5.034  -4.537   1.793  1.00  0.00     0.039 A 
ATOM     40  C   UNL     1      -6.121  -3.679   1.591  1.00  0.00     0.014 A 
ATOM     41  C   UNL     1      -5.261  -5.828   2.265  1.00  0.00     0.014 A 
ATOM     42  C   UNL     1      -7.428  -4.152   1.740  1.00  0.00     0.010 A 
ATOM     43  C   UNL     1      -6.551  -6.333   2.305  1.00  0.00     0.010 A 
ATOM     44  C   UNL     1      -7.648  -5.498   2.055  1.00  0.00    -0.014 A 
BRANCH  44  45
ATOM     45  C   UNL     1      -9.002  -6.074   2.215  1.00  0.00     0.031 A 
ATOM     46  C   UNL     1      -9.394  -6.627   3.557  1.00  0.00     0.074 A 
ATOM     47  C   UNL     1      -9.800  -6.237   1.142  1.00  0.00     0.049 A 
ATOM     48  N   UNL     1     -10.432  -7.347   3.885  1.00  0.00    -0.248 NA
ATOM     49  C   UNL     1      -8.456  -6.384   4.669  1.00  0.00     0.031 C 
ATOM     50  C   UNL     1      -9.484  -5.818  -0.225  1.00  0.00     0.029 A 
ATOM     51  N   UNL     1     -11.025  -6.843   1.028  1.00  0.00    -0.354 N 
ATOM     52  C   UNL     1     -10.240  -7.695   5.216  1.00  0.00     0.074 A 
ATOM     53  C   UNL     1      -8.968  -7.142   5.624  1.00  0.00     0.031 C 
ATOM     54  C   UNL     1     -10.487  -6.184  -1.041  1.00  0.00     0.029 A 
ATOM     55  C   UNL     1     -11.502  -6.886  -0.262  1.00  0.00     0.049 A 
ATOM     56  H   UNL     1     -11.517  -7.213   1.796  1.00  0.00     0.167 HD
ATOM     57  C   UNL     1     -11.065  -8.383   6.039  1.00  0.00     0.034 A 
ATOM     58  C   UNL     1     -12.629  -7.437  -0.753  1.00  0.00     0.034 A 
ATOM     59  C   UNL     1     -12.361  -8.857   5.644  1.00  0.00     0.049 A 
ATOM     60  C   UNL     1     -13.574  -8.120   0.201  1.00  0.00     0.074 A 
ATOM     61  C   UNL     1     -13.328  -9.470   6.417  1.00  0.00     0.029 A 
ATOM     62  N   UNL     1     -12.874  -8.755   4.359  1.00  0.00    -0.354 N 
ATOM     63  N   UNL     1     -13.451  -8.305   1.494  1.00  0.00    -0.248 NA
ATOM     64  C   UNL     1     -14.829  -8.640  -0.362  1.00  0.00     0.031 C 
ATOM     65  C   UNL     1     -14.429  -9.741   5.598  1.00  0.00     0.029 A 
ATOM     66  C   UNL     1     -14.149  -9.288   4.317  1.00  0.00     0.049 A 
ATOM     67  H   UNL     1     -12.401  -8.362   3.591  1.00  0.00     0.167 HD
ATOM     68  C   UNL     1     -14.625  -8.925   1.906  1.00  0.00     0.074 A 
ATOM     69  C   UNL     1     -15.454  -9.069   0.726  1.00  0.00     0.031 C 
ATOM     70  C   UNL     1     -14.980  -9.354   3.142  1.00  0.00     0.034 A 
BRANCH  57  71
ATOM     71  C   UNL     1     -10.611  -8.589   7.458  1.00  0.00     0.023 A 
ATOM     72  C   UNL     1     -10.566  -7.486   8.337  1.00  0.00     0.012 A 
ATOM     73  C   UNL     1     -10.233  -9.861   7.928  1.00  0.00     0.148 A 
ATOM     74  C   UNL     1     -10.110  -7.635   9.645  1.00  0.00     0.002 A 
ATOM     75  C   UNL     1      -9.822 -10.011   9.248  1.00  0.00     0.091 A 
ATOM     76  F   UNL     1     -10.255 -10.893   7.073  1.00  0.00    -0.205 F 
ATOM     77  C   UNL     1      -9.746  -8.898  10.102  1.00  0.00     0.022 A 
BRANCH  75  78
ATOM     78  S   UNL     1      -9.399 -11.608   9.952  1.00  0.00     0.127 S 
ATOM     79  O   UNL     1      -7.941 -11.524  10.021  1.00  0.00    -0.237 OA
ATOM     80  O   UNL     1     -10.073 -11.564  11.250  1.00  0.00    -0.237 OA
ATOM     81  O   UNL     1      -9.928 -12.603   9.030  1.00  0.00    -0.744 OA
ENDBRANCH  75  78
ENDBRANCH  57  71
BRANCH  58  82
ATOM     82  C   UNL     1     -12.974  -7.281  -2.195  1.00  0.00     0.023 A 
ATOM     83  C   UNL     1     -14.020  -6.407  -2.552  1.00  0.00     0.012 A 
ATOM     84  C   UNL     1     -12.271  -7.960  -3.209  1.00  0.00     0.148 A 
ATOM     85  C   UNL     1     -14.380  -6.233  -3.889  1.00  0.00     0.002 A 
ATOM     86  C   UNL     1     -12.606  -7.747  -4.543  1.00  0.00     0.091 A 
ATOM     87  F   UNL     1     -11.286  -8.794  -2.849  1.00  0.00    -0.205 F 
ATOM     88  C   UNL     1     -13.669  -6.896  -4.883  1.00  0.00     0.022 A 
BRANCH  86  89
ATOM     89  S   UNL     1     -11.677  -8.469  -5.901  1.00  0.00     0.127 S 
ATOM     90  O   UNL     1     -12.616  -9.465  -6.409  1.00  0.00    -0.237 OA
ATOM     91  O   UNL     1     -11.474  -7.312  -6.775  1.00  0.00    -0.237 OA
ATOM     92  O   UNL     1     -10.457  -8.992  -5.303  1.00  0.00    -0.744 OA
ENDBRANCH  86  89
ENDBRANCH  58  82
BRANCH  70  93
ATOM     93  C   UNL     1     -16.337  -9.982   3.300  1.00  0.00     0.023 A 
ATOM     94  C   UNL     1     -16.554 -11.295   2.841  1.00  0.00     0.012 A 
ATOM     95  C   UNL     1     -17.362  -9.309   3.994  1.00  0.00     0.148 A 
ATOM     96  C   UNL     1     -17.780 -11.923   3.052  1.00  0.00     0.002 A 
ATOM     97  C   UNL     1     -18.565  -9.958   4.241  1.00  0.00     0.091 A 
ATOM     98  F   UNL     1     -17.140  -8.052   4.404  1.00  0.00    -0.205 F 
ATOM     99  C   UNL     1     -18.780 -11.261   3.763  1.00  0.00     0.022 A 
BRANCH  97 100
ATOM    100  S   UNL     1     -19.865  -9.216   5.235  1.00  0.00     0.127 S 
ATOM    101  O   UNL     1     -20.825  -8.804   4.213  1.00  0.00    -0.237 OA
ATOM    102  O   UNL     1     -20.303 -10.337   6.067  1.00  0.00    -0.237 OA
ATOM    103  O   UNL     1     -19.229  -8.133   5.974  1.00  0.00    -0.744 OA
ENDBRANCH  97 100
ENDBRANCH  70  93
ENDBRANCH  44  45
ENDBRANCH  36  39
ENDBRANCH  34  35
ENDBRANCH  33  34
ENDBRANCH   1  33
TORSDOF 20
