REMARK SMILES O=C(NCCCCNC(=O)[C@H]1CCCC[C@H]1C(=O)Nc1ccc(Cl)cc1F)c1ccc(-c2c3nc(c(-c4cccc(S(=O)(=O)[O-])c4F)c4ccc([nH]4)c(-c4cccc(S(=O)(=O)[O-])c4F)c4nc(c(-c5cccc(S(=O)(=O)[O-])c5F)c5ccc2[nH]5)C=C4)C=C3)cc1
REMARK SMILES IDX 5 1 4 2 3 3 1 4 2 5 28 7 29 8 90 9 30 10 89 11 31 12 32 13
REMARK SMILES IDX 33 14 83 15 34 16 88 17 82 18 84 19 35 20 87 21 81 22 80 23
REMARK SMILES IDX 36 25 68 26 48 27 67 28 49 29 52 30 66 31 85 32 50 33 51 34
REMARK SMILES IDX 65 36 86 37 53 38 37 39 38 40 46 41 39 42 41 43 47 44 40 45
REMARK SMILES IDX 42 46 43 47 44 48 45 49 69 50 70 51 78 52 71 53 73 54 79 55
REMARK SMILES IDX 72 56 74 57 75 58 76 59 77 60 54 61 55 62 63 63 56 64 58 65
REMARK SMILES IDX 64 66 57 67 59 68 60 69 61 70 62 71 6 72 7 73 8 74 9 75
REMARK SMILES IDX 10 77 11 78 12 79 16 80 13 81 15 82 14 83 17 84 18 85 19 86
REMARK SMILES IDX 20 88 21 89 26 90 22 91 25 92 27 93 23 94 24 95
REMARK H PARENT 3 6 84 24 52 35 8 76 19 87
REMARK Flexibility Score: inf
ROOT
ATOM      1  C   UNL     1       4.229   9.819  -1.965  1.00  0.00     0.023 C 
ENDROOT
BRANCH   1   2
ATOM      2  C   UNL     1       3.391  10.635  -0.985  1.00  0.00     0.116 C 
BRANCH   2   3
ATOM      3  N   UNL     1       3.890  11.986  -0.768  1.00  0.00    -0.352 N 
ATOM      4  O   UNL     1       3.994  14.227  -0.951  1.00  0.00    -0.269 OA
ATOM      5  C   UNL     1       3.352  13.204  -1.132  1.00  0.00     0.251 C 
ATOM      6  H   UNL     1       4.747  12.039  -0.287  1.00  0.00     0.163 HD
BRANCH   5   7
ATOM      7  C   UNL     1       2.018  13.258  -1.774  1.00  0.00     0.039 A 
ATOM      8  C   UNL     1       0.952  12.521  -1.261  1.00  0.00     0.014 A 
ATOM      9  C   UNL     1       1.835  14.047  -2.912  1.00  0.00     0.014 A 
ATOM     10  C   UNL     1      -0.228  12.415  -1.987  1.00  0.00     0.010 A 
ATOM     11  C   UNL     1       0.607  14.025  -3.583  1.00  0.00     0.010 A 
ATOM     12  C   UNL     1      -0.422  13.174  -3.152  1.00  0.00    -0.014 A 
BRANCH  12  13
ATOM     13  C   UNL     1      -1.736  13.117  -3.848  1.00  0.00     0.031 A 
ATOM     14  C   UNL     1      -1.855  12.643  -5.273  1.00  0.00     0.074 A 
ATOM     15  C   UNL     1      -2.838  13.502  -3.172  1.00  0.00     0.049 A 
ATOM     16  N   UNL     1      -2.930  12.534  -6.012  1.00  0.00    -0.248 NA
ATOM     17  C   UNL     1      -0.617  12.246  -5.962  1.00  0.00     0.031 C 
ATOM     18  C   UNL     1      -2.845  14.023  -1.802  1.00  0.00     0.029 A 
ATOM     19  N   UNL     1      -4.159  13.524  -3.539  1.00  0.00    -0.354 N 
ATOM     20  C   UNL     1      -2.498  12.104  -7.262  1.00  0.00     0.074 A 
ATOM     21  C   UNL     1      -1.059  11.968  -7.183  1.00  0.00     0.031 C 
ATOM     22  C   UNL     1      -4.106  14.290  -1.437  1.00  0.00     0.029 A 
ATOM     23  C   UNL     1      -4.990  14.022  -2.563  1.00  0.00     0.049 A 
ATOM     24  H   UNL     1      -4.481  13.214  -4.416  1.00  0.00     0.167 HD
ATOM     25  C   UNL     1      -3.235  11.835  -8.367  1.00  0.00     0.034 A 
ATOM     26  C   UNL     1      -6.314  14.265  -2.575  1.00  0.00     0.034 A 
ATOM     27  C   UNL     1      -4.671  11.928  -8.427  1.00  0.00     0.049 A 
ATOM     28  C   UNL     1      -7.102  13.935  -3.809  1.00  0.00     0.074 A 
ATOM     29  C   UNL     1      -5.509  11.600  -9.479  1.00  0.00     0.029 A 
ATOM     30  N   UNL     1      -5.482  12.388  -7.401  1.00  0.00    -0.354 N 
ATOM     31  N   UNL     1      -6.689  13.399  -4.931  1.00  0.00    -0.248 NA
ATOM     32  C   UNL     1      -8.543  14.218  -3.770  1.00  0.00     0.031 C 
ATOM     33  C   UNL     1      -6.824  11.887  -9.099  1.00  0.00     0.029 A 
ATOM     34  C   UNL     1      -6.808  12.368  -7.801  1.00  0.00     0.049 A 
ATOM     35  H   UNL     1      -5.162  12.686  -6.519  1.00  0.00     0.167 HD
ATOM     36  C   UNL     1      -7.821  13.258  -5.723  1.00  0.00     0.074 A 
ATOM     37  C   UNL     1      -8.942  13.735  -4.939  1.00  0.00     0.031 C 
ATOM     38  C   UNL     1      -7.921  12.797  -6.993  1.00  0.00     0.034 A 
BRANCH  25  39
ATOM     39  C   UNL     1      -2.518  11.375  -9.611  1.00  0.00     0.023 A 
ATOM     40  C   UNL     1      -2.028  10.056  -9.684  1.00  0.00     0.012 A 
ATOM     41  C   UNL     1      -2.436  12.207 -10.746  1.00  0.00     0.148 A 
ATOM     42  C   UNL     1      -1.452   9.577 -10.862  1.00  0.00     0.002 A 
ATOM     43  C   UNL     1      -1.897  11.710 -11.928  1.00  0.00     0.091 A 
ATOM     44  F   UNL     1      -2.896  13.463 -10.651  1.00  0.00    -0.205 F 
ATOM     45  C   UNL     1      -1.398  10.399 -11.985  1.00  0.00     0.022 A 
BRANCH  43  46
ATOM     46  S   UNL     1      -1.854  12.660 -13.453  1.00  0.00     0.127 S 
ATOM     47  O   UNL     1      -0.419  12.892 -13.614  1.00  0.00    -0.237 OA
ATOM     48  O   UNL     1      -2.431  11.723 -14.416  1.00  0.00    -0.237 OA
ATOM     49  O   UNL     1      -2.653  13.852 -13.208  1.00  0.00    -0.744 OA
ENDBRANCH  43  46
ENDBRANCH  25  39
BRANCH  26  50
ATOM     50  C   UNL     1      -6.976  14.831  -1.367  1.00  0.00     0.023 A 
ATOM     51  C   UNL     1      -7.881  14.040  -0.634  1.00  0.00     0.012 A 
ATOM     52  C   UNL     1      -6.688  16.136  -0.923  1.00  0.00     0.148 A 
ATOM     53  C   UNL     1      -8.511  14.551   0.501  1.00  0.00     0.002 A 
ATOM     54  C   UNL     1      -7.269  16.615   0.244  1.00  0.00     0.091 A 
ATOM     55  F   UNL     1      -5.838  16.882  -1.643  1.00  0.00    -0.205 F 
ATOM     56  C   UNL     1      -8.197  15.832   0.947  1.00  0.00     0.022 A 
BRANCH  54  57
ATOM     57  S   UNL     1      -6.796  18.192   0.962  1.00  0.00     0.127 S 
ATOM     58  O   UNL     1      -7.918  19.044   0.579  1.00  0.00    -0.237 OA
ATOM     59  O   UNL     1      -6.724  17.871   2.388  1.00  0.00    -0.237 OA
ATOM     60  O   UNL     1      -5.510  18.518   0.361  1.00  0.00    -0.744 OA
ENDBRANCH  54  57
ENDBRANCH  26  50
BRANCH  38  61
ATOM     61  C   UNL     1      -9.294  12.757  -7.609  1.00  0.00     0.023 A 
ATOM     62  C   UNL     1      -9.923  13.958  -7.991  1.00  0.00     0.012 A 
ATOM     63  C   UNL     1      -9.937  11.529  -7.858  1.00  0.00     0.148 A 
ATOM     64  C   UNL     1     -11.187  13.940  -8.579  1.00  0.00     0.002 A 
ATOM     65  C   UNL     1     -11.175  11.515  -8.489  1.00  0.00     0.091 A 
ATOM     66  F   UNL     1      -9.330  10.398  -7.467  1.00  0.00    -0.205 F 
ATOM     67  C   UNL     1     -11.807  12.720  -8.838  1.00  0.00     0.022 A 
BRANCH  65  68
ATOM     68  S   UNL     1     -12.005   9.989  -8.943  1.00  0.00     0.127 S 
ATOM     69  O   UNL     1     -13.086   9.933  -7.960  1.00  0.00    -0.237 OA
ATOM     70  O   UNL     1     -12.439  10.267 -10.313  1.00  0.00    -0.237 OA
ATOM     71  O   UNL     1     -11.002   8.939  -8.831  1.00  0.00    -0.744 OA
ENDBRANCH  65  68
ENDBRANCH  38  61
ENDBRANCH  12  13
ENDBRANCH   5   7
ENDBRANCH   2   3
ENDBRANCH   1   2
BRANCH   1  72
ATOM     72  C   UNL     1       5.675   9.580  -1.545  1.00  0.00     0.023 C 
BRANCH  72  73
ATOM     73  C   UNL     1       5.869   8.893  -0.194  1.00  0.00     0.116 C 
BRANCH  73  74
ATOM     74  N   UNL     1       5.809   7.451  -0.242  1.00  0.00    -0.356 N 
ATOM     75  C   UNL     1       6.260   6.510   0.626  1.00  0.00     0.223 C 
ATOM     76  H   UNL     1       5.364   7.088  -1.042  1.00  0.00     0.163 HD
ATOM     77  O   UNL     1       6.179   5.336   0.246  1.00  0.00    -0.275 OA
BRANCH  75  78
ATOM     78  C   UNL     1       6.830   6.792   2.023  1.00  0.00     0.091 C 
ATOM     79  C   UNL     1       7.768   7.997   2.217  1.00  0.00     0.014 C 
ATOM     80  C   UNL     1       5.848   6.614   3.202  1.00  0.00     0.091 C 
ATOM     81  C   UNL     1       7.141   9.250   2.842  1.00  0.00     0.001 C 
ATOM     82  C   UNL     1       5.182   7.909   3.652  1.00  0.00     0.014 C 
ATOM     83  C   UNL     1       6.245   8.938   4.030  1.00  0.00     0.001 C 
BRANCH  80  84
ATOM     84  C   UNL     1       4.986   5.348   3.164  1.00  0.00     0.228 C 
ATOM     85  O   UNL     1       5.495   4.276   3.522  1.00  0.00    -0.274 OA
ATOM     86  N   UNL     1       3.674   5.309   2.806  1.00  0.00    -0.323 N 
ATOM     87  H   UNL     1       3.202   4.479   3.047  1.00  0.00     0.170 HD
BRANCH  86  88
ATOM     88  C   UNL     1       2.892   6.262   2.151  1.00  0.00     0.077 A 
ATOM     89  C   UNL     1       2.018   7.061   2.890  1.00  0.00     0.031 A 
ATOM     90  C   UNL     1       2.794   6.258   0.757  1.00  0.00     0.148 A 
ATOM     91  C   UNL     1       1.125   7.911   2.228  1.00  0.00     0.023 A 
ATOM     92  C   UNL     1       1.932   7.120   0.090  1.00  0.00     0.062 A 
ATOM     93  F   UNL     1       3.511   5.391   0.031  1.00  0.00    -0.205 F 
ATOM     94  C   UNL     1       1.099   7.946   0.833  1.00  0.00     0.044 A 
ATOM     95  Cl  UNL     1       0.004   8.993   0.024  1.00  0.00    -0.084 Cl
ENDBRANCH  86  88
ENDBRANCH  80  84
ENDBRANCH  75  78
ENDBRANCH  73  74
ENDBRANCH  72  73
ENDBRANCH   1  72
TORSDOF 16
