REMARK SMILES O=C(CSc1ccc(Cl)cc1)Nc1ccc(C(=O)NCCCCNC(=O)c2ccc(-c3c4nc(c(-c5cccc(S(=O)(=O)[O-])c5F)c5ccc([nH]5)c(-c5cccc(S(=O)(=O)[O-])c5F)c5nc(c(-c6cccc(S(=O)(=O)[O-])c6F)c6ccc3[nH]6)C=C5)C=C4)cc2)cc1
REMARK SMILES IDX 21 1 20 2 19 3 17 4 18 5 16 7 13 8 14 9 91 10 15 11 90 12
REMARK SMILES IDX 12 13 1 14 2 15 3 17 4 18 5 19 6 20 11 21 7 22 10 23 8 24
REMARK SMILES IDX 9 25 22 26 23 27 24 28 25 29 26 31 27 32 28 33 89 34 29 35
REMARK SMILES IDX 88 36 30 37 31 38 32 39 82 40 33 41 87 42 81 43 83 44 34 45
REMARK SMILES IDX 86 46 80 47 79 48 35 50 67 51 47 52 66 53 48 54 51 55 65 56
REMARK SMILES IDX 84 57 49 58 50 59 64 61 85 62 52 63 36 64 37 65 45 66 38 67
REMARK SMILES IDX 40 68 46 69 39 70 41 71 42 72 43 73 44 74 68 75 69 76 77 77
REMARK SMILES IDX 70 78 72 79 78 80 71 81 73 82 74 83 75 84 76 85 53 86 54 87
REMARK SMILES IDX 62 88 55 89 57 90 63 91 56 92 58 93 59 94 60 95 61 96
REMARK H PARENT 19 6 12 16 24 30 83 49 51 60
REMARK Flexibility Score: inf
ROOT
ATOM      1  C   UNL     1      -1.337   3.868   5.316  1.00  0.00     0.023 C 
ENDROOT
BRANCH   1   2
ATOM      2  C   UNL     1      -1.471   4.458   3.911  1.00  0.00     0.116 C 
BRANCH   2   3
ATOM      3  N   UNL     1      -0.478   5.495   3.702  1.00  0.00    -0.352 N 
ATOM      4  C   UNL     1       0.760   5.487   3.113  1.00  0.00     0.251 C 
ATOM      5  O   UNL     1       1.385   6.548   3.082  1.00  0.00    -0.269 OA
ATOM      6  H   UNL     1      -0.746   6.375   4.052  1.00  0.00     0.163 HD
BRANCH   4   7
ATOM      7  C   UNL     1       1.355   4.288   2.453  1.00  0.00     0.039 A 
ATOM      8  C   UNL     1       2.426   2.155   0.945  1.00  0.00     0.041 A 
ATOM      9  C   UNL     1       2.867   3.460   0.723  1.00  0.00     0.027 A 
ATOM     10  C   UNL     1       1.534   1.912   1.988  1.00  0.00     0.027 A 
ATOM     11  C   UNL     1       2.315   4.519   1.454  1.00  0.00     0.016 A 
ATOM     12  C   UNL     1       1.037   2.966   2.761  1.00  0.00     0.016 A 
BRANCH   8  13
ATOM     13  N   UNL     1       2.917   1.130   0.118  1.00  0.00    -0.325 N 
ATOM     14  O   UNL     1       1.163  -0.385   0.261  1.00  0.00    -0.274 OA
ATOM     15  C   UNL     1       2.289  -0.079  -0.128  1.00  0.00     0.234 C 
ATOM     16  H   UNL     1       3.783   1.285  -0.324  1.00  0.00     0.169 HD
BRANCH  15  17
ATOM     17  C   UNL     1       3.128  -1.101  -0.877  1.00  0.00     0.175 C 
BRANCH  17  18
ATOM     18  S   UNL     1       4.289  -0.378  -2.082  1.00  0.00    -0.116 SA
BRANCH  18  19
ATOM     19  C   UNL     1       3.155   0.290  -3.284  1.00  0.00     0.008 A 
ATOM     20  C   UNL     1       3.181   1.666  -3.539  1.00  0.00     0.016 A 
ATOM     21  C   UNL     1       2.293  -0.529  -4.021  1.00  0.00     0.016 A 
ATOM     22  C   UNL     1       2.345   2.221  -4.511  1.00  0.00     0.021 A 
ATOM     23  C   UNL     1       1.460   0.025  -4.999  1.00  0.00     0.021 A 
ATOM     24  C   UNL     1       1.492   1.398  -5.240  1.00  0.00     0.041 A 
ATOM     25  Cl  UNL     1       0.487   2.076  -6.461  1.00  0.00    -0.084 Cl
ENDBRANCH  18  19
ENDBRANCH  17  18
ENDBRANCH  15  17
ENDBRANCH   8  13
ENDBRANCH   4   7
ENDBRANCH   2   3
ENDBRANCH   1   2
BRANCH   1  26
ATOM     26  C   UNL     1      -1.999   4.713   6.410  1.00  0.00     0.023 C 
BRANCH  26  27
ATOM     27  C   UNL     1      -3.511   4.868   6.276  1.00  0.00     0.116 C 
BRANCH  27  28
ATOM     28  N   UNL     1      -4.213   3.595   6.224  1.00  0.00    -0.352 N 
ATOM     29  C   UNL     1      -5.453   3.268   6.719  1.00  0.00     0.251 C 
ATOM     30  H   UNL     1      -3.732   2.865   5.770  1.00  0.00     0.163 HD
ATOM     31  O   UNL     1      -5.835   2.107   6.691  1.00  0.00    -0.269 OA
BRANCH  29  32
ATOM     32  C   UNL     1      -6.302   4.322   7.318  1.00  0.00     0.039 A 
ATOM     33  C   UNL     1      -6.923   4.059   8.540  1.00  0.00     0.014 A 
ATOM     34  C   UNL     1      -6.472   5.560   6.692  1.00  0.00     0.014 A 
ATOM     35  C   UNL     1      -7.667   5.062   9.164  1.00  0.00     0.010 A 
ATOM     36  C   UNL     1      -7.151   6.582   7.351  1.00  0.00     0.010 A 
ATOM     37  C   UNL     1      -7.756   6.344   8.593  1.00  0.00    -0.014 A 
BRANCH  37  38
ATOM     38  C   UNL     1      -8.443   7.444   9.318  1.00  0.00     0.031 A 
ATOM     39  C   UNL     1      -9.670   8.100   8.748  1.00  0.00     0.074 A 
ATOM     40  C   UNL     1      -7.917   7.891  10.476  1.00  0.00     0.049 A 
ATOM     41  N   UNL     1     -10.413   9.044   9.267  1.00  0.00    -0.248 NA
ATOM     42  C   UNL     1     -10.111   7.658   7.415  1.00  0.00     0.031 C 
ATOM     43  C   UNL     1      -6.674   7.406  11.082  1.00  0.00     0.029 A 
ATOM     44  N   UNL     1      -8.351   8.861  11.343  1.00  0.00    -0.354 N 
ATOM     45  C   UNL     1     -11.389   9.326   8.320  1.00  0.00     0.074 A 
ATOM     46  C   UNL     1     -11.123   8.481   7.177  1.00  0.00     0.031 C 
ATOM     47  C   UNL     1      -6.458   8.065  12.231  1.00  0.00     0.029 A 
ATOM     48  C   UNL     1      -7.529   9.035  12.432  1.00  0.00     0.049 A 
ATOM     49  H   UNL     1      -9.173   9.383  11.200  1.00  0.00     0.167 HD
ATOM     50  C   UNL     1     -12.432  10.188   8.405  1.00  0.00     0.034 A 
ATOM     51  C   UNL     1      -7.626   9.879  13.477  1.00  0.00     0.034 A 
ATOM     52  C   UNL     1     -12.709  11.007   9.556  1.00  0.00     0.049 A 
ATOM     53  C   UNL     1      -8.819  10.790  13.569  1.00  0.00     0.074 A 
ATOM     54  C   UNL     1     -13.788  11.845   9.776  1.00  0.00     0.029 A 
ATOM     55  N   UNL     1     -11.894  11.106  10.674  1.00  0.00    -0.354 N 
ATOM     56  N   UNL     1      -9.831  10.912  12.745  1.00  0.00    -0.248 NA
ATOM     57  C   UNL     1      -8.905  11.648  14.759  1.00  0.00     0.031 C 
ATOM     58  C   UNL     1     -13.610  12.474  11.014  1.00  0.00     0.029 A 
ATOM     59  C   UNL     1     -12.437  12.001  11.581  1.00  0.00     0.049 A 
ATOM     60  H   UNL     1     -11.053  10.611  10.804  1.00  0.00     0.167 HD
ATOM     61  C   UNL     1     -10.687  11.839  13.327  1.00  0.00     0.074 A 
ATOM     62  C   UNL     1     -10.091  12.218  14.592  1.00  0.00     0.031 C 
ATOM     63  C   UNL     1     -11.852  12.346  12.851  1.00  0.00     0.034 A 
BRANCH  50  64
ATOM     64  C   UNL     1     -13.383  10.253   7.237  1.00  0.00     0.023 A 
ATOM     65  C   UNL     1     -14.240   9.163   6.976  1.00  0.00     0.012 A 
ATOM     66  C   UNL     1     -13.476  11.409   6.439  1.00  0.00     0.148 A 
ATOM     67  C   UNL     1     -15.147   9.208   5.917  1.00  0.00     0.002 A 
ATOM     68  C   UNL     1     -14.415  11.465   5.415  1.00  0.00     0.091 A 
ATOM     69  F   UNL     1     -12.641  12.428   6.688  1.00  0.00    -0.205 F 
ATOM     70  C   UNL     1     -15.242  10.362   5.145  1.00  0.00     0.022 A 
BRANCH  68  71
ATOM     71  S   UNL     1     -14.675  12.934   4.414  1.00  0.00     0.127 S 
ATOM     72  O   UNL     1     -14.163  12.500   3.115  1.00  0.00    -0.237 OA
ATOM     73  O   UNL     1     -16.128  13.094   4.474  1.00  0.00    -0.237 OA
ATOM     74  O   UNL     1     -13.918  13.999   5.058  1.00  0.00    -0.744 OA
ENDBRANCH  68  71
ENDBRANCH  50  64
BRANCH  51  75
ATOM     75  C   UNL     1      -6.597   9.853  14.555  1.00  0.00     0.023 A 
ATOM     76  C   UNL     1      -6.940   9.368  15.832  1.00  0.00     0.012 A 
ATOM     77  C   UNL     1      -5.277  10.281  14.314  1.00  0.00     0.148 A 
ATOM     78  C   UNL     1      -5.998   9.345  16.861  1.00  0.00     0.002 A 
ATOM     79  C   UNL     1      -4.328  10.199  15.326  1.00  0.00     0.091 A 
ATOM     80  F   UNL     1      -4.973  10.748  13.095  1.00  0.00    -0.205 F 
ATOM     81  C   UNL     1      -4.690   9.750  16.605  1.00  0.00     0.022 A 
BRANCH  79  82
ATOM     82  S   UNL     1      -2.593  10.569  15.049  1.00  0.00     0.127 S 
ATOM     83  O   UNL     1      -2.427  11.809  15.803  1.00  0.00    -0.237 OA
ATOM     84  O   UNL     1      -1.938   9.398  15.634  1.00  0.00    -0.237 OA
ATOM     85  O   UNL     1      -2.441  10.681  13.605  1.00  0.00    -0.744 OA
ENDBRANCH  79  82
ENDBRANCH  51  75
BRANCH  63  86
ATOM     86  C   UNL     1     -12.569  13.354  13.714  1.00  0.00     0.023 A 
ATOM     87  C   UNL     1     -12.018  14.639  13.897  1.00  0.00     0.012 A 
ATOM     88  C   UNL     1     -13.803  13.041  14.316  1.00  0.00     0.148 A 
ATOM     89  C   UNL     1     -12.658  15.577  14.707  1.00  0.00     0.002 A 
ATOM     90  C   UNL     1     -14.461  13.999  15.078  1.00  0.00     0.091 A 
ATOM     91  F   UNL     1     -14.305  11.809  14.147  1.00  0.00    -0.205 F 
ATOM     92  C   UNL     1     -13.882  15.261  15.289  1.00  0.00     0.022 A 
BRANCH  90  93
ATOM     93  S   UNL     1     -16.088  13.712  15.785  1.00  0.00     0.127 S 
ATOM     94  O   UNL     1     -15.769  13.520  17.198  1.00  0.00    -0.237 OA
ATOM     95  O   UNL     1     -16.784  14.963  15.482  1.00  0.00    -0.237 OA
ATOM     96  O   UNL     1     -16.622  12.545  15.097  1.00  0.00    -0.744 OA
ENDBRANCH  90  93
ENDBRANCH  63  86
ENDBRANCH  37  38
ENDBRANCH  29  32
ENDBRANCH  27  28
ENDBRANCH  26  27
ENDBRANCH   1  26
TORSDOF 18
