REMARK SMILES CSc1nc(O)nc(C)c1C(=O)N1C[C@@H](O)C[C@@H]1C(=O)NCCCCNC(=O)c1ccc(-c2c3nc(c(-c4cccc(S(=O)(=O)[O-])c4F)c4ccc([nH]4)c(-c4cccc(S(=O)(=O)[O-])c4F)c4nc(c(-c5cccc(S(=O)(=O)[O-])c5F)c5ccc2[nH]5)C=C4)C=C3)cc1
REMARK SMILES IDX 23 1 22 2 21 3 19 4 20 5 18 7 13 8 14 9 15 10 17 11 11 12
REMARK SMILES IDX 12 13 10 14 3 15 4 16 5 17 8 18 7 19 9 20 2 21 1 22 6 23
REMARK SMILES IDX 16 25 24 27 25 28 26 29 27 30 28 32 29 33 30 34 91 35 31 36
REMARK SMILES IDX 90 37 32 38 33 39 34 40 84 41 35 42 89 43 83 44 85 45 36 46
REMARK SMILES IDX 88 47 82 48 81 49 37 51 69 52 49 53 68 54 50 55 53 56 67 57
REMARK SMILES IDX 86 58 51 59 52 60 66 62 87 63 54 64 38 65 39 66 47 67 40 68
REMARK SMILES IDX 42 69 48 70 41 71 43 72 44 73 45 74 46 75 70 76 71 77 79 78
REMARK SMILES IDX 72 79 74 80 80 81 73 82 75 83 76 84 77 85 78 86 55 87 56 88
REMARK SMILES IDX 64 89 57 90 59 91 65 92 58 93 60 94 61 95 62 96 63 97
REMARK H PARENT 21 6 6 24 16 26 26 31 85 50 53 61
REMARK Flexibility Score: inf
ROOT
ATOM      1  C   UNL     1      -3.472  -4.383   1.290  1.00  0.00     0.023 C 
ENDROOT
BRANCH   1   2
ATOM      2  C   UNL     1      -2.746  -3.287   0.520  1.00  0.00     0.116 C 
BRANCH   2   3
ATOM      3  N   UNL     1      -2.597  -2.058   1.274  1.00  0.00    -0.354 N 
ATOM      4  C   UNL     1      -1.491  -1.274   1.445  1.00  0.00     0.242 C 
ATOM      5  O   UNL     1      -1.603  -0.284   2.171  1.00  0.00    -0.273 OA
ATOM      6  H   UNL     1      -3.411  -1.743   1.729  1.00  0.00     0.163 HD
BRANCH   4   7
ATOM      7  C   UNL     1      -0.145  -1.708   0.830  1.00  0.00     0.177 C 
ATOM      8  N   UNL     1       0.930  -0.727   1.010  1.00  0.00    -0.324 N 
ATOM      9  C   UNL     1       1.874  -0.912  -0.066  1.00  0.00     0.152 C 
ATOM     10  C   UNL     1       0.986  -1.139  -1.274  1.00  0.00     0.136 C 
ATOM     11  C   UNL     1      -0.197  -1.918  -0.697  1.00  0.00     0.069 C 
BRANCH   8  12
ATOM     12  C   UNL     1       1.433  -0.469   2.269  1.00  0.00     0.259 C 
ATOM     13  O   UNL     1       2.064  -1.350   2.845  1.00  0.00    -0.269 OA
BRANCH  12  14
ATOM     14  C   UNL     1       1.314   0.932   2.814  1.00  0.00     0.093 A 
ATOM     15  C   UNL     1       0.870   2.051   2.086  1.00  0.00     0.116 A 
ATOM     16  N   UNL     1       0.925   3.321   2.563  1.00  0.00    -0.188 NA
ATOM     17  C   UNL     1       1.364   3.460   3.799  1.00  0.00     0.315 A 
ATOM     18  C   UNL     1       1.731   1.228   4.122  1.00  0.00     0.058 A 
ATOM     19  N   UNL     1       1.772   2.499   4.613  1.00  0.00    -0.200 NA
ATOM     20  C   UNL     1       2.173   0.240   5.165  1.00  0.00     0.068 C 
BRANCH  15  21
ATOM     21  S   UNL     1       0.113   2.061   0.461  1.00  0.00    -0.109 SA
ATOM     22  C   UNL     1       1.434   2.859  -0.471  1.00  0.00     0.092 C 
ENDBRANCH  15  21
BRANCH  17  23
ATOM     23  O   UNL     1       1.440   4.714   4.313  1.00  0.00    -0.479 OA
ATOM     24  H   UNL     1       1.169   5.449   3.797  1.00  0.00     0.297 HD
ENDBRANCH  17  23
ENDBRANCH  12  14
ENDBRANCH   8  12
BRANCH  10  25
ATOM     25  O   UNL     1       1.626  -1.889  -2.293  1.00  0.00    -0.391 OA
ATOM     26  H   UNL     1       1.906  -2.747  -1.936  1.00  0.00     0.211 HD
ENDBRANCH  10  25
ENDBRANCH   4   7
ENDBRANCH   2   3
ENDBRANCH   1   2
BRANCH   1  27
ATOM     27  C   UNL     1      -4.864  -4.018   1.799  1.00  0.00     0.023 C 
BRANCH  27  28
ATOM     28  C   UNL     1      -5.785  -3.383   0.764  1.00  0.00     0.116 C 
BRANCH  28  29
ATOM     29  N   UNL     1      -6.049  -4.260  -0.368  1.00  0.00    -0.352 N 
ATOM     30  C   UNL     1      -7.244  -4.813  -0.767  1.00  0.00     0.251 C 
ATOM     31  H   UNL     1      -5.268  -4.488  -0.922  1.00  0.00     0.163 HD
ATOM     32  O   UNL     1      -7.282  -5.643  -1.665  1.00  0.00    -0.269 OA
BRANCH  30  33
ATOM     33  C   UNL     1      -8.477  -4.407  -0.066  1.00  0.00     0.039 A 
ATOM     34  C   UNL     1      -9.258  -5.386   0.549  1.00  0.00     0.014 A 
ATOM     35  C   UNL     1      -8.806  -3.052   0.043  1.00  0.00     0.014 A 
ATOM     36  C   UNL     1     -10.335  -4.997   1.345  1.00  0.00     0.010 A 
ATOM     37  C   UNL     1      -9.838  -2.665   0.890  1.00  0.00     0.010 A 
ATOM     38  C   UNL     1     -10.610  -3.634   1.548  1.00  0.00    -0.014 A 
BRANCH  38  39
ATOM     39  C   UNL     1     -11.705  -3.210   2.450  1.00  0.00     0.031 A 
ATOM     40  C   UNL     1     -12.922  -2.538   1.888  1.00  0.00     0.074 A 
ATOM     41  C   UNL     1     -11.579  -3.385   3.780  1.00  0.00     0.049 A 
ATOM     42  N   UNL     1     -13.991  -2.122   2.514  1.00  0.00    -0.248 NA
ATOM     43  C   UNL     1     -12.937  -2.283   0.437  1.00  0.00     0.031 C 
ATOM     44  C   UNL     1     -10.406  -3.950   4.451  1.00  0.00     0.029 A 
ATOM     45  N   UNL     1     -12.441  -3.093   4.806  1.00  0.00    -0.354 N 
ATOM     46  C   UNL     1     -14.797  -1.549   1.541  1.00  0.00     0.074 A 
ATOM     47  C   UNL     1     -14.079  -1.627   0.289  1.00  0.00     0.031 C 
ATOM     48  C   UNL     1     -10.630  -3.978   5.775  1.00  0.00     0.029 A 
ATOM     49  C   UNL     1     -11.955  -3.427   6.048  1.00  0.00     0.049 A 
ATOM     50  H   UNL     1     -13.325  -2.683   4.667  1.00  0.00     0.167 HD
ATOM     51  C   UNL     1     -16.045  -1.044   1.670  1.00  0.00     0.034 A 
ATOM     52  C   UNL     1     -12.519  -3.318   7.267  1.00  0.00     0.034 A 
ATOM     53  C   UNL     1     -16.776  -1.008   2.904  1.00  0.00     0.049 A 
ATOM     54  C   UNL     1     -13.919  -2.784   7.384  1.00  0.00     0.074 A 
ATOM     55  C   UNL     1     -18.075  -0.588   3.119  1.00  0.00     0.029 A 
ATOM     56  N   UNL     1     -16.271  -1.409   4.131  1.00  0.00    -0.354 N 
ATOM     57  N   UNL     1     -14.725  -2.382   6.431  1.00  0.00    -0.248 NA
ATOM     58  C   UNL     1     -14.503  -2.718   8.732  1.00  0.00     0.031 C 
ATOM     59  C   UNL     1     -18.358  -0.735   4.480  1.00  0.00     0.029 A 
ATOM     60  C   UNL     1     -17.233  -1.246   5.109  1.00  0.00     0.049 A 
ATOM     61  H   UNL     1     -15.363  -1.758   4.282  1.00  0.00     0.167 HD
ATOM     62  C   UNL     1     -15.915  -2.036   7.058  1.00  0.00     0.074 A 
ATOM     63  C   UNL     1     -15.732  -2.284   8.473  1.00  0.00     0.031 C 
ATOM     64  C   UNL     1     -17.051  -1.544   6.507  1.00  0.00     0.034 A 
BRANCH  51  65
ATOM     65  C   UNL     1     -16.733  -0.574   0.421  1.00  0.00     0.023 A 
ATOM     66  C   UNL     1     -17.268  -1.535  -0.460  1.00  0.00     0.012 A 
ATOM     67  C   UNL     1     -16.901   0.795   0.145  1.00  0.00     0.148 A 
ATOM     68  C   UNL     1     -17.945  -1.141  -1.612  1.00  0.00     0.002 A 
ATOM     69  C   UNL     1     -17.603   1.181  -0.991  1.00  0.00     0.091 A 
ATOM     70  F   UNL     1     -16.363   1.688   0.987  1.00  0.00    -0.205 F 
ATOM     71  C   UNL     1     -18.120   0.215  -1.872  1.00  0.00     0.022 A 
BRANCH  69  72
ATOM     72  S   UNL     1     -17.927   2.900  -1.397  1.00  0.00     0.127 S 
ATOM     73  O   UNL     1     -17.094   3.084  -2.585  1.00  0.00    -0.237 OA
ATOM     74  O   UNL     1     -19.366   2.889  -1.656  1.00  0.00    -0.237 OA
ATOM     75  O   UNL     1     -17.524   3.672  -0.229  1.00  0.00    -0.744 OA
ENDBRANCH  69  72
ENDBRANCH  51  65
BRANCH  52  76
ATOM     76  C   UNL     1     -11.778  -3.826   8.453  1.00  0.00     0.023 A 
ATOM     77  C   UNL     1     -12.125  -5.082   8.987  1.00  0.00     0.012 A 
ATOM     78  C   UNL     1     -10.680  -3.126   8.988  1.00  0.00     0.148 A 
ATOM     79  C   UNL     1     -11.391  -5.632  10.038  1.00  0.00     0.002 A 
ATOM     80  C   UNL     1      -9.932  -3.696  10.012  1.00  0.00     0.091 A 
ATOM     81  F   UNL     1     -10.368  -1.936   8.454  1.00  0.00    -0.205 F 
ATOM     82  C   UNL     1     -10.291  -4.945  10.544  1.00  0.00     0.022 A 
BRANCH  80  83
ATOM     83  S   UNL     1      -8.438  -2.940  10.664  1.00  0.00     0.127 S 
ATOM     84  O   UNL     1      -8.775  -2.783  12.078  1.00  0.00    -0.237 OA
ATOM     85  O   UNL     1      -7.439  -3.969  10.380  1.00  0.00    -0.237 OA
ATOM     86  O   UNL     1      -8.265  -1.698   9.925  1.00  0.00    -0.744 OA
ENDBRANCH  80  83
ENDBRANCH  52  76
BRANCH  64  87
ATOM     87  C   UNL     1     -18.208  -1.231   7.414  1.00  0.00     0.023 A 
ATOM     88  C   UNL     1     -18.219  -0.008   8.109  1.00  0.00     0.012 A 
ATOM     89  C   UNL     1     -19.348  -2.059   7.437  1.00  0.00     0.148 A 
ATOM     90  C   UNL     1     -19.353   0.392   8.814  1.00  0.00     0.002 A 
ATOM     91  C   UNL     1     -20.485  -1.639   8.115  1.00  0.00     0.091 A 
ATOM     92  F   UNL     1     -19.306  -3.219   6.764  1.00  0.00    -0.205 F 
ATOM     93  C   UNL     1     -20.489  -0.416   8.805  1.00  0.00     0.022 A 
BRANCH  91  94
ATOM     94  S   UNL     1     -22.024  -2.566   8.098  1.00  0.00     0.127 S 
ATOM     95  O   UNL     1     -22.187  -2.899   9.513  1.00  0.00    -0.237 OA
ATOM     96  O   UNL     1     -22.973  -1.576   7.591  1.00  0.00    -0.237 OA
ATOM     97  O   UNL     1     -21.802  -3.707   7.220  1.00  0.00    -0.744 OA
ENDBRANCH  91  94
ENDBRANCH  64  87
ENDBRANCH  38  39
ENDBRANCH  30  33
ENDBRANCH  28  29
ENDBRANCH  27  28
ENDBRANCH   1  27
TORSDOF 19
