REMARK SMILES CC(C)(C)NS(=O)(=O)c1csc(C(=O)Nc2ccccc2C(=O)NCCCCNC(=O)c2ccc(-c3c4nc(c(-c5cccc(S(=O)(=O)[O-])c5F)c5ccc([nH]5)c(-c5cccc(S(=O)(=O)[O-])c5F)c5nc(c(-c6cccc(S(=O)(=O)[O-])c6F)c6ccc3[nH]6)C=C5)C=C4)cc2)c1
REMARK SMILES IDX 25 1 24 2 22 3 23 4 21 6 16 7 17 8 18 9 20 10 19 11 15 12
REMARK SMILES IDX 13 13 14 14 12 16 9 17 10 18 95 19 11 20 6 21 7 22 8 23 5 24
REMARK SMILES IDX 2 26 1 27 3 28 4 29 26 30 27 31 28 32 29 33 30 34 31 36
REMARK SMILES IDX 32 37 33 38 94 39 34 40 93 41 35 42 36 43 37 44 87 45 38 46
REMARK SMILES IDX 92 47 86 48 88 49 39 50 91 51 85 52 84 53 40 55 72 56 52 57
REMARK SMILES IDX 71 58 53 59 56 60 70 61 89 62 54 63 55 64 69 66 90 67 57 68
REMARK SMILES IDX 41 69 42 70 50 71 43 72 45 73 51 74 44 75 46 76 47 77 48 78
REMARK SMILES IDX 49 79 73 80 74 81 82 82 75 83 77 84 83 85 76 86 78 87 79 88
REMARK SMILES IDX 80 89 81 90 58 91 59 92 67 93 60 94 62 95 68 96 61 97 63 98
REMARK SMILES IDX 64 99 65 100 66 101
REMARK H PARENT 24 5 15 15 5 25 29 35 88 54 56 65
REMARK Flexibility Score: inf
ROOT
ATOM      1  C   UNL     1       1.603   5.109   0.586  1.00  0.00     0.116 C 
ENDROOT
BRANCH   1   2
ATOM      2  N   UNL     1       0.933   3.869   0.280  1.00  0.00    -0.352 N 
ATOM      3  C   UNL     1       0.795   3.185  -0.900  1.00  0.00     0.253 C 
ATOM      4  O   UNL     1       0.039   2.211  -0.876  1.00  0.00    -0.269 OA
ATOM      5  H   UNL     1       0.500   3.438   1.053  1.00  0.00     0.163 HD
BRANCH   3   6
ATOM      6  C   UNL     1       1.391   3.581  -2.219  1.00  0.00     0.063 A 
ATOM      7  C   UNL     1       2.506   4.397  -2.491  1.00  0.00     0.054 A 
ATOM      8  C   UNL     1       2.719   4.857  -3.805  1.00  0.00     0.027 A 
ATOM      9  C   UNL     1       1.980   4.356  -4.875  1.00  0.00     0.002 A 
ATOM     10  C   UNL     1       0.683   3.058  -3.329  1.00  0.00     0.016 A 
ATOM     11  C   UNL     1       0.993   3.414  -4.642  1.00  0.00     0.001 A 
BRANCH   7  12
ATOM     12  N   UNL     1       3.554   4.745  -1.618  1.00  0.00    -0.321 N 
ATOM     13  C   UNL     1       4.297   3.979  -0.735  1.00  0.00     0.265 C 
ATOM     14  O   UNL     1       5.065   4.606  -0.001  1.00  0.00    -0.268 OA
ATOM     15  H   UNL     1       3.803   5.697  -1.639  1.00  0.00     0.170 HD
BRANCH  13  16
ATOM     16  C   UNL     1       4.198   2.531  -0.747  1.00  0.00     0.094 A 
ATOM     17  C   UNL     1       3.670   0.333  -1.306  1.00  0.00     0.093 A 
ATOM     18  C   UNL     1       4.193   0.158  -0.045  1.00  0.00     0.087 A 
ATOM     19  C   UNL     1       3.827   1.670  -1.761  1.00  0.00     0.047 A 
ATOM     20  S   UNL     1       4.660   1.648   0.653  1.00  0.00    -0.137 S 
BRANCH  17  21
ATOM     21  S   UNL     1       2.886  -0.890  -2.240  1.00  0.00     0.241 S 
ATOM     22  O   UNL     1       3.427  -2.139  -1.775  1.00  0.00    -0.207 OA
ATOM     23  O   UNL     1       3.070  -0.450  -3.611  1.00  0.00    -0.207 OA
BRANCH  21  24
ATOM     24  N   UNL     1       1.238  -0.808  -1.966  1.00  0.00    -0.206 NA
ATOM     25  H   UNL     1       1.017   0.188  -1.971  1.00  0.00     0.141 HD
BRANCH  24  26
ATOM     26  C   UNL     1       0.513  -1.360  -0.795  1.00  0.00     0.025 C 
ATOM     27  C   UNL     1       0.857  -0.638   0.507  1.00  0.00     0.028 C 
ATOM     28  C   UNL     1       0.774  -2.859  -0.639  1.00  0.00     0.028 C 
ATOM     29  C   UNL     1      -0.990  -1.159  -1.082  1.00  0.00     0.028 C 
ENDBRANCH  24  26
ENDBRANCH  21  24
ENDBRANCH  17  21
ENDBRANCH  13  16
ENDBRANCH   7  12
ENDBRANCH   3   6
ENDBRANCH   1   2
BRANCH   1  30
ATOM     30  C   UNL     1       0.924   5.940   1.666  1.00  0.00     0.023 C 
BRANCH  30  31
ATOM     31  C   UNL     1       1.088   5.429   3.097  1.00  0.00     0.023 C 
BRANCH  31  32
ATOM     32  C   UNL     1       2.515   5.133   3.554  1.00  0.00     0.116 C 
BRANCH  32  33
ATOM     33  N   UNL     1       3.428   6.258   3.392  1.00  0.00    -0.352 N 
ATOM     34  C   UNL     1       4.168   6.934   4.335  1.00  0.00     0.251 C 
ATOM     35  H   UNL     1       3.530   6.584   2.469  1.00  0.00     0.163 HD
ATOM     36  O   UNL     1       4.781   7.951   4.024  1.00  0.00    -0.269 OA
BRANCH  34  37
ATOM     37  C   UNL     1       4.201   6.448   5.731  1.00  0.00     0.039 A 
ATOM     38  C   UNL     1       4.027   7.360   6.775  1.00  0.00     0.014 A 
ATOM     39  C   UNL     1       4.379   5.091   6.010  1.00  0.00     0.014 A 
ATOM     40  C   UNL     1       3.953   6.896   8.091  1.00  0.00     0.010 A 
ATOM     41  C   UNL     1       4.201   4.622   7.307  1.00  0.00     0.010 A 
ATOM     42  C   UNL     1       3.997   5.518   8.366  1.00  0.00    -0.014 A 
BRANCH  42  43
ATOM     43  C   UNL     1       3.832   5.007   9.753  1.00  0.00     0.031 A 
ATOM     44  C   UNL     1       4.928   4.204  10.405  1.00  0.00     0.074 A 
ATOM     45  C   UNL     1       2.669   5.208  10.406  1.00  0.00     0.049 A 
ATOM     46  N   UNL     1       4.962   3.678  11.603  1.00  0.00    -0.248 NA
ATOM     47  C   UNL     1       6.131   3.932   9.601  1.00  0.00     0.031 C 
ATOM     48  C   UNL     1       1.494   5.888   9.855  1.00  0.00     0.029 A 
ATOM     49  N   UNL     1       2.277   4.847  11.672  1.00  0.00    -0.354 N 
ATOM     50  C   UNL     1       6.166   2.988  11.682  1.00  0.00     0.074 A 
ATOM     51  C   UNL     1       6.814   3.123  10.397  1.00  0.00     0.031 C 
ATOM     52  C   UNL     1       0.523   5.913  10.782  1.00  0.00     0.029 A 
ATOM     53  C   UNL     1       0.990   5.225  11.981  1.00  0.00     0.049 A 
ATOM     54  H   UNL     1       2.861   4.363  12.299  1.00  0.00     0.167 HD
ATOM     55  C   UNL     1       6.704   2.331  12.737  1.00  0.00     0.034 A 
ATOM     56  C   UNL     1       0.267   5.038  13.102  1.00  0.00     0.034 A 
ATOM     57  C   UNL     1       6.075   2.229  14.026  1.00  0.00     0.049 A 
ATOM     58  C   UNL     1       0.902   4.339  14.274  1.00  0.00     0.074 A 
ATOM     59  C   UNL     1       6.577   1.664  15.185  1.00  0.00     0.029 A 
ATOM     60  N   UNL     1       4.802   2.688  14.324  1.00  0.00    -0.354 N 
ATOM     61  N   UNL     1       2.110   3.842  14.384  1.00  0.00    -0.248 NA
ATOM     62  C   UNL     1       0.088   4.211  15.491  1.00  0.00     0.031 C 
ATOM     63  C   UNL     1       5.591   1.748  16.174  1.00  0.00     0.029 A 
ATOM     64  C   UNL     1       4.493   2.405  15.643  1.00  0.00     0.049 A 
ATOM     65  H   UNL     1       4.205   3.148  13.690  1.00  0.00     0.167 HD
ATOM     66  C   UNL     1       2.214   3.374  15.689  1.00  0.00     0.074 A 
ATOM     67  C   UNL     1       0.954   3.673  16.339  1.00  0.00     0.031 C 
ATOM     68  C   UNL     1       3.252   2.743  16.291  1.00  0.00     0.034 A 
BRANCH  55  69
ATOM     69  C   UNL     1       8.064   1.707  12.553  1.00  0.00     0.023 A 
ATOM     70  C   UNL     1       9.199   2.532  12.405  1.00  0.00     0.012 A 
ATOM     71  C   UNL     1       8.228   0.308  12.580  1.00  0.00     0.148 A 
ATOM     72  C   UNL     1      10.467   1.976  12.246  1.00  0.00     0.002 A 
ATOM     73  C   UNL     1       9.501  -0.238  12.472  1.00  0.00     0.091 A 
ATOM     74  F   UNL     1       7.137  -0.461  12.702  1.00  0.00    -0.205 F 
ATOM     75  C   UNL     1      10.620   0.593  12.290  1.00  0.00     0.022 A 
BRANCH  73  76
ATOM     76  S   UNL     1       9.815  -2.001  12.603  1.00  0.00     0.127 S 
ATOM     77  O   UNL     1      10.230  -2.329  11.240  1.00  0.00    -0.237 OA
ATOM     78  O   UNL     1      10.890  -2.047  13.595  1.00  0.00    -0.237 OA
ATOM     79  O   UNL     1       8.562  -2.604  13.034  1.00  0.00    -0.744 OA
ENDBRANCH  73  76
ENDBRANCH  55  69
BRANCH  56  80
ATOM     80  C   UNL     1      -1.123   5.572  13.195  1.00  0.00     0.023 A 
ATOM     81  C   UNL     1      -1.401   6.644  14.066  1.00  0.00     0.012 A 
ATOM     82  C   UNL     1      -2.165   5.032  12.417  1.00  0.00     0.148 A 
ATOM     83  C   UNL     1      -2.699   7.143  14.189  1.00  0.00     0.002 A 
ATOM     84  C   UNL     1      -3.443   5.572  12.501  1.00  0.00     0.091 A 
ATOM     85  F   UNL     1      -1.882   4.007  11.601  1.00  0.00    -0.205 F 
ATOM     86  C   UNL     1      -3.717   6.614  13.401  1.00  0.00     0.022 A 
BRANCH  84  87
ATOM     87  S   UNL     1      -4.785   5.043  11.432  1.00  0.00     0.127 S 
ATOM     88  O   UNL     1      -5.681   4.385  12.379  1.00  0.00    -0.237 OA
ATOM     89  O   UNL     1      -5.272   6.319  10.907  1.00  0.00    -0.237 OA
ATOM     90  O   UNL     1      -4.176   4.176  10.432  1.00  0.00    -0.744 OA
ENDBRANCH  84  87
ENDBRANCH  56  80
BRANCH  68  91
ATOM     91  C   UNL     1       3.090   2.363  17.741  1.00  0.00     0.023 A 
ATOM     92  C   UNL     1       2.201   1.333  18.107  1.00  0.00     0.012 A 
ATOM     93  C   UNL     1       3.864   2.993  18.737  1.00  0.00     0.148 A 
ATOM     94  C   UNL     1       2.052   0.966  19.444  1.00  0.00     0.002 A 
ATOM     95  C   UNL     1       3.752   2.583  20.059  1.00  0.00     0.091 A 
ATOM     96  F   UNL     1       4.693   3.982  18.373  1.00  0.00    -0.205 F 
ATOM     97  C   UNL     1       2.835   1.582  20.418  1.00  0.00     0.022 A 
BRANCH  95  98
ATOM     98  S   UNL     1       4.790   3.250  21.365  1.00  0.00     0.127 S 
ATOM     99  O   UNL     1       3.835   4.060  22.120  1.00  0.00    -0.237 OA
ATOM    100  O   UNL     1       5.239   2.038  22.052  1.00  0.00    -0.237 OA
ATOM    101  O   UNL     1       5.849   3.993  20.697  1.00  0.00    -0.744 OA
ENDBRANCH  95  98
ENDBRANCH  68  91
ENDBRANCH  42  43
ENDBRANCH  34  37
ENDBRANCH  32  33
ENDBRANCH  31  32
ENDBRANCH  30  31
ENDBRANCH   1  30
TORSDOF 19
