REMARK SMILES COc1cc(/C=C2/CCc3cc(OC(C)(C)C(=O)NCCCCNC(=O)c4ccc(-c5c6nc(c(-c7cccc(S(=O)(=O)[O-])c7F)c7ccc([nH]7)c(-c7cccc(S(=O)(=O)[O-])c7F)c7nc(c(-c8cccc(S(=O)(=O)[O-])c8F)c8ccc5[nH]8)C=C7)C=C6)cc4)ccc3C2=O)cc(OC)c1O
REMARK SMILES IDX 21 1 20 2 19 3 17 4 18 5 14 7 15 8 16 9 13 10 12 11 6 12
REMARK SMILES IDX 7 13 8 14 93 15 9 16 92 17 94 18 10 19 91 20 11 21 90 22
REMARK SMILES IDX 5 23 3 24 4 25 99 26 96 27 95 28 2 29 1 30 100 31 97 33
REMARK SMILES IDX 98 34 22 35 23 36 24 37 25 38 26 40 27 41 28 42 89 43 29 44
REMARK SMILES IDX 88 45 30 46 31 47 32 48 82 49 33 50 87 51 81 52 83 53 34 54
REMARK SMILES IDX 86 55 80 56 79 57 35 59 67 60 47 61 66 62 48 63 51 64 65 65
REMARK SMILES IDX 84 66 49 67 50 68 64 70 85 71 52 72 36 73 37 74 45 75 38 76
REMARK SMILES IDX 40 77 46 78 39 79 41 80 42 81 43 82 44 83 68 84 69 85 77 86
REMARK SMILES IDX 70 87 72 88 78 89 71 90 73 91 74 92 75 93 76 94 53 95 54 96
REMARK SMILES IDX 62 97 55 98 57 99 63 100 56 101 58 102 59 103 60 104 61 105
REMARK H PARENT 19 6 100 32 24 39 83 58 51 69
REMARK Flexibility Score: inf
ROOT
ATOM      1  C   UNL     1      -4.083  -1.312  14.912  1.00  0.00     0.023 C 
ENDROOT
BRANCH   1   2
ATOM      2  C   UNL     1      -2.982  -1.941  14.060  1.00  0.00     0.116 C 
BRANCH   2   3
ATOM      3  N   UNL     1      -3.445  -3.086  13.290  1.00  0.00    -0.353 N 
ATOM      4  C   UNL     1      -3.775  -3.204  11.959  1.00  0.00     0.263 C 
ATOM      5  O   UNL     1      -4.092  -4.327  11.560  1.00  0.00    -0.270 OA
ATOM      6  H   UNL     1      -3.537  -3.917  13.809  1.00  0.00     0.163 HD
BRANCH   4   7
ATOM      7  C   UNL     1      -3.707  -1.968  11.004  1.00  0.00     0.181 C 
ATOM      8  C   UNL     1      -2.199  -1.657  10.834  1.00  0.00     0.067 C 
ATOM      9  C   UNL     1      -4.594  -0.860  11.598  1.00  0.00     0.067 C 
BRANCH   7  10
ATOM     10  O   UNL     1      -4.302  -2.356   9.735  1.00  0.00    -0.478 OA
BRANCH  10  11
ATOM     11  C   UNL     1      -4.067  -1.602   8.614  1.00  0.00     0.121 A 
ATOM     12  C   UNL     1      -0.110   0.635   4.908  1.00  0.00     0.016 C 
ATOM     13  C   UNL     1      -1.275   0.894   5.528  1.00  0.00     0.001 C 
ATOM     14  C   UNL     1      -1.330   1.740   6.781  1.00  0.00     0.044 C 
ATOM     15  C   UNL     1      -2.547   0.217   5.114  1.00  0.00     0.189 C 
ATOM     16  C   UNL     1      -2.711   1.757   7.442  1.00  0.00     0.041 C 
ATOM     17  C   UNL     1      -3.270  -0.370   6.258  1.00  0.00     0.026 A 
ATOM     18  O   UNL     1      -2.945   0.126   3.963  1.00  0.00    -0.289 OA
ATOM     19  C   UNL     1      -3.272   0.362   7.449  1.00  0.00    -0.033 A 
ATOM     20  C   UNL     1      -3.754  -1.675   6.207  1.00  0.00     0.016 A 
ATOM     21  C   UNL     1      -3.714  -0.249   8.615  1.00  0.00     0.051 A 
ATOM     22  C   UNL     1      -4.144  -2.292   7.399  1.00  0.00     0.047 A 
BRANCH  12  23
ATOM     23  C   UNL     1       0.096  -0.268   3.770  1.00  0.00    -0.018 A 
ATOM     24  C   UNL     1       0.918  -0.595   1.534  1.00  0.00     0.165 A 
ATOM     25  C   UNL     1       0.696   0.243   2.620  1.00  0.00     0.058 A 
ATOM     26  C   UNL     1       0.593  -1.958   1.592  1.00  0.00     0.200 A 
ATOM     27  C   UNL     1      -0.031  -2.479   2.727  1.00  0.00     0.165 A 
ATOM     28  C   UNL     1      -0.252  -1.628   3.820  1.00  0.00     0.058 A 
BRANCH  24  29
ATOM     29  O   UNL     1       1.532  -0.065   0.427  1.00  0.00    -0.493 OA
ATOM     30  C   UNL     1       0.605   0.079  -0.655  1.00  0.00     0.278 C 
ENDBRANCH  24  29
BRANCH  26  31
ATOM     31  O   UNL     1       0.956  -2.752   0.537  1.00  0.00    -0.502 OA
ATOM     32  H   UNL     1       1.374  -2.373  -0.212  1.00  0.00     0.293 HD
ENDBRANCH  26  31
BRANCH  27  33
ATOM     33  O   UNL     1      -0.433  -3.770   2.944  1.00  0.00    -0.493 OA
ATOM     34  C   UNL     1      -0.602  -4.599   1.802  1.00  0.00     0.278 C 
ENDBRANCH  27  33
ENDBRANCH  12  23
ENDBRANCH  10  11
ENDBRANCH   7  10
ENDBRANCH   4   7
ENDBRANCH   2   3
ENDBRANCH   1   2
BRANCH   1  35
ATOM     35  C   UNL     1      -4.358  -2.020  16.235  1.00  0.00     0.023 C 
BRANCH  35  36
ATOM     36  C   UNL     1      -3.168  -2.116  17.183  1.00  0.00     0.116 C 
BRANCH  36  37
ATOM     37  N   UNL     1      -2.537  -0.833  17.468  1.00  0.00    -0.352 N 
ATOM     38  C   UNL     1      -1.911  -0.438  18.628  1.00  0.00     0.251 C 
ATOM     39  H   UNL     1      -2.563  -0.169  16.743  1.00  0.00     0.163 HD
ATOM     40  O   UNL     1      -1.489   0.707  18.749  1.00  0.00    -0.269 OA
BRANCH  38  41
ATOM     41  C   UNL     1      -1.801  -1.403  19.739  1.00  0.00     0.039 A 
ATOM     42  C   UNL     1      -2.307  -1.048  20.992  1.00  0.00     0.014 A 
ATOM     43  C   UNL     1      -1.279  -2.679  19.515  1.00  0.00     0.014 A 
ATOM     44  C   UNL     1      -2.373  -2.010  22.002  1.00  0.00     0.010 A 
ATOM     45  C   UNL     1      -1.398  -3.649  20.503  1.00  0.00     0.010 A 
ATOM     46  C   UNL     1      -1.960  -3.327  21.747  1.00  0.00    -0.014 A 
BRANCH  46  47
ATOM     47  C   UNL     1      -2.143  -4.405  22.747  1.00  0.00     0.031 A 
ATOM     48  C   UNL     1      -0.946  -5.080  23.350  1.00  0.00     0.074 A 
ATOM     49  C   UNL     1      -3.384  -4.859  23.010  1.00  0.00     0.049 A 
ATOM     50  N   UNL     1      -0.899  -6.120  24.139  1.00  0.00    -0.248 NA
ATOM     51  C   UNL     1       0.374  -4.531  22.996  1.00  0.00     0.031 C 
ATOM     52  C   UNL     1      -4.619  -4.337  22.419  1.00  0.00     0.029 A 
ATOM     53  N   UNL     1      -3.810  -5.886  23.814  1.00  0.00    -0.354 N 
ATOM     54  C   UNL     1       0.450  -6.382  24.337  1.00  0.00     0.074 A 
ATOM     55  C   UNL     1       1.191  -5.397  23.579  1.00  0.00     0.031 C 
ATOM     56  C   UNL     1      -5.662  -5.047  22.881  1.00  0.00     0.029 A 
ATOM     57  C   UNL     1      -5.170  -6.085  23.781  1.00  0.00     0.049 A 
ATOM     58  H   UNL     1      -3.199  -6.428  24.364  1.00  0.00     0.167 HD
ATOM     59  C   UNL     1       1.020  -7.340  25.104  1.00  0.00     0.034 A 
ATOM     60  C   UNL     1      -5.934  -7.002  24.405  1.00  0.00     0.034 A 
ATOM     61  C   UNL     1       0.283  -8.267  25.916  1.00  0.00     0.049 A 
ATOM     62  C   UNL     1      -5.279  -7.997  25.323  1.00  0.00     0.074 A 
ATOM     63  C   UNL     1       0.771  -9.216  26.798  1.00  0.00     0.029 A 
ATOM     64  N   UNL     1      -1.099  -8.354  25.957  1.00  0.00    -0.354 N 
ATOM     65  N   UNL     1      -4.008  -8.134  25.613  1.00  0.00    -0.248 NA
ATOM     66  C   UNL     1      -6.162  -8.941  26.024  1.00  0.00     0.031 C 
ATOM     67  C   UNL     1      -0.321  -9.866  27.385  1.00  0.00     0.029 A 
ATOM     68  C   UNL     1      -1.485  -9.331  26.857  1.00  0.00     0.049 A 
ATOM     69  H   UNL     1      -1.716  -7.802  25.424  1.00  0.00     0.167 HD
ATOM     70  C   UNL     1      -3.940  -9.158  26.549  1.00  0.00     0.074 A 
ATOM     71  C   UNL     1      -5.300  -9.596  26.791  1.00  0.00     0.031 C 
ATOM     72  C   UNL     1      -2.848  -9.701  27.139  1.00  0.00     0.034 A 
BRANCH  59  73
ATOM     73  C   UNL     1       2.520  -7.372  25.164  1.00  0.00     0.023 A 
ATOM     74  C   UNL     1       3.189  -6.448  25.991  1.00  0.00     0.012 A 
ATOM     75  C   UNL     1       3.263  -8.326  24.446  1.00  0.00     0.148 A 
ATOM     76  C   UNL     1       4.579  -6.461  26.087  1.00  0.00     0.002 A 
ATOM     77  C   UNL     1       4.649  -8.349  24.568  1.00  0.00     0.091 A 
ATOM     78  F   UNL     1       2.613  -9.174  23.635  1.00  0.00    -0.205 F 
ATOM     79  C   UNL     1       5.308  -7.416  25.384  1.00  0.00     0.022 A 
BRANCH  77  80
ATOM     80  S   UNL     1       5.642  -9.588  23.727  1.00  0.00     0.127 S 
ATOM     81  O   UNL     1       5.965  -8.911  22.473  1.00  0.00    -0.237 OA
ATOM     82  O   UNL     1       6.779  -9.760  24.634  1.00  0.00    -0.237 OA
ATOM     83  O   UNL     1       4.781 -10.758  23.622  1.00  0.00    -0.744 OA
ENDBRANCH  77  80
ENDBRANCH  59  73
BRANCH  60  84
ATOM     84  C   UNL     1      -7.415  -6.950  24.257  1.00  0.00     0.023 A 
ATOM     85  C   UNL     1      -8.187  -6.453  25.325  1.00  0.00     0.012 A 
ATOM     86  C   UNL     1      -8.056  -7.325  23.063  1.00  0.00     0.148 A 
ATOM     87  C   UNL     1      -9.573  -6.346  25.211  1.00  0.00     0.002 A 
ATOM     88  C   UNL     1      -9.434  -7.173  22.940  1.00  0.00     0.091 A 
ATOM     89  F   UNL     1      -7.311  -7.814  22.061  1.00  0.00    -0.205 F 
ATOM     90  C   UNL     1     -10.196  -6.694  24.015  1.00  0.00     0.022 A 
BRANCH  88  91
ATOM     91  S   UNL     1     -10.262  -7.481  21.375  1.00  0.00     0.127 S 
ATOM     92  O   UNL     1     -10.597  -8.897  21.481  1.00  0.00    -0.237 OA
ATOM     93  O   UNL     1     -11.408  -6.571  21.434  1.00  0.00    -0.237 OA
ATOM     94  O   UNL     1      -9.275  -7.120  20.364  1.00  0.00    -0.744 OA
ENDBRANCH  88  91
ENDBRANCH  60  84
BRANCH  72  95
ATOM     95  C   UNL     1      -3.068 -10.816  28.120  1.00  0.00     0.023 A 
ATOM     96  C   UNL     1      -3.281 -12.121  27.638  1.00  0.00     0.012 A 
ATOM     97  C   UNL     1      -2.969 -10.593  29.506  1.00  0.00     0.148 A 
ATOM     98  C   UNL     1      -3.402 -13.190  28.524  1.00  0.00     0.002 A 
ATOM     99  C   UNL     1      -3.061 -11.669  30.383  1.00  0.00     0.091 A 
ATOM    100  F   UNL     1      -2.793  -9.338  29.946  1.00  0.00    -0.205 F 
ATOM    101  C   UNL     1      -3.280 -12.967  29.895  1.00  0.00     0.022 A 
BRANCH  99 102
ATOM    102  S   UNL     1      -2.836 -11.454  32.152  1.00  0.00     0.127 S 
ATOM    103  O   UNL     1      -4.211 -11.264  32.610  1.00  0.00    -0.237 OA
ATOM    104  O   UNL     1      -2.230 -12.724  32.557  1.00  0.00    -0.237 OA
ATOM    105  O   UNL     1      -1.953 -10.303  32.289  1.00  0.00    -0.744 OA
ENDBRANCH  99 102
ENDBRANCH  72  95
ENDBRANCH  46  47
ENDBRANCH  38  41
ENDBRANCH  36  37
ENDBRANCH  35  36
ENDBRANCH   1  35
TORSDOF 20
