REMARK SMILES O=C(CSCc1ccc(C(=O)NCCCCNC(=O)c2ccc(-c3c4nc(c(-c5cccc(S(=O)(=O)[O-])c5F)c5ccc([nH]5)c(-c5cccc(S(=O)(=O)[O-])c5F)c5nc(c(-c6cccc(S(=O)(=O)[O-])c6F)c6ccc3[nH]6)C=C5)C=C4)cc2)cc1)Nc1ccc(Cl)cc1
REMARK SMILES IDX 13 1 12 2 10 3 11 4 9 6 6 7 7 8 84 9 8 10 83 11 5 12 4 13
REMARK SMILES IDX 3 14 2 15 1 16 85 17 86 19 87 20 92 21 88 22 91 23 89 24
REMARK SMILES IDX 90 25 14 26 15 27 16 28 17 29 18 30 19 32 20 33 21 34 82 35
REMARK SMILES IDX 22 36 81 37 23 38 24 39 25 40 75 41 26 42 80 43 74 44 76 45
REMARK SMILES IDX 27 46 79 47 73 48 72 49 28 51 60 52 40 53 59 54 41 55 44 56
REMARK SMILES IDX 58 57 77 58 42 59 43 60 57 62 78 63 45 64 29 65 30 66 38 67
REMARK SMILES IDX 31 68 33 69 39 70 32 71 34 72 35 73 36 74 37 75 61 76 62 77
REMARK SMILES IDX 70 78 63 79 65 80 71 81 64 82 66 83 67 84 68 85 69 86 46 87
REMARK SMILES IDX 47 88 55 89 48 90 50 91 56 92 49 93 51 94 52 95 53 96 54 97
REMARK H PARENT 12 5 85 18 17 31 76 50 44 61
REMARK Flexibility Score: inf
ROOT
ATOM      1  C   UNL     1      -2.629   4.497   2.184  1.00  0.00     0.116 C 
ENDROOT
BRANCH   1   2
ATOM      2  N   UNL     1      -1.798   5.649   2.477  1.00  0.00    -0.352 N 
ATOM      3  C   UNL     1      -0.451   5.776   2.706  1.00  0.00     0.251 C 
ATOM      4  O   UNL     1       0.001   6.909   2.873  1.00  0.00    -0.269 OA
ATOM      5  H   UNL     1      -2.293   6.499   2.521  1.00  0.00     0.163 HD
BRANCH   3   6
ATOM      6  C   UNL     1       0.494   4.623   2.717  1.00  0.00     0.039 A 
ATOM      7  C   UNL     1       2.425   2.550   2.666  1.00  0.00    -0.038 A 
ATOM      8  C   UNL     1       2.785   3.866   2.353  1.00  0.00     0.005 A 
ATOM      9  C   UNL     1       1.106   2.298   3.064  1.00  0.00     0.005 A 
ATOM     10  C   UNL     1       1.826   4.886   2.364  1.00  0.00     0.014 A 
ATOM     11  C   UNL     1       0.160   3.328   3.113  1.00  0.00     0.014 A 
BRANCH   7  12
ATOM     12  C   UNL     1       3.425   1.423   2.671  1.00  0.00     0.105 C 
BRANCH  12  13
ATOM     13  S   UNL     1       4.463   1.264   1.181  1.00  0.00    -0.147 SA
BRANCH  13  14
ATOM     14  C   UNL     1       3.193   1.255  -0.132  1.00  0.00     0.170 C 
BRANCH  14  15
ATOM     15  C   UNL     1       2.241   0.071  -0.070  1.00  0.00     0.234 C 
ATOM     16  O   UNL     1       1.063   0.205  -0.393  1.00  0.00    -0.274 OA
ATOM     17  N   UNL     1       2.839  -1.122   0.300  1.00  0.00    -0.325 N 
ATOM     18  H   UNL     1       3.768  -1.067   0.622  1.00  0.00     0.169 HD
BRANCH  17  19
ATOM     19  C   UNL     1       2.260  -2.404   0.264  1.00  0.00     0.041 A 
ATOM     20  C   UNL     1       2.905  -3.429   0.967  1.00  0.00     0.027 A 
ATOM     21  C   UNL     1       1.099  -2.703  -0.456  1.00  0.00     0.027 A 
ATOM     22  C   UNL     1       2.377  -4.724   0.977  1.00  0.00     0.022 A 
ATOM     23  C   UNL     1       0.580  -4.001  -0.462  1.00  0.00     0.022 A 
ATOM     24  C   UNL     1       1.215  -5.005   0.261  1.00  0.00     0.041 A 
ATOM     25  Cl  UNL     1       0.569  -6.599   0.269  1.00  0.00    -0.084 Cl
ENDBRANCH  17  19
ENDBRANCH  14  15
ENDBRANCH  13  14
ENDBRANCH  12  13
ENDBRANCH   7  12
ENDBRANCH   3   6
ENDBRANCH   1   2
BRANCH   1  26
ATOM     26  C   UNL     1      -3.361   4.021   3.441  1.00  0.00     0.023 C 
BRANCH  26  27
ATOM     27  C   UNL     1      -4.598   4.850   3.803  1.00  0.00     0.023 C 
BRANCH  27  28
ATOM     28  C   UNL     1      -5.735   4.794   2.786  1.00  0.00     0.116 C 
BRANCH  28  29
ATOM     29  N   UNL     1      -6.220   3.444   2.540  1.00  0.00    -0.352 N 
ATOM     30  C   UNL     1      -7.492   3.038   2.210  1.00  0.00     0.251 C 
ATOM     31  H   UNL     1      -5.549   2.728   2.621  1.00  0.00     0.163 HD
ATOM     32  O   UNL     1      -7.759   1.845   2.140  1.00  0.00    -0.269 OA
BRANCH  30  33
ATOM     33  C   UNL     1      -8.541   4.055   1.982  1.00  0.00     0.039 A 
ATOM     34  C   UNL     1      -9.765   3.917   2.640  1.00  0.00     0.014 A 
ATOM     35  C   UNL     1      -8.306   5.152   1.148  1.00  0.00     0.014 A 
ATOM     36  C   UNL     1     -10.732   4.917   2.516  1.00  0.00     0.010 A 
ATOM     37  C   UNL     1      -9.245   6.176   1.076  1.00  0.00     0.010 A 
ATOM     38  C   UNL     1     -10.466   6.070   1.760  1.00  0.00    -0.014 A 
BRANCH  38  39
ATOM     39  C   UNL     1     -11.440   7.189   1.692  1.00  0.00     0.031 A 
ATOM     40  C   UNL     1     -12.075   7.563   0.380  1.00  0.00     0.074 A 
ATOM     41  C   UNL     1     -11.675   7.931   2.793  1.00  0.00     0.049 A 
ATOM     42  N   UNL     1     -12.895   8.546   0.113  1.00  0.00    -0.248 NA
ATOM     43  C   UNL     1     -11.721   6.743  -0.791  1.00  0.00     0.031 C 
ATOM     44  C   UNL     1     -11.052   7.722   4.102  1.00  0.00     0.029 A 
ATOM     45  N   UNL     1     -12.476   9.029   2.979  1.00  0.00    -0.354 N 
ATOM     46  C   UNL     1     -13.125   8.488  -1.256  1.00  0.00     0.074 A 
ATOM     47  C   UNL     1     -12.337   7.390  -1.771  1.00  0.00     0.031 C 
ATOM     48  C   UNL     1     -11.494   8.661   4.955  1.00  0.00     0.029 A 
ATOM     49  C   UNL     1     -12.411   9.551   4.250  1.00  0.00     0.049 A 
ATOM     50  H   UNL     1     -13.044   9.408   2.270  1.00  0.00     0.167 HD
ATOM     51  C   UNL     1     -13.942   9.260  -2.011  1.00  0.00     0.034 A 
ATOM     52  C   UNL     1     -13.020  10.628   4.787  1.00  0.00     0.034 A 
ATOM     53  C   UNL     1     -14.768  10.313  -1.485  1.00  0.00     0.049 A 
ATOM     54  C   UNL     1     -13.970  11.428   3.937  1.00  0.00     0.074 A 
ATOM     55  C   UNL     1     -15.704  11.084  -2.151  1.00  0.00     0.029 A 
ATOM     56  N   UNL     1     -14.757  10.744  -0.168  1.00  0.00    -0.354 N 
ATOM     57  N   UNL     1     -14.308  11.247   2.684  1.00  0.00    -0.248 NA
ATOM     58  C   UNL     1     -14.653  12.557   4.585  1.00  0.00     0.031 C 
ATOM     59  C   UNL     1     -16.252  11.991  -1.238  1.00  0.00     0.029 A 
ATOM     60  C   UNL     1     -15.667  11.773  -0.001  1.00  0.00     0.049 A 
ATOM     61  H   UNL     1     -14.187  10.372   0.543  1.00  0.00     0.167 HD
ATOM     62  C   UNL     1     -15.268  12.213   2.405  1.00  0.00     0.074 A 
ATOM     63  C   UNL     1     -15.474  12.963   3.626  1.00  0.00     0.031 C 
ATOM     64  C   UNL     1     -15.909  12.467   1.237  1.00  0.00     0.034 A 
BRANCH  51  65
ATOM     65  C   UNL     1     -14.039   8.952  -3.482  1.00  0.00     0.023 A 
ATOM     66  C   UNL     1     -14.736   7.801  -3.901  1.00  0.00     0.012 A 
ATOM     67  C   UNL     1     -13.512   9.832  -4.447  1.00  0.00     0.148 A 
ATOM     68  C   UNL     1     -14.885   7.515  -5.257  1.00  0.00     0.002 A 
ATOM     69  C   UNL     1     -13.700   9.562  -5.798  1.00  0.00     0.091 A 
ATOM     70  F   UNL     1     -12.835  10.910  -4.027  1.00  0.00    -0.205 F 
ATOM     71  C   UNL     1     -14.378   8.400  -6.204  1.00  0.00     0.022 A 
BRANCH  69  72
ATOM     72  S   UNL     1     -13.152  10.676  -7.096  1.00  0.00     0.127 S 
ATOM     73  O   UNL     1     -12.050   9.920  -7.688  1.00  0.00    -0.237 OA
ATOM     74  O   UNL     1     -14.344  10.777  -7.938  1.00  0.00    -0.237 OA
ATOM     75  O   UNL     1     -12.773  11.914  -6.429  1.00  0.00    -0.744 OA
ENDBRANCH  69  72
ENDBRANCH  51  65
BRANCH  52  76
ATOM     76  C   UNL     1     -12.811  10.966   6.223  1.00  0.00     0.023 A 
ATOM     77  C   UNL     1     -13.868  10.775   7.135  1.00  0.00     0.012 A 
ATOM     78  C   UNL     1     -11.578  11.453   6.696  1.00  0.00     0.148 A 
ATOM     79  C   UNL     1     -13.713  11.097   8.483  1.00  0.00     0.002 A 
ATOM     80  C   UNL     1     -11.413  11.720   8.051  1.00  0.00     0.091 A 
ATOM     81  F   UNL     1     -10.587  11.642   5.813  1.00  0.00    -0.205 F 
ATOM     82  C   UNL     1     -12.483  11.560   8.943  1.00  0.00     0.022 A 
BRANCH  80  83
ATOM     83  S   UNL     1      -9.824  12.193   8.744  1.00  0.00     0.127 S 
ATOM     84  O   UNL     1     -10.001  13.628   8.948  1.00  0.00    -0.237 OA
ATOM     85  O   UNL     1      -9.775  11.397   9.971  1.00  0.00    -0.237 OA
ATOM     86  O   UNL     1      -8.837  11.806   7.744  1.00  0.00    -0.744 OA
ENDBRANCH  80  83
ENDBRANCH  52  76
BRANCH  64  87
ATOM     87  C   UNL     1     -16.924  13.579   1.224  1.00  0.00     0.023 A 
ATOM     88  C   UNL     1     -16.491  14.919   1.250  1.00  0.00     0.012 A 
ATOM     89  C   UNL     1     -18.299  13.297   1.102  1.00  0.00     0.148 A 
ATOM     90  C   UNL     1     -17.413  15.962   1.183  1.00  0.00     0.002 A 
ATOM     91  C   UNL     1     -19.208  14.342   0.989  1.00  0.00     0.091 A 
ATOM     92  F   UNL     1     -18.692  12.015   1.099  1.00  0.00    -0.205 F 
ATOM     93  C   UNL     1     -18.768  15.675   1.040  1.00  0.00     0.022 A 
BRANCH  91  94
ATOM     94  S   UNL     1     -20.960  14.062   0.706  1.00  0.00     0.127 S 
ATOM     95  O   UNL     1     -21.525  14.354   2.023  1.00  0.00    -0.237 OA
ATOM     96  O   UNL     1     -21.273  15.053  -0.325  1.00  0.00    -0.237 OA
ATOM     97  O   UNL     1     -21.077  12.679   0.266  1.00  0.00    -0.744 OA
ENDBRANCH  91  94
ENDBRANCH  64  87
ENDBRANCH  38  39
ENDBRANCH  30  33
ENDBRANCH  28  29
ENDBRANCH  27  28
ENDBRANCH  26  27
ENDBRANCH   1  26
TORSDOF 19
