REMARK SMILES C[C@]1(C(=O)NCCCCNC(=O)c2ccc(-c3c4nc(c(-c5cccc(S(=O)(=O)[O-])c5F)c5ccc([nH]5)c(-c5cccc(S(=O)(=O)[O-])c5F)c5nc(c(-c6cccc(S(=O)(=O)[O-])c6F)c6ccc3[nH]6)C=C5)C=C4)cc2)[NH2+]C2(C(=O)c3ccccc3C2=O)[C@@H]2C(=O)N(c3ccccc3)C(=O)[C@H]21
REMARK SMILES IDX 8 1 7 2 6 3 5 4 3 5 4 6 2 8 1 9 76 10 100 11 77 12 88 15
REMARK SMILES IDX 98 16 78 17 86 18 89 19 91 20 99 21 79 22 80 23 85 24 87 25
REMARK SMILES IDX 90 26 81 27 84 28 82 29 83 30 92 31 93 32 97 33 94 34 96 35
REMARK SMILES IDX 95 36 9 37 10 38 11 39 12 41 13 42 14 43 75 44 15 45 74 46
REMARK SMILES IDX 16 47 17 48 18 49 68 50 19 51 73 52 67 53 69 54 20 55 72 56
REMARK SMILES IDX 66 57 65 58 21 60 53 61 33 62 52 63 34 64 37 65 51 66 70 67
REMARK SMILES IDX 35 68 36 69 50 71 71 72 38 73 22 74 23 75 31 76 24 77 26 78
REMARK SMILES IDX 32 79 25 80 27 81 28 82 29 83 30 84 54 85 55 86 63 87 56 88
REMARK SMILES IDX 58 89 64 90 57 91 59 92 60 93 61 94 62 95 39 96 40 97 48 98
REMARK SMILES IDX 41 99 43 100 49 101 42 102 44 103 45 104 46 105 47 106
REMARK H PARENT 5 7 76 13 76 14 10 40 69 59 37 70
REMARK Flexibility Score: inf
ROOT
ATOM      1  C   UNL     1      -0.154   1.692   6.691  1.00  0.00     0.023 C 
ENDROOT
BRANCH   1   2
ATOM      2  C   UNL     1      -0.766   1.420   5.336  1.00  0.00     0.023 C 
BRANCH   2   3
ATOM      3  C   UNL     1       0.102   1.754   4.133  1.00  0.00     0.116 C 
BRANCH   3   4
ATOM      4  N   UNL     1       0.909   0.729   3.550  1.00  0.00    -0.351 N 
ATOM      5  C   UNL     1       1.119   0.408   2.239  1.00  0.00     0.281 C 
ATOM      6  O   UNL     1       1.913  -0.533   2.085  1.00  0.00    -0.268 OA
ATOM      7  H   UNL     1       1.390   0.163   4.196  1.00  0.00     0.163 HD
BRANCH   5   8
ATOM      8  C   UNL     1       0.473   1.115   0.955  1.00  0.00     0.186 C 
ATOM      9  C   UNL     1       0.976   0.283  -0.256  1.00  0.00     0.091 C 
ATOM     10  N   UNL     1      -1.044   1.105   0.920  1.00  0.00    -0.314 N 
ATOM     11  C   UNL     1       0.745   2.563   0.665  1.00  0.00     0.170 C 
ATOM     12  C   UNL     1      -1.570   2.530   1.073  1.00  0.00     0.236 C 
ATOM     13  H   UNL     1      -1.397   0.529   1.684  1.00  0.00     0.348 HD
ATOM     14  H   UNL     1      -1.360   0.721   0.029  1.00  0.00     0.348 HD
ATOM     15  C   UNL     1      -0.337   3.345   1.383  1.00  0.00     0.177 C 
ATOM     16  C   UNL     1       1.963   3.327   1.030  1.00  0.00     0.244 C 
ATOM     17  C   UNL     1      -2.383   3.034  -0.127  1.00  0.00     0.232 C 
ATOM     18  C   UNL     1      -2.668   2.467   2.160  1.00  0.00     0.232 C 
ATOM     19  C   UNL     1       0.117   4.733   1.042  1.00  0.00     0.245 C 
ATOM     20  N   UNL     1       1.516   4.649   1.078  1.00  0.00    -0.250 N 
ATOM     21  O   UNL     1       3.074   2.866   1.180  1.00  0.00    -0.273 OA
ATOM     22  O   UNL     1      -2.004   3.097  -1.283  1.00  0.00    -0.286 OA
ATOM     23  C   UNL     1      -3.737   3.405   0.339  1.00  0.00     0.036 A 
ATOM     24  C   UNL     1      -3.870   3.095   1.679  1.00  0.00     0.036 A 
ATOM     25  O   UNL     1      -2.697   1.890   3.231  1.00  0.00    -0.286 OA
ATOM     26  O   UNL     1      -0.615   5.700   0.942  1.00  0.00    -0.273 OA
ATOM     27  C   UNL     1      -4.817   3.928  -0.346  1.00  0.00     0.013 A 
ATOM     28  C   UNL     1      -5.038   3.272   2.404  1.00  0.00     0.013 A 
ATOM     29  C   UNL     1      -6.017   4.127   0.363  1.00  0.00     0.001 A 
ATOM     30  C   UNL     1      -6.127   3.803   1.729  1.00  0.00     0.001 A 
BRANCH  20  31
ATOM     31  C   UNL     1       2.405   5.704   1.349  1.00  0.00     0.052 A 
ATOM     32  C   UNL     1       3.554   5.870   0.563  1.00  0.00     0.027 A 
ATOM     33  C   UNL     1       2.246   6.476   2.505  1.00  0.00     0.027 A 
ATOM     34  C   UNL     1       4.527   6.806   0.921  1.00  0.00     0.002 A 
ATOM     35  C   UNL     1       3.250   7.371   2.890  1.00  0.00     0.002 A 
ATOM     36  C   UNL     1       4.384   7.541   2.095  1.00  0.00     0.000 A 
ENDBRANCH  20  31
ENDBRANCH   5   8
ENDBRANCH   3   4
ENDBRANCH   2   3
ENDBRANCH   1   2
BRANCH   1  37
ATOM     37  C   UNL     1       0.431   3.088   6.863  1.00  0.00     0.116 C 
BRANCH  37  38
ATOM     38  N   UNL     1      -0.525   4.194   6.752  1.00  0.00    -0.352 N 
ATOM     39  C   UNL     1      -0.867   5.160   7.683  1.00  0.00     0.251 C 
ATOM     40  H   UNL     1      -0.993   4.259   5.889  1.00  0.00     0.163 HD
ATOM     41  O   UNL     1      -1.711   6.010   7.420  1.00  0.00    -0.269 OA
BRANCH  39  42
ATOM     42  C   UNL     1      -0.245   5.104   9.023  1.00  0.00     0.039 A 
ATOM     43  C   UNL     1       1.125   4.898   9.122  1.00  0.00     0.014 A 
ATOM     44  C   UNL     1      -1.051   5.052  10.162  1.00  0.00     0.014 A 
ATOM     45  C   UNL     1       1.619   4.298  10.269  1.00  0.00     0.010 A 
ATOM     46  C   UNL     1      -0.499   4.621  11.375  1.00  0.00     0.010 A 
ATOM     47  C   UNL     1       0.818   4.142  11.416  1.00  0.00    -0.014 A 
BRANCH  47  48
ATOM     48  C   UNL     1       1.404   3.463  12.609  1.00  0.00     0.031 A 
ATOM     49  C   UNL     1       0.766   2.241  13.229  1.00  0.00     0.074 A 
ATOM     50  C   UNL     1       2.589   3.907  13.081  1.00  0.00     0.049 A 
ATOM     51  N   UNL     1       1.204   1.511  14.225  1.00  0.00    -0.248 NA
ATOM     52  C   UNL     1      -0.522   1.778  12.684  1.00  0.00     0.031 C 
ATOM     53  C   UNL     1       3.298   5.091  12.588  1.00  0.00     0.029 A 
ATOM     54  N   UNL     1       3.429   3.400  14.040  1.00  0.00    -0.354 N 
ATOM     55  C   UNL     1       0.226   0.550  14.463  1.00  0.00     0.074 A 
ATOM     56  C   UNL     1      -0.831   0.781  13.505  1.00  0.00     0.031 C 
ATOM     57  C   UNL     1       4.500   5.163  13.170  1.00  0.00     0.029 A 
ATOM     58  C   UNL     1       4.612   4.092  14.151  1.00  0.00     0.049 A 
ATOM     59  H   UNL     1       3.206   2.617  14.594  1.00  0.00     0.167 HD
ATOM     60  C   UNL     1       0.218  -0.444  15.382  1.00  0.00     0.034 A 
ATOM     61  C   UNL     1       5.673   3.907  14.959  1.00  0.00     0.034 A 
ATOM     62  C   UNL     1       1.305  -0.724  16.281  1.00  0.00     0.049 A 
ATOM     63  C   UNL     1       5.652   2.781  15.944  1.00  0.00     0.074 A 
ATOM     64  C   UNL     1       1.406  -1.749  17.206  1.00  0.00     0.029 A 
ATOM     65  N   UNL     1       2.477   0.009  16.363  1.00  0.00    -0.354 N 
ATOM     66  N   UNL     1       4.740   1.855  16.105  1.00  0.00    -0.248 NA
ATOM     67  C   UNL     1       6.797   2.669  16.858  1.00  0.00     0.031 C 
ATOM     68  C   UNL     1       2.636  -1.630  17.856  1.00  0.00     0.029 A 
ATOM     69  C   UNL     1       3.305  -0.539  17.326  1.00  0.00     0.049 A 
ATOM     70  H   UNL     1       2.689   0.800  15.817  1.00  0.00     0.167 HD
ATOM     71  C   UNL     1       5.201   1.045  17.133  1.00  0.00     0.074 A 
ATOM     72  C   UNL     1       6.484   1.577  17.546  1.00  0.00     0.031 C 
ATOM     73  C   UNL     1       4.601  -0.030  17.693  1.00  0.00     0.034 A 
BRANCH  60  74
ATOM     74  C   UNL     1      -0.979  -1.356  15.451  1.00  0.00     0.023 A 
ATOM     75  C   UNL     1      -1.105  -2.403  14.518  1.00  0.00     0.012 A 
ATOM     76  C   UNL     1      -1.895  -1.262  16.518  1.00  0.00     0.148 A 
ATOM     77  C   UNL     1      -2.129  -3.341  14.642  1.00  0.00     0.002 A 
ATOM     78  C   UNL     1      -2.896  -2.217  16.652  1.00  0.00     0.091 A 
ATOM     79  F   UNL     1      -1.756  -0.253  17.391  1.00  0.00    -0.205 F 
ATOM     80  C   UNL     1      -3.016  -3.255  15.713  1.00  0.00     0.022 A 
BRANCH  78  81
ATOM     81  S   UNL     1      -4.053  -2.235  18.027  1.00  0.00     0.127 S 
ATOM     82  O   UNL     1      -5.322  -1.981  17.346  1.00  0.00    -0.237 OA
ATOM     83  O   UNL     1      -3.898  -3.595  18.541  1.00  0.00    -0.237 OA
ATOM     84  O   UNL     1      -3.618  -1.183  18.935  1.00  0.00    -0.744 OA
ENDBRANCH  78  81
ENDBRANCH  60  74
BRANCH  61  85
ATOM     85  C   UNL     1       6.846   4.813  14.827  1.00  0.00     0.023 A 
ATOM     86  C   UNL     1       8.019   4.340  14.213  1.00  0.00     0.012 A 
ATOM     87  C   UNL     1       6.757   6.169  15.200  1.00  0.00     0.148 A 
ATOM     88  C   UNL     1       9.088   5.204  13.970  1.00  0.00     0.002 A 
ATOM     89  C   UNL     1       7.804   7.034  14.910  1.00  0.00     0.091 A 
ATOM     90  F   UNL     1       5.626   6.591  15.783  1.00  0.00    -0.205 F 
ATOM     91  C   UNL     1       8.975   6.552  14.305  1.00  0.00     0.022 A 
BRANCH  89  92
ATOM     92  S   UNL     1       7.694   8.806  15.182  1.00  0.00     0.127 S 
ATOM     93  O   UNL     1       8.712   9.013  16.209  1.00  0.00    -0.237 OA
ATOM     94  O   UNL     1       8.036   9.332  13.860  1.00  0.00    -0.237 OA
ATOM     95  O   UNL     1       6.322   9.060  15.598  1.00  0.00    -0.744 OA
ENDBRANCH  89  92
ENDBRANCH  61  85
BRANCH  73  96
ATOM     96  C   UNL     1       5.309  -0.737  18.812  1.00  0.00     0.023 A 
ATOM     97  C   UNL     1       5.216  -0.221  20.117  1.00  0.00     0.012 A 
ATOM     98  C   UNL     1       5.914  -1.990  18.593  1.00  0.00     0.148 A 
ATOM     99  C   UNL     1       5.712  -0.949  21.197  1.00  0.00     0.002 A 
ATOM    100  C   UNL     1       6.376  -2.723  19.677  1.00  0.00     0.091 A 
ATOM    101  F   UNL     1       5.987  -2.451  17.336  1.00  0.00    -0.205 F 
ATOM    102  C   UNL     1       6.279  -2.204  20.979  1.00  0.00     0.022 A 
BRANCH 100 103
ATOM    103  S   UNL     1       7.049  -4.380  19.511  1.00  0.00     0.127 S 
ATOM    104  O   UNL     1       8.411  -4.200  20.012  1.00  0.00    -0.237 OA
ATOM    105  O   UNL     1       6.172  -5.156  20.387  1.00  0.00    -0.237 OA
ATOM    106  O   UNL     1       6.955  -4.716  18.096  1.00  0.00    -0.744 OA
ENDBRANCH 100 103
ENDBRANCH  73  96
ENDBRANCH  47  48
ENDBRANCH  39  42
ENDBRANCH  37  38
ENDBRANCH   1  37
TORSDOF 15
