REMARK SMILES NS(=O)(=O)c1ccc(-n2nc(NC(=O)NCCCC(=O)NCCCCNC(=O)c3ccc(-c4c5nc(c(-c6cccc(S(=O)(=O)[O-])c6F)c6ccc([nH]6)c(-c6cccc(S(=O)(=O)[O-])c6F)c6nc(c(-c7cccc(S(=O)(=O)[O-])c7F)c7ccc4[nH]7)C=C6)C=C5)cc3)cc2-c2ccccc2)cc1
REMARK SMILES IDX 19 1 20 2 21 3 18 5 17 6 16 7 15 8 12 9 13 10 14 12 11 14
REMARK SMILES IDX 9 15 10 16 93 17 92 18 8 19 5 20 6 21 101 22 7 23 100 24
REMARK SMILES IDX 2 25 3 26 4 27 1 28 94 31 95 32 99 33 96 34 98 35 97 36
REMARK SMILES IDX 22 37 23 38 24 39 25 40 26 41 27 42 28 44 29 45 30 46 91 47
REMARK SMILES IDX 31 48 90 49 32 50 33 51 34 52 84 53 35 54 89 55 83 56 85 57
REMARK SMILES IDX 36 58 88 59 82 60 81 61 37 63 69 64 49 65 68 66 50 67 53 68
REMARK SMILES IDX 67 69 86 70 51 71 52 72 66 74 87 75 54 76 38 77 39 78 47 79
REMARK SMILES IDX 40 80 42 81 48 82 41 83 43 84 44 85 45 86 46 87 70 88 71 89
REMARK SMILES IDX 79 90 72 91 74 92 80 93 73 94 75 95 76 96 77 97 78 98 55 99
REMARK SMILES IDX 56 100 64 101 57 102 59 103 65 104 58 105 60 106 61 107
REMARK SMILES IDX 62 108 63 109
REMARK H PARENT 21 4 12 11 15 13 1 29 1 30 26 43 85 62 53 73
REMARK Flexibility Score: inf
ROOT
ATOM      1  C   UNL     1      -2.817   6.544   1.216  1.00  0.00     0.220 C 
ATOM      2  O   UNL     1      -2.834   5.506   0.552  1.00  0.00    -0.275 OA
ATOM      3  N   UNL     1      -2.246   7.653   0.666  1.00  0.00    -0.356 N 
ATOM      4  H   UNL     1      -2.096   7.598  -0.306  1.00  0.00     0.163 HD
ENDROOT
BRANCH   1   5
ATOM      5  C   UNL     1      -3.421   6.578   2.612  1.00  0.00     0.102 C 
BRANCH   5   6
ATOM      6  C   UNL     1      -2.569   5.886   3.677  1.00  0.00     0.031 C 
BRANCH   6   7
ATOM      7  C   UNL     1      -1.290   6.624   4.033  1.00  0.00     0.118 C 
BRANCH   7   8
ATOM      8  N   UNL     1      -1.443   7.940   4.625  1.00  0.00    -0.338 N 
ATOM      9  N   UNL     1       0.775   8.469   5.346  1.00  0.00    -0.291 N 
ATOM     10  C   UNL     1      -0.536   8.763   5.200  1.00  0.00     0.320 C 
ATOM     11  H   UNL     1       1.236   9.010   6.028  1.00  0.00     0.173 HD
ATOM     12  O   UNL     1      -0.959   9.798   5.728  1.00  0.00    -0.248 OA
ATOM     13  H   UNL     1      -2.361   8.293   4.605  1.00  0.00     0.165 HD
BRANCH   9  14
ATOM     14  C   UNL     1       1.581   7.552   4.717  1.00  0.00     0.157 A 
ATOM     15  N   UNL     1       2.115   5.981   3.406  1.00  0.00    -0.231 N 
ATOM     16  N   UNL     1       1.402   7.113   3.477  1.00  0.00    -0.149 NA
ATOM     17  C   UNL     1       3.119   5.984   4.365  1.00  0.00     0.076 A 
ATOM     18  C   UNL     1       2.766   6.997   5.245  1.00  0.00     0.078 A 
BRANCH  15  19
ATOM     19  C   UNL     1       1.714   4.951   2.508  1.00  0.00     0.065 A 
ATOM     20  C   UNL     1       0.864   2.946   0.757  1.00  0.00     0.082 A 
ATOM     21  C   UNL     1       1.355   2.602   2.019  1.00  0.00     0.024 A 
ATOM     22  C   UNL     1       0.768   4.286   0.375  1.00  0.00     0.024 A 
ATOM     23  C   UNL     1       1.788   3.605   2.893  1.00  0.00     0.030 A 
ATOM     24  C   UNL     1       1.179   5.287   1.257  1.00  0.00     0.030 A 
BRANCH  20  25
ATOM     25  S   UNL     1       0.439   1.706  -0.429  1.00  0.00     0.238 S 
ATOM     26  O   UNL     1       1.126   2.007  -1.674  1.00  0.00    -0.207 OA
ATOM     27  O   UNL     1      -0.960   1.412  -0.345  1.00  0.00    -0.207 OA
BRANCH  25  28
ATOM     28  N   UNL     1       1.216   0.313   0.129  1.00  0.00    -0.225 NA
ATOM     29  H   UNL     1       1.021  -0.462  -0.506  1.00  0.00     0.137 HD
ATOM     30  H   UNL     1       0.873   0.083   1.061  1.00  0.00     0.137 HD
ENDBRANCH  25  28
ENDBRANCH  20  25
ENDBRANCH  15  19
BRANCH  17  31
ATOM     31  C   UNL     1       4.256   5.078   4.332  1.00  0.00     0.000 A 
ATOM     32  C   UNL     1       4.979   4.927   3.139  1.00  0.00     0.010 A 
ATOM     33  C   UNL     1       4.589   4.301   5.443  1.00  0.00     0.010 A 
ATOM     34  C   UNL     1       5.990   3.976   3.041  1.00  0.00     0.001 A 
ATOM     35  C   UNL     1       5.606   3.350   5.343  1.00  0.00     0.001 A 
ATOM     36  C   UNL     1       6.298   3.183   4.142  1.00  0.00     0.000 A 
ENDBRANCH  17  31
ENDBRANCH   9  14
ENDBRANCH   7   8
ENDBRANCH   6   7
ENDBRANCH   5   6
ENDBRANCH   1   5
BRANCH   3  37
ATOM     37  C   UNL     1      -1.822   8.903   1.277  1.00  0.00     0.116 C 
BRANCH  37  38
ATOM     38  C   UNL     1      -0.298   8.957   1.413  1.00  0.00     0.023 C 
BRANCH  38  39
ATOM     39  C   UNL     1       0.520   9.196   0.142  1.00  0.00     0.023 C 
BRANCH  39  40
ATOM     40  C   UNL     1       0.452  10.622  -0.370  1.00  0.00     0.116 C 
BRANCH  40  41
ATOM     41  N   UNL     1       1.045  11.582   0.562  1.00  0.00    -0.352 N 
ATOM     42  C   UNL     1       0.929  12.956   0.523  1.00  0.00     0.251 C 
ATOM     43  H   UNL     1       1.584  11.206   1.296  1.00  0.00     0.163 HD
ATOM     44  O   UNL     1       1.762  13.684   1.051  1.00  0.00    -0.269 OA
BRANCH  42  45
ATOM     45  C   UNL     1      -0.241  13.521  -0.167  1.00  0.00     0.039 A 
ATOM     46  C   UNL     1      -0.098  14.541  -1.106  1.00  0.00     0.014 A 
ATOM     47  C   UNL     1      -1.483  12.932   0.083  1.00  0.00     0.014 A 
ATOM     48  C   UNL     1      -1.208  14.899  -1.865  1.00  0.00     0.010 A 
ATOM     49  C   UNL     1      -2.541  13.194  -0.755  1.00  0.00     0.010 A 
ATOM     50  C   UNL     1      -2.419  14.193  -1.714  1.00  0.00    -0.014 A 
BRANCH  50  51
ATOM     51  C   UNL     1      -3.474  14.340  -2.719  1.00  0.00     0.031 A 
ATOM     52  C   UNL     1      -2.955  14.159  -4.102  1.00  0.00     0.074 A 
ATOM     53  C   UNL     1      -4.792  14.453  -2.437  1.00  0.00     0.049 A 
ATOM     54  N   UNL     1      -2.689  15.098  -4.950  1.00  0.00    -0.248 NA
ATOM     55  C   UNL     1      -2.446  12.838  -4.512  1.00  0.00     0.031 C 
ATOM     56  C   UNL     1      -5.429  14.349  -1.118  1.00  0.00     0.029 A 
ATOM     57  N   UNL     1      -5.867  14.566  -3.272  1.00  0.00    -0.354 N 
ATOM     58  C   UNL     1      -2.311  14.436  -6.113  1.00  0.00     0.074 A 
ATOM     59  C   UNL     1      -1.913  13.117  -5.706  1.00  0.00     0.031 C 
ATOM     60  C   UNL     1      -6.757  14.148  -1.266  1.00  0.00     0.029 A 
ATOM     61  C   UNL     1      -7.096  14.276  -2.670  1.00  0.00     0.049 A 
ATOM     62  H   UNL     1      -5.785  14.828  -4.218  1.00  0.00     0.167 HD
ATOM     63  C   UNL     1      -2.737  14.903  -7.320  1.00  0.00     0.034 A 
ATOM     64  C   UNL     1      -8.301  14.128  -3.280  1.00  0.00     0.034 A 
ATOM     65  C   UNL     1      -3.240  16.253  -7.189  1.00  0.00     0.049 A 
ATOM     66  C   UNL     1      -8.212  14.836  -4.570  1.00  0.00     0.074 A 
ATOM     67  C   UNL     1      -2.752  17.466  -6.751  1.00  0.00     0.029 A 
ATOM     68  N   UNL     1      -4.607  16.334  -7.141  1.00  0.00    -0.354 N 
ATOM     69  N   UNL     1      -8.109  16.130  -4.670  1.00  0.00    -0.248 NA
ATOM     70  C   UNL     1      -7.850  14.079  -5.755  1.00  0.00     0.031 C 
ATOM     71  C   UNL     1      -3.859  18.114  -6.122  1.00  0.00     0.029 A 
ATOM     72  C   UNL     1      -4.994  17.318  -6.282  1.00  0.00     0.049 A 
ATOM     73  H   UNL     1      -5.222  15.763  -7.656  1.00  0.00     0.167 HD
ATOM     74  C   UNL     1      -7.199  16.303  -5.700  1.00  0.00     0.074 A 
ATOM     75  C   UNL     1      -7.220  15.040  -6.434  1.00  0.00     0.031 C 
ATOM     76  C   UNL     1      -6.296  17.326  -5.650  1.00  0.00     0.034 A 
BRANCH  63  77
ATOM     77  C   UNL     1      -3.219  14.021  -8.467  1.00  0.00     0.023 A 
ATOM     78  C   UNL     1      -3.599  14.681  -9.661  1.00  0.00     0.012 A 
ATOM     79  C   UNL     1      -3.621  12.671  -8.339  1.00  0.00     0.148 A 
ATOM     80  C   UNL     1      -4.387  14.053 -10.633  1.00  0.00     0.002 A 
ATOM     81  C   UNL     1      -4.332  12.026  -9.345  1.00  0.00     0.091 A 
ATOM     82  F   UNL     1      -3.451  12.022  -7.187  1.00  0.00    -0.205 F 
ATOM     83  C   UNL     1      -4.748  12.722 -10.479  1.00  0.00     0.022 A 
BRANCH  81  84
ATOM     84  S   UNL     1      -4.791  10.291  -9.212  1.00  0.00     0.127 S 
ATOM     85  O   UNL     1      -6.242  10.385  -9.091  1.00  0.00    -0.237 OA
ATOM     86  O   UNL     1      -4.303   9.763 -10.486  1.00  0.00    -0.237 OA
ATOM     87  O   UNL     1      -4.084   9.783  -8.043  1.00  0.00    -0.744 OA
ENDBRANCH  81  84
ENDBRANCH  63  77
BRANCH  64  88
ATOM     88  C   UNL     1      -9.476  13.277  -2.966  1.00  0.00     0.023 A 
ATOM     89  C   UNL     1     -10.719  13.544  -3.585  1.00  0.00     0.012 A 
ATOM     90  C   UNL     1      -9.307  12.027  -2.337  1.00  0.00     0.148 A 
ATOM     91  C   UNL     1     -11.733  12.577  -3.628  1.00  0.00     0.002 A 
ATOM     92  C   UNL     1     -10.318  11.068  -2.382  1.00  0.00     0.091 A 
ATOM     93  F   UNL     1      -8.123  11.744  -1.778  1.00  0.00    -0.205 F 
ATOM     94  C   UNL     1     -11.526  11.334  -3.041  1.00  0.00     0.022 A 
BRANCH  92  95
ATOM     95  S   UNL     1     -10.112   9.425  -1.682  1.00  0.00     0.127 S 
ATOM     96  O   UNL     1     -11.319   9.292  -0.866  1.00  0.00    -0.237 OA
ATOM     97  O   UNL     1     -10.087   8.588  -2.878  1.00  0.00    -0.237 OA
ATOM     98  O   UNL     1      -8.872   9.471  -0.917  1.00  0.00    -0.744 OA
ENDBRANCH  92  95
ENDBRANCH  64  88
BRANCH  76  99
ATOM     99  C   UNL     1      -6.604  18.489  -4.745  1.00  0.00     0.023 A 
ATOM    100  C   UNL     1      -6.708  18.392  -3.342  1.00  0.00     0.012 A 
ATOM    101  C   UNL     1      -6.689  19.754  -5.348  1.00  0.00     0.148 A 
ATOM    102  C   UNL     1      -6.922  19.535  -2.565  1.00  0.00     0.002 A 
ATOM    103  C   UNL     1      -6.851  20.890  -4.571  1.00  0.00     0.091 A 
ATOM    104  F   UNL     1      -6.599  19.825  -6.685  1.00  0.00    -0.205 F 
ATOM    105  C   UNL     1      -6.980  20.787  -3.179  1.00  0.00     0.022 A 
BRANCH 103 106
ATOM    106  S   UNL     1      -6.822  22.524  -5.309  1.00  0.00     0.127 S 
ATOM    107  O   UNL     1      -8.239  22.882  -5.313  1.00  0.00    -0.237 OA
ATOM    108  O   UNL     1      -6.001  23.282  -4.363  1.00  0.00    -0.237 OA
ATOM    109  O   UNL     1      -6.211  22.358  -6.623  1.00  0.00    -0.744 OA
ENDBRANCH 103 106
ENDBRANCH  76  99
ENDBRANCH  50  51
ENDBRANCH  42  45
ENDBRANCH  40  41
ENDBRANCH  39  40
ENDBRANCH  38  39
ENDBRANCH  37  38
ENDBRANCH   3  37
TORSDOF 22
