REMARK SMILES N#CCCNC(=O)COc1ccc(C(=O)NCCCCNC(=O)c2ccc(-c3c4nc(c(-c5cccc(S(=O)(=O)[O-])c5F)c5ccc([nH]5)c(-c5cccc(S(=O)(=O)[O-])c5F)c5nc(c(-c6cccc(S(=O)(=O)[O-])c6F)c6ccc3[nH]6)C=C5)C=C4)cc2)nc1
REMARK SMILES IDX 17 1 16 2 14 3 15 4 13 6 10 7 11 8 88 9 12 10 87 11 9 12
REMARK SMILES IDX 8 13 6 14 5 15 7 17 4 18 3 19 2 20 1 21 18 22 19 23 20 24
REMARK SMILES IDX 21 25 22 26 23 28 24 29 25 30 86 31 26 32 85 33 27 34 28 35
REMARK SMILES IDX 29 36 79 37 30 38 84 39 78 40 80 41 31 42 83 43 77 44 76 45
REMARK SMILES IDX 32 47 64 48 44 49 63 50 45 51 48 52 62 53 81 54 46 55 47 56
REMARK SMILES IDX 61 58 82 59 49 60 33 61 34 62 42 63 35 64 37 65 43 66 36 67
REMARK SMILES IDX 38 68 39 69 40 70 41 71 65 72 66 73 74 74 67 75 69 76 75 77
REMARK SMILES IDX 68 78 70 79 71 80 72 81 73 82 50 83 51 84 59 85 52 86 54 87
REMARK SMILES IDX 60 88 53 89 55 90 56 91 57 92 58 93
REMARK H PARENT 16 5 5 16 21 27 80 46 48 57
REMARK Flexibility Score: inf
ROOT
ATOM      1  C   UNL     1       3.758   0.713  -7.295  1.00  0.00     0.116 C 
ENDROOT
BRANCH   1   2
ATOM      2  N   UNL     1       4.951   1.538  -7.248  1.00  0.00    -0.351 N 
ATOM      3  C   UNL     1       6.011   1.586  -6.365  1.00  0.00     0.269 C 
ATOM      4  O   UNL     1       6.936   2.350  -6.643  1.00  0.00    -0.268 OA
ATOM      5  H   UNL     1       5.017   2.187  -7.985  1.00  0.00     0.163 HD
BRANCH   3   6
ATOM      6  C   UNL     1       6.084   0.756  -5.111  1.00  0.00     0.128 A 
ATOM      7  C   UNL     1       6.385  -0.689  -2.778  1.00  0.00     0.138 A 
ATOM      8  C   UNL     1       5.117  -0.469  -3.288  1.00  0.00     0.050 A 
ATOM      9  C   UNL     1       7.458  -0.146  -3.464  1.00  0.00     0.158 A 
ATOM     10  C   UNL     1       4.962   0.293  -4.440  1.00  0.00     0.038 A 
ATOM     11  N   UNL     1       7.338   0.542  -4.624  1.00  0.00    -0.247 NA
BRANCH   7  12
ATOM     12  O   UNL     1       6.582  -1.281  -1.566  1.00  0.00    -0.482 OA
BRANCH  12  13
ATOM     13  C   UNL     1       6.253  -2.664  -1.566  1.00  0.00     0.329 C 
BRANCH  13  14
ATOM     14  C   UNL     1       4.772  -3.056  -1.484  1.00  0.00     0.257 C 
ATOM     15  N   UNL     1       3.946  -2.454  -0.578  1.00  0.00    -0.352 N 
ATOM     16  H   UNL     1       3.008  -2.753  -0.600  1.00  0.00     0.163 HD
ATOM     17  O   UNL     1       4.303  -3.937  -2.207  1.00  0.00    -0.271 OA
BRANCH  15  18
ATOM     18  C   UNL     1       4.250  -1.435   0.417  1.00  0.00     0.131 C 
BRANCH  18  19
ATOM     19  C   UNL     1       3.714  -0.047   0.058  1.00  0.00     0.141 C 
BRANCH  19  20
ATOM     20  C   UNL     1       2.194  -0.047   0.058  1.00  0.00     0.064 C 
ATOM     21  N   UNL     1       0.933  -0.047   0.058  1.00  0.00    -0.198 NA
ENDBRANCH  19  20
ENDBRANCH  18  19
ENDBRANCH  15  18
ENDBRANCH  13  14
ENDBRANCH  12  13
ENDBRANCH   7  12
ENDBRANCH   3   6
ENDBRANCH   1   2
BRANCH   1  22
ATOM     22  C   UNL     1       2.552   1.442  -6.694  1.00  0.00     0.023 C 
BRANCH  22  23
ATOM     23  C   UNL     1       1.841   2.397  -7.653  1.00  0.00     0.023 C 
BRANCH  23  24
ATOM     24  C   UNL     1       1.198   1.733  -8.865  1.00  0.00     0.116 C 
BRANCH  24  25
ATOM     25  N   UNL     1       0.221   0.710  -8.517  1.00  0.00    -0.352 N 
ATOM     26  C   UNL     1      -0.898   0.331  -9.227  1.00  0.00     0.251 C 
ATOM     27  H   UNL     1       0.378   0.231  -7.672  1.00  0.00     0.163 HD
ATOM     28  O   UNL     1      -1.679  -0.489  -8.769  1.00  0.00    -0.269 OA
BRANCH  26  29
ATOM     29  C   UNL     1      -1.157   0.973 -10.533  1.00  0.00     0.039 A 
ATOM     30  C   UNL     1      -2.388   1.600 -10.741  1.00  0.00     0.014 A 
ATOM     31  C   UNL     1      -0.160   1.018 -11.509  1.00  0.00     0.014 A 
ATOM     32  C   UNL     1      -2.588   2.349 -11.901  1.00  0.00     0.010 A 
ATOM     33  C   UNL     1      -0.339   1.815 -12.634  1.00  0.00     0.010 A 
ATOM     34  C   UNL     1      -1.549   2.498 -12.834  1.00  0.00    -0.014 A 
BRANCH  34  35
ATOM     35  C   UNL     1      -1.680   3.398 -14.006  1.00  0.00     0.031 A 
ATOM     36  C   UNL     1      -1.631   2.837 -15.398  1.00  0.00     0.074 A 
ATOM     37  C   UNL     1      -1.718   4.731 -13.813  1.00  0.00     0.049 A 
ATOM     38  N   UNL     1      -1.617   3.471 -16.541  1.00  0.00    -0.248 NA
ATOM     39  C   UNL     1      -1.558   1.371 -15.521  1.00  0.00     0.031 C 
ATOM     40  C   UNL     1      -1.682   5.399 -12.509  1.00  0.00     0.029 A 
ATOM     41  N   UNL     1      -1.752   5.766 -14.714  1.00  0.00    -0.354 N 
ATOM     42  C   UNL     1      -1.497   2.489 -17.517  1.00  0.00     0.074 A 
ATOM     43  C   UNL     1      -1.414   1.218 -16.830  1.00  0.00     0.031 C 
ATOM     44  C   UNL     1      -1.685   6.729 -12.696  1.00  0.00     0.029 A 
ATOM     45  C   UNL     1      -1.697   7.010 -14.128  1.00  0.00     0.049 A 
ATOM     46  H   UNL     1      -1.810   5.631 -15.688  1.00  0.00     0.167 HD
ATOM     47  C   UNL     1      -1.489   2.630 -18.863  1.00  0.00     0.034 A 
ATOM     48  C   UNL     1      -1.649   8.237 -14.681  1.00  0.00     0.034 A 
ATOM     49  C   UNL     1      -1.622   3.890 -19.543  1.00  0.00     0.049 A 
ATOM     50  C   UNL     1      -1.693   8.365 -16.180  1.00  0.00     0.074 A 
ATOM     51  C   UNL     1      -1.718   4.129 -20.902  1.00  0.00     0.029 A 
ATOM     52  N   UNL     1      -1.675   5.125 -18.915  1.00  0.00    -0.354 N 
ATOM     53  N   UNL     1      -1.749   7.419 -17.086  1.00  0.00    -0.248 NA
ATOM     54  C   UNL     1      -1.703   9.727 -16.732  1.00  0.00     0.031 C 
ATOM     55  C   UNL     1      -1.823   5.511 -21.096  1.00  0.00     0.029 A 
ATOM     56  C   UNL     1      -1.800   6.131 -19.857  1.00  0.00     0.049 A 
ATOM     57  H   UNL     1      -1.631   5.266 -17.941  1.00  0.00     0.167 HD
ATOM     58  C   UNL     1      -1.827   8.069 -18.312  1.00  0.00     0.074 A 
ATOM     59  C   UNL     1      -1.838   9.490 -18.030  1.00  0.00     0.031 C 
ATOM     60  C   UNL     1      -1.866   7.538 -19.559  1.00  0.00     0.034 A 
BRANCH  47  61
ATOM     61  C   UNL     1      -1.402   1.377 -19.693  1.00  0.00     0.023 A 
ATOM     62  C   UNL     1      -2.528   0.533 -19.782  1.00  0.00     0.012 A 
ATOM     63  C   UNL     1      -0.240   1.059 -20.420  1.00  0.00     0.148 A 
ATOM     64  C   UNL     1      -2.489  -0.625 -20.556  1.00  0.00     0.002 A 
ATOM     65  C   UNL     1      -0.222  -0.078 -21.222  1.00  0.00     0.091 A 
ATOM     66  F   UNL     1       0.829   1.859 -20.304  1.00  0.00    -0.205 F 
ATOM     67  C   UNL     1      -1.341  -0.924 -21.283  1.00  0.00     0.022 A 
BRANCH  65  68
ATOM     68  S   UNL     1       1.186  -0.511 -22.251  1.00  0.00     0.127 S 
ATOM     69  O   UNL     1       1.765  -1.627 -21.504  1.00  0.00    -0.237 OA
ATOM     70  O   UNL     1       0.545  -0.890 -23.511  1.00  0.00    -0.237 OA
ATOM     71  O   UNL     1       2.007   0.689 -22.327  1.00  0.00    -0.744 OA
ENDBRANCH  65  68
ENDBRANCH  47  61
BRANCH  48  72
ATOM     72  C   UNL     1      -1.626   9.444 -13.808  1.00  0.00     0.023 A 
ATOM     73  C   UNL     1      -2.775  10.255 -13.725  1.00  0.00     0.012 A 
ATOM     74  C   UNL     1      -0.498   9.771 -13.032  1.00  0.00     0.148 A 
ATOM     75  C   UNL     1      -2.791  11.384 -12.906  1.00  0.00     0.002 A 
ATOM     76  C   UNL     1      -0.539  10.867 -12.178  1.00  0.00     0.091 A 
ATOM     77  F   UNL     1       0.592   8.997 -13.136  1.00  0.00    -0.205 F 
ATOM     78  C   UNL     1      -1.679  11.684 -12.125  1.00  0.00     0.022 A 
BRANCH  76  79
ATOM     79  S   UNL     1       0.799  11.242 -11.039  1.00  0.00     0.127 S 
ATOM     80  O   UNL     1       1.447  12.372 -11.699  1.00  0.00    -0.237 OA
ATOM     81  O   UNL     1       0.074  11.578  -9.813  1.00  0.00    -0.237 OA
ATOM     82  O   UNL     1       1.584  10.018 -10.949  1.00  0.00    -0.744 OA
ENDBRANCH  76  79
ENDBRANCH  48  72
BRANCH  60  83
ATOM     83  C   UNL     1      -1.940   8.493 -20.720  1.00  0.00     0.023 A 
ATOM     84  C   UNL     1      -0.791   9.214 -21.099  1.00  0.00     0.012 A 
ATOM     85  C   UNL     1      -3.119   8.618 -21.481  1.00  0.00     0.148 A 
ATOM     86  C   UNL     1      -0.820  10.064 -22.203  1.00  0.00     0.002 A 
ATOM     87  C   UNL     1      -3.128   9.434 -22.606  1.00  0.00     0.091 A 
ATOM     88  F   UNL     1      -4.208   7.940 -21.091  1.00  0.00    -0.205 F 
ATOM     89  C   UNL     1      -1.983  10.165 -22.963  1.00  0.00     0.022 A 
BRANCH  87  90
ATOM     90  S   UNL     1      -4.555   9.553 -23.692  1.00  0.00     0.127 S 
ATOM     91  O   UNL     1      -5.111  10.851 -23.313  1.00  0.00    -0.237 OA
ATOM     92  O   UNL     1      -3.943   9.516 -25.020  1.00  0.00    -0.237 OA
ATOM     93  O   UNL     1      -5.387   8.398 -23.382  1.00  0.00    -0.744 OA
ENDBRANCH  87  90
ENDBRANCH  60  83
ENDBRANCH  34  35
ENDBRANCH  26  29
ENDBRANCH  24  25
ENDBRANCH  23  24
ENDBRANCH  22  23
ENDBRANCH   1  22
TORSDOF 20
