REMARK SMILES CC[NH2+][C@]1(C(=O)NCCCCNC(=O)c2ccc(-c3c4nc(c(-c5cccc(S(=O)(=O)[O-])c5F)c5ccc([nH]5)c(-c5cccc(S(=O)(=O)[O-])c5F)c5nc(c(-c6cccc(S(=O)(=O)[O-])c6F)c6ccc3[nH]6)C=C5)C=C4)cc2)CC[C@H]([N@H+](C)CC[NH+]2CCCC2)C1
REMARK SMILES IDX 9 1 8 2 7 3 5 4 6 5 4 7 78 8 90 9 79 10 80 11 3 12 2 15 1 16
REMARK SMILES IDX 81 17 82 18 83 20 84 21 85 22 86 23 89 24 87 26 88 27 10 28
REMARK SMILES IDX 11 29 12 30 13 31 14 33 15 34 16 35 77 36 17 37 76 38 18 39
REMARK SMILES IDX 19 40 20 41 70 42 21 43 75 44 69 45 71 46 22 47 74 48 68 49
REMARK SMILES IDX 67 50 23 52 55 53 35 54 54 55 36 56 39 57 53 58 72 59 37 60
REMARK SMILES IDX 38 61 52 63 73 64 40 65 24 66 25 67 33 68 26 69 28 70 34 71
REMARK SMILES IDX 27 72 29 73 30 74 31 75 32 76 56 77 57 78 65 79 58 80 60 81
REMARK SMILES IDX 66 82 59 83 61 84 62 85 63 86 64 87 41 88 42 89 50 90 43 91
REMARK SMILES IDX 45 92 51 93 44 94 46 95 47 96 48 97 49 98
REMARK H PARENT 7 6 3 13 3 14 81 19 85 25 12 32 71 51 39 62
REMARK Flexibility Score: inf
ROOT
ATOM      1  C   UNL     1       1.869  -2.762  -0.442  1.00  0.00     0.023 C 
ENDROOT
BRANCH   1   2
ATOM      2  C   UNL     1       2.542  -2.036   0.729  1.00  0.00     0.116 C 
BRANCH   2   3
ATOM      3  N   UNL     1       1.709  -0.948   1.193  1.00  0.00    -0.351 N 
ATOM      4  C   UNL     1       0.647  -0.906   2.043  1.00  0.00     0.281 C 
ATOM      5  O   UNL     1      -0.027   0.133   1.995  1.00  0.00    -0.268 OA
ATOM      6  H   UNL     1       1.958  -0.070   0.822  1.00  0.00     0.163 HD
BRANCH   4   7
ATOM      7  C   UNL     1       0.322  -2.012   3.102  1.00  0.00     0.181 C 
ATOM      8  C   UNL     1      -1.209  -2.252   3.060  1.00  0.00     0.085 C 
ATOM      9  C   UNL     1       0.800  -3.446   2.860  1.00  0.00     0.144 C 
ATOM     10  C   UNL     1      -1.458  -3.592   3.761  1.00  0.00     0.072 C 
ATOM     11  C   UNL     1      -0.166  -4.413   3.571  1.00  0.00     0.191 C 
BRANCH   7  12
ATOM     12  N   UNL     1       0.671  -1.482   4.446  1.00  0.00    -0.334 N 
ATOM     13  H   UNL     1       0.242  -0.561   4.541  1.00  0.00     0.347 HD
ATOM     14  H   UNL     1       0.325  -2.168   5.116  1.00  0.00     0.347 HD
BRANCH  12  15
ATOM     15  C   UNL     1       2.098  -1.343   4.714  1.00  0.00     0.257 C 
ATOM     16  C   UNL     1       2.306  -0.920   6.163  1.00  0.00     0.071 C 
ENDBRANCH  12  15
ENDBRANCH   7  12
BRANCH  11  17
ATOM     17  N   UNL     1       0.332  -5.171   4.737  1.00  0.00    -0.330 N 
ATOM     18  C   UNL     1       0.497  -4.430   5.980  1.00  0.00     0.333 C 
ATOM     19  H   UNL     1      -0.439  -5.809   4.935  1.00  0.00     0.348 HD
BRANCH  17  20
ATOM     20  C   UNL     1       1.552  -5.960   4.414  1.00  0.00     0.324 C 
BRANCH  20  21
ATOM     21  C   UNL     1       2.189  -6.792   5.564  1.00  0.00     0.324 C 
BRANCH  21  22
ATOM     22  N   UNL     1       1.241  -7.703   6.224  1.00  0.00    -0.330 N 
ATOM     23  C   UNL     1       1.727  -8.153   7.531  1.00  0.00     0.262 C 
ATOM     24  C   UNL     1       1.014  -8.915   5.422  1.00  0.00     0.262 C 
ATOM     25  H   UNL     1       0.381  -7.166   6.330  1.00  0.00     0.348 HD
ATOM     26  C   UNL     1       2.532  -9.399   7.239  1.00  0.00     0.067 C 
ATOM     27  C   UNL     1       1.747 -10.056   6.121  1.00  0.00     0.067 C 
ENDBRANCH  21  22
ENDBRANCH  20  21
ENDBRANCH  17  20
ENDBRANCH  11  17
ENDBRANCH   4   7
ENDBRANCH   2   3
ENDBRANCH   1   2
BRANCH   1  28
ATOM     28  C   UNL     1       2.255  -2.212  -1.819  1.00  0.00     0.023 C 
BRANCH  28  29
ATOM     29  C   UNL     1       3.728  -2.383  -2.176  1.00  0.00     0.116 C 
BRANCH  29  30
ATOM     30  N   UNL     1       4.179  -3.765  -2.123  1.00  0.00    -0.352 N 
ATOM     31  C   UNL     1       5.287  -4.314  -2.727  1.00  0.00     0.251 C 
ATOM     32  H   UNL     1       3.625  -4.382  -1.593  1.00  0.00     0.163 HD
ATOM     33  O   UNL     1       5.491  -5.518  -2.676  1.00  0.00    -0.269 OA
BRANCH  31  34
ATOM     34  C   UNL     1       6.196  -3.425  -3.480  1.00  0.00     0.039 A 
ATOM     35  C   UNL     1       6.502  -3.745  -4.804  1.00  0.00     0.014 A 
ATOM     36  C   UNL     1       6.696  -2.258  -2.897  1.00  0.00     0.014 A 
ATOM     37  C   UNL     1       7.271  -2.862  -5.563  1.00  0.00     0.010 A 
ATOM     38  C   UNL     1       7.398  -1.345  -3.677  1.00  0.00     0.010 A 
ATOM     39  C   UNL     1       7.701  -1.643  -5.013  1.00  0.00    -0.014 A 
BRANCH  39  40
ATOM     40  C   UNL     1       8.475  -0.672  -5.825  1.00  0.00     0.031 A 
ATOM     41  C   UNL     1       9.891  -0.331  -5.448  1.00  0.00     0.074 A 
ATOM     42  C   UNL     1       7.878  -0.044  -6.857  1.00  0.00     0.049 A 
ATOM     43  N   UNL     1      10.722   0.493  -6.032  1.00  0.00    -0.248 NA
ATOM     44  C   UNL     1      10.435  -0.975  -4.241  1.00  0.00     0.031 C 
ATOM     45  C   UNL     1       6.480  -0.215  -7.259  1.00  0.00     0.029 A 
ATOM     46  N   UNL     1       8.367   0.880  -7.745  1.00  0.00    -0.354 N 
ATOM     47  C   UNL     1      11.870   0.491  -5.249  1.00  0.00     0.074 A 
ATOM     48  C   UNL     1      11.614  -0.381  -4.124  1.00  0.00     0.031 C 
ATOM     49  C   UNL     1       6.228   0.569  -8.319  1.00  0.00     0.029 A 
ATOM     50  C   UNL     1       7.438   1.308  -8.665  1.00  0.00     0.049 A 
ATOM     51  H   UNL     1       9.296   1.207  -7.727  1.00  0.00     0.167 HD
ATOM     52  C   UNL     1      13.045   1.127  -5.465  1.00  0.00     0.034 A 
ATOM     53  C   UNL     1       7.553   2.190  -9.677  1.00  0.00     0.034 A 
ATOM     54  C   UNL     1      13.312   1.950  -6.613  1.00  0.00     0.049 A 
ATOM     55  C   UNL     1       8.892   2.825  -9.940  1.00  0.00     0.074 A 
ATOM     56  C   UNL     1      14.499   2.560  -6.978  1.00  0.00     0.029 A 
ATOM     57  N   UNL     1      12.378   2.279  -7.582  1.00  0.00    -0.354 N 
ATOM     58  N   UNL     1      10.021   2.669  -9.291  1.00  0.00    -0.248 NA
ATOM     59  C   UNL     1       8.985   3.722 -11.101  1.00  0.00     0.031 C 
ATOM     60  C   UNL     1      14.278   3.269  -8.164  1.00  0.00     0.029 A 
ATOM     61  C   UNL     1      12.958   3.086  -8.545  1.00  0.00     0.049 A 
ATOM     62  H   UNL     1      11.439   1.982  -7.586  1.00  0.00     0.167 HD
ATOM     63  C   UNL     1      10.965   3.419  -9.982  1.00  0.00     0.074 A 
ATOM     64  C   UNL     1      10.280   4.008 -11.115  1.00  0.00     0.031 C 
ATOM     65  C   UNL     1      12.275   3.618  -9.697  1.00  0.00     0.034 A 
BRANCH  52  66
ATOM     66  C   UNL     1      14.154   0.900  -4.471  1.00  0.00     0.023 A 
ATOM     67  C   UNL     1      14.797  -0.355  -4.427  1.00  0.00     0.012 A 
ATOM     68  C   UNL     1      14.592   1.930  -3.616  1.00  0.00     0.148 A 
ATOM     69  C   UNL     1      15.832  -0.593  -3.524  1.00  0.00     0.002 A 
ATOM     70  C   UNL     1      15.654   1.698  -2.749  1.00  0.00     0.091 A 
ATOM     71  F   UNL     1      13.954   3.109  -3.655  1.00  0.00    -0.205 F 
ATOM     72  C   UNL     1      16.267   0.435  -2.694  1.00  0.00     0.022 A 
BRANCH  70  73
ATOM     73  S   UNL     1      16.338   2.980  -1.692  1.00  0.00     0.127 S 
ATOM     74  O   UNL     1      15.873   2.553  -0.373  1.00  0.00    -0.237 OA
ATOM     75  O   UNL     1      17.777   2.824  -1.911  1.00  0.00    -0.237 OA
ATOM     76  O   UNL     1      15.784   4.236  -2.177  1.00  0.00    -0.744 OA
ENDBRANCH  70  73
ENDBRANCH  52  66
BRANCH  53  77
ATOM     77  C   UNL     1       6.391   2.449 -10.574  1.00  0.00     0.023 A 
ATOM     78  C   UNL     1       6.417   1.961 -11.895  1.00  0.00     0.012 A 
ATOM     79  C   UNL     1       5.253   3.145 -10.122  1.00  0.00     0.148 A 
ATOM     80  C   UNL     1       5.347   2.188 -12.760  1.00  0.00     0.002 A 
ATOM     81  C   UNL     1       4.168   3.321 -10.973  1.00  0.00     0.091 A 
ATOM     82  F   UNL     1       5.252   3.612  -8.866  1.00  0.00    -0.205 F 
ATOM     83  C   UNL     1       4.219   2.859 -12.297  1.00  0.00     0.022 A 
BRANCH  81  84
ATOM     84  S   UNL     1       2.624   4.056 -10.420  1.00  0.00     0.127 S 
ATOM     85  O   UNL     1       2.667   5.365 -11.067  1.00  0.00    -0.237 OA
ATOM     86  O   UNL     1       1.633   3.130 -10.967  1.00  0.00    -0.237 OA
ATOM     87  O   UNL     1       2.696   4.063  -8.965  1.00  0.00    -0.744 OA
ENDBRANCH  81  84
ENDBRANCH  53  77
BRANCH  65  88
ATOM     88  C   UNL     1      13.068   4.487 -10.636  1.00  0.00     0.023 A 
ATOM     89  C   UNL     1      12.859   5.881 -10.643  1.00  0.00     0.012 A 
ATOM     90  C   UNL     1      14.067   3.934 -11.461  1.00  0.00     0.148 A 
ATOM     91  C   UNL     1      13.607   6.706 -11.481  1.00  0.00     0.002 A 
ATOM     92  C   UNL     1      14.842   4.767 -12.259  1.00  0.00     0.091 A 
ATOM     93  F   UNL     1      14.238   2.603 -11.457  1.00  0.00    -0.205 F 
ATOM     94  C   UNL     1      14.606   6.151 -12.279  1.00  0.00     0.022 A 
BRANCH  92  95
ATOM     95  S   UNL     1      16.211   4.147 -13.242  1.00  0.00     0.127 S 
ATOM     96  O   UNL     1      15.636   4.141 -14.586  1.00  0.00    -0.237 OA
ATOM     97  O   UNL     1      17.241   5.164 -13.024  1.00  0.00    -0.237 OA
ATOM     98  O   UNL     1      16.535   2.838 -12.690  1.00  0.00    -0.744 OA
ENDBRANCH  92  95
ENDBRANCH  65  88
ENDBRANCH  39  40
ENDBRANCH  31  34
ENDBRANCH  29  30
ENDBRANCH  28  29
ENDBRANCH   1  28
TORSDOF 20
