REMARK SMILES C#CCNC(=O)[C@H](C)S(=O)(=O)c1ccc(C(=O)NCCCCNC(=O)c2ccc(-c3c4nc(c(-c5cccc(S(=O)(=O)[O-])c5F)c5ccc([nH]5)c(-c5cccc(S(=O)(=O)[O-])c5F)c5nc(c(-c6cccc(S(=O)(=O)[O-])c6F)c6ccc3[nH]6)C=C5)C=C4)cc2)cc1F
REMARK SMILES IDX 19 1 18 2 16 3 17 4 15 6 12 7 13 8 90 9 14 10 89 11 91 12
REMARK SMILES IDX 9 13 10 14 11 15 7 16 8 17 5 18 4 19 6 21 3 22 2 23 1 24
REMARK SMILES IDX 20 25 21 26 22 27 23 28 24 29 25 31 26 32 27 33 88 34 28 35
REMARK SMILES IDX 87 36 29 37 30 38 31 39 81 40 32 41 86 42 80 43 82 44 33 45
REMARK SMILES IDX 85 46 79 47 78 48 34 50 66 51 46 52 65 53 47 54 50 55 64 56
REMARK SMILES IDX 83 57 48 58 49 59 63 61 84 62 51 63 35 64 36 65 44 66 37 67
REMARK SMILES IDX 39 68 45 69 38 70 40 71 41 72 42 73 43 74 67 75 68 76 76 77
REMARK SMILES IDX 69 78 71 79 77 80 70 81 72 82 73 83 74 84 75 85 52 86 53 87
REMARK SMILES IDX 61 88 54 89 56 90 62 91 55 92 57 93 58 94 59 95 60 96
REMARK H PARENT 18 5 4 20 23 30 82 49 50 60
REMARK Flexibility Score: inf
ROOT
ATOM      1  C   UNL     1      -0.162   2.511  -2.273  1.00  0.00     0.116 C 
ENDROOT
BRANCH   1   2
ATOM      2  N   UNL     1      -0.892   3.768  -2.313  1.00  0.00    -0.352 N 
ATOM      3  C   UNL     1      -2.183   4.102  -1.984  1.00  0.00     0.251 C 
ATOM      4  O   UNL     1      -2.513   5.285  -1.996  1.00  0.00    -0.269 OA
ATOM      5  H   UNL     1      -0.357   4.528  -2.639  1.00  0.00     0.163 HD
BRANCH   3   6
ATOM      6  C   UNL     1      -3.168   3.097  -1.514  1.00  0.00     0.042 A 
ATOM      7  C   UNL     1      -4.723   1.164  -0.222  1.00  0.00     0.103 A 
ATOM      8  C   UNL     1      -4.745   2.485   0.233  1.00  0.00     0.024 A 
ATOM      9  C   UNL     1      -4.099   0.873  -1.428  1.00  0.00     0.142 A 
ATOM     10  C   UNL     1      -3.979   3.453  -0.426  1.00  0.00     0.015 A 
ATOM     11  C   UNL     1      -3.306   1.826  -2.070  1.00  0.00     0.054 A 
ATOM     12  F   UNL     1      -4.146  -0.357  -1.951  1.00  0.00    -0.206 F 
BRANCH   7  13
ATOM     13  S   UNL     1      -5.444  -0.116   0.763  1.00  0.00     0.192 S 
ATOM     14  O   UNL     1      -6.474  -0.712  -0.070  1.00  0.00    -0.223 OA
ATOM     15  O   UNL     1      -5.838   0.516   2.013  1.00  0.00    -0.223 OA
BRANCH  13  16
ATOM     16  C   UNL     1      -4.277  -1.376   1.168  1.00  0.00     0.199 C 
ATOM     17  C   UNL     1      -3.644  -2.163   0.038  1.00  0.00     0.036 C 
BRANCH  16  18
ATOM     18  C   UNL     1      -3.310  -1.031   2.272  1.00  0.00     0.239 C 
ATOM     19  N   UNL     1      -2.171  -0.318   2.098  1.00  0.00    -0.344 N 
ATOM     20  H   UNL     1      -1.540  -0.399   2.848  1.00  0.00     0.164 HD
ATOM     21  O   UNL     1      -3.461  -1.525   3.396  1.00  0.00    -0.274 OA
BRANCH  19  22
ATOM     22  C   UNL     1      -1.696   0.535   1.036  1.00  0.00     0.206 C 
BRANCH  22  23
ATOM     23  C   UNL     1      -1.810   1.963   1.545  1.00  0.00    -0.085 C 
ATOM     24  C   UNL     1      -1.908   3.188   1.981  1.00  0.00     0.006 C 
ENDBRANCH  22  23
ENDBRANCH  19  22
ENDBRANCH  16  18
ENDBRANCH  13  16
ENDBRANCH   7  13
ENDBRANCH   3   6
ENDBRANCH   1   2
BRANCH   1  25
ATOM     25  C   UNL     1       0.002   1.903  -3.667  1.00  0.00     0.023 C 
BRANCH  25  26
ATOM     26  C   UNL     1       0.905   2.700  -4.614  1.00  0.00     0.023 C 
BRANCH  26  27
ATOM     27  C   UNL     1       2.391   2.689  -4.266  1.00  0.00     0.116 C 
BRANCH  27  28
ATOM     28  N   UNL     1       2.984   1.362  -4.361  1.00  0.00    -0.352 N 
ATOM     29  C   UNL     1       4.148   0.967  -4.986  1.00  0.00     0.251 C 
ATOM     30  H   UNL     1       2.481   0.643  -3.914  1.00  0.00     0.163 HD
ATOM     31  O   UNL     1       4.423  -0.220  -5.070  1.00  0.00    -0.269 OA
BRANCH  29  32
ATOM     32  C   UNL     1       5.047   1.986  -5.577  1.00  0.00     0.039 A 
ATOM     33  C   UNL     1       5.530   1.794  -6.875  1.00  0.00     0.014 A 
ATOM     34  C   UNL     1       5.402   3.130  -4.858  1.00  0.00     0.014 A 
ATOM     35  C   UNL     1       6.305   2.788  -7.481  1.00  0.00     0.010 A 
ATOM     36  C   UNL     1       6.120   4.144  -5.485  1.00  0.00     0.010 A 
ATOM     37  C   UNL     1       6.575   3.987  -6.804  1.00  0.00    -0.014 A 
BRANCH  37  38
ATOM     38  C   UNL     1       7.313   5.106  -7.445  1.00  0.00     0.031 A 
ATOM     39  C   UNL     1       8.627   5.564  -6.874  1.00  0.00     0.074 A 
ATOM     40  C   UNL     1       6.747   5.788  -8.461  1.00  0.00     0.049 A 
ATOM     41  N   UNL     1       9.339   6.615  -7.184  1.00  0.00    -0.248 NA
ATOM     42  C   UNL     1       9.198   4.748  -5.789  1.00  0.00     0.031 C 
ATOM     43  C   UNL     1       5.449   5.483  -9.066  1.00  0.00     0.029 A 
ATOM     44  N   UNL     1       7.174   6.904  -9.139  1.00  0.00    -0.354 N 
ATOM     45  C   UNL     1      10.415   6.616  -6.305  1.00  0.00     0.074 A 
ATOM     46  C   UNL     1      10.252   5.471  -5.435  1.00  0.00     0.031 C 
ATOM     47  C   UNL     1       5.184   6.390 -10.020  1.00  0.00     0.029 A 
ATOM     48  C   UNL     1       6.273   7.361 -10.072  1.00  0.00     0.049 A 
ATOM     49  H   UNL     1       8.043   7.335  -8.973  1.00  0.00     0.167 HD
ATOM     50  C   UNL     1      11.459   7.476  -6.244  1.00  0.00     0.034 A 
ATOM     51  C   UNL     1       6.310   8.448 -10.870  1.00  0.00     0.034 A 
ATOM     52  C   UNL     1      11.655   8.573  -7.151  1.00  0.00     0.049 A 
ATOM     53  C   UNL     1       7.504   9.361 -10.814  1.00  0.00     0.074 A 
ATOM     54  C   UNL     1      12.728   9.444  -7.225  1.00  0.00     0.029 A 
ATOM     55  N   UNL     1      10.765   8.949  -8.145  1.00  0.00    -0.354 N 
ATOM     56  N   UNL     1       8.576   9.271 -10.064  1.00  0.00    -0.248 NA
ATOM     57  C   UNL     1       7.509  10.512 -11.729  1.00  0.00     0.031 C 
ATOM     58  C   UNL     1      12.483  10.352  -8.259  1.00  0.00     0.029 A 
ATOM     59  C   UNL     1      11.263  10.040  -8.837  1.00  0.00     0.049 A 
ATOM     60  H   UNL     1       9.906   8.506  -8.332  1.00  0.00     0.167 HD
ATOM     61  C   UNL     1       9.391  10.335 -10.433  1.00  0.00     0.074 A 
ATOM     62  C   UNL     1       8.702  11.043 -11.492  1.00  0.00     0.031 C 
ATOM     63  C   UNL     1      10.592  10.704  -9.925  1.00  0.00     0.034 A 
BRANCH  50  64
ATOM     64  C   UNL     1      12.516   7.225  -5.202  1.00  0.00     0.023 A 
ATOM     65  C   UNL     1      13.419   6.157  -5.380  1.00  0.00     0.012 A 
ATOM     66  C   UNL     1      12.668   8.084  -4.097  1.00  0.00     0.148 A 
ATOM     67  C   UNL     1      14.442   5.932  -4.461  1.00  0.00     0.002 A 
ATOM     68  C   UNL     1      13.716   7.878  -3.206  1.00  0.00     0.091 A 
ATOM     69  F   UNL     1      11.786   9.081  -3.935  1.00  0.00    -0.205 F 
ATOM     70  C   UNL     1      14.597   6.798  -3.382  1.00  0.00     0.022 A 
BRANCH  68  71
ATOM     71  S   UNL     1      14.049   8.979  -1.826  1.00  0.00     0.127 S 
ATOM     72  O   UNL     1      13.683   8.140  -0.686  1.00  0.00    -0.237 OA
ATOM     73  O   UNL     1      15.484   9.225  -1.967  1.00  0.00    -0.237 OA
ATOM     74  O   UNL     1      13.208  10.149  -2.034  1.00  0.00    -0.744 OA
ENDBRANCH  68  71
ENDBRANCH  50  64
BRANCH  51  75
ATOM     75  C   UNL     1       5.206   8.687 -11.843  1.00  0.00     0.023 A 
ATOM     76  C   UNL     1       5.450   8.491 -13.216  1.00  0.00     0.012 A 
ATOM     77  C   UNL     1       3.913   9.051 -11.421  1.00  0.00     0.148 A 
ATOM     78  C   UNL     1       4.433   8.672 -14.153  1.00  0.00     0.002 A 
ATOM     79  C   UNL     1       2.890   9.177 -12.355  1.00  0.00     0.091 A 
ATOM     80  F   UNL     1       3.704   9.247 -10.111  1.00  0.00    -0.205 F 
ATOM     81  C   UNL     1       3.152   9.003 -13.723  1.00  0.00     0.022 A 
BRANCH  79  82
ATOM     82  S   UNL     1       1.181   9.464 -11.881  1.00  0.00     0.127 S 
ATOM     83  O   UNL     1       0.971  10.836 -12.332  1.00  0.00    -0.237 OA
ATOM     84  O   UNL     1       0.477   8.444 -12.659  1.00  0.00    -0.237 OA
ATOM     85  O   UNL     1       1.133   9.256 -10.440  1.00  0.00    -0.744 OA
ENDBRANCH  79  82
ENDBRANCH  51  75
BRANCH  63  86
ATOM     86  C   UNL     1      11.259  11.925 -10.503  1.00  0.00     0.023 A 
ATOM     87  C   UNL     1      10.768  13.203 -10.170  1.00  0.00     0.012 A 
ATOM     88  C   UNL     1      12.429  11.813 -11.279  1.00  0.00     0.148 A 
ATOM     89  C   UNL     1      11.422  14.351 -10.617  1.00  0.00     0.002 A 
ATOM     90  C   UNL     1      13.100  12.961 -11.683  1.00  0.00     0.091 A 
ATOM     91  F   UNL     1      12.868  10.588 -11.602  1.00  0.00    -0.205 F 
ATOM     92  C   UNL     1      12.594  14.231 -11.360  1.00  0.00     0.022 A 
BRANCH  90  93
ATOM     93  S   UNL     1      14.669  12.899 -12.557  1.00  0.00     0.127 S 
ATOM     94  O   UNL     1      14.265  13.238 -13.920  1.00  0.00    -0.237 OA
ATOM     95  O   UNL     1      15.449  13.934 -11.877  1.00  0.00    -0.237 OA
ATOM     96  O   UNL     1      15.175  11.545 -12.370  1.00  0.00    -0.744 OA
ENDBRANCH  90  93
ENDBRANCH  63  86
ENDBRANCH  37  38
ENDBRANCH  29  32
ENDBRANCH  27  28
ENDBRANCH  26  27
ENDBRANCH  25  26
ENDBRANCH   1  25
TORSDOF 19
