REMARK SMILES CN1C(=O)C[C@@H](C(=O)NCCCCNC(=O)c2ccc(-c3c4nc(c(-c5cccc(S(=O)(=O)[O-])c5F)c5ccc([nH]5)c(-c5cccc(S(=O)(=O)[O-])c5F)c5nc(c(-c6cccc(S(=O)(=O)[O-])c6F)c6ccc3[nH]6)C=C5)C=C4)cc2)C12CCN(c1ccc(Cl)cn1)CC2
REMARK SMILES IDX 12 1 11 2 10 3 9 4 7 5 8 6 6 8 1 9 2 10 3 11 80 12 4 13 5 14
REMARK SMILES IDX 81 15 92 16 82 17 91 18 83 19 84 20 85 21 90 22 86 23 89 24
REMARK SMILES IDX 87 25 88 26 13 27 14 28 15 29 16 31 17 32 18 33 79 34 19 35
REMARK SMILES IDX 78 36 20 37 21 38 22 39 72 40 23 41 77 42 71 43 73 44 24 45
REMARK SMILES IDX 76 46 70 47 69 48 25 50 57 51 37 52 56 53 38 54 41 55 55 56
REMARK SMILES IDX 74 57 39 58 40 59 54 61 75 62 42 63 26 64 27 65 35 66 28 67
REMARK SMILES IDX 30 68 36 69 29 70 31 71 32 72 33 73 34 74 58 75 59 76 67 77
REMARK SMILES IDX 60 78 62 79 68 80 61 81 63 82 64 83 65 84 66 85 43 86 44 87
REMARK SMILES IDX 52 88 45 89 47 90 53 91 46 92 48 93 49 94 50 95 51 96
REMARK H PARENT 9 7 14 30 73 49 41 60
REMARK Flexibility Score: inf
ROOT
ATOM      1  C   UNL     1      -2.042  -2.106   2.600  1.00  0.00     0.023 C 
ENDROOT
BRANCH   1   2
ATOM      2  C   UNL     1      -1.214  -1.218   1.678  1.00  0.00     0.023 C 
BRANCH   2   3
ATOM      3  C   UNL     1      -2.025  -0.186   0.890  1.00  0.00     0.116 C 
BRANCH   3   4
ATOM      4  N   UNL     1      -2.546   0.900   1.703  1.00  0.00    -0.356 N 
ATOM      5  C   UNL     1      -2.233   2.214   1.820  1.00  0.00     0.226 C 
ATOM      6  O   UNL     1      -2.938   2.875   2.592  1.00  0.00    -0.275 OA
ATOM      7  H   UNL     1      -3.283   0.622   2.294  1.00  0.00     0.163 HD
BRANCH   5   8
ATOM      8  C   UNL     1      -1.076   2.923   1.112  1.00  0.00     0.113 C 
ATOM      9  C   UNL     1       1.737   0.644   0.209  1.00  0.00     0.147 C 
ATOM     10  N   UNL     1       0.658   1.612   0.267  1.00  0.00    -0.339 N 
ATOM     11  C   UNL     1      -0.114   1.931  -0.842  1.00  0.00     0.223 C 
ATOM     12  C   UNL     1       0.365   2.463   1.434  1.00  0.00     0.058 C 
ATOM     13  O   UNL     1       0.017   1.493  -1.974  1.00  0.00    -0.275 OA
ATOM     14  C   UNL     1      -1.191   2.890  -0.413  1.00  0.00     0.116 C 
ATOM     15  C   UNL     1       0.501   1.734   2.787  1.00  0.00     0.051 C 
ATOM     16  C   UNL     1       1.351   3.680   1.399  1.00  0.00     0.051 C 
ATOM     17  C   UNL     1       0.431   2.672   3.975  1.00  0.00     0.120 C 
ATOM     18  C   UNL     1       1.353   4.533   2.679  1.00  0.00     0.120 C 
ATOM     19  N   UNL     1       1.505   3.630   3.804  1.00  0.00    -0.356 N 
BRANCH  19  20
ATOM     20  C   UNL     1       2.184   4.013   4.941  1.00  0.00     0.128 A 
ATOM     21  C   UNL     1       2.848   3.035   5.693  1.00  0.00     0.048 A 
ATOM     22  N   UNL     1       2.202   5.309   5.309  1.00  0.00    -0.238 NA
ATOM     23  C   UNL     1       3.516   3.379   6.864  1.00  0.00     0.026 A 
ATOM     24  C   UNL     1       2.833   5.619   6.471  1.00  0.00     0.134 A 
ATOM     25  C   UNL     1       3.496   4.701   7.270  1.00  0.00     0.059 A 
ATOM     26  Cl  UNL     1       4.282   5.182   8.716  1.00  0.00    -0.083 Cl
ENDBRANCH  19  20
ENDBRANCH   5   8
ENDBRANCH   3   4
ENDBRANCH   2   3
ENDBRANCH   1   2
BRANCH   1  27
ATOM     27  C   UNL     1      -3.055  -2.970   1.868  1.00  0.00     0.116 C 
BRANCH  27  28
ATOM     28  N   UNL     1      -2.456  -3.751   0.791  1.00  0.00    -0.352 N 
ATOM     29  C   UNL     1      -2.716  -5.049   0.433  1.00  0.00     0.251 C 
ATOM     30  H   UNL     1      -1.777  -3.285   0.251  1.00  0.00     0.163 HD
ATOM     31  O   UNL     1      -2.025  -5.619  -0.405  1.00  0.00    -0.269 OA
BRANCH  29  32
ATOM     32  C   UNL     1      -3.829  -5.746   1.098  1.00  0.00     0.039 A 
ATOM     33  C   UNL     1      -3.610  -7.007   1.653  1.00  0.00     0.014 A 
ATOM     34  C   UNL     1      -5.063  -5.105   1.231  1.00  0.00     0.014 A 
ATOM     35  C   UNL     1      -4.625  -7.606   2.396  1.00  0.00     0.010 A 
ATOM     36  C   UNL     1      -6.032  -5.658   2.051  1.00  0.00     0.010 A 
ATOM     37  C   UNL     1      -5.830  -6.922   2.625  1.00  0.00    -0.014 A 
BRANCH  37  38
ATOM     38  C   UNL     1      -6.917  -7.514   3.437  1.00  0.00     0.031 A 
ATOM     39  C   UNL     1      -8.254  -7.780   2.801  1.00  0.00     0.074 A 
ATOM     40  C   UNL     1      -6.733  -7.712   4.756  1.00  0.00     0.049 A 
ATOM     41  N   UNL     1      -9.357  -8.213   3.351  1.00  0.00    -0.248 NA
ATOM     42  C   UNL     1      -8.382  -7.477   1.364  1.00  0.00     0.031 C 
ATOM     43  C   UNL     1      -5.511  -7.395   5.500  1.00  0.00     0.029 A 
ATOM     44  N   UNL     1      -7.585  -8.202   5.712  1.00  0.00    -0.354 N 
ATOM     45  C   UNL     1     -10.315  -8.186   2.346  1.00  0.00     0.074 A 
ATOM     46  C   UNL     1      -9.678  -7.653   1.163  1.00  0.00     0.031 C 
ATOM     47  C   UNL     1      -5.689  -7.710   6.794  1.00  0.00     0.029 A 
ATOM     48  C   UNL     1      -7.041  -8.229   6.975  1.00  0.00     0.049 A 
ATOM     49  H   UNL     1      -8.500  -8.506   5.513  1.00  0.00     0.167 HD
ATOM     50  C   UNL     1     -11.600  -8.608   2.390  1.00  0.00     0.034 A 
ATOM     51  C   UNL     1      -7.575  -8.634   8.144  1.00  0.00     0.034 A 
ATOM     52  C   UNL     1     -12.199  -9.210   3.547  1.00  0.00     0.049 A 
ATOM     53  C   UNL     1      -8.973  -9.190   8.144  1.00  0.00     0.074 A 
ATOM     54  C   UNL     1     -13.457  -9.768   3.674  1.00  0.00     0.029 A 
ATOM     55  N   UNL     1     -11.574  -9.341   4.778  1.00  0.00    -0.354 N 
ATOM     56  N   UNL     1      -9.813  -9.312   7.143  1.00  0.00    -0.248 NA
ATOM     57  C   UNL     1      -9.484  -9.707   9.422  1.00  0.00     0.031 C 
ATOM     58  C   UNL     1     -13.595 -10.234   4.986  1.00  0.00     0.029 A 
ATOM     59  C   UNL     1     -12.416  -9.978   5.670  1.00  0.00     0.049 A 
ATOM     60  H   UNL     1     -10.664  -9.028   4.985  1.00  0.00     0.167 HD
ATOM     61  C   UNL     1     -10.932  -9.953   7.660  1.00  0.00     0.074 A 
ATOM     62  C   UNL     1     -10.656 -10.211   9.059  1.00  0.00     0.031 C 
ATOM     63  C   UNL     1     -12.092 -10.283   7.040  1.00  0.00     0.034 A 
BRANCH  50  64
ATOM     64  C   UNL     1     -12.412  -8.502   1.126  1.00  0.00     0.023 A 
ATOM     65  C   UNL     1     -12.121  -9.356   0.042  1.00  0.00     0.012 A 
ATOM     66  C   UNL     1     -13.480  -7.592   1.020  1.00  0.00     0.148 A 
ATOM     67  C   UNL     1     -12.853  -9.279  -1.141  1.00  0.00     0.002 A 
ATOM     68  C   UNL     1     -14.236  -7.553  -0.146  1.00  0.00     0.091 A 
ATOM     69  F   UNL     1     -13.726  -6.770   2.050  1.00  0.00    -0.205 F 
ATOM     70  C   UNL     1     -13.916  -8.386  -1.231  1.00  0.00     0.022 A 
BRANCH  68  71
ATOM     71  S   UNL     1     -15.674  -6.492  -0.331  1.00  0.00     0.127 S 
ATOM     72  O   UNL     1     -15.171  -5.470  -1.247  1.00  0.00    -0.237 OA
ATOM     73  O   UNL     1     -16.657  -7.405  -0.917  1.00  0.00    -0.237 OA
ATOM     74  O   UNL     1     -16.003  -6.028   1.009  1.00  0.00    -0.744 OA
ENDBRANCH  68  71
ENDBRANCH  50  64
BRANCH  51  75
ATOM     75  C   UNL     1      -6.748  -8.624   9.383  1.00  0.00     0.023 A 
ATOM     76  C   UNL     1      -6.305  -9.849   9.922  1.00  0.00     0.012 A 
ATOM     77  C   UNL     1      -6.365  -7.422  10.007  1.00  0.00     0.148 A 
ATOM     78  C   UNL     1      -5.525  -9.878  11.078  1.00  0.00     0.002 A 
ATOM     79  C   UNL     1      -5.544  -7.456  11.129  1.00  0.00     0.091 A 
ATOM     80  F   UNL     1      -6.803  -6.267   9.486  1.00  0.00    -0.205 F 
ATOM     81  C   UNL     1      -5.136  -8.683  11.676  1.00  0.00     0.022 A 
BRANCH  79  82
ATOM     82  S   UNL     1      -4.886  -5.963  11.883  1.00  0.00     0.127 S 
ATOM     83  O   UNL     1      -5.686  -5.866  13.101  1.00  0.00    -0.237 OA
ATOM     84  O   UNL     1      -3.483  -6.320  12.094  1.00  0.00    -0.237 OA
ATOM     85  O   UNL     1      -5.092  -4.909  10.899  1.00  0.00    -0.744 OA
ENDBRANCH  79  82
ENDBRANCH  51  75
BRANCH  63  86
ATOM     86  C   UNL     1     -13.138 -10.997   7.852  1.00  0.00     0.023 A 
ATOM     87  C   UNL     1     -13.887 -10.284   8.808  1.00  0.00     0.012 A 
ATOM     88  C   UNL     1     -13.435 -12.351   7.606  1.00  0.00     0.148 A 
ATOM     89  C   UNL     1     -14.899 -10.916   9.527  1.00  0.00     0.002 A 
ATOM     90  C   UNL     1     -14.476 -12.962   8.294  1.00  0.00     0.091 A 
ATOM     91  F   UNL     1     -12.696 -13.018   6.707  1.00  0.00    -0.205 F 
ATOM     92  C   UNL     1     -15.202 -12.250   9.262  1.00  0.00     0.022 A 
BRANCH  90  93
ATOM     93  S   UNL     1     -14.995 -14.646   7.942  1.00  0.00     0.127 S 
ATOM     94  O   UNL     1     -14.417 -15.377   9.068  1.00  0.00    -0.237 OA
ATOM     95  O   UNL     1     -16.454 -14.537   7.969  1.00  0.00    -0.237 OA
ATOM     96  O   UNL     1     -14.442 -14.966   6.633  1.00  0.00    -0.744 OA
ENDBRANCH  90  93
ENDBRANCH  63  86
ENDBRANCH  37  38
ENDBRANCH  29  32
ENDBRANCH  27  28
ENDBRANCH   1  27
TORSDOF 15
