REMARK SMILES Cc1cc(=O)c(Oc2ccc(C(=O)NCCCCNC(=O)c3ccc(-c4c5nc(c(-c6cccc(S(=O)(=O)[O-])c6F)c6ccc([nH]6)c(-c6cccc(S(=O)(=O)[O-])c6F)c6nc(c(-c7cccc(S(=O)(=O)[O-])c7F)c7ccc4[nH]7)C=C6)C=C5)cc3)cc2)c(-c2ccc(S(C)(=O)=O)cc2)o1
REMARK SMILES IDX 16 1 15 2 14 3 12 4 13 5 11 7 8 8 9 9 86 10 10 11 85 12 7 13
REMARK SMILES IDX 6 14 1 15 2 16 3 17 98 18 4 19 87 20 5 21 88 22 89 23 97 24
REMARK SMILES IDX 90 25 96 26 91 27 92 28 93 29 94 30 95 31 17 32 18 33 19 34
REMARK SMILES IDX 20 35 21 37 22 38 23 39 84 40 24 41 83 42 25 43 26 44 27 45
REMARK SMILES IDX 77 46 28 47 82 48 76 49 78 50 29 51 81 52 75 53 74 54 30 56
REMARK SMILES IDX 62 57 42 58 61 59 43 60 46 61 60 62 79 63 44 64 45 65 59 67
REMARK SMILES IDX 80 68 47 69 31 70 32 71 40 72 33 73 35 74 41 75 34 76 36 77
REMARK SMILES IDX 37 78 38 79 39 80 63 81 64 82 72 83 65 84 67 85 73 86 66 87
REMARK SMILES IDX 68 88 69 89 70 90 71 91 48 92 49 93 57 94 50 95 52 96 58 97
REMARK SMILES IDX 51 98 53 99 54 100 55 101 56 102
REMARK H PARENT 14 6 19 36 78 55 46 66
REMARK Flexibility Score: inf
ROOT
ATOM      1  C   UNL     1       4.669   9.427   2.454  1.00  0.00     0.023 C 
ENDROOT
BRANCH   1   2
ATOM      2  C   UNL     1       3.175   9.604   2.209  1.00  0.00     0.116 C 
BRANCH   2   3
ATOM      3  N   UNL     1       2.777   9.991   0.868  1.00  0.00    -0.352 N 
ATOM      4  C   UNL     1       1.612   9.744   0.171  1.00  0.00     0.251 C 
ATOM      5  O   UNL     1       1.420  10.311  -0.903  1.00  0.00    -0.269 OA
ATOM      6  H   UNL     1       3.449  10.515   0.375  1.00  0.00     0.163 HD
BRANCH   4   7
ATOM      7  C   UNL     1       0.644   8.704   0.614  1.00  0.00     0.040 A 
ATOM      8  C   UNL     1      -0.556   6.294   1.292  1.00  0.00     0.127 A 
ATOM      9  C   UNL     1      -0.583   6.712  -0.033  1.00  0.00     0.048 A 
ATOM     10  C   UNL     1      -0.177   7.185   2.294  1.00  0.00     0.048 A 
ATOM     11  C   UNL     1       0.060   7.903  -0.379  1.00  0.00     0.017 A 
ATOM     12  C   UNL     1       0.382   8.415   1.952  1.00  0.00     0.017 A 
BRANCH   8  13
ATOM     13  O   UNL     1      -0.958   5.053   1.684  1.00  0.00    -0.449 OA
BRANCH  13  14
ATOM     14  C   UNL     1      -0.350   3.876   1.260  1.00  0.00     0.217 A 
ATOM     15  C   UNL     1       1.012  -0.048   0.049  1.00  0.00     0.088 C 
ATOM     16  C   UNL     1       0.476   1.249   0.563  1.00  0.00     0.105 A 
ATOM     17  C   UNL     1      -0.562   1.332   1.398  1.00  0.00     0.098 A 
ATOM     18  O   UNL     1       1.153   2.360   0.114  1.00  0.00    -0.457 OA
ATOM     19  C   UNL     1      -1.032   2.660   1.816  1.00  0.00     0.228 A 
ATOM     20  C   UNL     1       0.739   3.639   0.478  1.00  0.00     0.180 A 
ATOM     21  O   UNL     1      -1.970   2.735   2.605  1.00  0.00    -0.285 OA
BRANCH  20  22
ATOM     22  C   UNL     1       1.645   4.625  -0.143  1.00  0.00     0.021 A 
ATOM     23  C   UNL     1       1.610   4.812  -1.537  1.00  0.00     0.013 A 
ATOM     24  C   UNL     1       2.573   5.348   0.618  1.00  0.00     0.013 A 
ATOM     25  C   UNL     1       2.427   5.765  -2.150  1.00  0.00     0.021 A 
ATOM     26  C   UNL     1       3.406   6.292   0.006  1.00  0.00     0.021 A 
ATOM     27  C   UNL     1       3.319   6.506  -1.372  1.00  0.00     0.067 A 
BRANCH  27  28
ATOM     28  S   UNL     1       4.270   7.801  -2.142  1.00  0.00     0.175 S 
ATOM     29  C   UNL     1       5.579   6.928  -2.955  1.00  0.00     0.163 C 
ATOM     30  O   UNL     1       3.430   8.391  -3.164  1.00  0.00    -0.224 OA
ATOM     31  O   UNL     1       4.860   8.603  -1.086  1.00  0.00    -0.224 OA
ENDBRANCH  27  28
ENDBRANCH  20  22
ENDBRANCH  13  14
ENDBRANCH   8  13
ENDBRANCH   4   7
ENDBRANCH   2   3
ENDBRANCH   1   2
BRANCH   1  32
ATOM     32  C   UNL     1       5.573  10.602   2.120  1.00  0.00     0.023 C 
BRANCH  32  33
ATOM     33  C   UNL     1       5.116  11.959   2.630  1.00  0.00     0.116 C 
BRANCH  33  34
ATOM     34  N   UNL     1       5.001  12.046   4.082  1.00  0.00    -0.352 N 
ATOM     35  C   UNL     1       5.604  12.924   4.959  1.00  0.00     0.251 C 
ATOM     36  H   UNL     1       4.405  11.382   4.497  1.00  0.00     0.163 HD
ATOM     37  O   UNL     1       5.429  12.806   6.168  1.00  0.00    -0.269 OA
BRANCH  35  38
ATOM     38  C   UNL     1       6.514  13.963   4.429  1.00  0.00     0.039 A 
ATOM     39  C   UNL     1       6.135  14.733   3.330  1.00  0.00     0.014 A 
ATOM     40  C   UNL     1       7.802  14.076   4.957  1.00  0.00     0.014 A 
ATOM     41  C   UNL     1       7.110  15.407   2.606  1.00  0.00     0.010 A 
ATOM     42  C   UNL     1       8.753  14.853   4.290  1.00  0.00     0.010 A 
ATOM     43  C   UNL     1       8.438  15.456   3.062  1.00  0.00    -0.014 A 
BRANCH  43  44
ATOM     44  C   UNL     1       9.482  16.102   2.223  1.00  0.00     0.031 A 
ATOM     45  C   UNL     1      10.665  15.313   1.713  1.00  0.00     0.074 A 
ATOM     46  C   UNL     1       9.346  17.397   1.877  1.00  0.00     0.049 A 
ATOM     47  N   UNL     1      11.681  15.726   0.999  1.00  0.00    -0.248 NA
ATOM     48  C   UNL     1      10.718  13.878   2.044  1.00  0.00     0.031 C 
ATOM     49  C   UNL     1       8.245  18.270   2.293  1.00  0.00     0.029 A 
ATOM     50  N   UNL     1      10.129  18.204   1.091  1.00  0.00    -0.354 N 
ATOM     51  C   UNL     1      12.513  14.623   0.838  1.00  0.00     0.074 A 
ATOM     52  C   UNL     1      11.887  13.518   1.529  1.00  0.00     0.031 C 
ATOM     53  C   UNL     1       8.404  19.477   1.732  1.00  0.00     0.029 A 
ATOM     54  C   UNL     1       9.650  19.487   0.975  1.00  0.00     0.049 A 
ATOM     55  H   UNL     1      10.954  17.893   0.653  1.00  0.00     0.167 HD
ATOM     56  C   UNL     1      13.682  14.534   0.161  1.00  0.00     0.034 A 
ATOM     57  C   UNL     1      10.164  20.565   0.353  1.00  0.00     0.034 A 
ATOM     58  C   UNL     1      14.277  15.616  -0.577  1.00  0.00     0.049 A 
ATOM     59  C   UNL     1      11.469  20.443  -0.374  1.00  0.00     0.074 A 
ATOM     60  C   UNL     1      15.439  15.601  -1.329  1.00  0.00     0.029 A 
ATOM     61  N   UNL     1      13.759  16.897  -0.662  1.00  0.00    -0.354 N 
ATOM     62  N   UNL     1      12.213  19.379  -0.552  1.00  0.00    -0.248 NA
ATOM     63  C   UNL     1      12.003  21.664  -0.993  1.00  0.00     0.031 C 
ATOM     64  C   UNL     1      15.634  16.881  -1.855  1.00  0.00     0.029 A 
ATOM     65  C   UNL     1      14.583  17.686  -1.448  1.00  0.00     0.049 A 
ATOM     66  H   UNL     1      12.930  17.203  -0.229  1.00  0.00     0.167 HD
ATOM     67  C   UNL     1      13.295  19.797  -1.315  1.00  0.00     0.074 A 
ATOM     68  C   UNL     1      13.101  21.208  -1.582  1.00  0.00     0.031 C 
ATOM     69  C   UNL     1      14.360  19.077  -1.740  1.00  0.00     0.034 A 
BRANCH  56  70
ATOM     70  C   UNL     1      14.395  13.208   0.136  1.00  0.00     0.023 A 
ATOM     71  C   UNL     1      13.945  12.197  -0.735  1.00  0.00     0.012 A 
ATOM     72  C   UNL     1      15.576  13.011   0.879  1.00  0.00     0.148 A 
ATOM     73  C   UNL     1      14.656  11.004  -0.861  1.00  0.00     0.002 A 
ATOM     74  C   UNL     1      16.295  11.831   0.725  1.00  0.00     0.091 A 
ATOM     75  F   UNL     1      15.980  13.986   1.705  1.00  0.00    -0.205 F 
ATOM     76  C   UNL     1      15.835  10.826  -0.142  1.00  0.00     0.022 A 
BRANCH  74  77
ATOM     77  S   UNL     1      17.853  11.521   1.564  1.00  0.00     0.127 S 
ATOM     78  O   UNL     1      17.508  10.380   2.413  1.00  0.00    -0.237 OA
ATOM     79  O   UNL     1      18.744  11.203   0.449  1.00  0.00    -0.237 OA
ATOM     80  O   UNL     1      18.179  12.746   2.281  1.00  0.00    -0.744 OA
ENDBRANCH  74  77
ENDBRANCH  56  70
BRANCH  57  81
ATOM     81  C   UNL     1       9.410  21.846   0.385  1.00  0.00     0.023 A 
ATOM     82  C   UNL     1       8.731  22.274  -0.770  1.00  0.00     0.012 A 
ATOM     83  C   UNL     1       9.295  22.591   1.574  1.00  0.00     0.148 A 
ATOM     84  C   UNL     1       7.950  23.429  -0.743  1.00  0.00     0.002 A 
ATOM     85  C   UNL     1       8.483  23.717   1.606  1.00  0.00     0.091 A 
ATOM     86  F   UNL     1       9.952  22.157   2.659  1.00  0.00    -0.205 F 
ATOM     87  C   UNL     1       7.817  24.143   0.446  1.00  0.00     0.022 A 
BRANCH  85  88
ATOM     88  S   UNL     1       8.168  24.644   3.111  1.00  0.00     0.127 S 
ATOM     89  O   UNL     1       8.732  25.951   2.780  1.00  0.00    -0.237 OA
ATOM     90  O   UNL     1       6.708  24.603   3.186  1.00  0.00    -0.237 OA
ATOM     91  O   UNL     1       8.852  23.921   4.175  1.00  0.00    -0.744 OA
ENDBRANCH  85  88
ENDBRANCH  57  81
BRANCH  69  92
ATOM     92  C   UNL     1      15.409  19.784  -2.552  1.00  0.00     0.023 A 
ATOM     93  C   UNL     1      16.345  20.611  -1.903  1.00  0.00     0.012 A 
ATOM     94  C   UNL     1      15.535  19.538  -3.933  1.00  0.00     0.148 A 
ATOM     95  C   UNL     1      17.389  21.193  -2.620  1.00  0.00     0.002 A 
ATOM     96  C   UNL     1      16.598  20.094  -4.635  1.00  0.00     0.091 A 
ATOM     97  F   UNL     1      14.626  18.752  -4.527  1.00  0.00    -0.205 F 
ATOM     98  C   UNL     1      17.523  20.925  -3.981  1.00  0.00     0.022 A 
BRANCH  96  99
ATOM     99  S   UNL     1      16.895  19.755  -6.373  1.00  0.00     0.127 S 
ATOM    100  O   UNL     1      16.671  21.069  -6.975  1.00  0.00    -0.237 OA
ATOM    101  O   UNL     1      18.291  19.317  -6.368  1.00  0.00    -0.237 OA
ATOM    102  O   UNL     1      15.936  18.728  -6.756  1.00  0.00    -0.744 OA
ENDBRANCH  96  99
ENDBRANCH  69  92
ENDBRANCH  43  44
ENDBRANCH  35  38
ENDBRANCH  33  34
ENDBRANCH  32  33
ENDBRANCH   1  32
TORSDOF 18
