REMARK SMILES CC[C@@H](C)C[C@@H](C)[NH2+]Cc1ccc(C(=O)NCCCCNC(=O)c2ccc(-c3c4nc(c(-c5cccc(S(=O)(=O)[O-])c5F)c5ccc([nH]5)c(-c5cccc(S(=O)(=O)[O-])c5F)c5nc(c(-c6cccc(S(=O)(=O)[O-])c6F)c6ccc3[nH]6)C=C5)C=C4)cc2)cn1
REMARK SMILES IDX 17 1 16 2 14 3 15 4 13 6 10 7 11 8 88 9 12 10 87 11 9 12
REMARK SMILES IDX 8 13 6 16 7 17 5 18 3 19 4 20 2 21 1 22 18 23 19 24 20 25
REMARK SMILES IDX 21 26 22 27 23 29 24 30 25 31 86 32 26 33 85 34 27 35 28 36
REMARK SMILES IDX 29 37 79 38 30 39 84 40 78 41 80 42 31 43 83 44 77 45 76 46
REMARK SMILES IDX 32 48 64 49 44 50 63 51 45 52 48 53 62 54 81 55 46 56 47 57
REMARK SMILES IDX 61 59 82 60 49 61 33 62 34 63 42 64 35 65 37 66 43 67 36 68
REMARK SMILES IDX 38 69 39 70 40 71 41 72 65 73 66 74 74 75 67 76 69 77 75 78
REMARK SMILES IDX 68 79 70 80 71 81 72 82 73 83 50 84 51 85 59 86 52 87 54 88
REMARK SMILES IDX 60 89 53 90 55 91 56 92 57 93 58 94
REMARK H PARENT 16 5 8 14 8 15 21 28 80 47 48 58
REMARK Flexibility Score: inf
ROOT
ATOM      1  C   UNL     1       7.262  -0.060  -6.435  1.00  0.00     0.116 C 
ENDROOT
BRANCH   1   2
ATOM      2  N   UNL     1       7.411  -1.489  -6.259  1.00  0.00    -0.352 N 
ATOM      3  C   UNL     1       6.540  -2.544  -6.236  1.00  0.00     0.252 C 
ATOM      4  O   UNL     1       7.043  -3.661  -6.094  1.00  0.00    -0.269 OA
ATOM      5  H   UNL     1       8.348  -1.762  -6.125  1.00  0.00     0.163 HD
BRANCH   3   6
ATOM      6  C   UNL     1       5.058  -2.451  -6.343  1.00  0.00     0.058 A 
ATOM      7  C   UNL     1       2.289  -2.653  -6.227  1.00  0.00     0.094 A 
ATOM      8  C   UNL     1       2.876  -1.395  -6.327  1.00  0.00     0.030 A 
ATOM      9  N   UNL     1       3.016  -3.794  -6.284  1.00  0.00    -0.255 NA
ATOM     10  C   UNL     1       4.273  -1.300  -6.350  1.00  0.00     0.017 A 
ATOM     11  C   UNL     1       4.367  -3.665  -6.349  1.00  0.00     0.125 A 
BRANCH   7  12
ATOM     12  C   UNL     1       0.848  -2.783  -5.778  1.00  0.00     0.318 C 
BRANCH  12  13
ATOM     13  N   UNL     1       0.710  -3.353  -4.422  1.00  0.00    -0.339 N 
ATOM     14  H   UNL     1      -0.274  -3.581  -4.275  1.00  0.00     0.346 HD
ATOM     15  H   UNL     1       1.328  -4.164  -4.394  1.00  0.00     0.346 HD
BRANCH  13  16
ATOM     16  C   UNL     1       1.143  -2.474  -3.316  1.00  0.00     0.179 C 
ATOM     17  C   UNL     1       2.660  -2.499  -3.082  1.00  0.00     0.075 C 
BRANCH  16  18
ATOM     18  C   UNL     1       0.404  -2.959  -2.043  1.00  0.00     0.068 C 
BRANCH  18  19
ATOM     19  C   UNL     1       0.728  -2.188  -0.737  1.00  0.00    -0.009 C 
ATOM     20  C   UNL     1       0.029  -2.873   0.443  1.00  0.00     0.008 C 
BRANCH  19  21
ATOM     21  C   UNL     1       0.351  -0.698  -0.836  1.00  0.00    -0.000 C 
ATOM     22  C   UNL     1       0.894   0.141   0.314  1.00  0.00     0.004 C 
ENDBRANCH  19  21
ENDBRANCH  18  19
ENDBRANCH  16  18
ENDBRANCH  13  16
ENDBRANCH  12  13
ENDBRANCH   7  12
ENDBRANCH   3   6
ENDBRANCH   1   2
BRANCH   1  23
ATOM     23  C   UNL     1       7.220   0.667  -5.090  1.00  0.00     0.023 C 
BRANCH  23  24
ATOM     24  C   UNL     1       8.606   1.024  -4.530  1.00  0.00     0.023 C 
BRANCH  24  25
ATOM     25  C   UNL     1       9.447   1.945  -5.415  1.00  0.00     0.116 C 
BRANCH  25  26
ATOM     26  N   UNL     1       8.776   3.189  -5.760  1.00  0.00    -0.352 N 
ATOM     27  C   UNL     1       9.344   4.386  -6.136  1.00  0.00     0.251 C 
ATOM     28  H   UNL     1       7.792   3.174  -5.719  1.00  0.00     0.163 HD
ATOM     29  O   UNL     1       8.651   5.376  -6.301  1.00  0.00    -0.269 OA
BRANCH  27  30
ATOM     30  C   UNL     1      10.814   4.461  -6.290  1.00  0.00     0.039 A 
ATOM     31  C   UNL     1      11.511   5.455  -5.599  1.00  0.00     0.014 A 
ATOM     32  C   UNL     1      11.497   3.528  -7.073  1.00  0.00     0.014 A 
ATOM     33  C   UNL     1      12.907   5.471  -5.639  1.00  0.00     0.010 A 
ATOM     34  C   UNL     1      12.888   3.508  -7.060  1.00  0.00     0.010 A 
ATOM     35  C   UNL     1      13.607   4.476  -6.342  1.00  0.00    -0.014 A 
BRANCH  35  36
ATOM     36  C   UNL     1      15.089   4.414  -6.319  1.00  0.00     0.031 A 
ATOM     37  C   UNL     1      15.874   4.605  -7.587  1.00  0.00     0.074 A 
ATOM     38  C   UNL     1      15.721   4.086  -5.175  1.00  0.00     0.049 A 
ATOM     39  N   UNL     1      17.165   4.526  -7.776  1.00  0.00    -0.248 NA
ATOM     40  C   UNL     1      15.106   4.894  -8.810  1.00  0.00     0.031 C 
ATOM     41  C   UNL     1      15.064   3.789  -3.900  1.00  0.00     0.029 A 
ATOM     42  N   UNL     1      17.056   3.917  -4.906  1.00  0.00    -0.354 N 
ATOM     43  C   UNL     1      17.362   4.715  -9.138  1.00  0.00     0.074 A 
ATOM     44  C   UNL     1      16.055   4.883  -9.735  1.00  0.00     0.031 C 
ATOM     45  C   UNL     1      15.997   3.477  -2.986  1.00  0.00     0.029 A 
ATOM     46  C   UNL     1      17.314   3.529  -3.611  1.00  0.00     0.049 A 
ATOM     47  H   UNL     1      17.763   4.059  -5.576  1.00  0.00     0.167 HD
ATOM     48  C   UNL     1      18.527   4.776  -9.826  1.00  0.00     0.034 A 
ATOM     49  C   UNL     1      18.481   3.248  -2.998  1.00  0.00     0.034 A 
ATOM     50  C   UNL     1      19.826   4.667  -9.220  1.00  0.00     0.049 A 
ATOM     51  C   UNL     1      19.764   3.385  -3.772  1.00  0.00     0.074 A 
ATOM     52  C   UNL     1      21.067   4.817  -9.812  1.00  0.00     0.029 A 
ATOM     53  N   UNL     1      20.052   4.378  -7.883  1.00  0.00    -0.354 N 
ATOM     54  N   UNL     1      19.939   3.738  -5.023  1.00  0.00    -0.248 NA
ATOM     55  C   UNL     1      21.013   3.124  -3.042  1.00  0.00     0.031 C 
ATOM     56  C   UNL     1      22.046   4.608  -8.835  1.00  0.00     0.029 A 
ATOM     57  C   UNL     1      21.413   4.341  -7.631  1.00  0.00     0.049 A 
ATOM     58  H   UNL     1      19.349   4.222  -7.212  1.00  0.00     0.167 HD
ATOM     59  C   UNL     1      21.314   3.776  -5.220  1.00  0.00     0.074 A 
ATOM     60  C   UNL     1      21.927   3.430  -3.953  1.00  0.00     0.031 C 
ATOM     61  C   UNL     1      22.007   4.056  -6.351  1.00  0.00     0.034 A 
BRANCH  48  62
ATOM     62  C   UNL     1      18.451   5.039 -11.307  1.00  0.00     0.023 A 
ATOM     63  C   UNL     1      18.097   6.325 -11.763  1.00  0.00     0.012 A 
ATOM     64  C   UNL     1      18.782   4.041 -12.243  1.00  0.00     0.148 A 
ATOM     65  C   UNL     1      18.040   6.606 -13.127  1.00  0.00     0.002 A 
ATOM     66  C   UNL     1      18.763   4.340 -13.601  1.00  0.00     0.091 A 
ATOM     67  F   UNL     1      19.093   2.817 -11.793  1.00  0.00    -0.205 F 
ATOM     68  C   UNL     1      18.383   5.617 -14.044  1.00  0.00     0.022 A 
BRANCH  66  69
ATOM     69  S   UNL     1      19.260   3.156 -14.859  1.00  0.00     0.127 S 
ATOM     70  O   UNL     1      17.972   2.794 -15.447  1.00  0.00    -0.237 OA
ATOM     71  O   UNL     1      20.119   3.966 -15.724  1.00  0.00    -0.237 OA
ATOM     72  O   UNL     1      19.950   2.087 -14.151  1.00  0.00    -0.744 OA
ENDBRANCH  66  69
ENDBRANCH  48  62
BRANCH  49  73
ATOM     73  C   UNL     1      18.494   2.894  -1.551  1.00  0.00     0.023 A 
ATOM     74  C   UNL     1      19.003   3.822  -0.622  1.00  0.00     0.012 A 
ATOM     75  C   UNL     1      17.979   1.669  -1.085  1.00  0.00     0.148 A 
ATOM     76  C   UNL     1      19.029   3.525   0.741  1.00  0.00     0.002 A 
ATOM     77  C   UNL     1      17.959   1.401   0.279  1.00  0.00     0.091 A 
ATOM     78  F   UNL     1      17.511   0.792  -1.985  1.00  0.00    -0.205 F 
ATOM     79  C   UNL     1      18.498   2.320   1.193  1.00  0.00     0.022 A 
BRANCH  77  80
ATOM     80  S   UNL     1      17.174  -0.067   0.956  1.00  0.00     0.127 S 
ATOM     81  O   UNL     1      18.329  -0.880   1.327  1.00  0.00    -0.237 OA
ATOM     82  O   UNL     1      16.420   0.483   2.084  1.00  0.00    -0.237 OA
ATOM     83  O   UNL     1      16.342  -0.593  -0.118  1.00  0.00    -0.744 OA
ENDBRANCH  77  80
ENDBRANCH  49  73
BRANCH  61  84
ATOM     84  C   UNL     1      23.511   4.032  -6.273  1.00  0.00     0.023 A 
ATOM     85  C   UNL     1      24.185   2.797  -6.197  1.00  0.00     0.012 A 
ATOM     86  C   UNL     1      24.256   5.224  -6.360  1.00  0.00     0.148 A 
ATOM     87  C   UNL     1      25.578   2.751  -6.181  1.00  0.00     0.002 A 
ATOM     88  C   UNL     1      25.644   5.168  -6.389  1.00  0.00     0.091 A 
ATOM     89  F   UNL     1      23.595   6.390  -6.410  1.00  0.00    -0.205 F 
ATOM     90  C   UNL     1      26.307   3.934  -6.290  1.00  0.00     0.022 A 
BRANCH  88  91
ATOM     91  S   UNL     1      26.658   6.633  -6.622  1.00  0.00     0.127 S 
ATOM     92  O   UNL     1      27.170   6.858  -5.271  1.00  0.00    -0.237 OA
ATOM     93  O   UNL     1      27.659   6.171  -7.585  1.00  0.00    -0.237 OA
ATOM     94  O   UNL     1      25.761   7.660  -7.133  1.00  0.00    -0.744 OA
ENDBRANCH  88  91
ENDBRANCH  61  84
ENDBRANCH  35  36
ENDBRANCH  27  30
ENDBRANCH  25  26
ENDBRANCH  24  25
ENDBRANCH  23  24
ENDBRANCH   1  23
TORSDOF 20
