REMARK SMILES CC[C@@H](C)[C@@H](NC(=O)CCn1ccc2ccc(Br)cc21)C(=O)NCCCCNC(=O)c1ccc(-c2c3nc(c(-c4cccc(S(=O)(=O)[O-])c4F)c4ccc([nH]4)c(-c4cccc(S(=O)(=O)[O-])c4F)c4nc(c(-c5cccc(S(=O)(=O)[O-])c5F)c5ccc2[nH]5)C=C4)C=C3)cc1
REMARK SMILES IDX 25 1 24 2 23 3 21 4 22 5 5 7 3 8 4 9 2 10 1 11 6 12 7 13
REMARK SMILES IDX 8 15 9 16 10 17 11 18 12 19 20 20 13 21 14 22 19 23 15 24
REMARK SMILES IDX 17 25 16 26 18 27 26 28 27 29 28 30 29 31 30 33 31 34 32 35
REMARK SMILES IDX 93 36 33 37 92 38 34 39 35 40 36 41 86 42 37 43 91 44 85 45
REMARK SMILES IDX 87 46 38 47 90 48 84 49 83 50 39 52 71 53 51 54 70 55 52 56
REMARK SMILES IDX 55 57 69 58 88 59 53 60 54 61 68 63 89 64 56 65 40 66 41 67
REMARK SMILES IDX 49 68 42 69 44 70 50 71 43 72 45 73 46 74 47 75 48 76 72 77
REMARK SMILES IDX 73 78 81 79 74 80 76 81 82 82 75 83 77 84 78 85 79 86 80 87
REMARK SMILES IDX 57 88 58 89 66 90 59 91 61 92 67 93 60 94 62 95 63 96 64 97
REMARK SMILES IDX 65 98
REMARK H PARENT 23 6 6 14 28 32 87 51 55 62
REMARK Flexibility Score: inf
ROOT
ATOM      1  C   UNL     1       4.270   4.606   3.224  1.00  0.00     0.023 C 
ENDROOT
BRANCH   1   2
ATOM      2  C   UNL     1       3.325   4.448   4.487  1.00  0.00     0.116 C 
BRANCH   2   3
ATOM      3  N   UNL     1       1.716   4.384   4.487  1.00  0.00    -0.354 N 
ATOM      4  C   UNL     1       0.459   3.867   4.208  1.00  0.00     0.242 C 
ATOM      5  O   UNL     1      -0.394   4.639   4.718  1.00  0.00    -0.273 OA
ATOM      6  H   UNL     1       1.486   5.203   4.983  1.00  0.00     0.163 HD
BRANCH   4   7
ATOM      7  C   UNL     1      -0.247   2.456   3.565  1.00  0.00     0.174 C 
BRANCH   7   8
ATOM      8  C   UNL     1      -0.319   1.744   2.127  1.00  0.00     0.018 C 
ATOM      9  C   UNL     1      -1.421   2.289   1.192  1.00  0.00     0.010 C 
BRANCH   8  10
ATOM     10  C   UNL     1      -0.351   0.171   2.059  1.00  0.00     0.002 C 
ATOM     11  C   UNL     1       0.226  -0.396   0.750  1.00  0.00     0.004 C 
ENDBRANCH   8  10
ENDBRANCH   7   8
BRANCH   7  12
ATOM     12  N   UNL     1      -0.204   1.433   4.584  1.00  0.00    -0.344 N 
ATOM     13  C   UNL     1       0.939   0.852   5.009  1.00  0.00     0.222 C 
ATOM     14  H   UNL     1      -1.053   1.143   4.990  1.00  0.00     0.164 HD
ATOM     15  O   UNL     1       0.889  -0.178   5.676  1.00  0.00    -0.275 OA
BRANCH  13  16
ATOM     16  C   UNL     1       2.220   1.600   4.750  1.00  0.00     0.122 C 
BRANCH  16  17
ATOM     17  C   UNL     1       2.769   1.778   3.282  1.00  0.00     0.132 C 
BRANCH  17  18
ATOM     18  N   UNL     1       2.563   2.577   2.027  1.00  0.00    -0.347 N 
ATOM     19  C   UNL     1       3.079   1.909   0.899  1.00  0.00     0.087 A 
ATOM     20  C   UNL     1       1.967   3.776   1.488  1.00  0.00     0.049 A 
ATOM     21  C   UNL     1       2.503   2.397  -0.240  1.00  0.00     0.028 A 
ATOM     22  C   UNL     1       1.775   3.551   0.102  1.00  0.00    -0.000 A 
ATOM     23  C   UNL     1       1.560   5.095   1.897  1.00  0.00     0.042 A 
ATOM     24  C   UNL     1       0.994   4.446  -0.683  1.00  0.00     0.011 A 
ATOM     25  C   UNL     1       0.852   5.998   1.098  1.00  0.00     0.020 A 
ATOM     26  C   UNL     1       0.503   5.648  -0.175  1.00  0.00     0.016 A 
ATOM     27  Br  UNL     1       0.435   7.722   1.772  1.00  0.00    -0.051 Br
ENDBRANCH  17  18
ENDBRANCH  16  17
ENDBRANCH  13  16
ENDBRANCH   7  12
ENDBRANCH   4   7
ENDBRANCH   2   3
ENDBRANCH   1   2
BRANCH   1  28
ATOM     28  C   UNL     1       5.611   5.342   3.384  1.00  0.00     0.023 C 
BRANCH  28  29
ATOM     29  C   UNL     1       6.472   4.852   4.536  1.00  0.00     0.116 C 
BRANCH  29  30
ATOM     30  N   UNL     1       7.083   3.561   4.287  1.00  0.00    -0.352 N 
ATOM     31  C   UNL     1       8.347   3.177   3.913  1.00  0.00     0.251 C 
ATOM     32  H   UNL     1       6.465   2.805   4.413  1.00  0.00     0.163 HD
ATOM     33  O   UNL     1       8.633   1.993   4.107  1.00  0.00    -0.269 OA
BRANCH  31  34
ATOM     34  C   UNL     1       9.325   4.053   3.214  1.00  0.00     0.039 A 
ATOM     35  C   UNL     1       9.064   5.368   2.840  1.00  0.00     0.014 A 
ATOM     36  C   UNL     1      10.526   3.453   2.784  1.00  0.00     0.014 A 
ATOM     37  C   UNL     1       9.897   6.017   1.951  1.00  0.00     0.010 A 
ATOM     38  C   UNL     1      11.392   4.119   1.921  1.00  0.00     0.010 A 
ATOM     39  C   UNL     1      11.036   5.378   1.455  1.00  0.00    -0.014 A 
BRANCH  39  40
ATOM     40  C   UNL     1      11.825   6.147   0.502  1.00  0.00     0.031 A 
ATOM     41  C   UNL     1      12.183   7.517   0.981  1.00  0.00     0.074 A 
ATOM     42  C   UNL     1      12.200   5.678  -0.703  1.00  0.00     0.049 A 
ATOM     43  N   UNL     1      11.797   8.658   0.503  1.00  0.00    -0.248 NA
ATOM     44  C   UNL     1      12.900   7.614   2.263  1.00  0.00     0.031 C 
ATOM     45  C   UNL     1      12.135   4.310  -1.220  1.00  0.00     0.029 A 
ATOM     46  N   UNL     1      12.853   6.346  -1.690  1.00  0.00    -0.354 N 
ATOM     47  C   UNL     1      12.382   9.624   1.319  1.00  0.00     0.074 A 
ATOM     48  C   UNL     1      12.917   8.931   2.463  1.00  0.00     0.031 C 
ATOM     49  C   UNL     1      12.971   4.201  -2.277  1.00  0.00     0.029 A 
ATOM     50  C   UNL     1      13.502   5.514  -2.592  1.00  0.00     0.049 A 
ATOM     51  H   UNL     1      12.864   7.328  -1.759  1.00  0.00     0.167 HD
ATOM     52  C   UNL     1      12.566  10.912   0.921  1.00  0.00     0.034 A 
ATOM     53  C   UNL     1      14.489   5.894  -3.441  1.00  0.00     0.034 A 
ATOM     54  C   UNL     1      11.758  11.261  -0.210  1.00  0.00     0.049 A 
ATOM     55  C   UNL     1      14.359   7.362  -3.616  1.00  0.00     0.074 A 
ATOM     56  C   UNL     1      10.403  11.376  -0.444  1.00  0.00     0.029 A 
ATOM     57  N   UNL     1      12.352  11.201  -1.446  1.00  0.00    -0.354 N 
ATOM     58  N   UNL     1      13.334   7.935  -4.183  1.00  0.00    -0.248 NA
ATOM     59  C   UNL     1      15.175   8.225  -2.776  1.00  0.00     0.031 C 
ATOM     60  C   UNL     1      10.221  10.889  -1.771  1.00  0.00     0.029 A 
ATOM     61  C   UNL     1      11.478  10.549  -2.275  1.00  0.00     0.049 A 
ATOM     62  H   UNL     1      13.237  11.558  -1.689  1.00  0.00     0.167 HD
ATOM     63  C   UNL     1      13.128   9.093  -3.445  1.00  0.00     0.074 A 
ATOM     64  C   UNL     1      14.346   9.265  -2.657  1.00  0.00     0.031 C 
ATOM     65  C   UNL     1      11.887   9.647  -3.327  1.00  0.00     0.034 A 
BRANCH  52  66
ATOM     66  C   UNL     1      13.730  11.756   1.359  1.00  0.00     0.023 A 
ATOM     67  C   UNL     1      13.675  13.149   1.149  1.00  0.00     0.012 A 
ATOM     68  C   UNL     1      14.980  11.203   1.720  1.00  0.00     0.148 A 
ATOM     69  C   UNL     1      14.816  13.950   1.284  1.00  0.00     0.002 A 
ATOM     70  C   UNL     1      16.091  12.008   1.921  1.00  0.00     0.091 A 
ATOM     71  F   UNL     1      15.133   9.873   1.741  1.00  0.00    -0.205 F 
ATOM     72  C   UNL     1      16.022  13.382   1.683  1.00  0.00     0.022 A 
BRANCH  70  73
ATOM     73  S   UNL     1      17.661  11.323   2.459  1.00  0.00     0.127 S 
ATOM     74  O   UNL     1      18.437  11.364   1.227  1.00  0.00    -0.237 OA
ATOM     75  O   UNL     1      18.069  12.276   3.488  1.00  0.00    -0.237 OA
ATOM     76  O   UNL     1      17.342   9.992   2.976  1.00  0.00    -0.744 OA
ENDBRANCH  70  73
ENDBRANCH  52  66
BRANCH  53  77
ATOM     77  C   UNL     1      15.736   5.168  -3.800  1.00  0.00     0.023 A 
ATOM     78  C   UNL     1      16.530   5.663  -4.855  1.00  0.00     0.012 A 
ATOM     79  C   UNL     1      16.304   4.195  -2.946  1.00  0.00     0.148 A 
ATOM     80  C   UNL     1      17.857   5.250  -5.019  1.00  0.00     0.002 A 
ATOM     81  C   UNL     1      17.620   3.776  -3.123  1.00  0.00     0.091 A 
ATOM     82  F   UNL     1      15.597   3.752  -1.899  1.00  0.00    -0.205 F 
ATOM     83  C   UNL     1      18.406   4.315  -4.147  1.00  0.00     0.022 A 
BRANCH  81  84
ATOM     84  S   UNL     1      18.392   2.574  -2.028  1.00  0.00     0.127 S 
ATOM     85  O   UNL     1      19.086   1.700  -2.975  1.00  0.00    -0.237 OA
ATOM     86  O   UNL     1      19.267   3.418  -1.220  1.00  0.00    -0.237 OA
ATOM     87  O   UNL     1      17.296   1.928  -1.316  1.00  0.00    -0.744 OA
ENDBRANCH  81  84
ENDBRANCH  53  77
BRANCH  65  88
ATOM     88  C   UNL     1      10.776   9.084  -4.175  1.00  0.00     0.023 A 
ATOM     89  C   UNL     1      10.234   7.803  -3.935  1.00  0.00     0.012 A 
ATOM     90  C   UNL     1      10.130   9.942  -5.078  1.00  0.00     0.148 A 
ATOM     91  C   UNL     1       9.070   7.386  -4.588  1.00  0.00     0.002 A 
ATOM     92  C   UNL     1       8.954   9.538  -5.697  1.00  0.00     0.091 A 
ATOM     93  F   UNL     1      10.653  11.161  -5.272  1.00  0.00    -0.205 F 
ATOM     94  C   UNL     1       8.423   8.260  -5.459  1.00  0.00     0.022 A 
BRANCH  92  95
ATOM     95  S   UNL     1       8.004  10.647  -6.740  1.00  0.00     0.127 S 
ATOM     96  O   UNL     1       8.125  10.013  -8.051  1.00  0.00    -0.237 OA
ATOM     97  O   UNL     1       6.671  10.567  -6.142  1.00  0.00    -0.237 OA
ATOM     98  O   UNL     1       8.636  11.956  -6.623  1.00  0.00    -0.744 OA
ENDBRANCH  92  95
ENDBRANCH  65  88
ENDBRANCH  39  40
ENDBRANCH  31  34
ENDBRANCH  29  30
ENDBRANCH  28  29
ENDBRANCH   1  28
TORSDOF 20
