REMARK SMILES Nc1oc(-c2ccccc2)cc1C(=O)NCCCCNC(=O)c1ccc(-c2c3nc(c(-c4cccc(S(=O)(=O)[O-])c4F)c4ccc([nH]4)c(-c4cccc(S(=O)(=O)[O-])c4F)c4nc(c(-c5cccc(S(=O)(=O)[O-])c5F)c5ccc2[nH]5)C=C4)C=C3)cc1
REMARK SMILES IDX 18 1 17 2 16 3 15 4 13 5 14 6 12 8 2 9 3 10 4 11 11 12 1 13
REMARK SMILES IDX 5 16 6 17 10 18 7 19 9 20 8 21 19 22 20 23 21 24 22 26 23 27
REMARK SMILES IDX 24 28 85 29 25 30 84 31 26 32 27 33 28 34 78 35 29 36 83 37
REMARK SMILES IDX 77 38 79 39 30 40 82 41 76 42 75 43 31 45 63 46 43 47 62 48
REMARK SMILES IDX 44 49 47 50 61 51 80 52 45 53 46 54 60 56 81 57 48 58 32 59
REMARK SMILES IDX 33 60 41 61 34 62 36 63 42 64 35 65 37 66 38 67 39 68 40 69
REMARK SMILES IDX 64 70 65 71 73 72 66 73 68 74 74 75 67 76 69 77 70 78 71 79
REMARK SMILES IDX 72 80 49 81 50 82 58 83 51 84 53 85 59 86 52 87 54 88 55 89
REMARK SMILES IDX 56 90 57 91
REMARK H PARENT 15 7 1 14 1 15 20 25 79 44 47 55
REMARK Flexibility Score: inf
ROOT
ATOM      1  C   UNL     1      -5.335  -0.055  -3.523  1.00  0.00     0.023 C 
ENDROOT
BRANCH   1   2
ATOM      2  C   UNL     1      -4.125  -0.999  -3.409  1.00  0.00     0.023 C 
BRANCH   2   3
ATOM      3  C   UNL     1      -2.787  -0.400  -3.865  1.00  0.00     0.116 C 
BRANCH   3   4
ATOM      4  N   UNL     1      -2.245   0.507  -2.873  1.00  0.00    -0.352 N 
ATOM      5  C   UNL     1      -1.359   0.329  -1.837  1.00  0.00     0.256 C 
ATOM      6  O   UNL     1      -1.131   1.309  -1.125  1.00  0.00    -0.269 OA
ATOM      7  H   UNL     1      -2.576   1.431  -2.957  1.00  0.00     0.163 HD
BRANCH   5   8
ATOM      8  C   UNL     1      -0.717  -0.955  -1.589  1.00  0.00     0.103 A 
ATOM      9  C   UNL     1       0.409  -1.108  -0.789  1.00  0.00     0.203 A 
ATOM     10  O   UNL     1       0.842  -2.398  -0.774  1.00  0.00    -0.440 OA
ATOM     11  C   UNL     1      -0.008  -3.095  -1.570  1.00  0.00     0.137 A 
ATOM     12  C   UNL     1      -1.011  -2.273  -2.030  1.00  0.00     0.067 A 
BRANCH   9  13
ATOM     13  N   UNL     1       1.134  -0.238  -0.080  1.00  0.00    -0.369 N 
ATOM     14  H   UNL     1       1.914  -0.550   0.433  1.00  0.00     0.159 HD
ATOM     15  H   UNL     1       0.887   0.715  -0.069  1.00  0.00     0.159 HD
ENDBRANCH   9  13
BRANCH  11  16
ATOM     16  C   UNL     1       0.272  -4.493  -1.814  1.00  0.00     0.017 A 
ATOM     17  C   UNL     1       0.136  -5.443  -0.799  1.00  0.00     0.012 A 
ATOM     18  C   UNL     1       0.553  -4.917  -3.121  1.00  0.00     0.012 A 
ATOM     19  C   UNL     1       0.237  -6.804  -1.097  1.00  0.00     0.001 A 
ATOM     20  C   UNL     1       0.663  -6.275  -3.416  1.00  0.00     0.001 A 
ATOM     21  C   UNL     1       0.491  -7.219  -2.406  1.00  0.00     0.000 A 
ENDBRANCH  11  16
ENDBRANCH   5   8
ENDBRANCH   3   4
ENDBRANCH   2   3
ENDBRANCH   1   2
BRANCH   1  22
ATOM     22  C   UNL     1      -5.719   0.315  -4.950  1.00  0.00     0.116 C 
BRANCH  22  23
ATOM     23  N   UNL     1      -6.132  -0.841  -5.763  1.00  0.00    -0.352 N 
ATOM     24  C   UNL     1      -6.367  -0.875  -7.128  1.00  0.00     0.251 C 
ATOM     25  H   UNL     1      -6.257  -1.689  -5.279  1.00  0.00     0.163 HD
ATOM     26  O   UNL     1      -7.058  -1.755  -7.641  1.00  0.00    -0.269 OA
BRANCH  24  27
ATOM     27  C   UNL     1      -5.727   0.153  -7.958  1.00  0.00     0.039 A 
ATOM     28  C   UNL     1      -6.379   0.837  -8.989  1.00  0.00     0.014 A 
ATOM     29  C   UNL     1      -4.427   0.474  -7.593  1.00  0.00     0.014 A 
ATOM     30  C   UNL     1      -5.715   1.900  -9.601  1.00  0.00     0.010 A 
ATOM     31  C   UNL     1      -3.905   1.662  -7.998  1.00  0.00     0.010 A 
ATOM     32  C   UNL     1      -4.476   2.306  -9.086  1.00  0.00    -0.014 A 
BRANCH  32  33
ATOM     33  C   UNL     1      -3.734   3.445  -9.599  1.00  0.00     0.031 A 
ATOM     34  C   UNL     1      -4.457   4.739  -9.516  1.00  0.00     0.074 A 
ATOM     35  C   UNL     1      -2.406   3.346  -9.846  1.00  0.00     0.049 A 
ATOM     36  N   UNL     1      -4.903   5.454 -10.495  1.00  0.00    -0.248 NA
ATOM     37  C   UNL     1      -4.882   5.217  -8.190  1.00  0.00     0.031 C 
ATOM     38  C   UNL     1      -1.521   2.185  -9.630  1.00  0.00     0.029 A 
ATOM     39  N   UNL     1      -1.524   4.318 -10.185  1.00  0.00    -0.354 N 
ATOM     40  C   UNL     1      -5.421   6.605  -9.905  1.00  0.00     0.074 A 
ATOM     41  C   UNL     1      -5.604   6.293  -8.513  1.00  0.00     0.031 C 
ATOM     42  C   UNL     1      -0.237   2.597  -9.574  1.00  0.00     0.029 A 
ATOM     43  C   UNL     1      -0.191   3.997  -9.941  1.00  0.00     0.049 A 
ATOM     44  H   UNL     1      -1.802   5.180 -10.572  1.00  0.00     0.167 HD
ATOM     45  C   UNL     1      -5.376   7.805 -10.549  1.00  0.00     0.034 A 
ATOM     46  C   UNL     1       0.868   4.841  -9.990  1.00  0.00     0.034 A 
ATOM     47  C   UNL     1      -5.050   7.633 -11.945  1.00  0.00     0.049 A 
ATOM     48  C   UNL     1       0.452   5.997 -10.816  1.00  0.00     0.074 A 
ATOM     49  C   UNL     1      -5.610   6.948 -13.005  1.00  0.00     0.029 A 
ATOM     50  N   UNL     1      -3.748   7.889 -12.308  1.00  0.00    -0.354 N 
ATOM     51  N   UNL     1       0.142   5.893 -12.079  1.00  0.00    -0.248 NA
ATOM     52  C   UNL     1      -0.092   7.156 -10.128  1.00  0.00     0.031 C 
ATOM     53  C   UNL     1      -4.497   6.406 -13.715  1.00  0.00     0.029 A 
ATOM     54  C   UNL     1      -3.325   6.855 -13.100  1.00  0.00     0.049 A 
ATOM     55  H   UNL     1      -3.216   8.674 -12.045  1.00  0.00     0.167 HD
ATOM     56  C   UNL     1      -0.994   6.681 -12.219  1.00  0.00     0.074 A 
ATOM     57  C   UNL     1      -1.024   7.516 -11.016  1.00  0.00     0.031 C 
ATOM     58  C   UNL     1      -1.960   6.374 -13.136  1.00  0.00     0.034 A 
BRANCH  45  59
ATOM     59  C   UNL     1      -5.218   9.154  -9.878  1.00  0.00     0.023 A 
ATOM     60  C   UNL     1      -5.330  10.296 -10.704  1.00  0.00     0.012 A 
ATOM     61  C   UNL     1      -4.692   9.355  -8.581  1.00  0.00     0.148 A 
ATOM     62  C   UNL     1      -4.878  11.553 -10.289  1.00  0.00     0.002 A 
ATOM     63  C   UNL     1      -4.312  10.620  -8.146  1.00  0.00     0.091 A 
ATOM     64  F   UNL     1      -4.422   8.312  -7.794  1.00  0.00    -0.205 F 
ATOM     65  C   UNL     1      -4.370  11.717  -9.007  1.00  0.00     0.022 A 
BRANCH  63  66
ATOM     66  S   UNL     1      -3.682  10.894  -6.484  1.00  0.00     0.127 S 
ATOM     67  O   UNL     1      -2.260  11.096  -6.744  1.00  0.00    -0.237 OA
ATOM     68  O   UNL     1      -4.418  12.093  -6.081  1.00  0.00    -0.237 OA
ATOM     69  O   UNL     1      -4.035   9.697  -5.731  1.00  0.00    -0.744 OA
ENDBRANCH  63  66
ENDBRANCH  45  59
BRANCH  46  70
ATOM     70  C   UNL     1       2.076   4.860  -9.132  1.00  0.00     0.023 A 
ATOM     71  C   UNL     1       3.251   5.501  -9.569  1.00  0.00     0.012 A 
ATOM     72  C   UNL     1       1.988   4.485  -7.772  1.00  0.00     0.148 A 
ATOM     73  C   UNL     1       4.296   5.776  -8.676  1.00  0.00     0.002 A 
ATOM     74  C   UNL     1       3.031   4.753  -6.891  1.00  0.00     0.091 A 
ATOM     75  F   UNL     1       0.845   3.944  -7.328  1.00  0.00    -0.205 F 
ATOM     76  C   UNL     1       4.184   5.409  -7.337  1.00  0.00     0.022 A 
BRANCH  74  77
ATOM     77  S   UNL     1       2.945   4.327  -5.146  1.00  0.00     0.127 S 
ATOM     78  O   UNL     1       4.187   3.576  -4.961  1.00  0.00    -0.237 OA
ATOM     79  O   UNL     1       2.924   5.643  -4.514  1.00  0.00    -0.237 OA
ATOM     80  O   UNL     1       1.732   3.532  -4.992  1.00  0.00    -0.744 OA
ENDBRANCH  74  77
ENDBRANCH  46  70
BRANCH  58  81
ATOM     81  C   UNL     1      -1.674   5.264 -14.123  1.00  0.00     0.023 A 
ATOM     82  C   UNL     1      -1.531   3.916 -13.728  1.00  0.00     0.012 A 
ATOM     83  C   UNL     1      -1.740   5.559 -15.494  1.00  0.00     0.148 A 
ATOM     84  C   UNL     1      -1.438   2.890 -14.674  1.00  0.00     0.002 A 
ATOM     85  C   UNL     1      -1.689   4.533 -16.431  1.00  0.00     0.091 A 
ATOM     86  F   UNL     1      -1.892   6.841 -15.856  1.00  0.00    -0.205 F 
ATOM     87  C   UNL     1      -1.530   3.198 -16.027  1.00  0.00     0.022 A 
BRANCH  85  88
ATOM     88  S   UNL     1      -1.924   4.846 -18.181  1.00  0.00     0.127 S 
ATOM     89  O   UNL     1      -0.586   4.604 -18.716  1.00  0.00    -0.237 OA
ATOM     90  O   UNL     1      -2.921   3.837 -18.547  1.00  0.00    -0.237 OA
ATOM     91  O   UNL     1      -2.400   6.220 -18.287  1.00  0.00    -0.744 OA
ENDBRANCH  85  88
ENDBRANCH  58  81
ENDBRANCH  32  33
ENDBRANCH  24  27
ENDBRANCH  22  23
ENDBRANCH   1  22
TORSDOF 16
