REMARK SMILES C[C@H](C(=O)NCCCCNC(=O)c1ccc(-c2c3nc(c(-c4cccc(S(=O)(=O)[O-])c4F)c4ccc([nH]4)c(-c4cccc(S(=O)(=O)[O-])c4F)c4nc(c(-c5cccc(S(=O)(=O)[O-])c5F)c5ccc2[nH]5)C=C4)C=C3)cc1)c1ccc2c3cc(Cl)ccc3n(C(=O)c3ccc(Cl)cc3)c2c1
REMARK SMILES IDX 7 1 6 2 5 3 3 4 4 5 2 7 1 8 76 9 77 10 98 11 78 12 97 13
REMARK SMILES IDX 79 14 87 15 80 16 86 17 81 18 85 19 82 20 84 21 83 22 88 23
REMARK SMILES IDX 89 24 90 25 91 26 96 27 92 28 95 29 93 30 94 31 8 32 9 33
REMARK SMILES IDX 10 34 11 35 12 37 13 38 14 39 75 40 15 41 74 42 16 43 17 44
REMARK SMILES IDX 18 45 68 46 19 47 73 48 67 49 69 50 20 51 72 52 66 53 65 54
REMARK SMILES IDX 21 56 53 57 33 58 52 59 34 60 37 61 51 62 70 63 35 64 36 65
REMARK SMILES IDX 50 67 71 68 38 69 22 70 23 71 31 72 24 73 26 74 32 75 25 76
REMARK SMILES IDX 27 77 28 78 29 79 30 80 54 81 55 82 63 83 56 84 58 85 64 86
REMARK SMILES IDX 57 87 59 88 60 89 61 90 62 91 39 92 40 93 48 94 41 95 43 96
REMARK SMILES IDX 49 97 42 98 44 99 45 100 46 101 47 102
REMARK H PARENT 5 6 10 36 69 55 37 66
REMARK Flexibility Score: inf
ROOT
ATOM      1  C   UNL     1      -0.847  -2.135   0.343  1.00  0.00     0.023 C 
ENDROOT
BRANCH   1   2
ATOM      2  C   UNL     1      -0.529  -0.827   1.064  1.00  0.00     0.116 C 
BRANCH   2   3
ATOM      3  N   UNL     1       0.801  -0.356   0.747  1.00  0.00    -0.356 N 
ATOM      4  C   UNL     1       1.308   0.425  -0.235  1.00  0.00     0.227 C 
ATOM      5  O   UNL     1       2.533   0.615  -0.156  1.00  0.00    -0.274 OA
ATOM      6  H   UNL     1       1.485  -0.671   1.382  1.00  0.00     0.163 HD
BRANCH   4   7
ATOM      7  C   UNL     1       0.556   1.069  -1.412  1.00  0.00     0.105 C 
ATOM      8  C   UNL     1       1.136   0.532  -2.728  1.00  0.00     0.023 C 
BRANCH   7   9
ATOM      9  C   UNL     1      -0.964   1.122  -1.463  1.00  0.00    -0.034 A 
ATOM     10  C   UNL     1      -1.623   2.331  -1.223  1.00  0.00     0.005 A 
ATOM     11  C   UNL     1      -1.735  -0.001  -1.806  1.00  0.00     0.032 A 
ATOM     12  C   UNL     1      -3.019   2.419  -1.274  1.00  0.00     0.011 A 
ATOM     13  C   UNL     1      -3.145   0.044  -1.697  1.00  0.00     0.057 A 
ATOM     14  C   UNL     1      -3.788   1.251  -1.458  1.00  0.00     0.008 A 
ATOM     15  N   UNL     1      -4.115  -0.983  -1.733  1.00  0.00    -0.276 N 
ATOM     16  C   UNL     1      -5.181   0.987  -1.428  1.00  0.00     0.009 A 
ATOM     17  C   UNL     1      -5.345  -0.407  -1.369  1.00  0.00     0.057 A 
ATOM     18  C   UNL     1      -6.304   1.838  -1.337  1.00  0.00     0.031 A 
ATOM     19  C   UNL     1      -6.604  -0.938  -1.030  1.00  0.00     0.029 A 
ATOM     20  C   UNL     1      -7.565   1.288  -1.133  1.00  0.00     0.041 A 
ATOM     21  C   UNL     1      -7.709  -0.077  -0.938  1.00  0.00     0.023 A 
ATOM     22  Cl  UNL     1      -8.943   2.317  -1.082  1.00  0.00    -0.084 Cl
BRANCH  15  23
ATOM     23  C   UNL     1      -3.797  -2.337  -2.054  1.00  0.00     0.262 C 
ATOM     24  O   UNL     1      -2.746  -2.527  -2.672  1.00  0.00    -0.268 OA
BRANCH  23  25
ATOM     25  C   UNL     1      -4.505  -3.587  -1.701  1.00  0.00     0.040 A 
ATOM     26  C   UNL     1      -3.733  -4.575  -1.062  1.00  0.00     0.015 A 
ATOM     27  C   UNL     1      -5.800  -3.899  -2.110  1.00  0.00     0.015 A 
ATOM     28  C   UNL     1      -4.268  -5.829  -0.764  1.00  0.00     0.021 A 
ATOM     29  C   UNL     1      -6.350  -5.148  -1.784  1.00  0.00     0.021 A 
ATOM     30  C   UNL     1      -5.585  -6.104  -1.112  1.00  0.00     0.041 A 
ATOM     31  Cl  UNL     1      -6.257  -7.646  -0.751  1.00  0.00    -0.084 Cl
ENDBRANCH  23  25
ENDBRANCH  15  23
ENDBRANCH   7   9
ENDBRANCH   4   7
ENDBRANCH   2   3
ENDBRANCH   1   2
BRANCH   1  32
ATOM     32  C   UNL     1      -0.566  -3.405   1.135  1.00  0.00     0.023 C 
BRANCH  32  33
ATOM     33  C   UNL     1      -1.435  -3.603   2.371  1.00  0.00     0.116 C 
BRANCH  33  34
ATOM     34  N   UNL     1      -2.872  -3.498   2.123  1.00  0.00    -0.352 N 
ATOM     35  C   UNL     1      -3.894  -4.299   2.593  1.00  0.00     0.251 C 
ATOM     36  H   UNL     1      -3.149  -2.755   1.540  1.00  0.00     0.163 HD
ATOM     37  O   UNL     1      -5.044  -4.121   2.223  1.00  0.00    -0.269 OA
BRANCH  35  38
ATOM     38  C   UNL     1      -3.556  -5.394   3.528  1.00  0.00     0.039 A 
ATOM     39  C   UNL     1      -3.982  -6.697   3.257  1.00  0.00     0.014 A 
ATOM     40  C   UNL     1      -2.732  -5.129   4.622  1.00  0.00     0.014 A 
ATOM     41  C   UNL     1      -3.487  -7.754   4.027  1.00  0.00     0.010 A 
ATOM     42  C   UNL     1      -2.173  -6.186   5.324  1.00  0.00     0.010 A 
ATOM     43  C   UNL     1      -2.537  -7.510   5.032  1.00  0.00    -0.014 A 
BRANCH  43  44
ATOM     44  C   UNL     1      -1.880  -8.595   5.806  1.00  0.00     0.031 A 
ATOM     45  C   UNL     1      -2.000  -8.601   7.306  1.00  0.00     0.074 A 
ATOM     46  C   UNL     1      -1.038  -9.449   5.189  1.00  0.00     0.049 A 
ATOM     47  N   UNL     1      -1.325  -9.290   8.187  1.00  0.00    -0.248 NA
ATOM     48  C   UNL     1      -2.972  -7.662   7.894  1.00  0.00     0.031 C 
ATOM     49  C   UNL     1      -0.767  -9.487   3.750  1.00  0.00     0.029 A 
ATOM     50  N   UNL     1      -0.209 -10.415   5.706  1.00  0.00    -0.354 N 
ATOM     51  C   UNL     1      -1.736  -8.819   9.428  1.00  0.00     0.074 A 
ATOM     52  C   UNL     1      -2.703  -7.771   9.187  1.00  0.00     0.031 C 
ATOM     53  C   UNL     1       0.172 -10.415   3.502  1.00  0.00     0.029 A 
ATOM     54  C   UNL     1       0.598 -11.012   4.764  1.00  0.00     0.049 A 
ATOM     55  H   UNL     1      -0.194 -10.658   6.660  1.00  0.00     0.167 HD
ATOM     56  C   UNL     1      -1.361  -9.239  10.659  1.00  0.00     0.034 A 
ATOM     57  C   UNL     1       1.585 -11.919   4.903  1.00  0.00     0.034 A 
ATOM     58  C   UNL     1      -0.473 -10.344  10.891  1.00  0.00     0.049 A 
ATOM     59  C   UNL     1       1.917 -12.432   6.279  1.00  0.00     0.074 A 
ATOM     60  C   UNL     1      -0.142 -10.942  12.093  1.00  0.00     0.029 A 
ATOM     61  N   UNL     1       0.219 -11.020   9.900  1.00  0.00    -0.354 N 
ATOM     62  N   UNL     1       1.393 -12.096   7.433  1.00  0.00    -0.248 NA
ATOM     63  C   UNL     1       2.956 -13.470   6.373  1.00  0.00     0.031 C 
ATOM     64  C   UNL     1       0.759 -11.978  11.829  1.00  0.00     0.029 A 
ATOM     65  C   UNL     1       0.982 -12.028  10.462  1.00  0.00     0.049 A 
ATOM     66  H   UNL     1       0.175 -10.815   8.938  1.00  0.00     0.167 HD
ATOM     67  C   UNL     1       2.013 -12.900   8.383  1.00  0.00     0.074 A 
ATOM     68  C   UNL     1       2.937 -13.755   7.668  1.00  0.00     0.031 C 
ATOM     69  C   UNL     1       1.847 -12.914   9.728  1.00  0.00     0.034 A 
BRANCH  56  70
ATOM     70  C   UNL     1      -1.966  -8.547  11.850  1.00  0.00     0.023 A 
ATOM     71  C   UNL     1      -3.321  -8.773  12.170  1.00  0.00     0.012 A 
ATOM     72  C   UNL     1      -1.187  -7.722  12.684  1.00  0.00     0.148 A 
ATOM     73  C   UNL     1      -3.900  -8.160  13.280  1.00  0.00     0.002 A 
ATOM     74  C   UNL     1      -1.760  -7.149  13.813  1.00  0.00     0.091 A 
ATOM     75  F   UNL     1       0.093  -7.500  12.350  1.00  0.00    -0.205 F 
ATOM     76  C   UNL     1      -3.118  -7.358  14.106  1.00  0.00     0.022 A 
BRANCH  74  77
ATOM     77  S   UNL     1      -0.819  -6.161  14.981  1.00  0.00     0.127 S 
ATOM     78  O   UNL     1      -1.312  -4.815  14.694  1.00  0.00    -0.237 OA
ATOM     79  O   UNL     1      -1.252  -6.707  16.268  1.00  0.00    -0.237 OA
ATOM     80  O   UNL     1       0.583  -6.396  14.665  1.00  0.00    -0.744 OA
ENDBRANCH  74  77
ENDBRANCH  56  70
BRANCH  57  81
ATOM     81  C   UNL     1       2.289 -12.450   3.700  1.00  0.00     0.023 A 
ATOM     82  C   UNL     1       2.043 -13.775   3.293  1.00  0.00     0.012 A 
ATOM     83  C   UNL     1       3.171 -11.653   2.946  1.00  0.00     0.148 A 
ATOM     84  C   UNL     1       2.685 -14.308   2.174  1.00  0.00     0.002 A 
ATOM     85  C   UNL     1       3.767 -12.173   1.802  1.00  0.00     0.091 A 
ATOM     86  F   UNL     1       3.406 -10.399   3.357  1.00  0.00    -0.205 F 
ATOM     87  C   UNL     1       3.538 -13.505   1.423  1.00  0.00     0.022 A 
BRANCH  85  88
ATOM     88  S   UNL     1       4.774 -11.166   0.705  1.00  0.00     0.127 S 
ATOM     89  O   UNL     1       6.123 -11.605   1.049  1.00  0.00    -0.237 OA
ATOM     90  O   UNL     1       4.306 -11.588  -0.616  1.00  0.00    -0.237 OA
ATOM     91  O   UNL     1       4.444  -9.787   1.040  1.00  0.00    -0.744 OA
ENDBRANCH  85  88
ENDBRANCH  57  81
BRANCH  69  92
ATOM     92  C   UNL     1       2.655 -13.902  10.525  1.00  0.00     0.023 A 
ATOM     93  C   UNL     1       4.023 -13.655  10.754  1.00  0.00     0.012 A 
ATOM     94  C   UNL     1       2.039 -15.012  11.133  1.00  0.00     0.148 A 
ATOM     95  C   UNL     1       4.770 -14.510  11.562  1.00  0.00     0.002 A 
ATOM     96  C   UNL     1       2.779 -15.835  11.973  1.00  0.00     0.091 A 
ATOM     97  F   UNL     1       0.740 -15.237  10.887  1.00  0.00    -0.205 F 
ATOM     98  C   UNL     1       4.146 -15.591  12.182  1.00  0.00     0.022 A 
BRANCH  96  99
ATOM     99  S   UNL     1       2.038 -17.193  12.888  1.00  0.00     0.127 S 
ATOM    100  O   UNL     1       2.562 -18.355  12.173  1.00  0.00    -0.237 OA
ATOM    101  O   UNL     1       2.591 -17.002  14.230  1.00  0.00    -0.237 OA
ATOM    102  O   UNL     1       0.598 -16.998  12.796  1.00  0.00    -0.744 OA
ENDBRANCH  96  99
ENDBRANCH  69  92
ENDBRANCH  43  44
ENDBRANCH  35  38
ENDBRANCH  33  34
ENDBRANCH  32  33
ENDBRANCH   1  32
TORSDOF 17
