REMARK SMILES COc1ccc(-c2ccc3n(c2=O)C[C@H]2C[C@@H]3CN(C(=O)CCCC(=O)NCCCCNC(=O)c3ccc(-c4c5nc(c(-c6cccc(S(=O)(=O)[O-])c6F)c6ccc([nH]6)c(-c6cccc(S(=O)(=O)[O-])c6F)c6nc(c(-c7cccc(S(=O)(=O)[O-])c7F)c7ccc4[nH]7)C=C6)C=C5)cc3)C2)cc1
REMARK SMILES IDX 28 1 27 2 25 3 26 4 24 6 23 7 22 8 20 9 21 10 19 11 7 12
REMARK SMILES IDX 8 13 12 14 9 15 11 16 13 17 10 18 14 19 17 20 15 21 16 22
REMARK SMILES IDX 18 23 98 24 6 25 3 26 4 27 100 28 5 29 99 30 2 31 1 32 29 33
REMARK SMILES IDX 30 34 31 35 32 36 33 37 34 39 35 40 36 41 97 42 37 43 96 44
REMARK SMILES IDX 38 45 39 46 40 47 90 48 41 49 95 50 89 51 91 52 42 53 94 54
REMARK SMILES IDX 88 55 87 56 43 58 75 59 55 60 74 61 56 62 59 63 73 64 92 65
REMARK SMILES IDX 57 66 58 67 72 69 93 70 60 71 44 72 45 73 53 74 46 75 48 76
REMARK SMILES IDX 54 77 47 78 49 79 50 80 51 81 52 82 76 83 77 84 85 85 78 86
REMARK SMILES IDX 80 87 86 88 79 89 81 90 82 91 83 92 84 93 61 94 62 95 70 96
REMARK SMILES IDX 63 97 65 98 71 99 64 100 66 101 67 102 68 103 69 104
REMARK H PARENT 27 5 32 38 91 57 59 68
REMARK Flexibility Score: inf
ROOT
ATOM      1  C   UNL     1      -1.611   0.382  13.457  1.00  0.00     0.116 C 
ENDROOT
BRANCH   1   2
ATOM      2  N   UNL     1      -2.670  -0.173  12.649  1.00  0.00    -0.356 N 
ATOM      3  C   UNL     1      -2.901  -0.222  11.316  1.00  0.00     0.220 C 
ATOM      4  O   UNL     1      -3.791  -1.006  10.960  1.00  0.00    -0.275 OA
ATOM      5  H   UNL     1      -3.375  -0.609  13.181  1.00  0.00     0.163 HD
BRANCH   3   6
ATOM      6  C   UNL     1      -2.119   0.531  10.240  1.00  0.00     0.100 C 
BRANCH   6   7
ATOM      7  C   UNL     1      -1.920   2.037  10.311  1.00  0.00     0.020 C 
BRANCH   7   8
ATOM      8  C   UNL     1      -0.793   2.669  11.123  1.00  0.00     0.101 C 
BRANCH   8   9
ATOM      9  C   UNL     1       0.683   2.530  10.737  1.00  0.00     0.222 C 
ATOM     10  O   UNL     1       1.204   3.510  10.186  1.00  0.00    -0.275 OA
BRANCH   9  11
ATOM     11  N   UNL     1       1.466   1.444  11.116  1.00  0.00    -0.342 N 
ATOM     12  C   UNL     1       2.209   0.703   6.239  1.00  0.00     0.047 A 
ATOM     13  C   UNL     1       3.219   1.476   6.670  1.00  0.00     0.016 A 
ATOM     14  C   UNL     1       1.573  -0.261   7.203  1.00  0.00     0.258 A 
ATOM     15  C   UNL     1       3.709   1.386   8.016  1.00  0.00     0.023 A 
ATOM     16  N   UNL     1       2.097  -0.282   8.504  1.00  0.00    -0.311 N 
ATOM     17  O   UNL     1       0.651  -0.992   6.840  1.00  0.00    -0.269 OA
ATOM     18  C   UNL     1       3.163   0.531   8.895  1.00  0.00     0.026 A 
ATOM     19  C   UNL     1       1.513  -1.260   9.420  1.00  0.00     0.131 C 
ATOM     20  C   UNL     1       3.639   0.512  10.338  1.00  0.00     0.056 C 
ATOM     21  C   UNL     1       1.844  -1.057  10.902  1.00  0.00     0.029 C 
ATOM     22  C   UNL     1       3.342  -0.823  11.019  1.00  0.00     0.019 C 
ATOM     23  C   UNL     1       2.922   1.632  11.114  1.00  0.00     0.129 C 
ATOM     24  C   UNL     1       1.061   0.107  11.548  1.00  0.00     0.125 C 
BRANCH  12  25
ATOM     25  C   UNL     1       1.766   0.789   4.839  1.00  0.00    -0.013 A 
ATOM     26  C   UNL     1       0.935   0.867   2.158  1.00  0.00     0.118 A 
ATOM     27  C   UNL     1       0.038   1.173   3.181  1.00  0.00     0.047 A 
ATOM     28  C   UNL     1       2.258   0.557   2.468  1.00  0.00     0.047 A 
ATOM     29  C   UNL     1       0.447   1.124   4.517  1.00  0.00     0.013 A 
ATOM     30  C   UNL     1       2.670   0.515   3.802  1.00  0.00     0.013 A 
BRANCH  26  31
ATOM     31  O   UNL     1       0.436   0.933   0.885  1.00  0.00    -0.497 OA
ATOM     32  C   UNL     1       0.982  -0.032  -0.011  1.00  0.00     0.278 C 
ENDBRANCH  26  31
ENDBRANCH  12  25
ENDBRANCH   9  11
ENDBRANCH   8   9
ENDBRANCH   7   8
ENDBRANCH   6   7
ENDBRANCH   3   6
ENDBRANCH   1   2
BRANCH   1  33
ATOM     33  C   UNL     1      -2.080   1.421  14.469  1.00  0.00     0.023 C 
BRANCH  33  34
ATOM     34  C   UNL     1      -2.099   0.898  15.901  1.00  0.00     0.023 C 
BRANCH  34  35
ATOM     35  C   UNL     1      -0.738   0.482  16.456  1.00  0.00     0.116 C 
BRANCH  35  36
ATOM     36  N   UNL     1       0.213   1.577  16.592  1.00  0.00    -0.352 N 
ATOM     37  C   UNL     1       1.068   1.827  17.643  1.00  0.00     0.251 C 
ATOM     38  H   UNL     1       0.248   2.216  15.844  1.00  0.00     0.163 HD
ATOM     39  O   UNL     1       1.769   2.835  17.652  1.00  0.00    -0.269 OA
BRANCH  37  40
ATOM     40  C   UNL     1       1.101   0.882  18.781  1.00  0.00     0.039 A 
ATOM     41  C   UNL     1       0.914   1.372  20.075  1.00  0.00     0.014 A 
ATOM     42  C   UNL     1       1.234  -0.490  18.556  1.00  0.00     0.014 A 
ATOM     43  C   UNL     1       0.791   0.474  21.138  1.00  0.00     0.010 A 
ATOM     44  C   UNL     1       1.022  -1.383  19.602  1.00  0.00     0.010 A 
ATOM     45  C   UNL     1       0.809  -0.913  20.906  1.00  0.00    -0.014 A 
BRANCH  45  46
ATOM     46  C   UNL     1       0.613  -1.879  22.019  1.00  0.00     0.031 A 
ATOM     47  C   UNL     1       1.703  -2.857  22.372  1.00  0.00     0.074 A 
ATOM     48  C   UNL     1      -0.568  -1.927  22.669  1.00  0.00     0.049 A 
ATOM     49  N   UNL     1       1.718  -3.773  23.306  1.00  0.00    -0.248 NA
ATOM     50  C   UNL     1       2.924  -2.826  21.549  1.00  0.00     0.031 C 
ATOM     51  C   UNL     1      -1.740  -1.106  22.358  1.00  0.00     0.029 A 
ATOM     52  N   UNL     1      -0.983  -2.711  23.716  1.00  0.00    -0.354 N 
ATOM     53  C   UNL     1       2.926  -4.444  23.161  1.00  0.00     0.074 A 
ATOM     54  C   UNL     1       3.597  -3.865  22.019  1.00  0.00     0.031 C 
ATOM     55  C   UNL     1      -2.734  -1.417  23.206  1.00  0.00     0.029 A 
ATOM     56  C   UNL     1      -2.280  -2.470  24.109  1.00  0.00     0.049 A 
ATOM     57  H   UNL     1      -0.407  -3.384  24.146  1.00  0.00     0.167 HD
ATOM     58  C   UNL     1       3.453  -5.425  23.931  1.00  0.00     0.034 A 
ATOM     59  C   UNL     1      -3.015  -3.028  25.091  1.00  0.00     0.034 A 
ATOM     60  C   UNL     1       2.811  -5.960  25.100  1.00  0.00     0.049 A 
ATOM     61  C   UNL     1      -2.382  -4.070  25.975  1.00  0.00     0.074 A 
ATOM     62  C   UNL     1       3.303  -6.882  26.007  1.00  0.00     0.029 A 
ATOM     63  N   UNL     1       1.534  -5.625  25.523  1.00  0.00    -0.354 N 
ATOM     64  N   UNL     1      -1.168  -4.562  25.932  1.00  0.00    -0.248 NA
ATOM     65  C   UNL     1      -3.207  -4.602  27.070  1.00  0.00     0.031 C 
ATOM     66  C   UNL     1       2.314  -7.119  26.968  1.00  0.00     0.029 A 
ATOM     67  C   UNL     1       1.216  -6.326  26.673  1.00  0.00     0.049 A 
ATOM     68  H   UNL     1       0.941  -4.982  25.072  1.00  0.00     0.167 HD
ATOM     69  C   UNL     1      -1.072  -5.437  27.009  1.00  0.00     0.074 A 
ATOM     70  C   UNL     1      -2.343  -5.383  27.703  1.00  0.00     0.031 C 
ATOM     71  C   UNL     1      -0.034  -6.227  27.380  1.00  0.00     0.034 A 
BRANCH  58  72
ATOM     72  C   UNL     1       4.824  -5.935  23.569  1.00  0.00     0.023 A 
ATOM     73  C   UNL     1       5.947  -5.105  23.768  1.00  0.00     0.012 A 
ATOM     74  C   UNL     1       5.010  -7.241  23.077  1.00  0.00     0.148 A 
ATOM     75  C   UNL     1       7.228  -5.551  23.445  1.00  0.00     0.002 A 
ATOM     76  C   UNL     1       6.295  -7.695  22.802  1.00  0.00     0.091 A 
ATOM     77  F   UNL     1       3.929  -8.008  22.874  1.00  0.00    -0.205 F 
ATOM     78  C   UNL     1       7.402  -6.848  22.973  1.00  0.00     0.022 A 
BRANCH  76  79
ATOM     79  S   UNL     1       6.635  -9.374  22.261  1.00  0.00     0.127 S 
ATOM     80  O   UNL     1       7.022  -9.161  20.867  1.00  0.00    -0.237 OA
ATOM     81  O   UNL     1       7.732  -9.765  23.146  1.00  0.00    -0.237 OA
ATOM     82  O   UNL     1       5.399 -10.118  22.459  1.00  0.00    -0.744 OA
ENDBRANCH  76  79
ENDBRANCH  58  72
BRANCH  59  83
ATOM     83  C   UNL     1      -4.406  -2.553  25.346  1.00  0.00     0.023 A 
ATOM     84  C   UNL     1      -4.681  -1.814  26.514  1.00  0.00     0.012 A 
ATOM     85  C   UNL     1      -5.448  -2.809  24.435  1.00  0.00     0.148 A 
ATOM     86  C   UNL     1      -5.975  -1.369  26.787  1.00  0.00     0.002 A 
ATOM     87  C   UNL     1      -6.724  -2.315  24.686  1.00  0.00     0.091 A 
ATOM     88  F   UNL     1      -5.170  -3.524  23.336  1.00  0.00    -0.205 F 
ATOM     89  C   UNL     1      -6.993  -1.610  25.869  1.00  0.00     0.022 A 
BRANCH  87  90
ATOM     90  S   UNL     1      -8.064  -2.464  23.499  1.00  0.00     0.127 S 
ATOM     91  O   UNL     1      -8.929  -3.446  24.146  1.00  0.00    -0.237 OA
ATOM     92  O   UNL     1      -8.593  -1.100  23.468  1.00  0.00    -0.237 OA
ATOM     93  O   UNL     1      -7.438  -2.890  22.255  1.00  0.00    -0.744 OA
ENDBRANCH  87  90
ENDBRANCH  59  83
BRANCH  71  94
ATOM     94  C   UNL     1      -0.215  -7.084  28.606  1.00  0.00     0.023 A 
ATOM     95  C   UNL     1      -1.068  -8.204  28.556  1.00  0.00     0.012 A 
ATOM     96  C   UNL     1       0.510  -6.819  29.784  1.00  0.00     0.148 A 
ATOM     97  C   UNL     1      -1.226  -9.026  29.671  1.00  0.00     0.002 A 
ATOM     98  C   UNL     1       0.387  -7.672  30.875  1.00  0.00     0.091 A 
ATOM     99  F   UNL     1       1.303  -5.738  29.820  1.00  0.00    -0.205 F 
ATOM    100  C   UNL     1      -0.490  -8.767  30.825  1.00  0.00     0.022 A 
BRANCH  98 101
ATOM    101  S   UNL     1       1.369  -7.471  32.366  1.00  0.00     0.127 S 
ATOM    102  O   UNL     1       0.384  -6.933  33.302  1.00  0.00    -0.237 OA
ATOM    103  O   UNL     1       1.793  -8.843  32.648  1.00  0.00    -0.237 OA
ATOM    104  O   UNL     1       2.455  -6.568  32.009  1.00  0.00    -0.744 OA
ENDBRANCH  98 101
ENDBRANCH  71  94
ENDBRANCH  45  46
ENDBRANCH  37  40
ENDBRANCH  35  36
ENDBRANCH  34  35
ENDBRANCH  33  34
ENDBRANCH   1  33
TORSDOF 20
