REMARK SMILES Cc1ccc(Cl)c(Nc2ccccc2C(=O)NCC(=O)NCCCCNC(=O)c2ccc(-c3c4nc(c(-c5cccc(S(=O)(=O)[O-])c5F)c5ccc([nH]5)c(-c5cccc(S(=O)(=O)[O-])c5F)c5nc(c(-c6cccc(S(=O)(=O)[O-])c6F)c6ccc3[nH]6)C=C5)C=C4)cc2)c1Cl
REMARK SMILES IDX 23 1 22 2 21 3 19 4 20 5 18 7 17 8 15 9 16 10 14 12 9 13
REMARK SMILES IDX 10 14 11 15 13 16 12 17 8 18 7 20 1 21 2 22 3 23 92 24 4 25
REMARK SMILES IDX 93 26 5 27 6 28 24 29 25 30 26 31 27 32 28 34 29 35 30 36
REMARK SMILES IDX 91 37 31 38 90 39 32 40 33 41 34 42 84 43 35 44 89 45 83 46
REMARK SMILES IDX 85 47 36 48 88 49 82 50 81 51 37 53 69 54 49 55 68 56 50 57
REMARK SMILES IDX 53 58 67 59 86 60 51 61 52 62 66 64 87 65 54 66 38 67 39 68
REMARK SMILES IDX 47 69 40 70 42 71 48 72 41 73 43 74 44 75 45 76 46 77 70 78
REMARK SMILES IDX 71 79 79 80 72 81 74 82 80 83 73 84 75 85 76 86 77 87 78 88
REMARK SMILES IDX 55 89 56 90 64 91 57 92 59 93 65 94 58 95 60 96 61 97 62 98
REMARK SMILES IDX 63 99
REMARK H PARENT 21 6 17 11 8 19 26 33 85 52 53 63
REMARK Flexibility Score: inf
ROOT
ATOM      1  C   UNL     1      -1.142  -3.707   3.982  1.00  0.00     0.023 C 
ENDROOT
BRANCH   1   2
ATOM      2  C   UNL     1      -1.646  -3.542   2.553  1.00  0.00     0.116 C 
BRANCH   2   3
ATOM      3  N   UNL     1      -2.546  -2.419   2.478  1.00  0.00    -0.355 N 
ATOM      4  C   UNL     1      -2.197  -1.108   2.350  1.00  0.00     0.239 C 
ATOM      5  O   UNL     1      -3.080  -0.251   2.425  1.00  0.00    -0.273 OA
ATOM      6  H   UNL     1      -3.508  -2.619   2.525  1.00  0.00     0.163 HD
BRANCH   4   7
ATOM      7  C   UNL     1      -0.807  -0.760   1.828  1.00  0.00     0.216 C 
BRANCH   7   8
ATOM      8  N   UNL     1       0.442  -1.227   2.393  1.00  0.00    -0.343 N 
ATOM      9  C   UNL     1       1.535  -1.829   1.813  1.00  0.00     0.253 C 
ATOM     10  O   UNL     1       2.612  -1.630   2.388  1.00  0.00    -0.269 OA
ATOM     11  H   UNL     1       0.523  -1.089   3.364  1.00  0.00     0.164 HD
BRANCH   9  12
ATOM     12  C   UNL     1       1.506  -2.861   0.714  1.00  0.00     0.063 A 
ATOM     13  C   UNL     1       0.810  -2.903  -0.517  1.00  0.00     0.051 A 
ATOM     14  C   UNL     1       0.911  -4.086  -1.298  1.00  0.00     0.027 A 
ATOM     15  C   UNL     1       1.723  -5.161  -0.941  1.00  0.00     0.002 A 
ATOM     16  C   UNL     1       2.335  -3.970   1.043  1.00  0.00     0.016 A 
ATOM     17  C   UNL     1       2.458  -5.093   0.226  1.00  0.00     0.001 A 
BRANCH  13  18
ATOM     18  N   UNL     1       0.110  -1.867  -1.172  1.00  0.00    -0.352 N 
ATOM     19  H   UNL     1      -0.629  -2.195  -1.735  1.00  0.00     0.167 HD
BRANCH  18  20
ATOM     20  C   UNL     1       0.242  -0.457  -1.193  1.00  0.00     0.077 A 
ATOM     21  C   UNL     1       2.694   2.286  -0.142  1.00  0.00     0.046 C 
ATOM     22  C   UNL     1       1.437   1.588  -0.582  1.00  0.00    -0.030 A 
ATOM     23  C   UNL     1       0.226   2.296  -0.595  1.00  0.00     0.006 A 
ATOM     24  C   UNL     1       1.445   0.222  -0.927  1.00  0.00     0.069 A 
ATOM     25  C   UNL     1      -0.955   1.673  -0.987  1.00  0.00     0.023 A 
ATOM     26  Cl  UNL     1       2.975  -0.582  -1.129  1.00  0.00    -0.082 Cl
ATOM     27  C   UNL     1      -0.943   0.315  -1.295  1.00  0.00     0.066 A 
ATOM     28  Cl  UNL     1      -2.458  -0.439  -1.681  1.00  0.00    -0.082 Cl
ENDBRANCH  18  20
ENDBRANCH  13  18
ENDBRANCH   9  12
ENDBRANCH   7   8
ENDBRANCH   4   7
ENDBRANCH   2   3
ENDBRANCH   1   2
BRANCH   1  29
ATOM     29  C   UNL     1      -2.261  -4.064   4.961  1.00  0.00     0.023 C 
BRANCH  29  30
ATOM     30  C   UNL     1      -3.025  -5.327   4.587  1.00  0.00     0.116 C 
BRANCH  30  31
ATOM     31  N   UNL     1      -2.153  -6.485   4.489  1.00  0.00    -0.352 N 
ATOM     32  C   UNL     1      -2.399  -7.764   4.932  1.00  0.00     0.251 C 
ATOM     33  H   UNL     1      -1.282  -6.337   4.054  1.00  0.00     0.163 HD
ATOM     34  O   UNL     1      -1.517  -8.608   4.939  1.00  0.00    -0.269 OA
BRANCH  32  35
ATOM     35  C   UNL     1      -3.755  -8.075   5.423  1.00  0.00     0.039 A 
ATOM     36  C   UNL     1      -3.905  -8.616   6.699  1.00  0.00     0.014 A 
ATOM     37  C   UNL     1      -4.869  -7.752   4.643  1.00  0.00     0.014 A 
ATOM     38  C   UNL     1      -5.188  -8.793   7.217  1.00  0.00     0.010 A 
ATOM     39  C   UNL     1      -6.141  -7.859   5.190  1.00  0.00     0.010 A 
ATOM     40  C   UNL     1      -6.313  -8.390   6.478  1.00  0.00    -0.014 A 
BRANCH  40  41
ATOM     41  C   UNL     1      -7.683  -8.516   7.034  1.00  0.00     0.031 A 
ATOM     42  C   UNL     1      -8.685  -9.414   6.359  1.00  0.00     0.074 A 
ATOM     43  C   UNL     1      -8.047  -7.758   8.087  1.00  0.00     0.049 A 
ATOM     44  N   UNL     1      -9.940  -9.617   6.662  1.00  0.00    -0.248 NA
ATOM     45  C   UNL     1      -8.229 -10.157   5.171  1.00  0.00     0.031 C 
ATOM     46  C   UNL     1      -7.190  -6.786   8.771  1.00  0.00     0.029 A 
ATOM     47  N   UNL     1      -9.245  -7.664   8.750  1.00  0.00    -0.354 N 
ATOM     48  C   UNL     1     -10.434 -10.469   5.682  1.00  0.00     0.074 A 
ATOM     49  C   UNL     1      -9.352 -10.728   4.759  1.00  0.00     0.031 C 
ATOM     50  C   UNL     1      -7.889  -6.197   9.756  1.00  0.00     0.029 A 
ATOM     51  C   UNL     1      -9.249  -6.727   9.758  1.00  0.00     0.049 A 
ATOM     52  H   UNL     1     -10.029  -8.216   8.526  1.00  0.00     0.167 HD
ATOM     53  C   UNL     1     -11.670 -11.009   5.576  1.00  0.00     0.034 A 
ATOM     54  C   UNL     1     -10.239  -6.336  10.584  1.00  0.00     0.034 A 
ATOM     55  C   UNL     1     -12.721 -10.802   6.534  1.00  0.00     0.049 A 
ATOM     56  C   UNL     1     -11.584  -7.005  10.477  1.00  0.00     0.074 A 
ATOM     57  C   UNL     1     -13.966 -11.402   6.582  1.00  0.00     0.029 A 
ATOM     58  N   UNL     1     -12.654  -9.926   7.604  1.00  0.00    -0.354 N 
ATOM     59  N   UNL     1     -11.971  -7.954   9.660  1.00  0.00    -0.248 NA
ATOM     60  C   UNL     1     -12.618  -6.577  11.430  1.00  0.00     0.031 C 
ATOM     61  C   UNL     1     -14.665 -10.866   7.667  1.00  0.00     0.029 A 
ATOM     62  C   UNL     1     -13.843  -9.956   8.310  1.00  0.00     0.049 A 
ATOM     63  H   UNL     1     -11.877  -9.365   7.828  1.00  0.00     0.167 HD
ATOM     64  C   UNL     1     -13.275  -8.266  10.029  1.00  0.00     0.074 A 
ATOM     65  C   UNL     1     -13.604  -7.420  11.157  1.00  0.00     0.031 C 
ATOM     66  C   UNL     1     -14.130  -9.159   9.474  1.00  0.00     0.034 A 
BRANCH  53  67
ATOM     67  C   UNL     1     -11.951 -11.923   4.414  1.00  0.00     0.023 A 
ATOM     68  C   UNL     1     -11.399 -13.219   4.397  1.00  0.00     0.012 A 
ATOM     69  C   UNL     1     -12.842 -11.534   3.395  1.00  0.00     0.148 A 
ATOM     70  C   UNL     1     -11.716 -14.111   3.373  1.00  0.00     0.002 A 
ATOM     71  C   UNL     1     -13.187 -12.443   2.402  1.00  0.00     0.091 A 
ATOM     72  F   UNL     1     -13.338 -10.289   3.420  1.00  0.00    -0.205 F 
ATOM     73  C   UNL     1     -12.619 -13.727   2.385  1.00  0.00     0.022 A 
BRANCH  71  74
ATOM     74  S   UNL     1     -14.403 -12.078   1.131  1.00  0.00     0.127 S 
ATOM     75  O   UNL     1     -13.577 -12.075  -0.075  1.00  0.00    -0.237 OA
ATOM     76  O   UNL     1     -15.314 -13.217   1.244  1.00  0.00    -0.237 OA
ATOM     77  O   UNL     1     -14.986 -10.792   1.487  1.00  0.00    -0.744 OA
ENDBRANCH  71  74
ENDBRANCH  53  67
BRANCH  54  78
ATOM     78  C   UNL     1      -9.990  -5.300  11.628  1.00  0.00     0.023 A 
ATOM     79  C   UNL     1     -10.010  -5.670  12.988  1.00  0.00     0.012 A 
ATOM     80  C   UNL     1      -9.751  -3.956  11.288  1.00  0.00     0.148 A 
ATOM     81  C   UNL     1      -9.846  -4.712  13.989  1.00  0.00     0.002 A 
ATOM     82  C   UNL     1      -9.531  -3.016  12.289  1.00  0.00     0.091 A 
ATOM     83  F   UNL     1      -9.750  -3.617   9.991  1.00  0.00    -0.205 F 
ATOM     84  C   UNL     1      -9.599  -3.387  13.640  1.00  0.00     0.022 A 
BRANCH  82  85
ATOM     85  S   UNL     1      -9.077  -1.318  11.920  1.00  0.00     0.127 S 
ATOM     86  O   UNL     1     -10.333  -0.613  12.159  1.00  0.00    -0.237 OA
ATOM     87  O   UNL     1      -8.027  -1.059  12.906  1.00  0.00    -0.237 OA
ATOM     88  O   UNL     1      -8.606  -1.337  10.541  1.00  0.00    -0.744 OA
ENDBRANCH  82  85
ENDBRANCH  54  78
BRANCH  66  89
ATOM     89  C   UNL     1     -15.489  -9.313  10.103  1.00  0.00     0.023 A 
ATOM     90  C   UNL     1     -16.454  -8.298   9.950  1.00  0.00     0.012 A 
ATOM     91  C   UNL     1     -15.834 -10.502  10.775  1.00  0.00     0.148 A 
ATOM     92  C   UNL     1     -17.731  -8.450  10.487  1.00  0.00     0.002 A 
ATOM     93  C   UNL     1     -17.124 -10.668  11.262  1.00  0.00     0.091 A 
ATOM     94  F   UNL     1     -14.896 -11.449  10.925  1.00  0.00    -0.205 F 
ATOM     95  C   UNL     1     -18.070  -9.638  11.131  1.00  0.00     0.022 A 
BRANCH  93  96
ATOM     96  S   UNL     1     -17.678 -12.203  12.013  1.00  0.00     0.127 S 
ATOM     97  O   UNL     1     -17.762 -11.832  13.424  1.00  0.00    -0.237 OA
ATOM     98  O   UNL     1     -18.970 -12.420  11.361  1.00  0.00    -0.237 OA
ATOM     99  O   UNL     1     -16.664 -13.197  11.687  1.00  0.00    -0.744 OA
ENDBRANCH  93  96
ENDBRANCH  66  89
ENDBRANCH  40  41
ENDBRANCH  32  35
ENDBRANCH  30  31
ENDBRANCH  29  30
ENDBRANCH   1  29
TORSDOF 18
