REMARK SMILES CC(C)=CCc1cccc2c(C(=O)NCCCCNC(=O)c3ccc(-c4c5nc(c(-c6cccc(S(=O)(=O)[O-])c6F)c6ccc([nH]6)c(-c6cccc(S(=O)(=O)[O-])c6F)c6nc(c(-c7cccc(S(=O)(=O)[O-])c7F)c7ccc4[nH]7)C=C6)C=C5)cc3)c[nH]c12
REMARK SMILES IDX 17 1 16 2 15 3 14 4 12 5 13 6 11 8 6 9 7 10 87 11 8 12 10 13
REMARK SMILES IDX 86 14 9 15 85 16 5 18 4 19 1 20 2 21 3 22 18 23 19 24 20 25
REMARK SMILES IDX 21 27 22 28 23 29 84 30 24 31 83 32 25 33 26 34 27 35 77 36
REMARK SMILES IDX 28 37 82 38 76 39 78 40 29 41 81 42 75 43 74 44 30 46 62 47
REMARK SMILES IDX 42 48 61 49 43 50 46 51 60 52 79 53 44 54 45 55 59 57 80 58
REMARK SMILES IDX 47 59 31 60 32 61 40 62 33 63 35 64 41 65 34 66 36 67 37 68
REMARK SMILES IDX 38 69 39 70 63 71 64 72 72 73 65 74 67 75 73 76 66 77 68 78
REMARK SMILES IDX 69 79 70 80 71 81 48 82 49 83 57 84 50 85 52 86 58 87 51 88
REMARK SMILES IDX 53 89 54 90 55 91 56 92
REMARK H PARENT 14 7 86 17 19 26 78 45 46 56
REMARK Flexibility Score: inf
ROOT
ATOM      1  C   UNL     1       8.209  -7.083   4.010  1.00  0.00     0.023 C 
ENDROOT
BRANCH   1   2
ATOM      2  C   UNL     1       6.906  -6.309   3.822  1.00  0.00     0.023 C 
BRANCH   2   3
ATOM      3  C   UNL     1       6.408  -6.147   2.391  1.00  0.00     0.116 C 
BRANCH   3   4
ATOM      4  N   UNL     1       6.084  -7.377   1.702  1.00  0.00    -0.352 N 
ATOM      5  C   UNL     1       5.131  -7.619   0.739  1.00  0.00     0.253 C 
ATOM      6  O   UNL     1       5.040  -8.770   0.307  1.00  0.00    -0.269 OA
ATOM      7  H   UNL     1       6.627  -8.157   1.960  1.00  0.00     0.163 HD
BRANCH   5   8
ATOM      8  C   UNL     1       4.191  -6.578   0.314  1.00  0.00     0.065 A 
ATOM      9  C   UNL     1       2.785  -3.266  -0.326  1.00  0.00    -0.020 A 
ATOM     10  C   UNL     1       3.887  -2.401  -0.185  1.00  0.00     0.006 A 
ATOM     11  C   UNL     1       3.051  -4.644  -0.173  1.00  0.00     0.050 A 
ATOM     12  C   UNL     1       5.178  -2.884  -0.016  1.00  0.00     0.001 A 
ATOM     13  C   UNL     1       4.328  -5.163   0.080  1.00  0.00     0.012 A 
ATOM     14  N   UNL     1       2.200  -5.722  -0.255  1.00  0.00    -0.360 N 
ATOM     15  C   UNL     1       5.410  -4.256   0.067  1.00  0.00     0.011 A 
ATOM     16  C   UNL     1       2.869  -6.878   0.019  1.00  0.00     0.097 A 
ATOM     17  H   UNL     1       1.243  -5.667  -0.479  1.00  0.00     0.166 HD
BRANCH   9  18
ATOM     18  C   UNL     1       1.423  -2.687  -0.627  1.00  0.00     0.065 C 
BRANCH  18  19
ATOM     19  C   UNL     1       0.706  -2.191   0.600  1.00  0.00    -0.024 C 
ATOM     20  C   UNL     1       0.861   0.261   0.076  1.00  0.00     0.039 C 
ATOM     21  C   UNL     1       0.435  -0.908   0.919  1.00  0.00    -0.080 C 
ATOM     22  C   UNL     1      -0.314  -0.595   2.186  1.00  0.00     0.039 C 
ENDBRANCH  18  19
ENDBRANCH   9  18
ENDBRANCH   5   8
ENDBRANCH   3   4
ENDBRANCH   2   3
ENDBRANCH   1   2
BRANCH   1  23
ATOM     23  C   UNL     1       9.367  -6.723   3.084  1.00  0.00     0.116 C 
BRANCH  23  24
ATOM     24  N   UNL     1       9.764  -5.322   3.134  1.00  0.00    -0.352 N 
ATOM     25  C   UNL     1      10.986  -4.753   3.416  1.00  0.00     0.251 C 
ATOM     26  H   UNL     1       9.045  -4.680   2.934  1.00  0.00     0.163 HD
ATOM     27  O   UNL     1      11.093  -3.529   3.452  1.00  0.00    -0.269 OA
BRANCH  25  28
ATOM     28  C   UNL     1      12.157  -5.604   3.727  1.00  0.00     0.039 A 
ATOM     29  C   UNL     1      12.929  -5.300   4.852  1.00  0.00     0.014 A 
ATOM     30  C   UNL     1      12.475  -6.715   2.944  1.00  0.00     0.014 A 
ATOM     31  C   UNL     1      13.947  -6.171   5.252  1.00  0.00     0.010 A 
ATOM     32  C   UNL     1      13.428  -7.627   3.393  1.00  0.00     0.010 A 
ATOM     33  C   UNL     1      14.166  -7.373   4.559  1.00  0.00    -0.014 A 
BRANCH  33  34
ATOM     34  C   UNL     1      15.120  -8.397   5.067  1.00  0.00     0.031 A 
ATOM     35  C   UNL     1      16.297  -8.830   4.235  1.00  0.00     0.074 A 
ATOM     36  C   UNL     1      14.865  -9.018   6.237  1.00  0.00     0.049 A 
ATOM     37  N   UNL     1      17.194  -9.747   4.491  1.00  0.00    -0.248 NA
ATOM     38  C   UNL     1      16.474  -8.170   2.931  1.00  0.00     0.031 C 
ATOM     39  C   UNL     1      13.703  -8.766   7.094  1.00  0.00     0.029 A 
ATOM     40  N   UNL     1      15.550 -10.009   6.897  1.00  0.00    -0.354 N 
ATOM     41  C   UNL     1      18.014  -9.803   3.371  1.00  0.00     0.074 A 
ATOM     42  C   UNL     1      17.488  -8.851   2.417  1.00  0.00     0.031 C 
ATOM     43  C   UNL     1      13.761  -9.572   8.166  1.00  0.00     0.029 A 
ATOM     44  C   UNL     1      14.947 -10.417   8.064  1.00  0.00     0.049 A 
ATOM     45  H   UNL     1      16.395 -10.391   6.565  1.00  0.00     0.167 HD
ATOM     46  C   UNL     1      19.125 -10.552   3.165  1.00  0.00     0.034 A 
ATOM     47  C   UNL     1      15.305 -11.364   8.954  1.00  0.00     0.034 A 
ATOM     48  C   UNL     1      19.681 -11.456   4.135  1.00  0.00     0.049 A 
ATOM     49  C   UNL     1      16.578 -12.134   8.732  1.00  0.00     0.074 A 
ATOM     50  C   UNL     1      20.859 -12.177   4.062  1.00  0.00     0.029 A 
ATOM     51  N   UNL     1      19.098 -11.766   5.354  1.00  0.00    -0.354 N 
ATOM     52  N   UNL     1      17.438 -12.039   7.747  1.00  0.00    -0.248 NA
ATOM     53  C   UNL     1      16.952 -13.113   9.763  1.00  0.00     0.031 C 
ATOM     54  C   UNL     1      20.982 -12.935   5.232  1.00  0.00     0.029 A 
ATOM     55  C   UNL     1      19.887 -12.673   6.040  1.00  0.00     0.049 A 
ATOM     56  H   UNL     1      18.247 -11.396   5.683  1.00  0.00     0.167 HD
ATOM     57  C   UNL     1      18.467 -12.922   8.054  1.00  0.00     0.074 A 
ATOM     58  C   UNL     1      18.137 -13.522   9.330  1.00  0.00     0.031 C 
ATOM     59  C   UNL     1      19.576 -13.224   7.333  1.00  0.00     0.034 A 
BRANCH  46  60
ATOM     60  C   UNL     1      19.857 -10.370   1.861  1.00  0.00     0.023 A 
ATOM     61  C   UNL     1      20.584  -9.183   1.637  1.00  0.00     0.012 A 
ATOM     62  C   UNL     1      19.880 -11.387   0.887  1.00  0.00     0.148 A 
ATOM     63  C   UNL     1      21.293  -8.995   0.452  1.00  0.00     0.002 A 
ATOM     64  C   UNL     1      20.624 -11.210  -0.274  1.00  0.00     0.091 A 
ATOM     65  F   UNL     1      19.166 -12.501   1.107  1.00  0.00    -0.205 F 
ATOM     66  C   UNL     1      21.321 -10.012  -0.498  1.00  0.00     0.022 A 
BRANCH  64  67
ATOM     67  S   UNL     1      20.788 -12.490  -1.525  1.00  0.00     0.127 S 
ATOM     68  O   UNL     1      19.970 -11.949  -2.610  1.00  0.00    -0.237 OA
ATOM     69  O   UNL     1      22.227 -12.484  -1.786  1.00  0.00    -0.237 OA
ATOM     70  O   UNL     1      20.288 -13.713  -0.914  1.00  0.00    -0.744 OA
ENDBRANCH  64  67
ENDBRANCH  46  60
BRANCH  47  71
ATOM     71  C   UNL     1      14.486 -11.581  10.181  1.00  0.00     0.023 A 
ATOM     72  C   UNL     1      15.001 -11.179  11.430  1.00  0.00     0.012 A 
ATOM     73  C   UNL     1      13.200 -12.150  10.121  1.00  0.00     0.148 A 
ATOM     74  C   UNL     1      14.263 -11.369  12.599  1.00  0.00     0.002 A 
ATOM     75  C   UNL     1      12.448 -12.287  11.283  1.00  0.00     0.091 A 
ATOM     76  F   UNL     1      12.733 -12.540   8.926  1.00  0.00    -0.205 F 
ATOM     77  C   UNL     1      12.984 -11.913  12.525  1.00  0.00     0.022 A 
BRANCH  75  78
ATOM     78  S   UNL     1      10.743 -12.854  11.261  1.00  0.00     0.127 S 
ATOM     79  O   UNL     1      10.870 -14.204  11.801  1.00  0.00    -0.237 OA
ATOM     80  O   UNL     1      10.092 -11.892  12.152  1.00  0.00    -0.237 OA
ATOM     81  O   UNL     1      10.320 -12.760   9.871  1.00  0.00    -0.744 OA
ENDBRANCH  75  78
ENDBRANCH  47  71
BRANCH  59  82
ATOM     82  C   UNL     1      20.531 -14.233   7.914  1.00  0.00     0.023 A 
ATOM     83  C   UNL     1      20.177 -15.597   7.932  1.00  0.00     0.012 A 
ATOM     84  C   UNL     1      21.802 -13.843   8.378  1.00  0.00     0.148 A 
ATOM     85  C   UNL     1      21.060 -16.553   8.433  1.00  0.00     0.002 A 
ATOM     86  C   UNL     1      22.695 -14.807   8.833  1.00  0.00     0.091 A 
ATOM     87  F   UNL     1      22.114 -12.539   8.373  1.00  0.00    -0.205 F 
ATOM     88  C   UNL     1      22.322 -16.160   8.872  1.00  0.00     0.022 A 
BRANCH  86  89
ATOM     89  S   UNL     1      24.374 -14.400   9.329  1.00  0.00     0.127 S 
ATOM     90  O   UNL     1      24.279 -14.469  10.786  1.00  0.00    -0.237 OA
ATOM     91  O   UNL     1      25.152 -15.477   8.717  1.00  0.00    -0.237 OA
ATOM     92  O   UNL     1      24.642 -13.078   8.778  1.00  0.00    -0.744 OA
ENDBRANCH  86  89
ENDBRANCH  59  82
ENDBRANCH  33  34
ENDBRANCH  25  28
ENDBRANCH  23  24
ENDBRANCH   1  23
TORSDOF 16
