REMARK SMILES COC(=O)c1ccc(N2C[C@@H](C(=O)NCCCCNC(=O)c3ccc(-c4c5nc(c(-c6cccc(S(=O)(=O)[O-])c6F)c6ccc([nH]6)c(-c6cccc(S(=O)(=O)[O-])c6F)c6nc(c(-c7cccc(S(=O)(=O)[O-])c7F)c7ccc4[nH]7)C=C6)C=C5)cc3)CC2=O)cc1
REMARK SMILES IDX 16 1 15 2 14 3 12 4 13 5 11 7 9 8 10 9 86 10 85 11 87 12
REMARK SMILES IDX 8 13 5 14 6 15 89 16 7 17 88 18 3 19 4 20 2 21 1 22 17 23
REMARK SMILES IDX 18 24 19 25 20 26 21 28 22 29 23 30 84 31 24 32 83 33 25 34
REMARK SMILES IDX 26 35 27 36 77 37 28 38 82 39 76 40 78 41 29 42 81 43 75 44
REMARK SMILES IDX 74 45 30 47 62 48 42 49 61 50 43 51 46 52 60 53 79 54 44 55
REMARK SMILES IDX 45 56 59 58 80 59 47 60 31 61 32 62 40 63 33 64 35 65 41 66
REMARK SMILES IDX 34 67 36 68 37 69 38 70 39 71 63 72 64 73 72 74 65 75 67 76
REMARK SMILES IDX 73 77 66 78 68 79 69 80 70 81 71 82 48 83 49 84 57 85 50 86
REMARK SMILES IDX 52 87 58 88 51 89 53 90 54 91 55 92 56 93
REMARK H PARENT 14 6 19 27 78 46 46 57
REMARK Flexibility Score: inf
ROOT
ATOM      1  C   UNL     1      -4.248   2.322   9.692  1.00  0.00     0.023 C 
ENDROOT
BRANCH   1   2
ATOM      2  C   UNL     1      -2.751   2.251   9.396  1.00  0.00     0.116 C 
BRANCH   2   3
ATOM      3  N   UNL     1      -1.974   1.958  10.587  1.00  0.00    -0.356 N 
ATOM      4  C   UNL     1      -1.241   0.873  10.943  1.00  0.00     0.225 C 
ATOM      5  O   UNL     1      -0.655   0.909  12.028  1.00  0.00    -0.275 OA
ATOM      6  H   UNL     1      -1.980   2.678  11.258  1.00  0.00     0.163 HD
BRANCH   4   7
ATOM      7  C   UNL     1      -1.082  -0.342  10.053  1.00  0.00     0.107 C 
ATOM      8  N   UNL     1      -1.009  -0.656   7.715  1.00  0.00    -0.312 N 
ATOM      9  C   UNL     1      -0.282  -0.042   8.800  1.00  0.00     0.139 C 
ATOM     10  C   UNL     1      -2.248  -1.155   8.113  1.00  0.00     0.227 C 
ATOM     11  C   UNL     1      -2.377  -0.999   9.606  1.00  0.00     0.116 C 
ATOM     12  O   UNL     1      -3.105  -1.686   7.422  1.00  0.00    -0.274 OA
BRANCH   8  13
ATOM     13  C   UNL     1      -0.517  -0.669   6.389  1.00  0.00     0.044 A 
ATOM     14  C   UNL     1       0.475  -0.756   3.754  1.00  0.00     0.060 A 
ATOM     15  C   UNL     1       1.343  -0.902   4.839  1.00  0.00     0.018 A 
ATOM     16  C   UNL     1      -0.890  -0.561   3.983  1.00  0.00     0.018 A 
ATOM     17  C   UNL     1       0.854  -0.827   6.146  1.00  0.00     0.027 A 
ATOM     18  C   UNL     1      -1.382  -0.542   5.294  1.00  0.00     0.027 A 
BRANCH  14  19
ATOM     19  C   UNL     1       1.040  -0.852   2.390  1.00  0.00     0.337 C 
ATOM     20  O   UNL     1       2.022  -1.528   2.115  1.00  0.00    -0.246 OA
BRANCH  19  21
ATOM     21  O   UNL     1       0.359  -0.043   1.544  1.00  0.00    -0.465 OA
ATOM     22  C   UNL     1       0.907   0.008   0.226  1.00  0.00     0.282 C 
ENDBRANCH  19  21
ENDBRANCH  14  19
ENDBRANCH   8  13
ENDBRANCH   4   7
ENDBRANCH   2   3
ENDBRANCH   1   2
BRANCH   1  23
ATOM     23  C   UNL     1      -4.672   3.491  10.583  1.00  0.00     0.023 C 
BRANCH  23  24
ATOM     24  C   UNL     1      -4.265   4.873  10.084  1.00  0.00     0.116 C 
BRANCH  24  25
ATOM     25  N   UNL     1      -4.770   5.168   8.752  1.00  0.00    -0.352 N 
ATOM     26  C   UNL     1      -5.364   6.317   8.287  1.00  0.00     0.251 C 
ATOM     27  H   UNL     1      -4.674   4.444   8.091  1.00  0.00     0.163 HD
ATOM     28  O   UNL     1      -5.853   6.340   7.162  1.00  0.00    -0.269 OA
BRANCH  26  29
ATOM     29  C   UNL     1      -5.435   7.512   9.156  1.00  0.00     0.039 A 
ATOM     30  C   UNL     1      -6.640   8.214   9.241  1.00  0.00     0.014 A 
ATOM     31  C   UNL     1      -4.325   7.931   9.895  1.00  0.00     0.014 A 
ATOM     32  C   UNL     1      -6.747   9.301  10.112  1.00  0.00     0.010 A 
ATOM     33  C   UNL     1      -4.459   8.961  10.822  1.00  0.00     0.010 A 
ATOM     34  C   UNL     1      -5.668   9.664  10.934  1.00  0.00    -0.014 A 
BRANCH  34  35
ATOM     35  C   UNL     1      -5.787  10.772  11.918  1.00  0.00     0.031 A 
ATOM     36  C   UNL     1      -4.899  11.984  11.808  1.00  0.00     0.074 A 
ATOM     37  C   UNL     1      -6.636  10.652  12.959  1.00  0.00     0.049 A 
ATOM     38  N   UNL     1      -4.824  13.024  12.597  1.00  0.00    -0.248 NA
ATOM     39  C   UNL     1      -3.951  12.021  10.681  1.00  0.00     0.031 C 
ATOM     40  C   UNL     1      -7.489   9.492  13.227  1.00  0.00     0.029 A 
ATOM     41  N   UNL     1      -6.902  11.505  14.002  1.00  0.00    -0.354 N 
ATOM     42  C   UNL     1      -3.799  13.814  12.091  1.00  0.00     0.074 A 
ATOM     43  C   UNL     1      -3.259  13.120  10.942  1.00  0.00     0.031 C 
ATOM     44  C   UNL     1      -8.182   9.705  14.356  1.00  0.00     0.029 A 
ATOM     45  C   UNL     1      -7.803  11.000  14.912  1.00  0.00     0.049 A 
ATOM     46  H   UNL     1      -6.487  12.393  14.091  1.00  0.00     0.167 HD
ATOM     47  C   UNL     1      -3.362  15.020  12.525  1.00  0.00     0.034 A 
ATOM     48  C   UNL     1      -8.262  11.515  16.070  1.00  0.00     0.034 A 
ATOM     49  C   UNL     1      -3.932  15.728  13.639  1.00  0.00     0.049 A 
ATOM     50  C   UNL     1      -7.799  12.881  16.498  1.00  0.00     0.074 A 
ATOM     51  C   UNL     1      -3.626  16.999  14.095  1.00  0.00     0.029 A 
ATOM     52  N   UNL     1      -4.913  15.227  14.479  1.00  0.00    -0.354 N 
ATOM     53  N   UNL     1      -6.945  13.684  15.911  1.00  0.00    -0.248 NA
ATOM     54  C   UNL     1      -8.392  13.431  17.726  1.00  0.00     0.031 C 
ATOM     55  C   UNL     1      -4.397  17.252  15.233  1.00  0.00     0.029 A 
ATOM     56  C   UNL     1      -5.217  16.157  15.458  1.00  0.00     0.049 A 
ATOM     57  H   UNL     1      -5.332  14.340  14.393  1.00  0.00     0.167 HD
ATOM     58  C   UNL     1      -6.933  14.848  16.670  1.00  0.00     0.074 A 
ATOM     59  C   UNL     1      -7.877  14.652  17.751  1.00  0.00     0.031 C 
ATOM     60  C   UNL     1      -6.199  15.974  16.494  1.00  0.00     0.034 A 
BRANCH  47  61
ATOM     61  C   UNL     1      -2.237  15.679  11.770  1.00  0.00     0.023 A 
ATOM     62  C   UNL     1      -2.466  16.195  10.479  1.00  0.00     0.012 A 
ATOM     63  C   UNL     1      -0.976  15.859  12.373  1.00  0.00     0.148 A 
ATOM     64  C   UNL     1      -1.450  16.853   9.786  1.00  0.00     0.002 A 
ATOM     65  C   UNL     1       0.016  16.559  11.696  1.00  0.00     0.091 A 
ATOM     66  F   UNL     1      -0.771  15.344  13.593  1.00  0.00    -0.205 F 
ATOM     67  C   UNL     1      -0.215  17.046  10.399  1.00  0.00     0.022 A 
BRANCH  65  68
ATOM     68  S   UNL     1       1.611  16.935  12.431  1.00  0.00     0.127 S 
ATOM     69  O   UNL     1       2.510  16.117  11.618  1.00  0.00    -0.237 OA
ATOM     70  O   UNL     1       1.722  18.375  12.201  1.00  0.00    -0.237 OA
ATOM     71  O   UNL     1       1.513  16.546  13.831  1.00  0.00    -0.744 OA
ENDBRANCH  65  68
ENDBRANCH  47  61
BRANCH  48  72
ATOM     72  C   UNL     1      -9.255  10.757  16.884  1.00  0.00     0.023 A 
ATOM     73  C   UNL     1     -10.576  11.232  16.994  1.00  0.00     0.012 A 
ATOM     74  C   UNL     1      -8.897   9.565  17.543  1.00  0.00     0.148 A 
ATOM     75  C   UNL     1     -11.512  10.557  17.779  1.00  0.00     0.002 A 
ATOM     76  C   UNL     1      -9.850   8.865  18.274  1.00  0.00     0.091 A 
ATOM     77  F   UNL     1      -7.633   9.134  17.434  1.00  0.00    -0.205 F 
ATOM     78  C   UNL     1     -11.152   9.370  18.411  1.00  0.00     0.022 A 
BRANCH  76  79
ATOM     79  S   UNL     1      -9.510   7.261  19.008  1.00  0.00     0.127 S 
ATOM     80  O   UNL     1      -9.489   7.583  20.432  1.00  0.00    -0.237 OA
ATOM     81  O   UNL     1     -10.665   6.478  18.568  1.00  0.00    -0.237 OA
ATOM     82  O   UNL     1      -8.242   6.829  18.436  1.00  0.00    -0.744 OA
ENDBRANCH  76  79
ENDBRANCH  48  72
BRANCH  60  83
ATOM     83  C   UNL     1      -6.426  17.117  17.449  1.00  0.00     0.023 A 
ATOM     84  C   UNL     1      -5.981  17.027  18.783  1.00  0.00     0.012 A 
ATOM     85  C   UNL     1      -7.017  18.313  16.996  1.00  0.00     0.148 A 
ATOM     86  C   UNL     1      -6.157  18.097  19.660  1.00  0.00     0.002 A 
ATOM     87  C   UNL     1      -7.139  19.393  17.860  1.00  0.00     0.091 A 
ATOM     88  F   UNL     1      -7.450  18.373  15.728  1.00  0.00    -0.205 F 
ATOM     89  C   UNL     1      -6.724  19.282  19.197  1.00  0.00     0.022 A 
BRANCH  87  90
ATOM     90  S   UNL     1      -7.761  20.990  17.322  1.00  0.00     0.127 S 
ATOM     91  O   UNL     1      -9.071  21.033  17.968  1.00  0.00    -0.237 OA
ATOM     92  O   UNL     1      -6.773  21.912  17.884  1.00  0.00    -0.237 OA
ATOM     93  O   UNL     1      -7.783  20.943  15.866  1.00  0.00    -0.744 OA
ENDBRANCH  87  90
ENDBRANCH  60  83
ENDBRANCH  34  35
ENDBRANCH  26  29
ENDBRANCH  24  25
ENDBRANCH  23  24
ENDBRANCH   1  23
TORSDOF 17
