REMARK SMILES CC(C)[C@@H](CNC(=O)NCC1C(C)(C)C1(C)C)C(=O)NCCCCNC(=O)c1ccc(-c2c3nc(c(-c4cccc(S(=O)(=O)[O-])c4F)c4ccc([nH]4)c(-c4cccc(S(=O)(=O)[O-])c4F)c4nc(c(-c5cccc(S(=O)(=O)[O-])c5F)c5ccc2[nH]5)C=C4)C=C3)cc1
REMARK SMILES IDX 22 1 21 2 20 3 18 4 19 5 4 7 2 8 1 9 3 10 5 11 6 12 7 13
REMARK SMILES IDX 8 15 9 16 10 18 11 19 12 20 15 21 13 22 14 23 16 24 17 25
REMARK SMILES IDX 23 26 24 27 25 28 26 29 27 31 28 32 29 33 90 34 30 35 89 36
REMARK SMILES IDX 31 37 32 38 33 39 83 40 34 41 88 42 82 43 84 44 35 45 87 46
REMARK SMILES IDX 81 47 80 48 36 50 68 51 48 52 67 53 49 54 52 55 66 56 85 57
REMARK SMILES IDX 50 58 51 59 65 61 86 62 53 63 37 64 38 65 46 66 39 67 41 68
REMARK SMILES IDX 47 69 40 70 42 71 43 72 44 73 45 74 69 75 70 76 78 77 71 78
REMARK SMILES IDX 73 79 79 80 72 81 74 82 75 83 76 84 77 85 54 86 55 87 63 88
REMARK SMILES IDX 56 89 58 90 64 91 57 92 59 93 60 94 61 95 62 96
REMARK H PARENT 20 6 6 14 9 17 25 30 84 49 52 60
REMARK Flexibility Score: inf
ROOT
ATOM      1  C   UNL     1       1.145   3.178   3.655  1.00  0.00     0.023 C 
ENDROOT
BRANCH   1   2
ATOM      2  C   UNL     1      -0.037   2.272   3.338  1.00  0.00     0.116 C 
BRANCH   2   3
ATOM      3  N   UNL     1      -0.943   2.834   2.356  1.00  0.00    -0.356 N 
ATOM      4  C   UNL     1      -1.350   2.345   1.154  1.00  0.00     0.225 C 
ATOM      5  O   UNL     1      -2.296   2.908   0.595  1.00  0.00    -0.275 OA
ATOM      6  H   UNL     1      -1.324   3.710   2.598  1.00  0.00     0.163 HD
BRANCH   4   7
ATOM      7  C   UNL     1      -0.687   1.140   0.483  1.00  0.00     0.100 C 
BRANCH   7   8
ATOM      8  C   UNL     1       0.852   1.247   0.312  1.00  0.00    -0.003 C 
ATOM      9  C   UNL     1       1.449   0.029  -0.404  1.00  0.00     0.008 C 
ATOM     10  C   UNL     1       1.213   2.511  -0.484  1.00  0.00     0.008 C 
ENDBRANCH   7   8
BRANCH   7  11
ATOM     11  C   UNL     1      -1.256  -0.194   0.996  1.00  0.00     0.131 C 
BRANCH  11  12
ATOM     12  N   UNL     1      -1.230  -0.427   2.422  1.00  0.00    -0.337 N 
ATOM     13  C   UNL     1      -2.128  -0.357   3.411  1.00  0.00     0.314 C 
ATOM     14  H   UNL     1      -0.341  -0.704   2.741  1.00  0.00     0.165 HD
ATOM     15  O   UNL     1      -1.704  -0.530   4.558  1.00  0.00    -0.249 OA
ATOM     16  N   UNL     1      -3.432  -0.134   3.258  1.00  0.00    -0.338 N 
ATOM     17  H   UNL     1      -3.901  -0.097   4.123  1.00  0.00     0.165 HD
BRANCH  16  18
ATOM     18  C   UNL     1      -4.336   0.068   2.150  1.00  0.00     0.122 C 
BRANCH  18  19
ATOM     19  C   UNL     1      -5.338  -1.045   2.022  1.00  0.00     0.021 C 
ATOM     20  C   UNL     1      -5.361  -2.002   0.823  1.00  0.00    -0.025 C 
ATOM     21  C   UNL     1      -5.138  -2.552   2.244  1.00  0.00    -0.025 C 
ATOM     22  C   UNL     1      -6.700  -2.162   0.133  1.00  0.00     0.012 C 
ATOM     23  C   UNL     1      -4.231  -2.085  -0.178  1.00  0.00     0.012 C 
ATOM     24  C   UNL     1      -3.798  -3.131   2.638  1.00  0.00     0.012 C 
ATOM     25  C   UNL     1      -6.272  -3.309   2.908  1.00  0.00     0.012 C 
ENDBRANCH  18  19
ENDBRANCH  16  18
ENDBRANCH  11  12
ENDBRANCH   7  11
ENDBRANCH   4   7
ENDBRANCH   2   3
ENDBRANCH   1   2
BRANCH   1  26
ATOM     26  C   UNL     1       0.807   4.389   4.521  1.00  0.00     0.023 C 
BRANCH  26  27
ATOM     27  C   UNL     1       0.032   4.089   5.801  1.00  0.00     0.116 C 
BRANCH  27  28
ATOM     28  N   UNL     1       0.634   3.046   6.619  1.00  0.00    -0.352 N 
ATOM     29  C   UNL     1       0.843   3.011   7.980  1.00  0.00     0.251 C 
ATOM     30  H   UNL     1       0.936   2.248   6.127  1.00  0.00     0.163 HD
ATOM     31  O   UNL     1       1.467   2.091   8.482  1.00  0.00    -0.269 OA
BRANCH  29  32
ATOM     32  C   UNL     1       0.339   4.119   8.822  1.00  0.00     0.039 A 
ATOM     33  C   UNL     1       1.193   4.673   9.777  1.00  0.00     0.014 A 
ATOM     34  C   UNL     1      -0.952   4.626   8.653  1.00  0.00     0.014 A 
ATOM     35  C   UNL     1       0.777   5.788  10.507  1.00  0.00     0.010 A 
ATOM     36  C   UNL     1      -1.332   5.788   9.318  1.00  0.00     0.010 A 
ATOM     37  C   UNL     1      -0.472   6.383  10.252  1.00  0.00    -0.014 A 
BRANCH  37  38
ATOM     38  C   UNL     1      -0.855   7.650  10.926  1.00  0.00     0.031 A 
ATOM     39  C   UNL     1      -2.052   7.715  11.834  1.00  0.00     0.074 A 
ATOM     40  C   UNL     1      -0.153   8.770  10.662  1.00  0.00     0.049 A 
ATOM     41  N   UNL     1      -2.495   8.725  12.538  1.00  0.00    -0.248 NA
ATOM     42  C   UNL     1      -2.878   6.502  11.946  1.00  0.00     0.031 C 
ATOM     43  C   UNL     1       0.955   8.868   9.707  1.00  0.00     0.029 A 
ATOM     44  N   UNL     1      -0.274  10.044  11.159  1.00  0.00    -0.354 N 
ATOM     45  C   UNL     1      -3.661   8.282  13.150  1.00  0.00     0.074 A 
ATOM     46  C   UNL     1      -3.881   6.924  12.703  1.00  0.00     0.031 C 
ATOM     47  C   UNL     1       1.424  10.125   9.704  1.00  0.00     0.029 A 
ATOM     48  C   UNL     1       0.644  10.928  10.640  1.00  0.00     0.049 A 
ATOM     49  H   UNL     1      -0.953  10.300  11.823  1.00  0.00     0.167 HD
ATOM     50  C   UNL     1      -4.459   8.933  14.030  1.00  0.00     0.034 A 
ATOM     51  C   UNL     1       0.844  12.235  10.897  1.00  0.00     0.034 A 
ATOM     52  C   UNL     1      -4.214  10.270  14.502  1.00  0.00     0.049 A 
ATOM     53  C   UNL     1       0.002  12.909  11.945  1.00  0.00     0.074 A 
ATOM     54  C   UNL     1      -4.901  10.981  15.470  1.00  0.00     0.029 A 
ATOM     55  N   UNL     1      -3.210  11.104  14.033  1.00  0.00    -0.354 N 
ATOM     56  N   UNL     1      -0.978  12.412  12.660  1.00  0.00    -0.248 NA
ATOM     57  C   UNL     1       0.325  14.308  12.257  1.00  0.00     0.031 C 
ATOM     58  C   UNL     1      -4.327  12.253  15.570  1.00  0.00     0.029 A 
ATOM     59  C   UNL     1      -3.263  12.325  14.685  1.00  0.00     0.049 A 
ATOM     60  H   UNL     1      -2.555  10.863  13.339  1.00  0.00     0.167 HD
ATOM     61  C   UNL     1      -1.368  13.425  13.529  1.00  0.00     0.074 A 
ATOM     62  C   UNL     1      -0.497  14.553  13.268  1.00  0.00     0.031 C 
ATOM     63  C   UNL     1      -2.365  13.426  14.448  1.00  0.00     0.034 A 
BRANCH  50  64
ATOM     64  C   UNL     1      -5.644   8.185  14.585  1.00  0.00     0.023 A 
ATOM     65  C   UNL     1      -5.435   7.118  15.484  1.00  0.00     0.012 A 
ATOM     66  C   UNL     1      -6.962   8.566  14.264  1.00  0.00     0.148 A 
ATOM     67  C   UNL     1      -6.513   6.420  16.025  1.00  0.00     0.002 A 
ATOM     68  C   UNL     1      -8.033   7.895  14.844  1.00  0.00     0.091 A 
ATOM     69  F   UNL     1      -7.144   9.567  13.391  1.00  0.00    -0.205 F 
ATOM     70  C   UNL     1      -7.811   6.815  15.713  1.00  0.00     0.022 A 
BRANCH  68  71
ATOM     71  S   UNL     1      -9.741   8.382  14.572  1.00  0.00     0.127 S 
ATOM     72  O   UNL     1     -10.223   7.299  13.715  1.00  0.00    -0.237 OA
ATOM     73  O   UNL     1     -10.285   8.371  15.931  1.00  0.00    -0.237 OA
ATOM     74  O   UNL     1      -9.689   9.697  13.951  1.00  0.00    -0.744 OA
ENDBRANCH  68  71
ENDBRANCH  50  64
BRANCH  51  75
ATOM     75  C   UNL     1       1.950  12.962  10.213  1.00  0.00     0.023 A 
ATOM     76  C   UNL     1       3.093  13.335  10.947  1.00  0.00     0.012 A 
ATOM     77  C   UNL     1       1.897  13.242   8.834  1.00  0.00     0.148 A 
ATOM     78  C   UNL     1       4.149  14.004  10.327  1.00  0.00     0.002 A 
ATOM     79  C   UNL     1       2.977  13.857   8.211  1.00  0.00     0.091 A 
ATOM     80  F   UNL     1       0.796  12.887   8.156  1.00  0.00    -0.205 F 
ATOM     81  C   UNL     1       4.096  14.255   8.958  1.00  0.00     0.022 A 
BRANCH  79  82
ATOM     82  S   UNL     1       3.054  14.091   6.432  1.00  0.00     0.127 S 
ATOM     83  O   UNL     1       2.908  15.540   6.314  1.00  0.00    -0.237 OA
ATOM     84  O   UNL     1       4.389  13.579   6.118  1.00  0.00    -0.237 OA
ATOM     85  O   UNL     1       1.964  13.297   5.883  1.00  0.00    -0.744 OA
ENDBRANCH  79  82
ENDBRANCH  51  75
BRANCH  63  86
ATOM     86  C   UNL     1      -2.554  14.679  15.264  1.00  0.00     0.023 A 
ATOM     87  C   UNL     1      -3.066  15.843  14.657  1.00  0.00     0.012 A 
ATOM     88  C   UNL     1      -2.265  14.690  16.643  1.00  0.00     0.148 A 
ATOM     89  C   UNL     1      -3.244  17.011  15.398  1.00  0.00     0.002 A 
ATOM     90  C   UNL     1      -2.494  15.842  17.386  1.00  0.00     0.091 A 
ATOM     91  F   UNL     1      -1.759  13.581  17.203  1.00  0.00    -0.205 F 
ATOM     92  C   UNL     1      -2.968  17.008  16.763  1.00  0.00     0.022 A 
BRANCH  90  93
ATOM     93  S   UNL     1      -2.257  15.892  19.166  1.00  0.00     0.127 S 
ATOM     94  O   UNL     1      -0.976  16.587  19.278  1.00  0.00    -0.237 OA
ATOM     95  O   UNL     1      -3.413  16.669  19.616  1.00  0.00    -0.237 OA
ATOM     96  O   UNL     1      -2.261  14.503  19.605  1.00  0.00    -0.744 OA
ENDBRANCH  90  93
ENDBRANCH  63  86
ENDBRANCH  37  38
ENDBRANCH  29  32
ENDBRANCH  27  28
ENDBRANCH  26  27
ENDBRANCH   1  26
TORSDOF 19
