REMARK SMILES Cc1ccc(S(=O)(=O)N[C@@H](C)C(=O)Oc2csc(C(=O)NCCCCNC(=O)c3ccc(-c4c5nc(c(-c6cccc(S(=O)(=O)[O-])c6F)c6ccc([nH]6)c(-c6cccc(S(=O)(=O)[O-])c6F)c6nc(c(-c7cccc(S(=O)(=O)[O-])c7F)c7ccc4[nH]7)C=C6)C=C5)cc3)c2C)cc1
REMARK SMILES IDX 22 1 21 2 19 3 20 4 18 6 15 7 16 8 92 9 17 10 93 11 14 12
REMARK SMILES IDX 12 13 13 14 10 15 11 16 9 17 6 19 7 20 8 21 5 22 1 23 2 24
REMARK SMILES IDX 3 25 95 26 4 27 94 28 23 29 24 30 25 31 26 32 27 33 28 35
REMARK SMILES IDX 29 36 30 37 91 38 31 39 90 40 32 41 33 42 34 43 84 44 35 45
REMARK SMILES IDX 89 46 83 47 85 48 36 49 88 50 82 51 81 52 37 54 69 55 49 56
REMARK SMILES IDX 68 57 50 58 53 59 67 60 86 61 51 62 52 63 66 65 87 66 54 67
REMARK SMILES IDX 38 68 39 69 47 70 40 71 42 72 48 73 41 74 43 75 44 76 45 77
REMARK SMILES IDX 46 78 70 79 71 80 79 81 72 82 74 83 80 84 73 85 75 86 76 87
REMARK SMILES IDX 77 88 78 89 55 90 56 91 64 92 57 93 59 94 65 95 58 96 60 97
REMARK SMILES IDX 61 98 62 99 63 100
REMARK H PARENT 21 5 9 18 26 34 85 53 53 64
REMARK Flexibility Score: inf
ROOT
ATOM      1  C   UNL     1      -4.009   8.383  -4.241  1.00  0.00     0.116 C 
ENDROOT
BRANCH   1   2
ATOM      2  N   UNL     1      -5.146   8.969  -3.568  1.00  0.00    -0.351 N 
ATOM      3  C   UNL     1      -6.076   8.553  -2.649  1.00  0.00     0.261 C 
ATOM      4  O   UNL     1      -6.900   9.447  -2.402  1.00  0.00    -0.268 OA
ATOM      5  H   UNL     1      -5.290   9.905  -3.838  1.00  0.00     0.163 HD
BRANCH   3   6
ATOM      6  C   UNL     1      -6.143   7.234  -1.990  1.00  0.00     0.099 A 
ATOM      7  C   UNL     1      -6.015   5.054  -1.102  1.00  0.00     0.145 A 
ATOM      8  C   UNL     1      -7.005   5.560  -0.310  1.00  0.00     0.113 A 
ATOM      9  C   UNL     1      -5.566   5.967  -2.131  1.00  0.00     0.015 A 
ATOM     10  S   UNL     1      -7.311   7.184  -0.678  1.00  0.00    -0.134 S 
ATOM     11  C   UNL     1      -4.626   5.468  -3.167  1.00  0.00     0.050 C 
BRANCH   7  12
ATOM     12  O   UNL     1      -5.618   3.761  -0.982  1.00  0.00    -0.424 OA
BRANCH  12  13
ATOM     13  C   UNL     1      -4.273   3.552  -0.819  1.00  0.00     0.329 C 
ATOM     14  O   UNL     1      -3.477   4.361  -0.352  1.00  0.00    -0.250 OA
BRANCH  13  15
ATOM     15  C   UNL     1      -3.875   2.128  -1.205  1.00  0.00     0.177 C 
ATOM     16  C   UNL     1      -4.543   1.653  -2.487  1.00  0.00     0.038 C 
BRANCH  15  17
ATOM     17  N   UNL     1      -4.157   1.266  -0.055  1.00  0.00    -0.197 NA
ATOM     18  H   UNL     1      -3.845   1.790   0.763  1.00  0.00     0.142 HD
BRANCH  17  19
ATOM     19  S   UNL     1      -3.554  -0.267   0.142  1.00  0.00     0.241 S 
ATOM     20  O   UNL     1      -3.885  -1.016  -1.068  1.00  0.00    -0.207 OA
ATOM     21  O   UNL     1      -4.002  -0.701   1.427  1.00  0.00    -0.207 OA
BRANCH  19  22
ATOM     22  C   UNL     1      -1.788  -0.133   0.204  1.00  0.00     0.082 A 
ATOM     23  C   UNL     1       2.506   0.010   0.004  1.00  0.00     0.044 C 
ATOM     24  C   UNL     1       1.008  -0.032   0.089  1.00  0.00    -0.051 A 
ATOM     25  C   UNL     1       0.339  -1.252  -0.067  1.00  0.00     0.005 A 
ATOM     26  C   UNL     1       0.265   1.129   0.340  1.00  0.00     0.005 A 
ATOM     27  C   UNL     1      -1.053  -1.302  -0.023  1.00  0.00     0.022 A 
ATOM     28  C   UNL     1      -1.131   1.081   0.415  1.00  0.00     0.022 A 
ENDBRANCH  19  22
ENDBRANCH  17  19
ENDBRANCH  15  17
ENDBRANCH  13  15
ENDBRANCH  12  13
ENDBRANCH   7  12
ENDBRANCH   3   6
ENDBRANCH   1   2
BRANCH   1  29
ATOM     29  C   UNL     1      -4.418   7.711  -5.559  1.00  0.00     0.023 C 
BRANCH  29  30
ATOM     30  C   UNL     1      -4.622   8.610  -6.782  1.00  0.00     0.023 C 
BRANCH  30  31
ATOM     31  C   UNL     1      -3.357   9.085  -7.487  1.00  0.00     0.116 C 
BRANCH  31  32
ATOM     32  N   UNL     1      -2.529   7.968  -7.945  1.00  0.00    -0.352 N 
ATOM     33  C   UNL     1      -1.171   7.900  -8.191  1.00  0.00     0.251 C 
ATOM     34  H   UNL     1      -3.019   7.129  -8.103  1.00  0.00     0.163 HD
ATOM     35  O   UNL     1      -0.771   7.075  -9.005  1.00  0.00    -0.269 OA
BRANCH  33  36
ATOM     36  C   UNL     1      -0.233   8.743  -7.424  1.00  0.00     0.039 A 
ATOM     37  C   UNL     1       1.109   8.919  -7.789  1.00  0.00     0.014 A 
ATOM     38  C   UNL     1      -0.677   9.237  -6.208  1.00  0.00     0.014 A 
ATOM     39  C   UNL     1       1.998   9.485  -6.869  1.00  0.00     0.010 A 
ATOM     40  C   UNL     1       0.106  10.044  -5.452  1.00  0.00     0.010 A 
ATOM     41  C   UNL     1       1.476   9.976  -5.678  1.00  0.00    -0.014 A 
BRANCH  41  42
ATOM     42  C   UNL     1       2.200  10.252  -4.451  1.00  0.00     0.031 A 
ATOM     43  C   UNL     1       2.878  11.535  -4.265  1.00  0.00     0.074 A 
ATOM     44  C   UNL     1       1.807   9.471  -3.412  1.00  0.00     0.049 A 
ATOM     45  N   UNL     1       3.569  11.831  -3.223  1.00  0.00    -0.248 NA
ATOM     46  C   UNL     1       2.830  12.602  -5.259  1.00  0.00     0.031 C 
ATOM     47  C   UNL     1       1.757   9.807  -1.997  1.00  0.00     0.029 A 
ATOM     48  N   UNL     1       1.262   8.179  -3.425  1.00  0.00    -0.354 N 
ATOM     49  C   UNL     1       3.719  13.200  -3.232  1.00  0.00     0.074 A 
ATOM     50  C   UNL     1       3.449  13.583  -4.594  1.00  0.00     0.031 C 
ATOM     51  C   UNL     1       1.525   8.680  -1.297  1.00  0.00     0.029 A 
ATOM     52  C   UNL     1       1.652   7.575  -2.231  1.00  0.00     0.049 A 
ATOM     53  H   UNL     1       0.714   7.778  -4.137  1.00  0.00     0.167 HD
ATOM     54  C   UNL     1       3.837  13.840  -2.033  1.00  0.00     0.034 A 
ATOM     55  C   UNL     1       2.638   6.623  -2.193  1.00  0.00     0.034 A 
ATOM     56  C   UNL     1       3.995  12.851  -0.939  1.00  0.00     0.049 A 
ATOM     57  C   UNL     1       3.873   7.102  -1.431  1.00  0.00     0.074 A 
ATOM     58  C   UNL     1       3.159  12.400   0.070  1.00  0.00     0.029 A 
ATOM     59  N   UNL     1       5.053  11.940  -0.990  1.00  0.00    -0.354 N 
ATOM     60  N   UNL     1       4.032   8.319  -0.983  1.00  0.00    -0.248 NA
ATOM     61  C   UNL     1       5.018   6.259  -1.103  1.00  0.00     0.031 C 
ATOM     62  C   UNL     1       3.658  11.141   0.527  1.00  0.00     0.029 A 
ATOM     63  C   UNL     1       4.821  10.845  -0.166  1.00  0.00     0.049 A 
ATOM     64  H   UNL     1       5.861  12.059  -1.540  1.00  0.00     0.167 HD
ATOM     65  C   UNL     1       5.285   8.488  -0.464  1.00  0.00     0.074 A 
ATOM     66  C   UNL     1       5.825   7.135  -0.474  1.00  0.00     0.031 C 
ATOM     67  C   UNL     1       5.777   9.728  -0.134  1.00  0.00     0.034 A 
BRANCH  54  68
ATOM     68  C   UNL     1       3.555  15.324  -1.781  1.00  0.00     0.023 A 
ATOM     69  C   UNL     1       3.567  15.761  -0.436  1.00  0.00     0.012 A 
ATOM     70  C   UNL     1       3.203  16.317  -2.733  1.00  0.00     0.148 A 
ATOM     71  C   UNL     1       3.223  17.069  -0.059  1.00  0.00     0.002 A 
ATOM     72  C   UNL     1       2.886  17.629  -2.365  1.00  0.00     0.091 A 
ATOM     73  F   UNL     1       3.127  16.019  -4.026  1.00  0.00    -0.205 F 
ATOM     74  C   UNL     1       2.883  18.006  -1.024  1.00  0.00     0.022 A 
BRANCH  72  75
ATOM     75  S   UNL     1       2.451  18.901  -3.573  1.00  0.00     0.127 S 
ATOM     76  O   UNL     1       1.091  19.257  -3.167  1.00  0.00    -0.237 OA
ATOM     77  O   UNL     1       3.454  19.933  -3.312  1.00  0.00    -0.237 OA
ATOM     78  O   UNL     1       2.547  18.280  -4.889  1.00  0.00    -0.744 OA
ENDBRANCH  72  75
ENDBRANCH  54  68
BRANCH  55  79
ATOM     79  C   UNL     1       2.631   5.739  -3.408  1.00  0.00     0.023 A 
ATOM     80  C   UNL     1       1.459   4.968  -3.615  1.00  0.00     0.012 A 
ATOM     81  C   UNL     1       3.469   5.996  -4.510  1.00  0.00     0.148 A 
ATOM     82  C   UNL     1       1.035   4.637  -4.905  1.00  0.00     0.002 A 
ATOM     83  C   UNL     1       3.041   5.654  -5.796  1.00  0.00     0.091 A 
ATOM     84  F   UNL     1       4.631   6.627  -4.300  1.00  0.00    -0.205 F 
ATOM     85  C   UNL     1       1.802   5.025  -5.998  1.00  0.00     0.022 A 
BRANCH  83  86
ATOM     86  S   UNL     1       3.995   6.110  -7.253  1.00  0.00     0.127 S 
ATOM     87  O   UNL     1       4.812   4.916  -7.451  1.00  0.00    -0.237 OA
ATOM     88  O   UNL     1       2.965   6.318  -8.268  1.00  0.00    -0.237 OA
ATOM     89  O   UNL     1       4.704   7.323  -6.870  1.00  0.00    -0.744 OA
ENDBRANCH  83  86
ENDBRANCH  55  79
BRANCH  67  90
ATOM     90  C   UNL     1       7.226  10.022   0.233  1.00  0.00     0.023 A 
ATOM     91  C   UNL     1       8.281   9.138  -0.063  1.00  0.00     0.012 A 
ATOM     92  C   UNL     1       7.599  11.278   0.782  1.00  0.00     0.148 A 
ATOM     93  C   UNL     1       9.615   9.440   0.235  1.00  0.00     0.002 A 
ATOM     94  C   UNL     1       8.937  11.627   0.948  1.00  0.00     0.091 A 
ATOM     95  F   UNL     1       6.657  12.147   1.177  1.00  0.00    -0.205 F 
ATOM     96  C   UNL     1       9.947  10.695   0.717  1.00  0.00     0.022 A 
BRANCH  94  97
ATOM     97  S   UNL     1       9.416  13.326   1.295  1.00  0.00     0.127 S 
ATOM     98  O   UNL     1       9.570  13.307   2.748  1.00  0.00    -0.237 OA
ATOM     99  O   UNL     1      10.670  13.455   0.551  1.00  0.00    -0.237 OA
ATOM    100  O   UNL     1       8.328  14.142   0.772  1.00  0.00    -0.744 OA
ENDBRANCH  94  97
ENDBRANCH  67  90
ENDBRANCH  41  42
ENDBRANCH  33  36
ENDBRANCH  31  32
ENDBRANCH  30  31
ENDBRANCH  29  30
ENDBRANCH   1  29
TORSDOF 20
