REMARK SMILES COc1ccc(NC(=O)[C@@H]2CC=CC[C@H]2C(=O)NCCCCNC(=O)c2ccc(-c3c4nc(c(-c5cccc(S(=O)(=O)[O-])c5F)c5ccc([nH]5)c(-c5cccc(S(=O)(=O)[O-])c5F)c5nc(c(-c6cccc(S(=O)(=O)[O-])c6F)c6ccc3[nH]6)C=C5)C=C4)cc2)cc1Cl
REMARK SMILES IDX 20 1 19 2 18 3 16 4 17 5 15 7 10 8 11 9 12 10 14 11 13 12
REMARK SMILES IDX 8 13 7 14 9 16 6 17 3 18 4 19 90 20 5 21 89 22 91 23 2 24
REMARK SMILES IDX 1 25 21 26 22 27 23 28 24 29 25 31 26 32 27 33 88 34 28 35
REMARK SMILES IDX 87 36 29 37 30 38 31 39 81 40 32 41 86 42 80 43 82 44 33 45
REMARK SMILES IDX 85 46 79 47 78 48 34 50 66 51 46 52 65 53 47 54 50 55 64 56
REMARK SMILES IDX 83 57 48 58 49 59 63 61 84 62 51 63 35 64 36 65 44 66 37 67
REMARK SMILES IDX 39 68 45 69 38 70 40 71 41 72 42 73 43 74 67 75 68 76 76 77
REMARK SMILES IDX 69 78 71 79 77 80 70 81 72 82 73 83 74 84 75 85 52 86 53 87
REMARK SMILES IDX 61 88 54 89 56 90 62 91 55 92 57 93 58 94 59 95 60 96
REMARK H PARENT 18 6 7 15 23 30 82 49 50 60
REMARK Flexibility Score: inf
ROOT
ATOM      1  C   UNL     1       2.588  -7.923   2.754  1.00  0.00     0.023 C 
ENDROOT
BRANCH   1   2
ATOM      2  C   UNL     1       1.796  -8.644   1.642  1.00  0.00     0.116 C 
BRANCH   2   3
ATOM      3  N   UNL     1       0.738  -9.552   2.061  1.00  0.00    -0.356 N 
ATOM      4  C   UNL     1      -0.615  -9.427   2.203  1.00  0.00     0.224 C 
ATOM      5  O   UNL     1      -1.234 -10.463   2.474  1.00  0.00    -0.275 OA
ATOM      6  H   UNL     1       1.070 -10.450   2.292  1.00  0.00     0.163 HD
BRANCH   4   7
ATOM      7  C   UNL     1      -1.399  -8.132   1.964  1.00  0.00     0.095 C 
ATOM      8  C   UNL     1      -0.867  -6.817   2.600  1.00  0.00     0.095 C 
ATOM      9  C   UNL     1      -1.191  -5.581   1.692  1.00  0.00     0.041 C 
ATOM     10  C   UNL     1      -1.135  -5.760   0.216  1.00  0.00    -0.030 C 
ATOM     11  C   UNL     1      -1.589  -8.181   0.418  1.00  0.00     0.041 C 
ATOM     12  C   UNL     1      -1.341  -6.941  -0.361  1.00  0.00    -0.030 C 
BRANCH   8  13
ATOM     13  C   UNL     1      -1.346  -6.367   4.033  1.00  0.00     0.228 C 
ATOM     14  N   UNL     1      -1.232  -6.974   5.243  1.00  0.00    -0.326 N 
ATOM     15  H   UNL     1      -1.581  -6.391   5.955  1.00  0.00     0.169 HD
ATOM     16  O   UNL     1      -1.863  -5.240   4.160  1.00  0.00    -0.274 OA
BRANCH  14  17
ATOM     17  C   UNL     1      -0.767  -8.178   5.779  1.00  0.00     0.042 A 
ATOM     18  C   UNL     1      -0.146 -10.729   6.797  1.00  0.00     0.137 A 
ATOM     19  C   UNL     1       0.234 -10.375   5.515  1.00  0.00     0.050 A 
ATOM     20  C   UNL     1      -0.717  -9.763   7.626  1.00  0.00     0.085 A 
ATOM     21  C   UNL     1      -0.039  -9.085   5.056  1.00  0.00     0.030 A 
ATOM     22  C   UNL     1      -1.040  -8.496   7.112  1.00  0.00     0.050 A 
ATOM     23  Cl  UNL     1      -1.068 -10.106   9.278  1.00  0.00    -0.080 Cl
BRANCH  18  24
ATOM     24  O   UNL     1       0.123 -11.992   7.240  1.00  0.00    -0.495 OA
ATOM     25  C   UNL     1      -0.826 -12.932   6.728  1.00  0.00     0.278 C 
ENDBRANCH  18  24
ENDBRANCH  14  17
ENDBRANCH   8  13
ENDBRANCH   4   7
ENDBRANCH   2   3
ENDBRANCH   1   2
BRANCH   1  26
ATOM     26  C   UNL     1       3.249  -8.732   3.873  1.00  0.00     0.023 C 
BRANCH  26  27
ATOM     27  C   UNL     1       3.998  -9.983   3.468  1.00  0.00     0.116 C 
BRANCH  27  28
ATOM     28  N   UNL     1       5.021  -9.701   2.484  1.00  0.00    -0.352 N 
ATOM     29  C   UNL     1       6.340 -10.067   2.447  1.00  0.00     0.251 C 
ATOM     30  H   UNL     1       4.720  -9.159   1.718  1.00  0.00     0.163 HD
ATOM     31  O   UNL     1       7.059  -9.567   1.584  1.00  0.00    -0.269 OA
BRANCH  29  32
ATOM     32  C   UNL     1       6.910 -11.021   3.428  1.00  0.00     0.039 A 
ATOM     33  C   UNL     1       8.233 -10.823   3.833  1.00  0.00     0.014 A 
ATOM     34  C   UNL     1       6.197 -12.119   3.919  1.00  0.00     0.014 A 
ATOM     35  C   UNL     1       8.825 -11.701   4.742  1.00  0.00     0.010 A 
ATOM     36  C   UNL     1       6.761 -12.945   4.893  1.00  0.00     0.010 A 
ATOM     37  C   UNL     1       8.088 -12.757   5.301  1.00  0.00    -0.014 A 
BRANCH  37  38
ATOM     38  C   UNL     1       8.709 -13.645   6.318  1.00  0.00     0.031 A 
ATOM     39  C   UNL     1       8.907 -15.114   6.050  1.00  0.00     0.074 A 
ATOM     40  C   UNL     1       9.078 -13.124   7.505  1.00  0.00     0.049 A 
ATOM     41  N   UNL     1       9.510 -16.009   6.790  1.00  0.00    -0.248 NA
ATOM     42  C   UNL     1       8.341 -15.658   4.804  1.00  0.00     0.031 C 
ATOM     43  C   UNL     1       8.856 -11.737   7.924  1.00  0.00     0.029 A 
ATOM     44  N   UNL     1       9.712 -13.695   8.579  1.00  0.00    -0.354 N 
ATOM     45  C   UNL     1       9.368 -17.220   6.122  1.00  0.00     0.074 A 
ATOM     46  C   UNL     1       8.597 -16.953   4.928  1.00  0.00     0.031 C 
ATOM     47  C   UNL     1       9.374 -11.558   9.150  1.00  0.00     0.029 A 
ATOM     48  C   UNL     1       9.941 -12.819   9.616  1.00  0.00     0.049 A 
ATOM     49  H   UNL     1       9.979 -14.643   8.606  1.00  0.00     0.167 HD
ATOM     50  C   UNL     1       9.856 -18.438   6.458  1.00  0.00     0.034 A 
ATOM     51  C   UNL     1      10.549 -13.007  10.803  1.00  0.00     0.034 A 
ATOM     52  C   UNL     1      10.662 -18.692   7.623  1.00  0.00     0.049 A 
ATOM     53  C   UNL     1      11.132 -14.358  11.117  1.00  0.00     0.074 A 
ATOM     54  C   UNL     1      11.296 -19.865   7.991  1.00  0.00     0.029 A 
ATOM     55  N   UNL     1      10.930 -17.765   8.618  1.00  0.00    -0.354 N 
ATOM     56  N   UNL     1      11.159 -15.441  10.378  1.00  0.00    -0.248 NA
ATOM     57  C   UNL     1      11.808 -14.500  12.414  1.00  0.00     0.031 C 
ATOM     58  C   UNL     1      11.918 -19.659   9.227  1.00  0.00     0.029 A 
ATOM     59  C   UNL     1      11.703 -18.345   9.610  1.00  0.00     0.049 A 
ATOM     60  H   UNL     1      10.617 -16.832   8.619  1.00  0.00     0.167 HD
ATOM     61  C   UNL     1      11.882 -16.379  11.104  1.00  0.00     0.074 A 
ATOM     62  C   UNL     1      12.306 -15.725  12.325  1.00  0.00     0.031 C 
ATOM     63  C   UNL     1      12.156 -17.672  10.799  1.00  0.00     0.034 A 
BRANCH  50  64
ATOM     64  C   UNL     1       9.577 -19.595   5.532  1.00  0.00     0.023 A 
ATOM     65  C   UNL     1      10.228 -19.666   4.284  1.00  0.00     0.012 A 
ATOM     66  C   UNL     1       8.742 -20.656   5.936  1.00  0.00     0.148 A 
ATOM     67  C   UNL     1      10.034 -20.761   3.442  1.00  0.00     0.002 A 
ATOM     68  C   UNL     1       8.589 -21.764   5.112  1.00  0.00     0.091 A 
ATOM     69  F   UNL     1       8.116 -20.561   7.118  1.00  0.00    -0.205 F 
ATOM     70  C   UNL     1       9.226 -21.814   3.861  1.00  0.00     0.022 A 
BRANCH  68  71
ATOM     71  S   UNL     1       7.638 -23.210   5.592  1.00  0.00     0.127 S 
ATOM     72  O   UNL     1       6.512 -23.145   4.662  1.00  0.00    -0.237 OA
ATOM     73  O   UNL     1       8.581 -24.298   5.334  1.00  0.00    -0.237 OA
ATOM     74  O   UNL     1       7.295 -23.020   6.996  1.00  0.00    -0.744 OA
ENDBRANCH  68  71
ENDBRANCH  50  64
BRANCH  51  75
ATOM     75  C   UNL     1      10.706 -11.873  11.758  1.00  0.00     0.023 A 
ATOM     76  C   UNL     1      11.993 -11.364  12.022  1.00  0.00     0.012 A 
ATOM     77  C   UNL     1       9.596 -11.300  12.406  1.00  0.00     0.148 A 
ATOM     78  C   UNL     1      12.177 -10.339  12.950  1.00  0.00     0.002 A 
ATOM     79  C   UNL     1       9.780 -10.238  13.285  1.00  0.00     0.091 A 
ATOM     80  F   UNL     1       8.381 -11.805  12.153  1.00  0.00    -0.205 F 
ATOM     81  C   UNL     1      11.071  -9.770  13.575  1.00  0.00     0.022 A 
BRANCH  79  82
ATOM     82  S   UNL     1       8.402  -9.361  14.029  1.00  0.00     0.127 S 
ATOM     83  O   UNL     1       8.458  -9.831  15.410  1.00  0.00    -0.237 OA
ATOM     84  O   UNL     1       8.791  -7.963  13.836  1.00  0.00    -0.237 OA
ATOM     85  O   UNL     1       7.227  -9.763  13.267  1.00  0.00    -0.744 OA
ENDBRANCH  79  82
ENDBRANCH  51  75
BRANCH  63  86
ATOM     86  C   UNL     1      12.980 -18.456  11.789  1.00  0.00     0.023 A 
ATOM     87  C   UNL     1      12.431 -18.805  13.040  1.00  0.00     0.012 A 
ATOM     88  C   UNL     1      14.286 -18.875  11.469  1.00  0.00     0.148 A 
ATOM     89  C   UNL     1      13.188 -19.509  13.976  1.00  0.00     0.002 A 
ATOM     90  C   UNL     1      15.014 -19.625  12.385  1.00  0.00     0.091 A 
ATOM     91  F   UNL     1      14.800 -18.521  10.282  1.00  0.00    -0.205 F 
ATOM     92  C   UNL     1      14.474 -19.927  13.645  1.00  0.00     0.022 A 
BRANCH  90  93
ATOM     93  S   UNL     1      16.639 -20.290  12.003  1.00  0.00     0.127 S 
ATOM     94  O   UNL     1      17.513 -19.392  12.755  1.00  0.00    -0.237 OA
ATOM     95  O   UNL     1      16.553 -21.649  12.538  1.00  0.00    -0.237 OA
ATOM     96  O   UNL     1      16.765 -20.221  10.553  1.00  0.00    -0.744 OA
ENDBRANCH  90  93
ENDBRANCH  63  86
ENDBRANCH  37  38
ENDBRANCH  29  32
ENDBRANCH  27  28
ENDBRANCH  26  27
ENDBRANCH   1  26
TORSDOF 17
