REMARK SMILES O=C(C[C@@H]([NH2+]Cc1ccccc1)C(=O)NCCCCNC(=O)c1ccc(-c2c3nc(c(-c4cccc(S(=O)(=O)[O-])c4F)c4ccc([nH]4)c(-c4cccc(S(=O)(=O)[O-])c4F)c4nc(c(-c5cccc(S(=O)(=O)[O-])c5F)c5ccc2[nH]5)C=C4)C=C3)cc1)Nc1cccc(Cl)c1Cl
REMARK SMILES IDX 17 1 16 2 15 3 13 4 14 5 4 7 3 8 2 9 1 10 86 11 87 13 88 14
REMARK SMILES IDX 93 15 89 16 91 17 94 18 90 19 92 20 5 21 6 24 7 25 8 26
REMARK SMILES IDX 12 27 9 28 11 29 10 30 18 31 19 32 20 33 21 34 22 36 23 37
REMARK SMILES IDX 24 38 85 39 25 40 84 41 26 42 27 43 28 44 78 45 29 46 83 47
REMARK SMILES IDX 77 48 79 49 30 50 82 51 76 52 75 53 31 55 63 56 43 57 62 58
REMARK SMILES IDX 44 59 47 60 61 61 80 62 45 63 46 64 60 66 81 67 48 68 32 69
REMARK SMILES IDX 33 70 41 71 34 72 36 73 42 74 35 75 37 76 38 77 39 78 40 79
REMARK SMILES IDX 64 80 65 81 73 82 66 83 68 84 74 85 67 86 69 87 70 88 71 89
REMARK SMILES IDX 72 90 49 91 50 92 58 93 51 94 53 95 59 96 52 97 54 98 55 99
REMARK SMILES IDX 56 100 57 101
REMARK H PARENT 15 6 86 12 5 22 5 23 20 35 79 54 47 65
REMARK Flexibility Score: inf
ROOT
ATOM      1  C   UNL     1       5.414  -0.044   3.519  1.00  0.00     0.023 C 
ENDROOT
BRANCH   1   2
ATOM      2  C   UNL     1       5.934  -0.595   2.192  1.00  0.00     0.116 C 
BRANCH   2   3
ATOM      3  N   UNL     1       5.566  -1.987   2.030  1.00  0.00    -0.351 N 
ATOM      4  C   UNL     1       4.660  -2.562   1.189  1.00  0.00     0.278 C 
ATOM      5  O   UNL     1       4.512  -3.785   1.254  1.00  0.00    -0.268 OA
ATOM      6  H   UNL     1       6.045  -2.615   2.618  1.00  0.00     0.163 HD
BRANCH   4   7
ATOM      7  C   UNL     1       3.868  -1.726   0.164  1.00  0.00     0.282 C 
BRANCH   7   8
ATOM      8  C   UNL     1       2.909  -0.763   0.881  1.00  0.00     0.175 C 
BRANCH   8   9
ATOM      9  C   UNL     1       2.048   0.013  -0.086  1.00  0.00     0.230 C 
ATOM     10  O   UNL     1       0.886  -0.300  -0.322  1.00  0.00    -0.274 OA
ATOM     11  N   UNL     1       2.743   1.036  -0.719  1.00  0.00    -0.325 N 
ATOM     12  H   UNL     1       3.689   1.179  -0.487  1.00  0.00     0.169 HD
BRANCH  11  13
ATOM     13  C   UNL     1       2.147   1.878  -1.679  1.00  0.00     0.061 A 
ATOM     14  C   UNL     1       2.768   1.936  -2.934  1.00  0.00     0.028 A 
ATOM     15  C   UNL     1       0.994   2.648  -1.425  1.00  0.00     0.083 A 
ATOM     16  C   UNL     1       2.202   2.685  -3.964  1.00  0.00     0.004 A 
ATOM     17  C   UNL     1       0.450   3.422  -2.462  1.00  0.00     0.061 A 
ATOM     18  Cl  UNL     1       0.363   2.785   0.189  1.00  0.00    -0.080 Cl
ATOM     19  C   UNL     1       1.042   3.421  -3.730  1.00  0.00     0.022 A 
ATOM     20  Cl  UNL     1      -0.936   4.435  -2.243  1.00  0.00    -0.083 Cl
ENDBRANCH  11  13
ENDBRANCH   8   9
ENDBRANCH   7   8
BRANCH   7  21
ATOM     21  N   UNL     1       4.780  -1.039  -0.809  1.00  0.00    -0.332 N 
ATOM     22  H   UNL     1       5.366  -0.379  -0.297  1.00  0.00     0.347 HD
ATOM     23  H   UNL     1       4.196  -0.568  -1.499  1.00  0.00     0.347 HD
BRANCH  21  24
ATOM     24  C   UNL     1       5.655  -1.985  -1.535  1.00  0.00     0.297 C 
BRANCH  24  25
ATOM     25  C   UNL     1       4.895  -2.948  -2.420  1.00  0.00     0.006 A 
ATOM     26  C   UNL     1       3.907  -2.500  -3.314  1.00  0.00     0.009 A 
ATOM     27  C   UNL     1       5.152  -4.322  -2.337  1.00  0.00     0.009 A 
ATOM     28  C   UNL     1       3.148  -3.409  -4.049  1.00  0.00     0.001 A 
ATOM     29  C   UNL     1       4.408  -5.229  -3.093  1.00  0.00     0.001 A 
ATOM     30  C   UNL     1       3.396  -4.774  -3.936  1.00  0.00     0.000 A 
ENDBRANCH  24  25
ENDBRANCH  21  24
ENDBRANCH   7  21
ENDBRANCH   4   7
ENDBRANCH   2   3
ENDBRANCH   1   2
BRANCH   1  31
ATOM     31  C   UNL     1       6.121  -0.608   4.754  1.00  0.00     0.023 C 
BRANCH  31  32
ATOM     32  C   UNL     1       7.635  -0.426   4.769  1.00  0.00     0.116 C 
BRANCH  32  33
ATOM     33  N   UNL     1       8.035   0.964   4.613  1.00  0.00    -0.352 N 
ATOM     34  C   UNL     1       9.004   1.666   5.284  1.00  0.00     0.251 C 
ATOM     35  H   UNL     1       7.542   1.472   3.930  1.00  0.00     0.163 HD
ATOM     36  O   UNL     1       9.098   2.881   5.116  1.00  0.00    -0.269 OA
BRANCH  34  37
ATOM     37  C   UNL     1       9.910   0.971   6.222  1.00  0.00     0.039 A 
ATOM     38  C   UNL     1      10.181   1.567   7.455  1.00  0.00     0.014 A 
ATOM     39  C   UNL     1      10.488  -0.259   5.894  1.00  0.00     0.014 A 
ATOM     40  C   UNL     1      10.990   0.903   8.379  1.00  0.00     0.010 A 
ATOM     41  C   UNL     1      11.226  -0.956   6.847  1.00  0.00     0.010 A 
ATOM     42  C   UNL     1      11.493  -0.379   8.096  1.00  0.00    -0.014 A 
BRANCH  42  43
ATOM     43  C   UNL     1      12.275  -1.123   9.117  1.00  0.00     0.031 A 
ATOM     44  C   UNL     1      13.709  -1.503   8.867  1.00  0.00     0.074 A 
ATOM     45  C   UNL     1      11.669  -1.500  10.261  1.00  0.00     0.049 A 
ATOM     46  N   UNL     1      14.548  -2.114   9.664  1.00  0.00    -0.248 NA
ATOM     47  C   UNL     1      14.271  -1.177   7.546  1.00  0.00     0.031 C 
ATOM     48  C   UNL     1      10.258  -1.277  10.583  1.00  0.00     0.029 A 
ATOM     49  N   UNL     1      12.159  -2.160  11.360  1.00  0.00    -0.354 N 
ATOM     50  C   UNL     1      15.722  -2.269   8.937  1.00  0.00     0.074 A 
ATOM     51  C   UNL     1      15.476  -1.724   7.620  1.00  0.00     0.031 C 
ATOM     52  C   UNL     1      10.001  -1.769  11.805  1.00  0.00     0.029 A 
ATOM     53  C   UNL     1      11.219  -2.368  12.342  1.00  0.00     0.049 A 
ATOM     54  H   UNL     1      13.094  -2.457  11.438  1.00  0.00     0.167 HD
ATOM     55  C   UNL     1      16.908  -2.788   9.337  1.00  0.00     0.034 A 
ATOM     56  C   UNL     1      11.324  -2.971  13.542  1.00  0.00     0.034 A 
ATOM     57  C   UNL     1      17.157  -3.304  10.656  1.00  0.00     0.049 A 
ATOM     58  C   UNL     1      12.663  -3.499  13.978  1.00  0.00     0.074 A 
ATOM     59  C   UNL     1      18.347  -3.772  11.187  1.00  0.00     0.029 A 
ATOM     60  N   UNL     1      16.200  -3.437  11.650  1.00  0.00    -0.354 N 
ATOM     61  N   UNL     1      13.807  -3.478  13.339  1.00  0.00    -0.248 NA
ATOM     62  C   UNL     1      12.734  -4.096  15.319  1.00  0.00     0.031 C 
ATOM     63  C   UNL     1      18.101  -4.219  12.489  1.00  0.00     0.029 A 
ATOM     64  C   UNL     1      16.767  -3.992  12.786  1.00  0.00     0.049 A 
ATOM     65  H   UNL     1      15.255  -3.174  11.562  1.00  0.00     0.167 HD
ATOM     66  C   UNL     1      14.740  -4.029  14.210  1.00  0.00     0.074 A 
ATOM     67  C   UNL     1      14.031  -4.344  15.434  1.00  0.00     0.031 C 
ATOM     68  C   UNL     1      16.060  -4.268  14.011  1.00  0.00     0.034 A 
BRANCH  55  69
ATOM     69  C   UNL     1      18.045  -2.783   8.346  1.00  0.00     0.023 A 
ATOM     70  C   UNL     1      18.645  -1.560   7.979  1.00  0.00     0.012 A 
ATOM     71  C   UNL     1      18.561  -3.987   7.827  1.00  0.00     0.148 A 
ATOM     72  C   UNL     1      19.713  -1.532   7.083  1.00  0.00     0.002 A 
ATOM     73  C   UNL     1      19.658  -3.954   6.973  1.00  0.00     0.091 A 
ATOM     74  F   UNL     1      17.968  -5.138   8.171  1.00  0.00    -0.205 F 
ATOM     75  C   UNL     1      20.226  -2.728   6.590  1.00  0.00     0.022 A 
BRANCH  73  76
ATOM     76  S   UNL     1      20.445  -5.442   6.346  1.00  0.00     0.127 S 
ATOM     77  O   UNL     1      20.096  -5.384   4.927  1.00  0.00    -0.237 OA
ATOM     78  O   UNL     1      21.856  -5.188   6.637  1.00  0.00    -0.237 OA
ATOM     79  O   UNL     1      19.860  -6.550   7.087  1.00  0.00    -0.744 OA
ENDBRANCH  73  76
ENDBRANCH  55  69
BRANCH  56  80
ATOM     80  C   UNL     1      10.139  -3.049  14.443  1.00  0.00     0.023 A 
ATOM     81  C   UNL     1      10.116  -2.292  15.631  1.00  0.00     0.012 A 
ATOM     82  C   UNL     1       9.029  -3.852  14.118  1.00  0.00     0.148 A 
ATOM     83  C   UNL     1       9.024  -2.361  16.497  1.00  0.00     0.002 A 
ATOM     84  C   UNL     1       7.920  -3.870  14.955  1.00  0.00     0.091 A 
ATOM     85  F   UNL     1       9.075  -4.571  12.988  1.00  0.00    -0.205 F 
ATOM     86  C   UNL     1       7.923  -3.141  16.154  1.00  0.00     0.022 A 
BRANCH  84  87
ATOM     87  S   UNL     1       6.407  -4.737  14.527  1.00  0.00     0.127 S 
ATOM     88  O   UNL     1       6.403  -5.828  15.498  1.00  0.00    -0.237 OA
ATOM     89  O   UNL     1       5.395  -3.705  14.754  1.00  0.00    -0.237 OA
ATOM     90  O   UNL     1       6.559  -5.130  13.133  1.00  0.00    -0.744 OA
ENDBRANCH  84  87
ENDBRANCH  56  80
BRANCH  68  91
ATOM     91  C   UNL     1      16.835  -4.873  15.154  1.00  0.00     0.023 A 
ATOM     92  C   UNL     1      16.599  -6.209  15.536  1.00  0.00     0.012 A 
ATOM     93  C   UNL     1      17.825  -4.129  15.824  1.00  0.00     0.148 A 
ATOM     94  C   UNL     1      17.299  -6.778  16.599  1.00  0.00     0.002 A 
ATOM     95  C   UNL     1      18.558  -4.720  16.846  1.00  0.00     0.091 A 
ATOM     96  F   UNL     1      18.026  -2.854  15.460  1.00  0.00    -0.205 F 
ATOM     97  C   UNL     1      18.285  -6.038  17.247  1.00  0.00     0.022 A 
BRANCH  95  98
ATOM     98  S   UNL     1      19.913  -3.876  17.669  1.00  0.00     0.127 S 
ATOM     99  O   UNL     1      19.325  -3.566  18.971  1.00  0.00    -0.237 OA
ATOM    100  O   UNL     1      20.950  -4.908  17.699  1.00  0.00    -0.237 OA
ATOM    101  O   UNL     1      20.233  -2.725  16.836  1.00  0.00    -0.744 OA
ENDBRANCH  95  98
ENDBRANCH  68  91
ENDBRANCH  42  43
ENDBRANCH  34  37
ENDBRANCH  32  33
ENDBRANCH  31  32
ENDBRANCH   1  31
TORSDOF 20
