REMARK SMILES CC1(C)Oc2ccc(NC(=O)[C@H]3CC=CC[C@@H]3C(=O)NCCCCNC(=O)c3ccc(-c4c5nc(c(-c6cccc(S(=O)(=O)[O-])c6F)c6ccc([nH]6)c(-c6cccc(S(=O)(=O)[O-])c6F)c6nc(c(-c7cccc(S(=O)(=O)[O-])c7F)c7ccc4[nH]7)C=C6)C=C5)cc3)cc2NC1=O
REMARK SMILES IDX 23 1 22 2 21 3 20 4 18 5 19 6 17 8 12 9 13 10 14 11 16 12
REMARK SMILES IDX 15 13 10 14 9 15 11 17 8 18 1 19 2 20 3 21 4 22 94 23 5 24
REMARK SMILES IDX 93 25 95 26 6 27 92 28 7 30 91 31 24 32 25 33 26 34 27 36
REMARK SMILES IDX 28 37 29 38 90 39 30 40 89 41 31 42 32 43 33 44 83 45 34 46
REMARK SMILES IDX 88 47 82 48 84 49 35 50 87 51 81 52 80 53 36 55 68 56 48 57
REMARK SMILES IDX 67 58 49 59 52 60 66 61 85 62 50 63 51 64 65 66 86 67 53 68
REMARK SMILES IDX 37 69 38 70 46 71 39 72 41 73 47 74 40 75 42 76 43 77 44 78
REMARK SMILES IDX 45 79 69 80 70 81 78 82 71 83 73 84 79 85 72 86 74 87 75 88
REMARK SMILES IDX 76 89 77 90 54 91 55 92 63 93 56 94 58 95 64 96 57 97 59 98
REMARK SMILES IDX 60 99 61 100 62 101
REMARK H PARENT 20 7 9 16 93 29 25 35 84 54 52 65
REMARK Flexibility Score: inf
ROOT
ATOM      1  C   UNL     1      -3.751   0.290   8.983  1.00  0.00     0.023 C 
ENDROOT
BRANCH   1   2
ATOM      2  C   UNL     1      -3.400   1.724   8.584  1.00  0.00     0.023 C 
BRANCH   2   3
ATOM      3  C   UNL     1      -2.676   2.559   9.639  1.00  0.00     0.116 C 
BRANCH   3   4
ATOM      4  N   UNL     1      -1.454   1.940  10.123  1.00  0.00    -0.356 N 
ATOM      5  C   UNL     1      -0.205   2.471  10.287  1.00  0.00     0.224 C 
ATOM      6  O   UNL     1       0.623   1.798  10.900  1.00  0.00    -0.275 OA
ATOM      7  H   UNL     1      -1.538   0.991  10.371  1.00  0.00     0.163 HD
BRANCH   5   8
ATOM      8  C   UNL     1       0.142   3.808   9.634  1.00  0.00     0.095 C 
ATOM      9  C   UNL     1       0.475   3.532   8.150  1.00  0.00     0.095 C 
ATOM     10  C   UNL     1       1.888   2.940   7.964  1.00  0.00     0.041 C 
ATOM     11  C   UNL     1       2.934   3.490   8.881  1.00  0.00    -0.030 C 
ATOM     12  C   UNL     1       1.256   4.544  10.398  1.00  0.00     0.041 C 
ATOM     13  C   UNL     1       2.652   4.223   9.963  1.00  0.00    -0.030 C 
BRANCH   9  14
ATOM     14  C   UNL     1       0.264   4.756   7.269  1.00  0.00     0.228 C 
ATOM     15  N   UNL     1       0.318   4.699   5.903  1.00  0.00    -0.326 N 
ATOM     16  H   UNL     1       0.286   5.591   5.489  1.00  0.00     0.169 HD
ATOM     17  O   UNL     1       0.046   5.869   7.762  1.00  0.00    -0.274 OA
BRANCH  15  18
ATOM     18  C   UNL     1       0.408   3.667   4.947  1.00  0.00     0.043 A 
ATOM     19  C   UNL     1       1.215   0.161  -0.288  1.00  0.00     0.067 C 
ATOM     20  C   UNL     1       0.558   1.219   0.602  1.00  0.00     0.182 C 
ATOM     21  C   UNL     1      -0.953   1.250   0.316  1.00  0.00     0.067 C 
ATOM     22  O   UNL     1       0.744   0.774   1.950  1.00  0.00    -0.476 OA
ATOM     23  C   UNL     1       1.149   2.611   0.271  1.00  0.00     0.268 C 
ATOM     24  C   UNL     1       0.626   1.760   2.887  1.00  0.00     0.144 A 
ATOM     25  N   UNL     1       1.135   3.508   1.310  1.00  0.00    -0.319 N 
ATOM     26  O   UNL     1       1.520   2.958  -0.849  1.00  0.00    -0.270 OA
ATOM     27  C   UNL     1       0.336   1.357   4.181  1.00  0.00     0.051 A 
ATOM     28  C   UNL     1       0.811   3.112   2.609  1.00  0.00     0.086 A 
ATOM     29  H   UNL     1       1.357   4.451   1.136  1.00  0.00     0.170 HD
ATOM     30  C   UNL     1       0.209   2.307   5.198  1.00  0.00     0.030 A 
ATOM     31  C   UNL     1       0.704   4.061   3.630  1.00  0.00     0.056 A 
ENDBRANCH  15  18
ENDBRANCH   9  14
ENDBRANCH   5   8
ENDBRANCH   3   4
ENDBRANCH   2   3
ENDBRANCH   1   2
BRANCH   1  32
ATOM     32  C   UNL     1      -4.509   0.122  10.295  1.00  0.00     0.116 C 
BRANCH  32  33
ATOM     33  N   UNL     1      -5.826   0.740  10.293  1.00  0.00    -0.352 N 
ATOM     34  C   UNL     1      -7.041   0.210  10.671  1.00  0.00     0.251 C 
ATOM     35  H   UNL     1      -5.853   1.671   9.975  1.00  0.00     0.163 HD
ATOM     36  O   UNL     1      -8.066   0.869  10.510  1.00  0.00    -0.269 OA
BRANCH  34  37
ATOM     37  C   UNL     1      -7.117  -1.165  11.220  1.00  0.00     0.039 A 
ATOM     38  C   UNL     1      -6.212  -1.604  12.188  1.00  0.00     0.014 A 
ATOM     39  C   UNL     1      -8.087  -2.042  10.724  1.00  0.00     0.014 A 
ATOM     40  C   UNL     1      -6.154  -2.957  12.514  1.00  0.00     0.010 A 
ATOM     41  C   UNL     1      -8.079  -3.385  11.117  1.00  0.00     0.010 A 
ATOM     42  C   UNL     1      -7.072  -3.868  11.966  1.00  0.00    -0.014 A 
BRANCH  42  43
ATOM     43  C   UNL     1      -6.940  -5.317  12.274  1.00  0.00     0.031 A 
ATOM     44  C   UNL     1      -6.605  -6.311  11.192  1.00  0.00     0.074 A 
ATOM     45  C   UNL     1      -7.064  -5.739  13.547  1.00  0.00     0.049 A 
ATOM     46  N   UNL     1      -6.402  -7.601  11.295  1.00  0.00    -0.248 NA
ATOM     47  C   UNL     1      -6.481  -5.798   9.818  1.00  0.00     0.031 C 
ATOM     48  C   UNL     1      -7.404  -4.883  14.685  1.00  0.00     0.029 A 
ATOM     49  N   UNL     1      -6.899  -6.983  14.101  1.00  0.00    -0.354 N 
ATOM     50  C   UNL     1      -6.160  -8.056  10.005  1.00  0.00     0.074 A 
ATOM     51  C   UNL     1      -6.254  -6.909   9.129  1.00  0.00     0.031 C 
ATOM     52  C   UNL     1      -7.379  -5.617  15.807  1.00  0.00     0.029 A 
ATOM     53  C   UNL     1      -7.063  -7.002  15.465  1.00  0.00     0.049 A 
ATOM     54  H   UNL     1      -6.685  -7.785  13.572  1.00  0.00     0.167 HD
ATOM     55  C   UNL     1      -5.859  -9.308   9.587  1.00  0.00     0.034 A 
ATOM     56  C   UNL     1      -6.971  -8.014  16.349  1.00  0.00     0.034 A 
ATOM     57  C   UNL     1      -5.713 -10.444  10.456  1.00  0.00     0.049 A 
ATOM     58  C   UNL     1      -6.622  -9.391  15.867  1.00  0.00     0.074 A 
ATOM     59  C   UNL     1      -5.378 -11.744  10.119  1.00  0.00     0.029 A 
ATOM     60  N   UNL     1      -5.882 -10.417  11.831  1.00  0.00    -0.354 N 
ATOM     61  N   UNL     1      -6.334  -9.784  14.651  1.00  0.00    -0.248 NA
ATOM     62  C   UNL     1      -6.572 -10.460  16.875  1.00  0.00     0.031 C 
ATOM     63  C   UNL     1      -5.342 -12.504  11.293  1.00  0.00     0.029 A 
ATOM     64  C   UNL     1      -5.655 -11.676  12.359  1.00  0.00     0.049 A 
ATOM     65  H   UNL     1      -6.128  -9.621  12.354  1.00  0.00     0.167 HD
ATOM     66  C   UNL     1      -6.065 -11.144  14.744  1.00  0.00     0.074 A 
ATOM     67  C   UNL     1      -6.200 -11.503  16.141  1.00  0.00     0.031 C 
ATOM     68  C   UNL     1      -5.755 -12.016  13.755  1.00  0.00     0.034 A 
BRANCH  55  69
ATOM     69  C   UNL     1      -5.597  -9.509   8.119  1.00  0.00     0.023 A 
ATOM     70  C   UNL     1      -4.343  -9.144   7.593  1.00  0.00     0.012 A 
ATOM     71  C   UNL     1      -6.552 -10.117   7.282  1.00  0.00     0.148 A 
ATOM     72  C   UNL     1      -4.047  -9.364   6.248  1.00  0.00     0.002 A 
ATOM     73  C   UNL     1      -6.240 -10.357   5.948  1.00  0.00     0.091 A 
ATOM     74  F   UNL     1      -7.747 -10.437   7.800  1.00  0.00    -0.205 F 
ATOM     75  C   UNL     1      -4.991  -9.978   5.430  1.00  0.00     0.022 A 
BRANCH  73  76
ATOM     76  S   UNL     1      -7.369 -11.188   4.823  1.00  0.00     0.127 S 
ATOM     77  O   UNL     1      -7.806 -10.079   3.975  1.00  0.00    -0.237 OA
ATOM     78  O   UNL     1      -6.492 -12.153   4.160  1.00  0.00    -0.237 OA
ATOM     79  O   UNL     1      -8.402 -11.781   5.660  1.00  0.00    -0.744 OA
ENDBRANCH  73  76
ENDBRANCH  55  69
BRANCH  56  80
ATOM     80  C   UNL     1      -7.158  -7.717  17.794  1.00  0.00     0.023 A 
ATOM     81  C   UNL     1      -6.028  -7.625  18.628  1.00  0.00     0.012 A 
ATOM     82  C   UNL     1      -8.430  -7.402  18.311  1.00  0.00     0.148 A 
ATOM     83  C   UNL     1      -6.161  -7.216  19.955  1.00  0.00     0.002 A 
ATOM     84  C   UNL     1      -8.549  -6.953  19.619  1.00  0.00     0.091 A 
ATOM     85  F   UNL     1      -9.486  -7.496  17.490  1.00  0.00    -0.205 F 
ATOM     86  C   UNL     1      -7.418  -6.868  20.446  1.00  0.00     0.022 A 
BRANCH  84  87
ATOM     87  S   UNL     1     -10.101  -6.363  20.305  1.00  0.00     0.127 S 
ATOM     88  O   UNL     1     -10.285  -7.259  21.445  1.00  0.00    -0.237 OA
ATOM     89  O   UNL     1      -9.763  -4.983  20.653  1.00  0.00    -0.237 OA
ATOM     90  O   UNL     1     -11.085  -6.502  19.241  1.00  0.00    -0.744 OA
ENDBRANCH  84  87
ENDBRANCH  56  80
BRANCH  68  91
ATOM     91  C   UNL     1      -5.549 -13.458  14.125  1.00  0.00     0.023 A 
ATOM     92  C   UNL     1      -6.675 -14.283  14.310  1.00  0.00     0.012 A 
ATOM     93  C   UNL     1      -4.259 -14.020  14.169  1.00  0.00     0.148 A 
ATOM     94  C   UNL     1      -6.521 -15.649  14.540  1.00  0.00     0.002 A 
ATOM     95  C   UNL     1      -4.113 -15.388  14.369  1.00  0.00     0.091 A 
ATOM     96  F   UNL     1      -3.204 -13.210  13.999  1.00  0.00    -0.205 F 
ATOM     97  C   UNL     1      -5.242 -16.203  14.558  1.00  0.00     0.022 A 
BRANCH  95  98
ATOM     98  S   UNL     1      -2.515 -16.208  14.341  1.00  0.00     0.127 S 
ATOM     99  O   UNL     1      -2.374 -16.634  15.733  1.00  0.00    -0.237 OA
ATOM    100  O   UNL     1      -2.742 -17.296  13.390  1.00  0.00    -0.237 OA
ATOM    101  O   UNL     1      -1.554 -15.205  13.900  1.00  0.00    -0.744 OA
ENDBRANCH  95  98
ENDBRANCH  68  91
ENDBRANCH  42  43
ENDBRANCH  34  37
ENDBRANCH  32  33
ENDBRANCH   1  32
TORSDOF 16
