REMARK SMILES Cc1cc(SCC(=O)NCCCCNC(=O)c2ccc(-c3c4nc(c(-c5cccc(S(=O)(=O)[O-])c5F)c5ccc([nH]5)c(-c5cccc(S(=O)(=O)[O-])c5F)c5nc(c(-c6cccc(S(=O)(=O)[O-])c6F)c6ccc3[nH]6)C=C5)C=C4)cc2)c2cc(I)ccc2n1
REMARK SMILES IDX 12 1 11 2 10 3 9 4 7 5 8 6 6 8 5 9 4 10 1 11 2 12 3 13 87 14
REMARK SMILES IDX 86 15 80 16 85 17 81 18 84 19 82 20 83 21 13 22 14 23 15 24
REMARK SMILES IDX 16 26 17 27 18 28 79 29 19 30 78 31 20 32 21 33 22 34 72 35
REMARK SMILES IDX 23 36 77 37 71 38 73 39 24 40 76 41 70 42 69 43 25 45 57 46
REMARK SMILES IDX 37 47 56 48 38 49 41 50 55 51 74 52 39 53 40 54 54 56 75 57
REMARK SMILES IDX 42 58 26 59 27 60 35 61 28 62 30 63 36 64 29 65 31 66 32 67
REMARK SMILES IDX 33 68 34 69 58 70 59 71 67 72 60 73 62 74 68 75 61 76 63 77
REMARK SMILES IDX 64 78 65 79 66 80 43 81 44 82 52 83 45 84 47 85 53 86 46 87
REMARK SMILES IDX 48 88 49 89 50 90 51 91
REMARK H PARENT 9 7 14 25 73 44 41 55
REMARK Flexibility Score: inf
ROOT
ATOM      1  C   UNL     1       2.057   2.760  -6.251  1.00  0.00     0.023 C 
ENDROOT
BRANCH   1   2
ATOM      2  C   UNL     1       0.581   3.068  -5.975  1.00  0.00     0.023 C 
BRANCH   2   3
ATOM      3  C   UNL     1      -0.385   1.920  -6.270  1.00  0.00     0.116 C 
BRANCH   3   4
ATOM      4  N   UNL     1      -0.097   0.753  -5.460  1.00  0.00    -0.355 N 
ATOM      5  C   UNL     1      -0.779   0.236  -4.402  1.00  0.00     0.230 C 
ATOM      6  O   UNL     1      -0.318  -0.768  -3.851  1.00  0.00    -0.274 OA
ATOM      7  H   UNL     1       0.715   0.259  -5.714  1.00  0.00     0.163 HD
BRANCH   5   8
ATOM      8  C   UNL     1      -2.112   0.809  -3.962  1.00  0.00     0.174 C 
BRANCH   8   9
ATOM      9  S   UNL     1      -2.040   2.480  -3.241  1.00  0.00    -0.115 SA
BRANCH   9  10
ATOM     10  C   UNL     1      -0.793   2.413  -1.937  1.00  0.00     0.019 A 
ATOM     11  C   UNL     1       0.999  -0.080   0.272  1.00  0.00     0.067 C 
ATOM     12  C   UNL     1       0.550   1.203  -0.359  1.00  0.00     0.039 A 
ATOM     13  C   UNL     1      -0.434   1.206  -1.335  1.00  0.00     0.039 A 
ATOM     14  N   UNL     1       1.123   2.336   0.097  1.00  0.00    -0.253 NA
ATOM     15  C   UNL     1       0.762   3.507  -0.440  1.00  0.00     0.072 A 
ATOM     16  C   UNL     1      -0.191   3.621  -1.476  1.00  0.00     0.015 A 
ATOM     17  C   UNL     1       1.364   4.653   0.063  1.00  0.00     0.030 A 
ATOM     18  C   UNL     1      -0.482   4.923  -1.972  1.00  0.00     0.026 A 
ATOM     19  C   UNL     1       1.063   5.926  -0.424  1.00  0.00     0.017 A 
ATOM     20  C   UNL     1       0.139   6.056  -1.448  1.00  0.00     0.014 A 
ATOM     21  I   UNL     1      -0.327   7.936  -2.196  1.00  0.00    -0.044 I 
ENDBRANCH   9  10
ENDBRANCH   8   9
ENDBRANCH   5   8
ENDBRANCH   3   4
ENDBRANCH   2   3
ENDBRANCH   1   2
BRANCH   1  22
ATOM     22  C   UNL     1       2.383   2.293  -7.666  1.00  0.00     0.116 C 
BRANCH  22  23
ATOM     23  N   UNL     1       2.048   3.272  -8.689  1.00  0.00    -0.352 N 
ATOM     24  C   UNL     1       2.765   3.626  -9.810  1.00  0.00     0.251 C 
ATOM     25  H   UNL     1       1.193   3.744  -8.563  1.00  0.00     0.163 HD
ATOM     26  O   UNL     1       2.375   4.551 -10.518  1.00  0.00    -0.269 OA
BRANCH  24  27
ATOM     27  C   UNL     1       4.027   2.919 -10.126  1.00  0.00     0.039 A 
ATOM     28  C   UNL     1       4.089   1.524 -10.101  1.00  0.00     0.014 A 
ATOM     29  C   UNL     1       5.173   3.668 -10.405  1.00  0.00     0.014 A 
ATOM     30  C   UNL     1       5.325   0.889 -10.191  1.00  0.00     0.010 A 
ATOM     31  C   UNL     1       6.404   3.022 -10.564  1.00  0.00     0.010 A 
ATOM     32  C   UNL     1       6.499   1.631 -10.403  1.00  0.00    -0.014 A 
BRANCH  32  33
ATOM     33  C   UNL     1       7.814   0.935 -10.424  1.00  0.00     0.031 A 
ATOM     34  C   UNL     1       8.835   1.188  -9.343  1.00  0.00     0.074 A 
ATOM     35  C   UNL     1       8.069   0.029 -11.388  1.00  0.00     0.049 A 
ATOM     36  N   UNL     1      10.013   0.640  -9.184  1.00  0.00    -0.248 NA
ATOM     37  C   UNL     1       8.496   2.179  -8.307  1.00  0.00     0.031 C 
ATOM     38  C   UNL     1       7.168  -0.304 -12.493  1.00  0.00     0.029 A 
ATOM     39  N   UNL     1       9.151  -0.794 -11.583  1.00  0.00    -0.354 N 
ATOM     40  C   UNL     1      10.568   1.242  -8.060  1.00  0.00     0.074 A 
ATOM     41  C   UNL     1       9.601   2.200  -7.573  1.00  0.00     0.031 C 
ATOM     42  C   UNL     1       7.710  -1.293 -13.221  1.00  0.00     0.029 A 
ATOM     43  C   UNL     1       9.014  -1.637 -12.662  1.00  0.00     0.049 A 
ATOM     44  H   UNL     1       9.948  -0.781 -11.007  1.00  0.00     0.167 HD
ATOM     45  C   UNL     1      11.764   1.001  -7.474  1.00  0.00     0.034 A 
ATOM     46  C   UNL     1       9.841  -2.584 -13.146  1.00  0.00     0.034 A 
ATOM     47  C   UNL     1      12.700   0.003  -7.913  1.00  0.00     0.049 A 
ATOM     48  C   UNL     1      11.156  -2.834 -12.465  1.00  0.00     0.074 A 
ATOM     49  C   UNL     1      13.919  -0.332  -7.350  1.00  0.00     0.029 A 
ATOM     50  N   UNL     1      12.520  -0.827  -9.006  1.00  0.00    -0.354 N 
ATOM     51  N   UNL     1      11.627  -2.300 -11.365  1.00  0.00    -0.248 NA
ATOM     52  C   UNL     1      12.050  -3.824 -13.086  1.00  0.00     0.031 C 
ATOM     53  C   UNL     1      14.475  -1.372  -8.100  1.00  0.00     0.029 A 
ATOM     54  C   UNL     1      13.603  -1.678  -9.132  1.00  0.00     0.049 A 
ATOM     55  H   UNL     1      11.738  -0.814  -9.604  1.00  0.00     0.167 HD
ATOM     56  C   UNL     1      12.862  -2.899 -11.153  1.00  0.00     0.074 A 
ATOM     57  C   UNL     1      13.061  -3.851 -12.225  1.00  0.00     0.031 C 
ATOM     58  C   UNL     1      13.761  -2.661 -10.169  1.00  0.00     0.034 A 
BRANCH  45  59
ATOM     59  C   UNL     1      12.125   1.778  -6.239  1.00  0.00     0.023 A 
ATOM     60  C   UNL     1      11.645   1.336  -4.991  1.00  0.00     0.012 A 
ATOM     61  C   UNL     1      13.046   2.842  -6.295  1.00  0.00     0.148 A 
ATOM     62  C   UNL     1      12.078   1.941  -3.813  1.00  0.00     0.002 A 
ATOM     63  C   UNL     1      13.492   3.425  -5.114  1.00  0.00     0.091 A 
ATOM     64  F   UNL     1      13.485   3.242  -7.497  1.00  0.00    -0.205 F 
ATOM     65  C   UNL     1      13.008   2.977  -3.874  1.00  0.00     0.022 A 
BRANCH  63  66
ATOM     66  S   UNL     1      14.726   4.729  -5.073  1.00  0.00     0.127 S 
ATOM     67  O   UNL     1      13.991   5.811  -4.417  1.00  0.00    -0.237 OA
ATOM     68  O   UNL     1      15.780   4.126  -4.258  1.00  0.00    -0.237 OA
ATOM     69  O   UNL     1      15.088   4.989  -6.460  1.00  0.00    -0.744 OA
ENDBRANCH  63  66
ENDBRANCH  45  59
BRANCH  46  70
ATOM     70  C   UNL     1       9.413  -3.416 -14.302  1.00  0.00     0.023 A 
ATOM     71  C   UNL     1       9.048  -4.757 -14.080  1.00  0.00     0.012 A 
ATOM     72  C   UNL     1       9.323  -2.881 -15.601  1.00  0.00     0.148 A 
ATOM     73  C   UNL     1       8.611  -5.557 -15.136  1.00  0.00     0.002 A 
ATOM     74  C   UNL     1       8.845  -3.671 -16.640  1.00  0.00     0.091 A 
ATOM     75  F   UNL     1       9.697  -1.608 -15.791  1.00  0.00    -0.205 F 
ATOM     76  C   UNL     1       8.498  -5.011 -16.412  1.00  0.00     0.022 A 
BRANCH  74  77
ATOM     77  S   UNL     1       8.562  -3.014 -18.288  1.00  0.00     0.127 S 
ATOM     78  O   UNL     1       9.682  -3.582 -19.032  1.00  0.00    -0.237 OA
ATOM     79  O   UNL     1       7.252  -3.576 -18.620  1.00  0.00    -0.237 OA
ATOM     80  O   UNL     1       8.567  -1.565 -18.134  1.00  0.00    -0.744 OA
ENDBRANCH  74  77
ENDBRANCH  46  70
BRANCH  58  81
ATOM     81  C   UNL     1      15.046  -3.438 -10.183  1.00  0.00     0.023 A 
ATOM     82  C   UNL     1      16.088  -3.020 -11.032  1.00  0.00     0.012 A 
ATOM     83  C   UNL     1      15.264  -4.494  -9.277  1.00  0.00     0.148 A 
ATOM     84  C   UNL     1      17.331  -3.647 -10.984  1.00  0.00     0.002 A 
ATOM     85  C   UNL     1      16.515  -5.094  -9.213  1.00  0.00     0.091 A 
ATOM     86  F   UNL     1      14.249  -4.877  -8.488  1.00  0.00    -0.205 F 
ATOM     87  C   UNL     1      17.548  -4.674 -10.068  1.00  0.00     0.022 A 
BRANCH  85  88
ATOM     88  S   UNL     1      16.914  -6.376  -8.020  1.00  0.00     0.127 S 
ATOM     89  O   UNL     1      17.066  -7.547  -8.881  1.00  0.00    -0.237 OA
ATOM     90  O   UNL     1      18.160  -5.880  -7.437  1.00  0.00    -0.237 OA
ATOM     91  O   UNL     1      15.790  -6.428  -7.094  1.00  0.00    -0.744 OA
ENDBRANCH  85  88
ENDBRANCH  58  81
ENDBRANCH  32  33
ENDBRANCH  24  27
ENDBRANCH  22  23
ENDBRANCH   1  22
TORSDOF 16
