REMARK SMILES CCCCC[NH2+][C@](C)(C(=O)NCCCCNC(=O)c1ccc(-c2c3nc(c(-c4cccc(S(=O)(=O)[O-])c4F)c4ccc([nH]4)c(-c4cccc(S(=O)(=O)[O-])c4F)c4nc(c(-c5cccc(S(=O)(=O)[O-])c5F)c5ccc2[nH]5)C=C4)C=C3)cc1)C(F)(F)F
REMARK SMILES IDX 12 1 11 2 9 3 10 4 7 6 8 7 6 8 5 11 4 12 3 13 2 14 1 15
REMARK SMILES IDX 82 16 83 17 84 18 85 19 13 20 14 21 15 22 16 23 17 24 18 26
REMARK SMILES IDX 19 27 20 28 81 29 21 30 80 31 22 32 23 33 24 34 74 35 25 36
REMARK SMILES IDX 79 37 73 38 75 39 26 40 78 41 72 42 71 43 27 45 59 46 39 47
REMARK SMILES IDX 58 48 40 49 43 50 57 51 76 52 41 53 42 54 56 56 77 57 44 58
REMARK SMILES IDX 28 59 29 60 37 61 30 62 32 63 38 64 31 65 33 66 34 67 35 68
REMARK SMILES IDX 36 69 60 70 61 71 69 72 62 73 64 74 70 75 63 76 65 77 66 78
REMARK SMILES IDX 67 79 68 80 45 81 46 82 54 83 47 84 49 85 55 86 48 87 50 88
REMARK SMILES IDX 51 89 52 90 53 91
REMARK H PARENT 11 5 6 9 6 10 16 25 75 44 43 55
REMARK Flexibility Score: inf
ROOT
ATOM      1  C   UNL     1      -2.287  -0.337   4.844  1.00  0.00     0.116 C 
ENDROOT
BRANCH   1   2
ATOM      2  N   UNL     1      -3.095   0.811   5.219  1.00  0.00    -0.350 N 
ATOM      3  C   UNL     1      -3.439   1.931   4.503  1.00  0.00     0.290 C 
ATOM      4  O   UNL     1      -4.224   2.710   5.048  1.00  0.00    -0.267 OA
ATOM      5  H   UNL     1      -3.455   0.781   6.135  1.00  0.00     0.163 HD
BRANCH   3   6
ATOM      6  C   UNL     1      -2.840   2.198   3.100  1.00  0.00     0.268 C 
ATOM      7  C   UNL     1      -1.331   2.472   3.261  1.00  0.00     0.101 C 
BRANCH   6   8
ATOM      8  N   UNL     1      -3.192   1.012   2.235  1.00  0.00    -0.326 N 
ATOM      9  H   UNL     1      -3.301   0.203   2.845  1.00  0.00     0.347 HD
ATOM     10  H   UNL     1      -4.042   1.278   1.737  1.00  0.00     0.347 HD
BRANCH   8  11
ATOM     11  C   UNL     1      -2.227   0.665   1.203  1.00  0.00     0.261 C 
BRANCH  11  12
ATOM     12  C   UNL     1      -2.730  -0.522   0.373  1.00  0.00     0.061 C 
BRANCH  12  13
ATOM     13  C   UNL     1      -3.912  -0.215  -0.552  1.00  0.00     0.006 C 
BRANCH  13  14
ATOM     14  C   UNL     1      -3.696   0.957  -1.513  1.00  0.00    -0.003 C 
ATOM     15  C   UNL     1      -2.458   0.808  -2.385  1.00  0.00     0.004 C 
ENDBRANCH  13  14
ENDBRANCH  12  13
ENDBRANCH  11  12
ENDBRANCH   8  11
ENDBRANCH   6   8
BRANCH   6  16
ATOM     16  C   UNL     1      -3.491   3.510   2.577  1.00  0.00     0.453 C 
ATOM     17  F   UNL     1      -3.245   4.588   3.351  1.00  0.00    -0.164 F 
ATOM     18  F   UNL     1      -2.990   3.809   1.343  1.00  0.00    -0.164 F 
ATOM     19  F   UNL     1      -4.829   3.389   2.409  1.00  0.00    -0.164 F 
ENDBRANCH   6  16
ENDBRANCH   3   6
ENDBRANCH   1   2
BRANCH   1  20
ATOM     20  C   UNL     1      -0.992  -0.423   5.646  1.00  0.00     0.023 C 
BRANCH  20  21
ATOM     21  C   UNL     1      -1.172  -0.819   7.109  1.00  0.00     0.023 C 
BRANCH  21  22
ATOM     22  C   UNL     1      -1.914  -2.131   7.341  1.00  0.00     0.116 C 
BRANCH  22  23
ATOM     23  N   UNL     1      -1.307  -3.267   6.661  1.00  0.00    -0.352 N 
ATOM     24  C   UNL     1      -1.101  -4.541   7.134  1.00  0.00     0.251 C 
ATOM     25  H   UNL     1      -1.004  -3.100   5.739  1.00  0.00     0.163 HD
ATOM     26  O   UNL     1      -0.471  -5.354   6.463  1.00  0.00    -0.269 OA
BRANCH  24  27
ATOM     27  C   UNL     1      -1.614  -4.912   8.470  1.00  0.00     0.039 A 
ATOM     28  C   UNL     1      -0.757  -5.546   9.372  1.00  0.00     0.014 A 
ATOM     29  C   UNL     1      -2.923  -4.595   8.842  1.00  0.00     0.014 A 
ATOM     30  C   UNL     1      -1.192  -5.800  10.674  1.00  0.00     0.010 A 
ATOM     31  C   UNL     1      -3.328  -4.780  10.160  1.00  0.00     0.010 A 
ATOM     32  C   UNL     1      -2.469  -5.386  11.090  1.00  0.00    -0.014 A 
BRANCH  32  33
ATOM     33  C   UNL     1      -2.919  -5.561  12.494  1.00  0.00     0.031 A 
ATOM     34  C   UNL     1      -4.109  -6.428  12.806  1.00  0.00     0.074 A 
ATOM     35  C   UNL     1      -2.320  -4.859  13.477  1.00  0.00     0.049 A 
ATOM     36  N   UNL     1      -4.683  -6.653  13.959  1.00  0.00    -0.248 NA
ATOM     37  C   UNL     1      -4.758  -7.105  11.671  1.00  0.00     0.031 C 
ATOM     38  C   UNL     1      -1.220  -3.910  13.291  1.00  0.00     0.029 A 
ATOM     39  N   UNL     1      -2.573  -4.810  14.825  1.00  0.00    -0.354 N 
ATOM     40  C   UNL     1      -5.781  -7.460  13.685  1.00  0.00     0.074 A 
ATOM     41  C   UNL     1      -5.811  -7.660  12.253  1.00  0.00     0.031 C 
ATOM     42  C   UNL     1      -0.894  -3.373  14.478  1.00  0.00     0.029 A 
ATOM     43  C   UNL     1      -1.775  -3.920  15.506  1.00  0.00     0.049 A 
ATOM     44  H   UNL     1      -3.262  -5.360  15.264  1.00  0.00     0.167 HD
ATOM     45  C   UNL     1      -6.667  -8.010  14.549  1.00  0.00     0.034 A 
ATOM     46  C   UNL     1      -1.756  -3.579  16.810  1.00  0.00     0.034 A 
ATOM     47  C   UNL     1      -6.599  -7.857  15.977  1.00  0.00     0.049 A 
ATOM     48  C   UNL     1      -2.703  -4.264  17.758  1.00  0.00     0.074 A 
ATOM     49  C   UNL     1      -7.380  -8.464  16.944  1.00  0.00     0.029 A 
ATOM     50  N   UNL     1      -5.701  -7.038  16.643  1.00  0.00    -0.354 N 
ATOM     51  N   UNL     1      -3.617  -5.167  17.501  1.00  0.00    -0.248 NA
ATOM     52  C   UNL     1      -2.589  -3.914  19.182  1.00  0.00     0.031 C 
ATOM     53  C   UNL     1      -6.966  -7.997  18.196  1.00  0.00     0.029 A 
ATOM     54  C   UNL     1      -5.913  -7.117  18.009  1.00  0.00     0.049 A 
ATOM     55  H   UNL     1      -5.014  -6.482  16.209  1.00  0.00     0.167 HD
ATOM     56  C   UNL     1      -4.162  -5.519  18.731  1.00  0.00     0.074 A 
ATOM     57  C   UNL     1      -3.458  -4.749  19.735  1.00  0.00     0.031 C 
ATOM     58  C   UNL     1      -5.166  -6.389  19.002  1.00  0.00     0.034 A 
BRANCH  45  59
ATOM     59  C   UNL     1      -7.752  -8.884  13.979  1.00  0.00     0.023 A 
ATOM     60  C   UNL     1      -7.423 -10.159  13.474  1.00  0.00     0.012 A 
ATOM     61  C   UNL     1      -9.100  -8.477  14.002  1.00  0.00     0.148 A 
ATOM     62  C   UNL     1      -8.412 -11.002  12.971  1.00  0.00     0.002 A 
ATOM     63  C   UNL     1     -10.087  -9.341  13.540  1.00  0.00     0.091 A 
ATOM     64  F   UNL     1      -9.392  -7.254  14.466  1.00  0.00    -0.205 F 
ATOM     65  C   UNL     1      -9.744 -10.598  13.014  1.00  0.00     0.022 A 
BRANCH  63  66
ATOM     66  S   UNL     1     -11.838  -8.947  13.625  1.00  0.00     0.127 S 
ATOM     67  O   UNL     1     -12.157  -8.719  12.217  1.00  0.00    -0.237 OA
ATOM     68  O   UNL     1     -12.402 -10.174  14.188  1.00  0.00    -0.237 OA
ATOM     69  O   UNL     1     -11.944  -7.779  14.488  1.00  0.00    -0.744 OA
ENDBRANCH  63  66
ENDBRANCH  45  59
BRANCH  46  70
ATOM     70  C   UNL     1      -0.754  -2.594  17.307  1.00  0.00     0.023 A 
ATOM     71  C   UNL     1       0.311  -3.040  18.114  1.00  0.00     0.012 A 
ATOM     72  C   UNL     1      -0.831  -1.231  16.965  1.00  0.00     0.148 A 
ATOM     73  C   UNL     1       1.261  -2.141  18.600  1.00  0.00     0.002 A 
ATOM     74  C   UNL     1       0.149  -0.349  17.407  1.00  0.00     0.091 A 
ATOM     75  F   UNL     1      -1.859  -0.823  16.207  1.00  0.00    -0.205 F 
ATOM     76  C   UNL     1       1.187  -0.799  18.238  1.00  0.00     0.022 A 
BRANCH  74  77
ATOM     77  S   UNL     1       0.205   1.366  16.878  1.00  0.00     0.127 S 
ATOM     78  O   UNL     1      -0.234   2.066  18.082  1.00  0.00    -0.237 OA
ATOM     79  O   UNL     1       1.621   1.537  16.547  1.00  0.00    -0.237 OA
ATOM     80  O   UNL     1      -0.689   1.449  15.730  1.00  0.00    -0.744 OA
ENDBRANCH  74  77
ENDBRANCH  46  70
BRANCH  58  81
ATOM     81  C   UNL     1      -5.548  -6.588  20.445  1.00  0.00     0.023 A 
ATOM     82  C   UNL     1      -6.253  -5.577  21.127  1.00  0.00     0.012 A 
ATOM     83  C   UNL     1      -5.277  -7.805  21.100  1.00  0.00     0.148 A 
ATOM     84  C   UNL     1      -6.654  -5.762  22.450  1.00  0.00     0.002 A 
ATOM     85  C   UNL     1      -5.722  -8.001  22.402  1.00  0.00     0.091 A 
ATOM     86  F   UNL     1      -4.587  -8.748  20.441  1.00  0.00    -0.205 F 
ATOM     87  C   UNL     1      -6.400  -6.977  23.083  1.00  0.00     0.022 A 
BRANCH  85  88
ATOM     88  S   UNL     1      -5.522  -9.568  23.258  1.00  0.00     0.127 S 
ATOM     89  O   UNL     1      -4.431  -9.266  24.183  1.00  0.00    -0.237 OA
ATOM     90  O   UNL     1      -6.828  -9.747  23.893  1.00  0.00    -0.237 OA
ATOM     91  O   UNL     1      -5.216 -10.549  22.225  1.00  0.00    -0.744 OA
ENDBRANCH  85  88
ENDBRANCH  58  81
ENDBRANCH  32  33
ENDBRANCH  24  27
ENDBRANCH  22  23
ENDBRANCH  21  22
ENDBRANCH  20  21
ENDBRANCH   1  20
TORSDOF 20
