REMARK SMILES O=C(NCCCCNC(=O)c1ccc(-c2c3nc(c(-c4cccc(S(=O)(=O)[O-])c4F)c4ccc([nH]4)c(-c4cccc(S(=O)(=O)[O-])c4F)c4nc(c(-c5cccc(S(=O)(=O)[O-])c5F)c5ccc2[nH]5)C=C4)C=C3)cc1)C1=Cc2c(ccc(Cl)c2Sc2ccccc2)O[C@H]1C(F)(F)F
REMARK SMILES IDX 6 1 5 2 4 3 3 4 1 5 2 6 74 8 75 9 91 10 76 11 90 12 77 13
REMARK SMILES IDX 82 14 78 15 80 16 79 17 81 18 92 19 93 20 94 21 95 22 83 23
REMARK SMILES IDX 84 24 85 25 89 26 86 27 88 28 87 29 7 30 8 31 9 32 10 34
REMARK SMILES IDX 11 35 12 36 73 37 13 38 72 39 14 40 15 41 16 42 66 43 17 44
REMARK SMILES IDX 71 45 65 46 67 47 18 48 70 49 64 50 63 51 19 53 51 54 31 55
REMARK SMILES IDX 50 56 32 57 35 58 49 59 68 60 33 61 34 62 48 64 69 65 36 66
REMARK SMILES IDX 20 67 21 68 29 69 22 70 24 71 30 72 23 73 25 74 26 75 27 76
REMARK SMILES IDX 28 77 52 78 53 79 61 80 54 81 56 82 62 83 55 84 57 85 58 86
REMARK SMILES IDX 59 87 60 88 37 89 38 90 46 91 39 92 41 93 47 94 40 95 42 96
REMARK SMILES IDX 43 97 44 98 45 99
REMARK H PARENT 3 7 8 33 67 52 35 63
REMARK Flexibility Score: inf
ROOT
ATOM      1  C   UNL     1       3.905   3.913  -1.959  1.00  0.00     0.023 C 
ENDROOT
BRANCH   1   2
ATOM      2  C   UNL     1       4.181   2.438  -2.241  1.00  0.00     0.023 C 
BRANCH   2   3
ATOM      3  C   UNL     1       3.675   1.478  -1.167  1.00  0.00     0.116 C 
BRANCH   3   4
ATOM      4  N   UNL     1       2.615   0.601  -1.637  1.00  0.00    -0.352 N 
ATOM      5  O   UNL     1       1.526  -1.338  -2.011  1.00  0.00    -0.270 OA
ATOM      6  C   UNL     1       2.460  -0.749  -1.488  1.00  0.00     0.251 C 
ATOM      7  H   UNL     1       1.897   1.048  -2.142  1.00  0.00     0.163 HD
BRANCH   6   8
ATOM      8  C   UNL     1       3.464  -1.520  -0.728  1.00  0.00     0.067 C 
ATOM      9  C   UNL     1       3.587  -1.334   0.591  1.00  0.00     0.026 C 
ATOM     10  C   UNL     1       4.539  -2.205  -1.501  1.00  0.00     0.314 C 
ATOM     11  C   UNL     1       4.905  -0.775   0.971  1.00  0.00     0.033 A 
ATOM     12  O   UNL     1       5.874  -1.849  -1.031  1.00  0.00    -0.475 OA
ATOM     13  C   UNL     1       5.978  -1.053   0.087  1.00  0.00     0.129 A 
ATOM     14  C   UNL     1       5.062   0.131   2.054  1.00  0.00     0.042 A 
ATOM     15  C   UNL     1       7.208  -0.430   0.256  1.00  0.00     0.049 A 
ATOM     16  C   UNL     1       6.320   0.773   2.169  1.00  0.00     0.055 A 
ATOM     17  C   UNL     1       7.371   0.496   1.280  1.00  0.00     0.025 A 
ATOM     18  Cl  UNL     1       6.659   1.986   3.365  1.00  0.00    -0.083 Cl
BRANCH  10  19
ATOM     19  C   UNL     1       4.362  -3.731  -1.470  1.00  0.00     0.429 C 
ATOM     20  F   UNL     1       3.081  -4.113  -1.675  1.00  0.00    -0.167 F 
ATOM     21  F   UNL     1       5.108  -4.327  -2.432  1.00  0.00    -0.167 F 
ATOM     22  F   UNL     1       4.747  -4.260  -0.282  1.00  0.00    -0.167 F 
ENDBRANCH  10  19
BRANCH  14  23
ATOM     23  S   UNL     1       3.746   0.642   3.199  1.00  0.00    -0.088 SA
BRANCH  23  24
ATOM     24  C   UNL     1       2.469  -0.590   3.143  1.00  0.00     0.012 A 
ATOM     25  C   UNL     1       1.292  -0.325   2.429  1.00  0.00     0.015 A 
ATOM     26  C   UNL     1       2.634  -1.838   3.755  1.00  0.00     0.015 A 
ATOM     27  C   UNL     1       0.335  -1.325   2.252  1.00  0.00     0.001 A 
ATOM     28  C   UNL     1       1.669  -2.836   3.582  1.00  0.00     0.001 A 
ATOM     29  C   UNL     1       0.530  -2.584   2.817  1.00  0.00     0.000 A 
ENDBRANCH  23  24
ENDBRANCH  14  23
ENDBRANCH   6   8
ENDBRANCH   3   4
ENDBRANCH   2   3
ENDBRANCH   1   2
BRANCH   1  30
ATOM     30  C   UNL     1       4.439   4.470  -0.638  1.00  0.00     0.116 C 
BRANCH  30  31
ATOM     31  N   UNL     1       5.878   4.327  -0.457  1.00  0.00    -0.352 N 
ATOM     32  C   UNL     1       6.788   5.254   0.006  1.00  0.00     0.251 C 
ATOM     33  H   UNL     1       6.251   3.449  -0.700  1.00  0.00     0.163 HD
ATOM     34  O   UNL     1       7.982   4.972   0.054  1.00  0.00    -0.269 OA
BRANCH  32  35
ATOM     35  C   UNL     1       6.324   6.609   0.387  1.00  0.00     0.039 A 
ATOM     36  C   UNL     1       6.940   7.720  -0.198  1.00  0.00     0.014 A 
ATOM     37  C   UNL     1       5.238   6.781   1.248  1.00  0.00     0.014 A 
ATOM     38  C   UNL     1       6.390   8.992  -0.016  1.00  0.00     0.010 A 
ATOM     39  C   UNL     1       4.652   8.040   1.375  1.00  0.00     0.010 A 
ATOM     40  C   UNL     1       5.203   9.153   0.720  1.00  0.00    -0.014 A 
BRANCH  40  41
ATOM     41  C   UNL     1       4.472  10.448   0.736  1.00  0.00     0.031 A 
ATOM     42  C   UNL     1       4.262  11.200   2.020  1.00  0.00     0.074 A 
ATOM     43  C   UNL     1       3.885  10.885  -0.398  1.00  0.00     0.049 A 
ATOM     44  N   UNL     1       3.584  12.300   2.227  1.00  0.00    -0.248 NA
ATOM     45  C   UNL     1       4.868  10.630   3.234  1.00  0.00     0.031 C 
ATOM     46  C   UNL     1       3.928  10.198  -1.692  1.00  0.00     0.029 A 
ATOM     47  N   UNL     1       3.111  11.994  -0.639  1.00  0.00    -0.354 N 
ATOM     48  C   UNL     1       3.647  12.534   3.594  1.00  0.00     0.074 A 
ATOM     49  C   UNL     1       4.413  11.450   4.172  1.00  0.00     0.031 C 
ATOM     50  C   UNL     1       3.216  10.900  -2.588  1.00  0.00     0.029 A 
ATOM     51  C   UNL     1       2.648  12.074  -1.933  1.00  0.00     0.049 A 
ATOM     52  H   UNL     1       2.906  12.668   0.048  1.00  0.00     0.167 HD
ATOM     53  C   UNL     1       3.142  13.573   4.302  1.00  0.00     0.034 A 
ATOM     54  C   UNL     1       1.857  12.989  -2.529  1.00  0.00     0.034 A 
ATOM     55  C   UNL     1       2.435  14.683   3.723  1.00  0.00     0.049 A 
ATOM     56  C   UNL     1       1.374  14.171  -1.736  1.00  0.00     0.074 A 
ATOM     57  C   UNL     1       1.974  15.829   4.346  1.00  0.00     0.029 A 
ATOM     58  N   UNL     1       2.087  14.789   2.386  1.00  0.00    -0.354 N 
ATOM     59  N   UNL     1       1.597  14.465  -0.478  1.00  0.00    -0.248 NA
ATOM     60  C   UNL     1       0.562  15.167  -2.450  1.00  0.00     0.031 C 
ATOM     61  C   UNL     1       1.351  16.631   3.384  1.00  0.00     0.029 A 
ATOM     62  C   UNL     1       1.420  15.981   2.162  1.00  0.00     0.049 A 
ATOM     63  H   UNL     1       2.285  14.115   1.696  1.00  0.00     0.167 HD
ATOM     64  C   UNL     1       0.982  15.691  -0.258  1.00  0.00     0.074 A 
ATOM     65  C   UNL     1       0.392  16.096  -1.517  1.00  0.00     0.031 C 
ATOM     66  C   UNL     1       0.895  16.406   0.890  1.00  0.00     0.034 A 
BRANCH  53  67
ATOM     67  C   UNL     1       3.410  13.598   5.782  1.00  0.00     0.023 A 
ATOM     68  C   UNL     1       4.694  13.961   6.237  1.00  0.00     0.012 A 
ATOM     69  C   UNL     1       2.397  13.317   6.718  1.00  0.00     0.148 A 
ATOM     70  C   UNL     1       4.974  14.019   7.601  1.00  0.00     0.002 A 
ATOM     71  C   UNL     1       2.675  13.409   8.078  1.00  0.00     0.091 A 
ATOM     72  F   UNL     1       1.190  12.946   6.268  1.00  0.00    -0.205 F 
ATOM     73  C   UNL     1       3.963  13.753   8.521  1.00  0.00     0.022 A 
BRANCH  71  74
ATOM     74  S   UNL     1       1.412  13.145   9.329  1.00  0.00     0.127 S 
ATOM     75  O   UNL     1       1.669  11.761   9.721  1.00  0.00    -0.237 OA
ATOM     76  O   UNL     1       1.759  14.140  10.345  1.00  0.00    -0.237 OA
ATOM     77  O   UNL     1       0.143  13.391   8.659  1.00  0.00    -0.744 OA
ENDBRANCH  71  74
ENDBRANCH  53  67
BRANCH  54  78
ATOM     78  C   UNL     1       1.558  12.870  -3.983  1.00  0.00     0.023 A 
ATOM     79  C   UNL     1       2.190  13.749  -4.883  1.00  0.00     0.012 A 
ATOM     80  C   UNL     1       0.702  11.872  -4.485  1.00  0.00     0.148 A 
ATOM     81  C   UNL     1       1.958  13.652  -6.255  1.00  0.00     0.002 A 
ATOM     82  C   UNL     1       0.513  11.749  -5.858  1.00  0.00     0.091 A 
ATOM     83  F   UNL     1       0.093  11.055  -3.613  1.00  0.00    -0.205 F 
ATOM     84  C   UNL     1       1.130  12.645  -6.744  1.00  0.00     0.022 A 
BRANCH  82  85
ATOM     85  S   UNL     1      -0.433  10.395  -6.566  1.00  0.00     0.127 S 
ATOM     86  O   UNL     1      -1.723  11.028  -6.821  1.00  0.00    -0.237 OA
ATOM     87  O   UNL     1       0.341  10.067  -7.765  1.00  0.00    -0.237 OA
ATOM     88  O   UNL     1      -0.419   9.350  -5.550  1.00  0.00    -0.744 OA
ENDBRANCH  82  85
ENDBRANCH  54  78
BRANCH  66  89
ATOM     89  C   UNL     1       0.153  17.713   0.845  1.00  0.00     0.023 A 
ATOM     90  C   UNL     1      -1.255  17.707   0.834  1.00  0.00     0.012 A 
ATOM     91  C   UNL     1       0.840  18.941   0.899  1.00  0.00     0.148 A 
ATOM     92  C   UNL     1      -1.969  18.904   0.859  1.00  0.00     0.002 A 
ATOM     93  C   UNL     1       0.121  20.130   0.960  1.00  0.00     0.091 A 
ATOM     94  F   UNL     1       2.181  18.928   0.883  1.00  0.00    -0.205 F 
ATOM     95  C   UNL     1      -1.282  20.114   0.934  1.00  0.00     0.022 A 
BRANCH  93  96
ATOM     96  S   UNL     1       0.937  21.721   1.143  1.00  0.00     0.127 S 
ATOM     97  O   UNL     1       0.969  22.202  -0.237  1.00  0.00    -0.237 OA
ATOM     98  O   UNL     1       0.020  22.451   2.021  1.00  0.00    -0.237 OA
ATOM     99  O   UNL     1       2.232  21.428   1.743  1.00  0.00    -0.744 OA
ENDBRANCH  93  96
ENDBRANCH  66  89
ENDBRANCH  40  41
ENDBRANCH  32  35
ENDBRANCH  30  31
ENDBRANCH   1  30
TORSDOF 17
