REMARK SMILES O=C(NCCCCNC(=O)c1ccc(S(=O)(=O)Cc2ncccn2)c(F)c1)c1ccc(-c2c3nc(c(-c4cccc(S(=O)(=O)[O-])c4F)c4ccc([nH]4)c(-c4cccc(S(=O)(=O)[O-])c4F)c4nc(c(-c5cccc(S(=O)(=O)[O-])c5F)c5ccc2[nH]5)C=C4)C=C3)cc1
REMARK SMILES IDX 5 1 4 2 3 3 1 4 2 5 28 7 29 8 90 9 30 10 89 11 31 12 32 13
REMARK SMILES IDX 33 14 83 15 34 16 88 17 82 18 84 19 35 20 87 21 81 22 80 23
REMARK SMILES IDX 36 25 68 26 48 27 67 28 49 29 52 30 66 31 85 32 50 33 51 34
REMARK SMILES IDX 65 36 86 37 53 38 37 39 38 40 46 41 39 42 41 43 47 44 40 45
REMARK SMILES IDX 42 46 43 47 44 48 45 49 69 50 70 51 78 52 71 53 73 54 79 55
REMARK SMILES IDX 72 56 74 57 75 58 76 59 77 60 54 61 55 62 63 63 56 64 58 65
REMARK SMILES IDX 64 66 57 67 59 68 60 69 61 70 62 71 6 72 7 73 8 74 9 75
REMARK SMILES IDX 10 77 11 78 12 79 27 80 13 81 25 82 14 83 26 84 15 85 16 86
REMARK SMILES IDX 17 87 18 88 19 89 20 90 24 91 21 92 23 93 22 94
REMARK H PARENT 3 6 84 24 52 35 8 76
REMARK Flexibility Score: inf
ROOT
ATOM      1  C   UNL     1       4.807   0.742  -2.732  1.00  0.00     0.023 C 
ENDROOT
BRANCH   1   2
ATOM      2  C   UNL     1       4.488   0.616  -1.248  1.00  0.00     0.116 C 
BRANCH   2   3
ATOM      3  N   UNL     1       3.065   0.649  -0.952  1.00  0.00    -0.352 N 
ATOM      4  O   UNL     1       1.135  -0.029   0.001  1.00  0.00    -0.269 OA
ATOM      5  C   UNL     1       2.357  -0.119  -0.053  1.00  0.00     0.251 C 
ATOM      6  H   UNL     1       2.538   1.308  -1.459  1.00  0.00     0.163 HD
BRANCH   5   7
ATOM      7  C   UNL     1       3.080  -1.083   0.807  1.00  0.00     0.039 A 
ATOM      8  C   UNL     1       4.253  -0.705   1.463  1.00  0.00     0.014 A 
ATOM      9  C   UNL     1       2.600  -2.390   0.927  1.00  0.00     0.014 A 
ATOM     10  C   UNL     1       5.028  -1.669   2.094  1.00  0.00     0.010 A 
ATOM     11  C   UNL     1       3.337  -3.339   1.644  1.00  0.00     0.010 A 
ATOM     12  C   UNL     1       4.579  -2.998   2.198  1.00  0.00    -0.014 A 
BRANCH  12  13
ATOM     13  C   UNL     1       5.405  -3.971   2.958  1.00  0.00     0.031 A 
ATOM     14  C   UNL     1       6.039  -5.162   2.296  1.00  0.00     0.074 A 
ATOM     15  C   UNL     1       5.622  -3.734   4.266  1.00  0.00     0.049 A 
ATOM     16  N   UNL     1       6.891  -6.017   2.800  1.00  0.00    -0.248 NA
ATOM     17  C   UNL     1       5.669  -5.441   0.899  1.00  0.00     0.031 C 
ATOM     18  C   UNL     1       5.010  -2.642   5.026  1.00  0.00     0.029 A 
ATOM     19  N   UNL     1       6.427  -4.365   5.179  1.00  0.00    -0.354 N 
ATOM     20  C   UNL     1       7.130  -6.955   1.804  1.00  0.00     0.074 A 
ATOM     21  C   UNL     1       6.328  -6.569   0.663  1.00  0.00     0.031 C 
ATOM     22  C   UNL     1       5.511  -2.637   6.268  1.00  0.00     0.029 A 
ATOM     23  C   UNL     1       6.442  -3.752   6.410  1.00  0.00     0.049 A 
ATOM     24  H   UNL     1       6.944  -5.177   4.973  1.00  0.00     0.167 HD
ATOM     25  C   UNL     1       7.958  -8.027   1.833  1.00  0.00     0.034 A 
ATOM     26  C   UNL     1       7.133  -4.041   7.530  1.00  0.00     0.034 A 
ATOM     27  C   UNL     1       8.793  -8.372   2.953  1.00  0.00     0.049 A 
ATOM     28  C   UNL     1       8.093  -5.194   7.515  1.00  0.00     0.074 A 
ATOM     29  C   UNL     1       9.724  -9.392   3.045  1.00  0.00     0.029 A 
ATOM     30  N   UNL     1       8.800  -7.713   4.173  1.00  0.00    -0.354 N 
ATOM     31  N   UNL     1       8.405  -5.986   6.518  1.00  0.00    -0.248 NA
ATOM     32  C   UNL     1       8.809  -5.484   8.764  1.00  0.00     0.031 C 
ATOM     33  C   UNL     1      10.284  -9.358   4.326  1.00  0.00     0.029 A 
ATOM     34  C   UNL     1       9.711  -8.310   5.028  1.00  0.00     0.049 A 
ATOM     35  H   UNL     1       8.240  -6.935   4.397  1.00  0.00     0.167 HD
ATOM     36  C   UNL     1       9.360  -6.864   7.014  1.00  0.00     0.074 A 
ATOM     37  C   UNL     1       9.595  -6.489   8.394  1.00  0.00     0.031 C 
ATOM     38  C   UNL     1       9.966  -7.901   6.386  1.00  0.00     0.034 A 
BRANCH  25  39
ATOM     39  C   UNL     1       8.054  -8.885   0.598  1.00  0.00     0.023 A 
ATOM     40  C   UNL     1       8.790  -8.420  -0.510  1.00  0.00     0.012 A 
ATOM     41  C   UNL     1       7.508 -10.183   0.570  1.00  0.00     0.148 A 
ATOM     42  C   UNL     1       8.965  -9.226  -1.635  1.00  0.00     0.002 A 
ATOM     43  C   UNL     1       7.718 -10.995  -0.541  1.00  0.00     0.091 A 
ATOM     44  F   UNL     1       6.790 -10.600   1.623  1.00  0.00    -0.205 F 
ATOM     45  C   UNL     1       8.441 -10.516  -1.645  1.00  0.00     0.022 A 
BRANCH  43  46
ATOM     46  S   UNL     1       7.144 -12.697  -0.605  1.00  0.00     0.127 S 
ATOM     47  O   UNL     1       5.941 -12.573  -1.426  1.00  0.00    -0.237 OA
ATOM     48  O   UNL     1       8.260 -13.381  -1.261  1.00  0.00    -0.237 OA
ATOM     49  O   UNL     1       6.928 -13.092   0.780  1.00  0.00    -0.744 OA
ENDBRANCH  43  46
ENDBRANCH  25  39
BRANCH  26  50
ATOM     50  C   UNL     1       6.988  -3.145   8.710  1.00  0.00     0.023 A 
ATOM     51  C   UNL     1       8.038  -2.267   9.042  1.00  0.00     0.012 A 
ATOM     52  C   UNL     1       5.768  -3.055   9.410  1.00  0.00     0.148 A 
ATOM     53  C   UNL     1       7.871  -1.310  10.043  1.00  0.00     0.002 A 
ATOM     54  C   UNL     1       5.587  -2.057  10.359  1.00  0.00     0.091 A 
ATOM     55  F   UNL     1       4.789  -3.913   9.089  1.00  0.00    -0.205 F 
ATOM     56  C   UNL     1       6.642  -1.191  10.686  1.00  0.00     0.022 A 
BRANCH  54  57
ATOM     57  S   UNL     1       3.986  -1.719  11.101  1.00  0.00     0.127 S 
ATOM     58  O   UNL     1       4.189  -2.172  12.473  1.00  0.00    -0.237 OA
ATOM     59  O   UNL     1       3.879  -0.268  10.939  1.00  0.00    -0.237 OA
ATOM     60  O   UNL     1       3.022  -2.480  10.317  1.00  0.00    -0.744 OA
ENDBRANCH  54  57
ENDBRANCH  26  50
BRANCH  38  61
ATOM     61  C   UNL     1      10.943  -8.727   7.177  1.00  0.00     0.023 A 
ATOM     62  C   UNL     1      10.454  -9.672   8.100  1.00  0.00     0.012 A 
ATOM     63  C   UNL     1      12.326  -8.659   6.920  1.00  0.00     0.148 A 
ATOM     64  C   UNL     1      11.328 -10.531   8.764  1.00  0.00     0.002 A 
ATOM     65  C   UNL     1      13.188  -9.545   7.555  1.00  0.00     0.091 A 
ATOM     66  F   UNL     1      12.769  -7.740   6.049  1.00  0.00    -0.205 F 
ATOM     67  C   UNL     1      12.691 -10.477   8.482  1.00  0.00     0.022 A 
BRANCH  65  68
ATOM     68  S   UNL     1      14.946  -9.611   7.189  1.00  0.00     0.127 S 
ATOM     69  O   UNL     1      15.524  -9.044   8.406  1.00  0.00    -0.237 OA
ATOM     70  O   UNL     1      15.174 -11.046   7.016  1.00  0.00    -0.237 OA
ATOM     71  O   UNL     1      15.134  -8.819   5.981  1.00  0.00    -0.744 OA
ENDBRANCH  65  68
ENDBRANCH  38  61
ENDBRANCH  12  13
ENDBRANCH   5   7
ENDBRANCH   2   3
ENDBRANCH   1   2
BRANCH   1  72
ATOM     72  C   UNL     1       4.322   2.026  -3.403  1.00  0.00     0.023 C 
BRANCH  72  73
ATOM     73  C   UNL     1       4.719   3.318  -2.690  1.00  0.00     0.116 C 
BRANCH  73  74
ATOM     74  N   UNL     1       6.162   3.488  -2.616  1.00  0.00    -0.352 N 
ATOM     75  C   UNL     1       6.964   4.296  -3.380  1.00  0.00     0.251 C 
ATOM     76  H   UNL     1       6.622   2.954  -1.929  1.00  0.00     0.163 HD
ATOM     77  O   UNL     1       8.184   4.294  -3.272  1.00  0.00    -0.269 OA
BRANCH  75  78
ATOM     78  C   UNL     1       6.326   5.183  -4.361  1.00  0.00     0.042 A 
ATOM     79  C   UNL     1       5.687   6.350  -3.927  1.00  0.00     0.015 A 
ATOM     80  C   UNL     1       6.323   4.812  -5.705  1.00  0.00     0.054 A 
ATOM     81  C   UNL     1       5.007   7.139  -4.852  1.00  0.00     0.024 A 
ATOM     82  C   UNL     1       5.620   5.593  -6.615  1.00  0.00     0.142 A 
ATOM     83  C   UNL     1       4.972   6.750  -6.198  1.00  0.00     0.103 A 
ATOM     84  F   UNL     1       5.547   5.179  -7.886  1.00  0.00    -0.206 F 
BRANCH  83  85
ATOM     85  S   UNL     1       4.007   7.691  -7.339  1.00  0.00     0.188 S 
ATOM     86  O   UNL     1       2.791   6.914  -7.531  1.00  0.00    -0.223 OA
ATOM     87  O   UNL     1       3.895   9.030  -6.783  1.00  0.00    -0.223 OA
BRANCH  85  88
ATOM     88  C   UNL     1       4.819   7.790  -8.898  1.00  0.00     0.219 C 
BRANCH  88  89
ATOM     89  C   UNL     1       6.202   8.307  -8.710  1.00  0.00     0.143 A 
ATOM     90  N   UNL     1       6.386   9.638  -8.642  1.00  0.00    -0.240 NA
ATOM     91  N   UNL     1       7.210   7.413  -8.737  1.00  0.00    -0.240 NA
ATOM     92  C   UNL     1       7.658  10.074  -8.559  1.00  0.00     0.115 A 
ATOM     93  C   UNL     1       8.463   7.900  -8.666  1.00  0.00     0.115 A 
ATOM     94  C   UNL     1       8.748   9.239  -8.573  1.00  0.00     0.040 A 
ENDBRANCH  88  89
ENDBRANCH  85  88
ENDBRANCH  83  85
ENDBRANCH  75  78
ENDBRANCH  73  74
ENDBRANCH  72  73
ENDBRANCH   1  72
TORSDOF 17
