REMARK SMILES N#CCC[NH+]1CCN(c2ccc(NS(=O)(=O)c3ccccc3Cl)cc2C(=O)NCCCCNC(=O)c2ccc(-c3c4nc(c(-c5cccc(S(=O)(=O)[O-])c5F)c5ccc([nH]5)c(-c5cccc(S(=O)(=O)[O-])c5F)c5nc(c(-c6cccc(S(=O)(=O)[O-])c6F)c6ccc3[nH]6)C=C5)C=C4)cc2)CC1
REMARK SMILES IDX 30 1 29 2 28 3 26 4 27 5 25 7 9 8 10 9 11 10 24 11 12 12
REMARK SMILES IDX 8 13 5 14 6 15 100 16 7 18 99 19 4 20 3 21 2 22 1 23 13 24
REMARK SMILES IDX 14 26 15 27 16 28 17 29 18 30 22 31 19 32 21 33 23 34 20 35
REMARK SMILES IDX 31 36 32 37 33 38 34 39 35 41 36 42 37 43 98 44 38 45 97 46
REMARK SMILES IDX 39 47 40 48 41 49 91 50 42 51 96 52 90 53 92 54 43 55 95 56
REMARK SMILES IDX 89 57 88 58 44 60 76 61 56 62 75 63 57 64 60 65 74 66 93 67
REMARK SMILES IDX 58 68 59 69 73 71 94 72 61 73 45 74 46 75 54 76 47 77 49 78
REMARK SMILES IDX 55 79 48 80 50 81 51 82 52 83 53 84 77 85 78 86 86 87 79 88
REMARK SMILES IDX 81 89 87 90 80 91 82 92 83 93 84 94 85 95 62 96 63 97 71 98
REMARK SMILES IDX 64 99 66 100 72 101 65 102 67 103 68 104 69 105 70 106
REMARK H PARENT 28 6 5 17 13 25 33 40 92 59 60 70
REMARK Flexibility Score: inf
ROOT
ATOM      1  C   UNL     1       2.219  -3.764   3.207  1.00  0.00     0.023 C 
ENDROOT
BRANCH   1   2
ATOM      2  C   UNL     1       2.908  -4.310   1.933  1.00  0.00     0.116 C 
BRANCH   2   3
ATOM      3  N   UNL     1       2.999  -5.766   1.885  1.00  0.00    -0.352 N 
ATOM      4  C   UNL     1       3.346  -6.710   0.943  1.00  0.00     0.253 C 
ATOM      5  O   UNL     1       3.393  -7.873   1.369  1.00  0.00    -0.269 OA
ATOM      6  H   UNL     1       2.750  -6.178   2.743  1.00  0.00     0.163 HD
BRANCH   4   7
ATOM      7  C   UNL     1       3.609  -6.575  -0.531  1.00  0.00     0.065 A 
ATOM      8  C   UNL     1       4.773  -6.037  -1.112  1.00  0.00     0.050 A 
ATOM      9  C   UNL     1       5.275  -6.588  -2.305  1.00  0.00     0.029 A 
ATOM     10  C   UNL     1       4.557  -7.508  -3.034  1.00  0.00     0.029 A 
ATOM     11  C   UNL     1       2.855  -7.464  -1.340  1.00  0.00     0.042 A 
ATOM     12  C   UNL     1       3.272  -7.828  -2.635  1.00  0.00     0.050 A 
BRANCH   8  13
ATOM     13  N   UNL     1       5.295  -4.801  -0.846  1.00  0.00    -0.360 N 
ATOM     14  N   UNL     1       4.702  -2.387   0.326  1.00  0.00    -0.331 N 
ATOM     15  C   UNL     1       4.061  -2.763  -0.931  1.00  0.00     0.284 C 
ATOM     16  C   UNL     1       5.980  -3.046   0.694  1.00  0.00     0.284 C 
ATOM     17  H   UNL     1       4.059  -2.885   0.942  1.00  0.00     0.348 HD
ATOM     18  C   UNL     1       4.909  -3.720  -1.740  1.00  0.00     0.178 C 
ATOM     19  C   UNL     1       6.204  -4.501   0.224  1.00  0.00     0.178 C 
BRANCH  14  20
ATOM     20  C   UNL     1       4.542  -1.030   0.781  1.00  0.00     0.277 C 
BRANCH  20  21
ATOM     21  C   UNL     1       3.825  -0.055  -0.071  1.00  0.00     0.181 C 
BRANCH  21  22
ATOM     22  C   UNL     1       2.305  -0.055  -0.071  1.00  0.00     0.068 C 
ATOM     23  N   UNL     1       1.044  -0.055  -0.071  1.00  0.00    -0.198 NA
ENDBRANCH  21  22
ENDBRANCH  20  21
ENDBRANCH  14  20
ENDBRANCH   8  13
BRANCH  12  24
ATOM     24  N   UNL     1       2.381  -8.555  -3.480  1.00  0.00    -0.280 N 
ATOM     25  H   UNL     1       1.565  -8.930  -3.078  1.00  0.00     0.180 HD
BRANCH  24  26
ATOM     26  S   UNL     1       2.644  -8.809  -5.129  1.00  0.00     0.263 S 
ATOM     27  O   UNL     1       3.805  -9.688  -5.247  1.00  0.00    -0.201 OA
ATOM     28  O   UNL     1       1.393  -9.186  -5.721  1.00  0.00    -0.201 OA
BRANCH  26  29
ATOM     29  C   UNL     1       3.122  -7.238  -5.828  1.00  0.00     0.106 A 
ATOM     30  C   UNL     1       4.350  -7.162  -6.516  1.00  0.00     0.024 A 
ATOM     31  C   UNL     1       2.353  -6.088  -5.659  1.00  0.00     0.061 A 
ATOM     32  C   UNL     1       4.829  -5.936  -6.982  1.00  0.00     0.002 A 
ATOM     33  C   UNL     1       2.840  -4.862  -6.139  1.00  0.00     0.022 A 
ATOM     34  Cl  UNL     1       0.816  -6.066  -4.878  1.00  0.00    -0.083 Cl
ATOM     35  C   UNL     1       4.077  -4.783  -6.785  1.00  0.00     0.002 A 
ENDBRANCH  26  29
ENDBRANCH  24  26
ENDBRANCH  12  24
ENDBRANCH   4   7
ENDBRANCH   2   3
ENDBRANCH   1   2
BRANCH   1  36
ATOM     36  C   UNL     1       2.720  -2.410   3.783  1.00  0.00     0.023 C 
BRANCH  36  37
ATOM     37  C   UNL     1       4.126  -2.391   4.424  1.00  0.00     0.116 C 
BRANCH  37  38
ATOM     38  N   UNL     1       5.094  -1.581   3.680  1.00  0.00    -0.352 N 
ATOM     39  C   UNL     1       5.659  -0.343   3.845  1.00  0.00     0.251 C 
ATOM     40  H   UNL     1       5.415  -2.034   2.867  1.00  0.00     0.163 HD
ATOM     41  O   UNL     1       6.245   0.220   2.923  1.00  0.00    -0.269 OA
BRANCH  39  42
ATOM     42  C   UNL     1       5.618   0.310   5.139  1.00  0.00     0.039 A 
ATOM     43  C   UNL     1       5.380   1.688   5.235  1.00  0.00     0.014 A 
ATOM     44  C   UNL     1       5.901  -0.470   6.251  1.00  0.00     0.014 A 
ATOM     45  C   UNL     1       5.337   2.274   6.492  1.00  0.00     0.010 A 
ATOM     46  C   UNL     1       5.771   0.091   7.495  1.00  0.00     0.010 A 
ATOM     47  C   UNL     1       5.488   1.460   7.621  1.00  0.00    -0.014 A 
BRANCH  47  48
ATOM     48  C   UNL     1       5.335   1.947   8.999  1.00  0.00     0.031 A 
ATOM     49  C   UNL     1       6.489   1.754   9.934  1.00  0.00     0.074 A 
ATOM     50  C   UNL     1       4.094   2.249   9.419  1.00  0.00     0.049 A 
ATOM     51  N   UNL     1       6.492   1.691  11.233  1.00  0.00    -0.248 NA
ATOM     52  C   UNL     1       7.798   1.485   9.307  1.00  0.00     0.031 C 
ATOM     53  C   UNL     1       2.903   2.334   8.566  1.00  0.00     0.029 A 
ATOM     54  N   UNL     1       3.614   2.456  10.682  1.00  0.00    -0.354 N 
ATOM     55  C   UNL     1       7.776   1.288  11.580  1.00  0.00     0.074 A 
ATOM     56  C   UNL     1       8.514   1.094  10.352  1.00  0.00     0.031 C 
ATOM     57  C   UNL     1       1.826   2.556   9.334  1.00  0.00     0.029 A 
ATOM     58  C   UNL     1       2.246   2.589  10.727  1.00  0.00     0.049 A 
ATOM     59  H   UNL     1       4.190   2.506  11.479  1.00  0.00     0.167 HD
ATOM     60  C   UNL     1       8.287   1.118  12.821  1.00  0.00     0.034 A 
ATOM     61  C   UNL     1       1.431   2.704  11.790  1.00  0.00     0.034 A 
ATOM     62  C   UNL     1       7.533   1.412  14.008  1.00  0.00     0.049 A 
ATOM     63  C   UNL     1       2.063   2.693  13.152  1.00  0.00     0.074 A 
ATOM     64  C   UNL     1       7.956   1.424  15.323  1.00  0.00     0.029 A 
ATOM     65  N   UNL     1       6.192   1.774  14.011  1.00  0.00    -0.354 N 
ATOM     66  N   UNL     1       3.313   2.455  13.475  1.00  0.00    -0.248 NA
ATOM     67  C   UNL     1       1.193   3.011  14.289  1.00  0.00     0.031 C 
ATOM     68  C   UNL     1       6.870   1.808  16.120  1.00  0.00     0.029 A 
ATOM     69  C   UNL     1       5.775   2.041  15.300  1.00  0.00     0.049 A 
ATOM     70  H   UNL     1       5.622   1.833  13.211  1.00  0.00     0.167 HD
ATOM     71  C   UNL     1       3.392   2.631  14.849  1.00  0.00     0.074 A 
ATOM     72  C   UNL     1       2.063   3.015  15.290  1.00  0.00     0.031 C 
ATOM     73  C   UNL     1       4.454   2.477  15.678  1.00  0.00     0.034 A 
BRANCH  60  74
ATOM     74  C   UNL     1       9.724   0.679  12.937  1.00  0.00     0.023 A 
ATOM     75  C   UNL     1      10.752   1.549  12.515  1.00  0.00     0.012 A 
ATOM     76  C   UNL     1      10.067  -0.577  13.475  1.00  0.00     0.148 A 
ATOM     77  C   UNL     1      12.089   1.161  12.576  1.00  0.00     0.002 A 
ATOM     78  C   UNL     1      11.408  -0.938  13.581  1.00  0.00     0.091 A 
ATOM     79  F   UNL     1       9.082  -1.405  13.851  1.00  0.00    -0.205 F 
ATOM     80  C   UNL     1      12.417  -0.077  13.118  1.00  0.00     0.022 A 
BRANCH  78  81
ATOM     81  S   UNL     1      11.945  -2.477  14.337  1.00  0.00     0.127 S 
ATOM     82  O   UNL     1      12.423  -3.225  13.175  1.00  0.00    -0.237 OA
ATOM     83  O   UNL     1      13.000  -2.021  15.243  1.00  0.00    -0.237 OA
ATOM     84  O   UNL     1      10.772  -3.029  14.999  1.00  0.00    -0.744 OA
ENDBRANCH  78  81
ENDBRANCH  60  74
BRANCH  61  85
ATOM     85  C   UNL     1      -0.020   2.966  11.585  1.00  0.00     0.023 A 
ATOM     86  C   UNL     1      -0.504   4.269  11.811  1.00  0.00     0.012 A 
ATOM     87  C   UNL     1      -0.900   1.983  11.093  1.00  0.00     0.148 A 
ATOM     88  C   UNL     1      -1.844   4.583  11.584  1.00  0.00     0.002 A 
ATOM     89  C   UNL     1      -2.225   2.314  10.823  1.00  0.00     0.091 A 
ATOM     90  F   UNL     1      -0.421   0.749  10.878  1.00  0.00    -0.205 F 
ATOM     91  C   UNL     1      -2.701   3.609  11.082  1.00  0.00     0.022 A 
BRANCH  89  92
ATOM     92  S   UNL     1      -3.366   1.162  10.048  1.00  0.00     0.127 S 
ATOM     93  O   UNL     1      -4.207   0.770  11.175  1.00  0.00    -0.237 OA
ATOM     94  O   UNL     1      -4.027   2.008   9.052  1.00  0.00    -0.237 OA
ATOM     95  O   UNL     1      -2.531   0.113   9.479  1.00  0.00    -0.744 OA
ENDBRANCH  89  92
ENDBRANCH  61  85
BRANCH  73  96
ATOM     96  C   UNL     1       4.225   2.763  17.134  1.00  0.00     0.023 A 
ATOM     97  C   UNL     1       3.522   1.835  17.924  1.00  0.00     0.012 A 
ATOM     98  C   UNL     1       4.777   3.913  17.728  1.00  0.00     0.148 A 
ATOM     99  C   UNL     1       3.346   2.063  19.287  1.00  0.00     0.002 A 
ATOM    100  C   UNL     1       4.639   4.109  19.095  1.00  0.00     0.091 A 
ATOM    101  F   UNL     1       5.421   4.793  16.947  1.00  0.00    -0.205 F 
ATOM    102  C   UNL     1       3.915   3.191  19.874  1.00  0.00     0.022 A 
BRANCH 100 103
ATOM    103  S   UNL     1       5.427   5.481  19.942  1.00  0.00     0.127 S 
ATOM    104  O   UNL     1       4.303   6.393  20.142  1.00  0.00    -0.237 OA
ATOM    105  O   UNL     1       5.928   4.850  21.164  1.00  0.00    -0.237 OA
ATOM    106  O   UNL     1       6.471   5.956  19.042  1.00  0.00    -0.744 OA
ENDBRANCH 100 103
ENDBRANCH  73  96
ENDBRANCH  47  48
ENDBRANCH  39  42
ENDBRANCH  37  38
ENDBRANCH  36  37
ENDBRANCH   1  36
TORSDOF 21
