REMARK SMILES O=C(CCNC(=O)CSc1nc2[nH]cnc2c(=O)[nH]1)NCCCCNC(=O)c1ccc(-c2c3nc(c(-c4cccc(S(=O)(=O)[O-])c4F)c4ccc([nH]4)c(-c4cccc(S(=O)(=O)[O-])c4F)c4nc(c(-c5cccc(S(=O)(=O)[O-])c5F)c5ccc2[nH]5)C=C4)C=C3)cc1
REMARK SMILES IDX 21 1 20 2 1 3 2 4 3 6 4 7 5 8 6 9 7 11 8 12 9 13 10 14 11 15
REMARK SMILES IDX 19 16 12 17 17 18 13 20 16 21 18 22 14 23 15 25 22 26 23 27
REMARK SMILES IDX 24 28 25 29 26 30 27 32 28 33 29 34 90 35 30 36 89 37 31 38
REMARK SMILES IDX 32 39 33 40 83 41 34 42 88 43 82 44 84 45 35 46 87 47 81 48
REMARK SMILES IDX 80 49 36 51 68 52 48 53 67 54 49 55 52 56 66 57 85 58 50 59
REMARK SMILES IDX 51 60 65 62 86 63 53 64 37 65 38 66 46 67 39 68 41 69 47 70
REMARK SMILES IDX 40 71 42 72 43 73 44 74 45 75 69 76 70 77 78 78 71 79 73 80
REMARK SMILES IDX 79 81 72 82 74 83 75 84 76 85 77 86 54 87 55 88 63 89 56 90
REMARK SMILES IDX 58 91 64 92 57 93 59 94 60 95 61 96 62 97
REMARK H PARENT 20 5 5 10 19 19 13 24 25 31 84 50 52 61
REMARK Flexibility Score: inf
ROOT
ATOM      1  C   UNL     1       2.204   2.308   0.650  1.00  0.00     0.116 C 
ENDROOT
BRANCH   1   2
ATOM      2  N   UNL     1       2.875   1.043   0.427  1.00  0.00    -0.356 N 
ATOM      3  O   UNL     1       1.024  -0.109  -0.310  1.00  0.00    -0.275 OA
ATOM      4  C   UNL     1       2.224  -0.069  -0.058  1.00  0.00     0.221 C 
ATOM      5  H   UNL     1       3.836   0.976   0.632  1.00  0.00     0.163 HD
BRANCH   4   6
ATOM      6  C   UNL     1       3.135  -1.252  -0.304  1.00  0.00     0.121 C 
BRANCH   6   7
ATOM      7  C   UNL     1       3.904  -1.069  -1.609  1.00  0.00     0.125 C 
BRANCH   7   8
ATOM      8  N   UNL     1       4.972  -0.092  -1.470  1.00  0.00    -0.355 N 
ATOM      9  C   UNL     1       6.309  -0.255  -1.258  1.00  0.00     0.230 C 
ATOM     10  H   UNL     1       4.681   0.845  -1.542  1.00  0.00     0.163 HD
ATOM     11  O   UNL     1       6.965   0.774  -1.077  1.00  0.00    -0.274 OA
BRANCH   9  12
ATOM     12  C   UNL     1       6.980  -1.610  -1.389  1.00  0.00     0.178 C 
BRANCH  12  13
ATOM     13  S   UNL     1       6.426  -2.887  -0.241  1.00  0.00    -0.078 SA
BRANCH  13  14
ATOM     14  C   UNL     1       6.915  -2.241   1.291  1.00  0.00     0.170 A 
ATOM     15  N   UNL     1       6.862  -0.976   1.578  1.00  0.00    -0.204 NA
ATOM     16  N   UNL     1       7.282  -3.249   2.155  1.00  0.00    -0.299 N 
ATOM     17  C   UNL     1       7.239  -0.736   2.858  1.00  0.00     0.165 A 
ATOM     18  C   UNL     1       7.607  -3.045   3.485  1.00  0.00     0.279 A 
ATOM     19  H   UNL     1       7.314  -4.169   1.807  1.00  0.00     0.172 HD
ATOM     20  N   UNL     1       7.401   0.487   3.442  1.00  0.00    -0.329 N 
ATOM     21  C   UNL     1       7.576  -1.644   3.839  1.00  0.00     0.172 A 
ATOM     22  O   UNL     1       7.857  -3.986   4.234  1.00  0.00    -0.267 OA
ATOM     23  C   UNL     1       7.767   0.264   4.746  1.00  0.00     0.199 A 
ATOM     24  H   UNL     1       7.279   1.363   3.010  1.00  0.00     0.169 HD
ATOM     25  N   UNL     1       7.827  -1.022   5.028  1.00  0.00    -0.229 NA
ENDBRANCH  13  14
ENDBRANCH  12  13
ENDBRANCH   9  12
ENDBRANCH   7   8
ENDBRANCH   6   7
ENDBRANCH   4   6
ENDBRANCH   1   2
BRANCH   1  26
ATOM     26  C   UNL     1       2.576   2.934   1.992  1.00  0.00     0.023 C 
BRANCH  26  27
ATOM     27  C   UNL     1       4.059   3.277   2.161  1.00  0.00     0.023 C 
BRANCH  27  28
ATOM     28  C   UNL     1       4.631   4.244   1.128  1.00  0.00     0.116 C 
BRANCH  28  29
ATOM     29  N   UNL     1       4.018   5.562   1.191  1.00  0.00    -0.352 N 
ATOM     30  C   UNL     1       4.609   6.798   1.313  1.00  0.00     0.251 C 
ATOM     31  H   UNL     1       3.035   5.571   1.140  1.00  0.00     0.163 HD
ATOM     32  O   UNL     1       3.909   7.789   1.504  1.00  0.00    -0.269 OA
BRANCH  30  33
ATOM     33  C   UNL     1       6.082   6.935   1.244  1.00  0.00     0.039 A 
ATOM     34  C   UNL     1       6.727   7.762   2.170  1.00  0.00     0.014 A 
ATOM     35  C   UNL     1       6.830   6.261   0.275  1.00  0.00     0.014 A 
ATOM     36  C   UNL     1       8.122   7.855   2.167  1.00  0.00     0.010 A 
ATOM     37  C   UNL     1       8.223   6.295   0.323  1.00  0.00     0.010 A 
ATOM     38  C   UNL     1       8.886   7.093   1.268  1.00  0.00    -0.014 A 
BRANCH  38  39
ATOM     39  C   UNL     1      10.373   7.100   1.317  1.00  0.00     0.031 A 
ATOM     40  C   UNL     1      11.176   7.580   0.138  1.00  0.00     0.074 A 
ATOM     41  C   UNL     1      11.006   6.595   2.396  1.00  0.00     0.049 A 
ATOM     42  N   UNL     1      12.475   7.609  -0.018  1.00  0.00    -0.248 NA
ATOM     43  C   UNL     1      10.423   8.072  -1.028  1.00  0.00     0.031 C 
ATOM     44  C   UNL     1      10.348   6.033   3.578  1.00  0.00     0.029 A 
ATOM     45  N   UNL     1      12.345   6.448   2.663  1.00  0.00    -0.354 N 
ATOM     46  C   UNL     1      12.695   8.081  -1.307  1.00  0.00     0.074 A 
ATOM     47  C   UNL     1      11.394   8.301  -1.901  1.00  0.00     0.031 C 
ATOM     48  C   UNL     1      11.283   5.612   4.444  1.00  0.00     0.029 A 
ATOM     49  C   UNL     1      12.605   5.837   3.868  1.00  0.00     0.049 A 
ATOM     50  H   UNL     1      13.053   6.751   2.049  1.00  0.00     0.167 HD
ATOM     51  C   UNL     1      13.870   8.333  -1.932  1.00  0.00     0.034 A 
ATOM     52  C   UNL     1      13.773   5.484   4.441  1.00  0.00     0.034 A 
ATOM     53  C   UNL     1      15.162   8.150  -1.328  1.00  0.00     0.049 A 
ATOM     54  C   UNL     1      15.063   5.791   3.731  1.00  0.00     0.074 A 
ATOM     55  C   UNL     1      16.406   8.466  -1.848  1.00  0.00     0.029 A 
ATOM     56  N   UNL     1      15.383   7.589  -0.080  1.00  0.00    -0.354 N 
ATOM     57  N   UNL     1      15.249   6.386   2.578  1.00  0.00    -0.248 NA
ATOM     58  C   UNL     1      16.306   5.408   4.416  1.00  0.00     0.031 C 
ATOM     59  C   UNL     1      17.380   8.061  -0.930  1.00  0.00     0.029 A 
ATOM     60  C   UNL     1      16.742   7.532   0.180  1.00  0.00     0.049 A 
ATOM     61  H   UNL     1      14.677   7.277   0.532  1.00  0.00     0.167 HD
ATOM     62  C   UNL     1      16.627   6.487   2.420  1.00  0.00     0.074 A 
ATOM     63  C   UNL     1      17.227   5.908   3.604  1.00  0.00     0.031 C 
ATOM     64  C   UNL     1      17.331   7.003   1.383  1.00  0.00     0.034 A 
BRANCH  51  65
ATOM     65  C   UNL     1      13.818   8.874  -3.338  1.00  0.00     0.023 A 
ATOM     66  C   UNL     1      13.375  10.194  -3.564  1.00  0.00     0.012 A 
ATOM     67  C   UNL     1      14.273   8.103  -4.426  1.00  0.00     0.148 A 
ATOM     68  C   UNL     1      13.352  10.725  -4.853  1.00  0.00     0.002 A 
ATOM     69  C   UNL     1      14.293   8.656  -5.701  1.00  0.00     0.091 A 
ATOM     70  F   UNL     1      14.673   6.845  -4.195  1.00  0.00    -0.205 F 
ATOM     71  C   UNL     1      13.821   9.961  -5.918  1.00  0.00     0.022 A 
BRANCH  69  72
ATOM     72  S   UNL     1      14.954   7.786  -7.126  1.00  0.00     0.127 S 
ATOM     73  O   UNL     1      13.744   7.537  -7.907  1.00  0.00    -0.237 OA
ATOM     74  O   UNL     1      15.857   8.782  -7.702  1.00  0.00    -0.237 OA
ATOM     75  O   UNL     1      15.613   6.597  -6.603  1.00  0.00    -0.744 OA
ENDBRANCH  69  72
ENDBRANCH  51  65
BRANCH  52  76
ATOM     76  C   UNL     1      13.783   4.841   5.784  1.00  0.00     0.023 A 
ATOM     77  C   UNL     1      14.297   5.546   6.891  1.00  0.00     0.012 A 
ATOM     78  C   UNL     1      13.280   3.541   5.973  1.00  0.00     0.148 A 
ATOM     79  C   UNL     1      14.344   4.953   8.153  1.00  0.00     0.002 A 
ATOM     80  C   UNL     1      13.274   2.980   7.244  1.00  0.00     0.091 A 
ATOM     81  F   UNL     1      12.808   2.882   4.905  1.00  0.00    -0.205 F 
ATOM     82  C   UNL     1      13.824   3.675   8.332  1.00  0.00     0.022 A 
BRANCH  80  83
ATOM     83  S   UNL     1      12.489   1.402   7.588  1.00  0.00     0.127 S 
ATOM     84  O   UNL     1      13.644   0.549   7.854  1.00  0.00    -0.237 OA
ATOM     85  O   UNL     1      11.673   1.725   8.759  1.00  0.00    -0.237 OA
ATOM     86  O   UNL     1      11.723   1.087   6.391  1.00  0.00    -0.744 OA
ENDBRANCH  80  83
ENDBRANCH  52  76
BRANCH  64  87
ATOM     87  C   UNL     1      18.833   7.019   1.494  1.00  0.00     0.023 A 
ATOM     88  C   UNL     1      19.563   5.817   1.406  1.00  0.00     0.012 A 
ATOM     89  C   UNL     1      19.526   8.240   1.617  1.00  0.00     0.148 A 
ATOM     90  C   UNL     1      20.956   5.827   1.474  1.00  0.00     0.002 A 
ATOM     91  C   UNL     1      20.916   8.247   1.629  1.00  0.00     0.091 A 
ATOM     92  F   UNL     1      18.814   9.372   1.718  1.00  0.00    -0.205 F 
ATOM     93  C   UNL     1      21.631   7.041   1.573  1.00  0.00     0.022 A 
BRANCH  91  94
ATOM     94  S   UNL     1      21.872   9.767   1.653  1.00  0.00     0.127 S 
ATOM     95  O   UNL     1      22.437   9.743   3.001  1.00  0.00    -0.237 OA
ATOM     96  O   UNL     1      22.841   9.539   0.581  1.00  0.00    -0.237 OA
ATOM     97  O   UNL     1      20.925  10.843   1.393  1.00  0.00    -0.744 OA
ENDBRANCH  91  94
ENDBRANCH  64  87
ENDBRANCH  38  39
ENDBRANCH  30  33
ENDBRANCH  28  29
ENDBRANCH  27  28
ENDBRANCH  26  27
ENDBRANCH   1  26
TORSDOF 19
