REMARK SMILES O=C(NCCCCNC(=O)[C@@H]1CC=CC[C@@H]1C(=O)Nc1sc2c(c1C(=O)N1CCCCC1)CCCC2)c1ccc(-c2c3nc(c(-c4cccc(S(=O)(=O)[O-])c4F)c4ccc([nH]4)c(-c4cccc(S(=O)(=O)[O-])c4F)c4nc(c(-c5cccc(S(=O)(=O)[O-])c5F)c5ccc2[nH]5)C=C4)C=C3)cc1
REMARK SMILES IDX 5 1 4 2 3 3 1 4 2 5 37 7 38 8 99 9 39 10 98 11 40 12 41 13
REMARK SMILES IDX 42 14 92 15 43 16 97 17 91 18 93 19 44 20 96 21 90 22 89 23
REMARK SMILES IDX 45 25 77 26 57 27 76 28 58 29 61 30 75 31 94 32 59 33 60 34
REMARK SMILES IDX 74 36 95 37 62 38 46 39 47 40 55 41 48 42 50 43 56 44 49 45
REMARK SMILES IDX 51 46 52 47 53 48 54 49 78 50 79 51 87 52 80 53 82 54 88 55
REMARK SMILES IDX 81 56 83 57 84 58 85 59 86 60 63 61 64 62 72 63 65 64 67 65
REMARK SMILES IDX 73 66 66 67 68 68 69 69 70 70 71 71 6 72 7 73 8 74 9 75
REMARK SMILES IDX 10 77 11 78 12 79 16 80 13 81 15 82 14 83 17 84 18 85 19 86
REMARK SMILES IDX 20 88 21 89 24 90 22 91 23 92 36 93 33 94 35 95 34 96 25 97
REMARK SMILES IDX 26 98 27 99 28 100 32 101 29 102 31 103 30 104
REMARK H PARENT 3 6 93 24 61 35 8 76 19 87
REMARK Flexibility Score: inf
ROOT
ATOM      1  C   UNL     1       9.461  -8.248   2.557  1.00  0.00     0.023 C 
ENDROOT
BRANCH   1   2
ATOM      2  C   UNL     1       9.474  -8.117   1.039  1.00  0.00     0.116 C 
BRANCH   2   3
ATOM      3  N   UNL     1      10.665  -7.446   0.542  1.00  0.00    -0.352 N 
ATOM      4  O   UNL     1      12.637  -7.250  -0.522  1.00  0.00    -0.269 OA
ATOM      5  C   UNL     1      11.613  -7.897  -0.348  1.00  0.00     0.251 C 
ATOM      6  H   UNL     1      10.815  -6.539   0.893  1.00  0.00     0.163 HD
BRANCH   5   7
ATOM      7  C   UNL     1      11.398  -9.174  -1.065  1.00  0.00     0.039 A 
ATOM      8  C   UNL     1      10.165  -9.468  -1.656  1.00  0.00     0.014 A 
ATOM      9  C   UNL     1      12.451 -10.087  -1.146  1.00  0.00     0.014 A 
ATOM     10  C   UNL     1       9.941 -10.727  -2.205  1.00  0.00     0.010 A 
ATOM     11  C   UNL     1      12.248 -11.320  -1.768  1.00  0.00     0.010 A 
ATOM     12  C   UNL     1      10.983 -11.663  -2.274  1.00  0.00    -0.014 A 
BRANCH  12  13
ATOM     13  C   UNL     1      10.770 -12.978  -2.928  1.00  0.00     0.031 A 
ATOM     14  C   UNL     1      10.907 -14.255  -2.148  1.00  0.00     0.074 A 
ATOM     15  C   UNL     1      10.518 -13.017  -4.250  1.00  0.00     0.049 A 
ATOM     16  N   UNL     1      10.862 -15.490  -2.576  1.00  0.00    -0.248 NA
ATOM     17  C   UNL     1      11.138 -14.128  -0.701  1.00  0.00     0.031 C 
ATOM     18  C   UNL     1      10.394 -11.843  -5.116  1.00  0.00     0.029 A 
ATOM     19  N   UNL     1      10.363 -14.080  -5.103  1.00  0.00    -0.354 N 
ATOM     20  C   UNL     1      11.109 -16.287  -1.465  1.00  0.00     0.074 A 
ATOM     21  C   UNL     1      11.305 -15.394  -0.343  1.00  0.00     0.031 C 
ATOM     22  C   UNL     1      10.202 -12.248  -6.379  1.00  0.00     0.029 A 
ATOM     23  C   UNL     1      10.249 -13.706  -6.421  1.00  0.00     0.049 A 
ATOM     24  H   UNL     1      10.335 -15.017  -4.801  1.00  0.00     0.167 HD
ATOM     25  C   UNL     1      11.163 -17.639  -1.388  1.00  0.00     0.034 A 
ATOM     26  C   UNL     1      10.232 -14.445  -7.546  1.00  0.00     0.034 A 
ATOM     27  C   UNL     1      10.951 -18.517  -2.509  1.00  0.00     0.049 A 
ATOM     28  C   UNL     1      10.297 -15.941  -7.440  1.00  0.00     0.074 A 
ATOM     29  C   UNL     1      10.909 -19.900  -2.521  1.00  0.00     0.029 A 
ATOM     30  N   UNL     1      10.769 -18.101  -3.819  1.00  0.00    -0.354 N 
ATOM     31  N   UNL     1      10.408 -16.684  -6.366  1.00  0.00    -0.248 NA
ATOM     32  C   UNL     1      10.204 -16.703  -8.693  1.00  0.00     0.031 C 
ATOM     33  C   UNL     1      10.747 -20.320  -3.845  1.00  0.00     0.029 A 
ATOM     34  C   UNL     1      10.636 -19.199  -4.652  1.00  0.00     0.049 A 
ATOM     35  H   UNL     1      10.739 -17.162  -4.114  1.00  0.00     0.167 HD
ATOM     36  C   UNL     1      10.358 -18.000  -6.806  1.00  0.00     0.074 A 
ATOM     37  C   UNL     1      10.205 -17.953  -8.246  1.00  0.00     0.031 C 
ATOM     38  C   UNL     1      10.434 -19.142  -6.079  1.00  0.00     0.034 A 
BRANCH  25  39
ATOM     39  C   UNL     1      11.463 -18.252  -0.043  1.00  0.00     0.023 A 
ATOM     40  C   UNL     1      10.510 -18.181   0.994  1.00  0.00     0.012 A 
ATOM     41  C   UNL     1      12.677 -18.930   0.184  1.00  0.00     0.148 A 
ATOM     42  C   UNL     1      10.782 -18.727   2.248  1.00  0.00     0.002 A 
ATOM     43  C   UNL     1      12.921 -19.515   1.422  1.00  0.00     0.091 A 
ATOM     44  F   UNL     1      13.581 -18.976  -0.805  1.00  0.00    -0.205 F 
ATOM     45  C   UNL     1      11.982 -19.401   2.459  1.00  0.00     0.022 A 
BRANCH  43  46
ATOM     46  S   UNL     1      14.402 -20.474   1.759  1.00  0.00     0.127 S 
ATOM     47  O   UNL     1      15.173 -19.546   2.584  1.00  0.00    -0.237 OA
ATOM     48  O   UNL     1      13.866 -21.629   2.481  1.00  0.00    -0.237 OA
ATOM     49  O   UNL     1      14.977 -20.790   0.459  1.00  0.00    -0.744 OA
ENDBRANCH  43  46
ENDBRANCH  25  39
BRANCH  26  50
ATOM     50  C   UNL     1      10.131 -13.756  -8.861  1.00  0.00     0.023 A 
ATOM     51  C   UNL     1       8.926 -13.812  -9.585  1.00  0.00     0.012 A 
ATOM     52  C   UNL     1      11.194 -12.969  -9.348  1.00  0.00     0.148 A 
ATOM     53  C   UNL     1       8.786 -13.108 -10.781  1.00  0.00     0.002 A 
ATOM     54  C   UNL     1      11.028 -12.226 -10.509  1.00  0.00     0.091 A 
ATOM     55  F   UNL     1      12.331 -12.933  -8.639  1.00  0.00    -0.205 F 
ATOM     56  C   UNL     1       9.830 -12.306 -11.236  1.00  0.00     0.022 A 
BRANCH  54  57
ATOM     57  S   UNL     1      12.260 -11.058 -11.095  1.00  0.00     0.127 S 
ATOM     58  O   UNL     1      12.650 -11.652 -12.372  1.00  0.00    -0.237 OA
ATOM     59  O   UNL     1      11.476  -9.827 -11.201  1.00  0.00    -0.237 OA
ATOM     60  O   UNL     1      13.299 -11.028 -10.075  1.00  0.00    -0.744 OA
ENDBRANCH  54  57
ENDBRANCH  26  50
BRANCH  38  61
ATOM     61  C   UNL     1      10.292 -20.453  -6.804  1.00  0.00     0.023 A 
ATOM     62  C   UNL     1      11.350 -20.948  -7.591  1.00  0.00     0.012 A 
ATOM     63  C   UNL     1       9.145 -21.249  -6.604  1.00  0.00     0.148 A 
ATOM     64  C   UNL     1      11.262 -22.211  -8.178  1.00  0.00     0.002 A 
ATOM     65  C   UNL     1       9.088 -22.525  -7.148  1.00  0.00     0.091 A 
ATOM     66  F   UNL     1       8.143 -20.748  -5.867  1.00  0.00    -0.205 F 
ATOM     67  C   UNL     1      10.140 -23.004  -7.944  1.00  0.00     0.022 A 
BRANCH  65  68
ATOM     68  S   UNL     1       7.732 -23.656  -6.815  1.00  0.00     0.127 S 
ATOM     69  O   UNL     1       7.112 -23.774  -8.134  1.00  0.00    -0.237 OA
ATOM     70  O   UNL     1       8.437 -24.855  -6.362  1.00  0.00    -0.237 OA
ATOM     71  O   UNL     1       6.909 -23.015  -5.799  1.00  0.00    -0.744 OA
ENDBRANCH  65  68
ENDBRANCH  38  61
ENDBRANCH  12  13
ENDBRANCH   5   7
ENDBRANCH   2   3
ENDBRANCH   1   2
BRANCH   1  72
ATOM     72  C   UNL     1       9.490  -6.928   3.321  1.00  0.00     0.023 C 
BRANCH  72  73
ATOM     73  C   UNL     1       8.420  -5.919   2.916  1.00  0.00     0.116 C 
BRANCH  73  74
ATOM     74  N   UNL     1       7.055  -6.379   3.137  1.00  0.00    -0.356 N 
ATOM     75  C   UNL     1       6.047  -5.767   3.848  1.00  0.00     0.224 C 
ATOM     76  H   UNL     1       6.822  -7.241   2.723  1.00  0.00     0.163 HD
ATOM     77  O   UNL     1       4.885  -6.086   3.611  1.00  0.00    -0.275 OA
BRANCH  75  78
ATOM     78  C   UNL     1       6.444  -4.696   4.850  1.00  0.00     0.095 C 
ATOM     79  C   UNL     1       7.225  -5.287   6.044  1.00  0.00     0.041 C 
ATOM     80  C   UNL     1       5.347  -3.700   5.337  1.00  0.00     0.095 C 
ATOM     81  C   UNL     1       7.615  -4.233   7.045  1.00  0.00    -0.030 C 
ATOM     82  C   UNL     1       6.189  -2.536   5.921  1.00  0.00     0.041 C 
ATOM     83  C   UNL     1       7.172  -2.971   6.968  1.00  0.00    -0.030 C 
BRANCH  80  84
ATOM     84  C   UNL     1       4.337  -4.372   6.301  1.00  0.00     0.229 C 
ATOM     85  O   UNL     1       4.256  -5.607   6.357  1.00  0.00    -0.274 OA
ATOM     86  N   UNL     1       3.489  -3.712   7.145  1.00  0.00    -0.317 N 
ATOM     87  H   UNL     1       2.817  -4.275   7.592  1.00  0.00     0.170 HD
BRANCH  86  88
ATOM     88  C   UNL     1       3.437  -2.375   7.461  1.00  0.00     0.108 A 
ATOM     89  S   UNL     1       3.103  -1.253   6.229  1.00  0.00    -0.122 S 
ATOM     90  C   UNL     1       3.526  -1.802   8.730  1.00  0.00     0.078 A 
ATOM     91  C   UNL     1       3.637   0.013   7.233  1.00  0.00     0.011 A 
ATOM     92  C   UNL     1       3.692  -0.360   8.570  1.00  0.00    -0.019 A 
ATOM     93  C   UNL     1       3.998   1.358   6.678  1.00  0.00     0.047 C 
ATOM     94  C   UNL     1       4.030   0.662   9.618  1.00  0.00     0.037 C 
ATOM     95  C   UNL     1       4.769   2.178   7.722  1.00  0.00     0.006 C 
ATOM     96  C   UNL     1       4.083   2.099   9.084  1.00  0.00     0.005 C 
BRANCH  90  97
ATOM     97  C   UNL     1       3.650  -2.672   9.927  1.00  0.00     0.257 C 
ATOM     98  O   UNL     1       3.507  -3.894   9.850  1.00  0.00    -0.269 OA
ATOM     99  N   UNL     1       4.074  -2.097  11.117  1.00  0.00    -0.339 N 
ATOM    100  C   UNL     1       5.241  -2.672  11.778  1.00  0.00     0.120 C 
ATOM    101  C   UNL     1       3.164  -1.311  11.939  1.00  0.00     0.120 C 
ATOM    102  C   UNL     1       4.910  -3.337  13.111  1.00  0.00     0.022 C 
ATOM    103  C   UNL     1       2.815  -1.995  13.258  1.00  0.00     0.022 C 
ATOM    104  C   UNL     1       4.084  -2.409  13.996  1.00  0.00     0.004 C 
ENDBRANCH  90  97
ENDBRANCH  86  88
ENDBRANCH  80  84
ENDBRANCH  75  78
ENDBRANCH  73  74
ENDBRANCH  72  73
ENDBRANCH   1  72
TORSDOF 17
