REMARK SMILES CCC[C@@](C)(Nc1cc(C)cc(C)c1)C(=O)NCCCCNC(=O)c1ccc(-c2c3nc(c(-c4cccc(S(=O)(=O)[O-])c4F)c4ccc([nH]4)c(-c4cccc(S(=O)(=O)[O-])c4F)c4nc(c(-c5cccc(S(=O)(=O)[O-])c5F)c5ccc2[nH]5)C=C4)C=C3)cc1
REMARK SMILES IDX 20 1 19 2 18 3 17 4 15 5 16 6 4 8 5 9 3 10 2 11 1 12 6 13
REMARK SMILES IDX 7 15 8 16 14 17 9 18 12 19 10 20 11 21 13 22 21 23 22 24
REMARK SMILES IDX 23 25 24 27 25 28 26 29 87 30 27 31 86 32 28 33 29 34 30 35
REMARK SMILES IDX 80 36 31 37 85 38 79 39 81 40 32 41 84 42 78 43 77 44 33 46
REMARK SMILES IDX 65 47 45 48 64 49 46 50 49 51 63 52 82 53 47 54 48 55 62 57
REMARK SMILES IDX 83 58 50 59 34 60 35 61 43 62 36 63 38 64 44 65 37 66 39 67
REMARK SMILES IDX 40 68 41 69 42 70 66 71 67 72 75 73 68 74 70 75 76 76 69 77
REMARK SMILES IDX 71 78 72 79 73 80 74 81 51 82 52 83 60 84 53 85 55 86 61 87
REMARK SMILES IDX 54 88 56 89 57 90 58 91 59 92
REMARK H PARENT 17 7 6 14 22 26 81 45 49 56
REMARK Flexibility Score: inf
ROOT
ATOM      1  C   UNL     1       0.157  -0.079   6.686  1.00  0.00     0.023 C 
ENDROOT
BRANCH   1   2
ATOM      2  C   UNL     1      -0.409  -1.332   6.022  1.00  0.00     0.023 C 
BRANCH   2   3
ATOM      3  C   UNL     1      -1.178  -1.099   4.722  1.00  0.00     0.116 C 
BRANCH   3   4
ATOM      4  N   UNL     1      -0.518  -0.215   3.781  1.00  0.00    -0.354 N 
ATOM      5  C   UNL     1       0.296  -0.436   2.710  1.00  0.00     0.245 C 
ATOM      6  O   UNL     1       0.793   0.587   2.223  1.00  0.00    -0.272 OA
ATOM      7  H   UNL     1      -0.693   0.739   3.950  1.00  0.00     0.163 HD
BRANCH   5   8
ATOM      8  C   UNL     1       0.613  -1.851   2.144  1.00  0.00     0.114 C 
ATOM      9  C   UNL     1      -0.703  -2.561   1.754  1.00  0.00     0.045 C 
BRANCH   8  10
ATOM     10  C   UNL     1       1.523  -1.778   0.869  1.00  0.00     0.038 C 
BRANCH  10  11
ATOM     11  C   UNL     1       0.903  -1.302  -0.461  1.00  0.00    -0.000 C 
ATOM     12  C   UNL     1       0.903   0.203  -0.670  1.00  0.00     0.004 C 
ENDBRANCH  10  11
ENDBRANCH   8  10
BRANCH   8  13
ATOM     13  N   UNL     1       1.325  -2.735   3.111  1.00  0.00    -0.371 N 
ATOM     14  H   UNL     1       0.970  -3.651   3.185  1.00  0.00     0.161 HD
BRANCH  13  15
ATOM     15  C   UNL     1       2.417  -2.454   3.923  1.00  0.00     0.035 A 
ATOM     16  C   UNL     1       2.715  -1.200   4.464  1.00  0.00     0.029 A 
ATOM     17  C   UNL     1       3.249  -3.517   4.316  1.00  0.00     0.029 A 
ATOM     18  C   UNL     1       3.703  -1.019   5.449  1.00  0.00    -0.049 A 
ATOM     19  C   UNL     1       4.309  -3.346   5.225  1.00  0.00    -0.049 A 
ATOM     20  C   UNL     1       3.835   0.292   6.171  1.00  0.00     0.044 C 
ATOM     21  C   UNL     1       4.498  -2.100   5.823  1.00  0.00     0.007 A 
ATOM     22  C   UNL     1       5.205  -4.487   5.602  1.00  0.00     0.044 C 
ENDBRANCH  13  15
ENDBRANCH   8  13
ENDBRANCH   5   8
ENDBRANCH   3   4
ENDBRANCH   2   3
ENDBRANCH   1   2
BRANCH   1  23
ATOM     23  C   UNL     1      -0.871   0.981   7.038  1.00  0.00     0.116 C 
BRANCH  23  24
ATOM     24  N   UNL     1      -1.789   0.534   8.070  1.00  0.00    -0.352 N 
ATOM     25  C   UNL     1      -2.030   1.067   9.312  1.00  0.00     0.251 C 
ATOM     26  H   UNL     1      -2.314  -0.268   7.847  1.00  0.00     0.163 HD
ATOM     27  O   UNL     1      -2.691   0.424  10.125  1.00  0.00    -0.269 OA
BRANCH  25  28
ATOM     28  C   UNL     1      -1.498   2.401   9.678  1.00  0.00     0.039 A 
ATOM     29  C   UNL     1      -1.054   2.617  10.986  1.00  0.00     0.014 A 
ATOM     30  C   UNL     1      -1.478   3.452   8.758  1.00  0.00     0.014 A 
ATOM     31  C   UNL     1      -0.576   3.876  11.361  1.00  0.00     0.010 A 
ATOM     32  C   UNL     1      -0.905   4.672   9.102  1.00  0.00     0.010 A 
ATOM     33  C   UNL     1      -0.491   4.912  10.419  1.00  0.00    -0.014 A 
BRANCH  33  34
ATOM     34  C   UNL     1      -0.055   6.280  10.803  1.00  0.00     0.031 A 
ATOM     35  C   UNL     1      -1.012   7.436  10.650  1.00  0.00     0.074 A 
ATOM     36  C   UNL     1       1.208   6.497  11.217  1.00  0.00     0.049 A 
ATOM     37  N   UNL     1      -0.811   8.711  10.859  1.00  0.00    -0.248 NA
ATOM     38  C   UNL     1      -2.367   7.122  10.159  1.00  0.00     0.031 C 
ATOM     39  C   UNL     1       2.252   5.477  11.330  1.00  0.00     0.029 A 
ATOM     40  N   UNL     1       1.835   7.657  11.599  1.00  0.00    -0.354 N 
ATOM     41  C   UNL     1      -1.986   9.349  10.479  1.00  0.00     0.074 A 
ATOM     42  C   UNL     1      -2.882   8.328   9.985  1.00  0.00     0.031 C 
ATOM     43  C   UNL     1       3.386   6.054  11.762  1.00  0.00     0.029 A 
ATOM     44  C   UNL     1       3.158   7.485  11.935  1.00  0.00     0.049 A 
ATOM     45  H   UNL     1       1.381   8.530  11.630  1.00  0.00     0.167 HD
ATOM     46  C   UNL     1      -2.311  10.660  10.570  1.00  0.00     0.034 A 
ATOM     47  C   UNL     1       4.078   8.382  12.341  1.00  0.00     0.034 A 
ATOM     48  C   UNL     1      -1.447  11.659  11.136  1.00  0.00     0.049 A 
ATOM     49  C   UNL     1       3.666   9.819  12.514  1.00  0.00     0.074 A 
ATOM     50  C   UNL     1      -1.710  12.998  11.362  1.00  0.00     0.029 A 
ATOM     51  N   UNL     1      -0.154  11.423  11.575  1.00  0.00    -0.354 N 
ATOM     52  N   UNL     1       2.501  10.377  12.291  1.00  0.00    -0.248 NA
ATOM     53  C   UNL     1       4.683  10.743  13.039  1.00  0.00     0.031 C 
ATOM     54  C   UNL     1      -0.570  13.574  11.934  1.00  0.00     0.029 A 
ATOM     55  C   UNL     1       0.395  12.589  12.078  1.00  0.00     0.049 A 
ATOM     56  H   UNL     1       0.307  10.554  11.535  1.00  0.00     0.167 HD
ATOM     57  C   UNL     1       2.631  11.704  12.684  1.00  0.00     0.074 A 
ATOM     58  C   UNL     1       3.983  11.861  13.179  1.00  0.00     0.031 C 
ATOM     59  C   UNL     1       1.721  12.708  12.627  1.00  0.00     0.034 A 
BRANCH  46  60
ATOM     60  C   UNL     1      -3.687  11.074  10.113  1.00  0.00     0.023 A 
ATOM     61  C   UNL     1      -4.814  10.695  10.871  1.00  0.00     0.012 A 
ATOM     62  C   UNL     1      -3.865  11.869   8.964  1.00  0.00     0.148 A 
ATOM     63  C   UNL     1      -6.098  11.065  10.473  1.00  0.00     0.002 A 
ATOM     64  C   UNL     1      -5.145  12.273   8.599  1.00  0.00     0.091 A 
ATOM     65  F   UNL     1      -2.786  12.202   8.241  1.00  0.00    -0.205 F 
ATOM     66  C   UNL     1      -6.262  11.861   9.344  1.00  0.00     0.022 A 
BRANCH  64  67
ATOM     67  S   UNL     1      -5.456  13.366   7.207  1.00  0.00     0.127 S 
ATOM     68  O   UNL     1      -6.060  12.450   6.241  1.00  0.00    -0.237 OA
ATOM     69  O   UNL     1      -6.383  14.342   7.783  1.00  0.00    -0.237 OA
ATOM     70  O   UNL     1      -4.160  13.912   6.829  1.00  0.00    -0.744 OA
ENDBRANCH  64  67
ENDBRANCH  46  60
BRANCH  47  71
ATOM     71  C   UNL     1       5.452   7.928  12.701  1.00  0.00     0.023 A 
ATOM     72  C   UNL     1       5.843   7.928  14.054  1.00  0.00     0.012 A 
ATOM     73  C   UNL     1       6.358   7.471  11.725  1.00  0.00     0.148 A 
ATOM     74  C   UNL     1       7.122   7.513  14.427  1.00  0.00     0.002 A 
ATOM     75  C   UNL     1       7.613   7.009  12.108  1.00  0.00     0.091 A 
ATOM     76  F   UNL     1       5.973   7.490  10.441  1.00  0.00    -0.205 F 
ATOM     77  C   UNL     1       8.003   7.045  13.456  1.00  0.00     0.022 A 
BRANCH  75  78
ATOM     78  S   UNL     1       8.762   6.268  10.943  1.00  0.00     0.127 S 
ATOM     79  O   UNL     1       9.771   7.314  10.810  1.00  0.00    -0.237 OA
ATOM     80  O   UNL     1       9.202   5.074  11.667  1.00  0.00    -0.237 OA
ATOM     81  O   UNL     1       7.976   5.985   9.748  1.00  0.00    -0.744 OA
ENDBRANCH  75  78
ENDBRANCH  47  71
BRANCH  59  82
ATOM     82  C   UNL     1       2.135  14.057  13.150  1.00  0.00     0.023 A 
ATOM     83  C   UNL     1       3.036  14.848  12.411  1.00  0.00     0.012 A 
ATOM     84  C   UNL     1       1.575  14.569  14.337  1.00  0.00     0.148 A 
ATOM     85  C   UNL     1       3.399  16.116  12.863  1.00  0.00     0.002 A 
ATOM     86  C   UNL     1       1.904  15.853  14.755  1.00  0.00     0.091 A 
ATOM     87  F   UNL     1       0.735  13.793  15.037  1.00  0.00    -0.205 F 
ATOM     88  C   UNL     1       2.825  16.623  14.027  1.00  0.00     0.022 A 
BRANCH  86  89
ATOM     89  S   UNL     1       1.135  16.616  16.188  1.00  0.00     0.127 S 
ATOM     90  O   UNL     1       2.189  16.494  17.194  1.00  0.00    -0.237 OA
ATOM     91  O   UNL     1       0.892  17.983  15.723  1.00  0.00    -0.237 OA
ATOM     92  O   UNL     1      -0.075  15.847  16.446  1.00  0.00    -0.744 OA
ENDBRANCH  86  89
ENDBRANCH  59  82
ENDBRANCH  33  34
ENDBRANCH  25  28
ENDBRANCH  23  24
ENDBRANCH   1  23
TORSDOF 18
