REMARK SMILES CC(C)(CNC(=O)NCc1cccs1)C(=O)NCCCCNC(=O)c1ccc(-c2c3nc(c(-c4cccc(S(=O)(=O)[O-])c4F)c4ccc([nH]4)c(-c4cccc(S(=O)(=O)[O-])c4F)c4nc(c(-c5cccc(S(=O)(=O)[O-])c5F)c5ccc2[nH]5)C=C4)C=C3)cc1
REMARK SMILES IDX 19 1 18 2 17 3 15 4 16 5 2 7 1 8 3 9 4 10 5 11 6 12 7 14
REMARK SMILES IDX 8 15 9 17 10 18 11 19 14 20 12 21 13 22 20 23 21 24 22 25
REMARK SMILES IDX 23 26 24 28 25 29 26 30 87 31 27 32 86 33 28 34 29 35 30 36
REMARK SMILES IDX 80 37 31 38 85 39 79 40 81 41 32 42 84 43 78 44 77 45 33 47
REMARK SMILES IDX 65 48 45 49 64 50 46 51 49 52 63 53 82 54 47 55 48 56 62 58
REMARK SMILES IDX 83 59 50 60 34 61 35 62 43 63 36 64 38 65 44 66 37 67 39 68
REMARK SMILES IDX 40 69 41 70 42 71 66 72 67 73 75 74 68 75 70 76 76 77 69 78
REMARK SMILES IDX 71 79 72 80 73 81 74 82 51 83 52 84 60 85 53 86 55 87 61 88
REMARK SMILES IDX 54 89 56 90 57 91 58 92 59 93
REMARK H PARENT 17 6 5 13 8 16 22 27 81 46 49 57
REMARK Flexibility Score: inf
ROOT
ATOM      1  C   UNL     1      -1.138   3.287  -3.787  1.00  0.00     0.023 C 
ENDROOT
BRANCH   1   2
ATOM      2  C   UNL     1       0.073   2.363  -3.665  1.00  0.00     0.116 C 
BRANCH   2   3
ATOM      3  N   UNL     1       0.907   2.692  -2.526  1.00  0.00    -0.356 N 
ATOM      4  C   UNL     1       1.250   2.009  -1.403  1.00  0.00     0.227 C 
ATOM      5  O   UNL     1       2.001   2.600  -0.620  1.00  0.00    -0.274 OA
ATOM      6  H   UNL     1       1.305   3.591  -2.577  1.00  0.00     0.163 HD
BRANCH   4   7
ATOM      7  C   UNL     1       0.780   0.571  -1.098  1.00  0.00     0.061 C 
ATOM      8  C   UNL     1       1.363   0.140   0.270  1.00  0.00     0.023 C 
ATOM      9  C   UNL     1       1.358  -0.405  -2.144  1.00  0.00     0.023 C 
BRANCH   7  10
ATOM     10  C   UNL     1      -0.754   0.425  -1.026  1.00  0.00     0.134 C 
BRANCH  10  11
ATOM     11  N   UNL     1      -1.461   1.524  -0.387  1.00  0.00    -0.337 N 
ATOM     12  C   UNL     1      -2.659   2.110  -0.569  1.00  0.00     0.315 C 
ATOM     13  H   UNL     1      -0.946   1.932   0.347  1.00  0.00     0.165 HD
ATOM     14  O   UNL     1      -2.986   3.010   0.205  1.00  0.00    -0.249 OA
ATOM     15  N   UNL     1      -3.506   1.770  -1.554  1.00  0.00    -0.333 N 
ATOM     16  H   UNL     1      -4.339   2.295  -1.581  1.00  0.00     0.165 HD
BRANCH  15  17
ATOM     17  C   UNL     1      -3.395   0.766  -2.571  1.00  0.00     0.164 C 
BRANCH  17  18
ATOM     18  C   UNL     1      -4.498   0.739  -3.576  1.00  0.00     0.024 A 
ATOM     19  C   UNL     1      -4.816  -0.344  -4.376  1.00  0.00     0.017 A 
ATOM     20  S   UNL     1      -5.408   2.120  -4.007  1.00  0.00    -0.147 S 
ATOM     21  C   UNL     1      -5.784  -0.026  -5.367  1.00  0.00     0.012 A 
ATOM     22  C   UNL     1      -6.193   1.285  -5.278  1.00  0.00     0.065 A 
ENDBRANCH  17  18
ENDBRANCH  15  17
ENDBRANCH  10  11
ENDBRANCH   7  10
ENDBRANCH   4   7
ENDBRANCH   2   3
ENDBRANCH   1   2
BRANCH   1  23
ATOM     23  C   UNL     1      -0.842   4.699  -4.278  1.00  0.00     0.023 C 
BRANCH  23  24
ATOM     24  C   UNL     1      -0.200   4.786  -5.655  1.00  0.00     0.116 C 
BRANCH  24  25
ATOM     25  N   UNL     1      -0.985   4.158  -6.713  1.00  0.00    -0.352 N 
ATOM     26  C   UNL     1      -1.351   4.662  -7.940  1.00  0.00     0.251 C 
ATOM     27  H   UNL     1      -1.297   3.244  -6.521  1.00  0.00     0.163 HD
ATOM     28  O   UNL     1      -2.092   4.016  -8.677  1.00  0.00    -0.269 OA
BRANCH  26  29
ATOM     29  C   UNL     1      -0.878   6.002  -8.347  1.00  0.00     0.039 A 
ATOM     30  C   UNL     1      -1.796   6.926  -8.853  1.00  0.00     0.014 A 
ATOM     31  C   UNL     1       0.457   6.366  -8.165  1.00  0.00     0.014 A 
ATOM     32  C   UNL     1      -1.394   8.244  -9.084  1.00  0.00     0.010 A 
ATOM     33  C   UNL     1       0.829   7.698  -8.298  1.00  0.00     0.010 A 
ATOM     34  C   UNL     1      -0.090   8.654  -8.759  1.00  0.00    -0.014 A 
BRANCH  34  35
ATOM     35  C   UNL     1       0.344  10.071  -8.879  1.00  0.00     0.031 A 
ATOM     36  C   UNL     1       1.515  10.423  -9.760  1.00  0.00     0.074 A 
ATOM     37  C   UNL     1      -0.227  11.018  -8.107  1.00  0.00     0.049 A 
ATOM     38  N   UNL     1       2.131  11.567  -9.896  1.00  0.00    -0.248 NA
ATOM     39  C   UNL     1       2.097   9.332 -10.561  1.00  0.00     0.031 C 
ATOM     40  C   UNL     1      -1.305  10.792  -7.141  1.00  0.00     0.029 A 
ATOM     41  N   UNL     1       0.042  12.360  -7.990  1.00  0.00    -0.354 N 
ATOM     42  C   UNL     1       3.202  11.322 -10.748  1.00  0.00     0.074 A 
ATOM     43  C   UNL     1       3.174   9.912 -11.068  1.00  0.00     0.031 C 
ATOM     44  C   UNL     1      -1.612  11.954  -6.540  1.00  0.00     0.029 A 
ATOM     45  C   UNL     1      -0.736  13.002  -7.053  1.00  0.00     0.049 A 
ATOM     46  H   UNL     1       0.728  12.820  -8.527  1.00  0.00     0.167 HD
ATOM     47  C   UNL     1       4.105  12.196 -11.251  1.00  0.00     0.034 A 
ATOM     48  C   UNL     1      -0.742  14.289  -6.654  1.00  0.00     0.034 A 
ATOM     49  C   UNL     1       4.078  13.610 -11.001  1.00  0.00     0.049 A 
ATOM     50  C   UNL     1       0.214  15.257  -7.299  1.00  0.00     0.074 A 
ATOM     51  C   UNL     1       4.882  14.596 -11.544  1.00  0.00     0.029 A 
ATOM     52  N   UNL     1       3.190  14.243 -10.145  1.00  0.00    -0.354 N 
ATOM     53  N   UNL     1       1.119  15.032  -8.221  1.00  0.00    -0.248 NA
ATOM     54  C   UNL     1       0.124  16.663  -6.877  1.00  0.00     0.031 C 
ATOM     55  C   UNL     1       4.478  15.827 -11.017  1.00  0.00     0.029 A 
ATOM     56  C   UNL     1       3.419  15.607 -10.151  1.00  0.00     0.049 A 
ATOM     57  H   UNL     1       2.498  13.788  -9.612  1.00  0.00     0.167 HD
ATOM     58  C   UNL     1       1.679  16.270  -8.515  1.00  0.00     0.074 A 
ATOM     59  C   UNL     1       0.997  17.244  -7.689  1.00  0.00     0.031 C 
ATOM     60  C   UNL     1       2.682  16.570  -9.376  1.00  0.00     0.034 A 
BRANCH  47  61
ATOM     61  C   UNL     1       5.149  11.656 -12.193  1.00  0.00     0.023 A 
ATOM     62  C   UNL     1       4.767  11.258 -13.491  1.00  0.00     0.012 A 
ATOM     63  C   UNL     1       6.505  11.585 -11.820  1.00  0.00     0.148 A 
ATOM     64  C   UNL     1       5.709  10.764 -14.390  1.00  0.00     0.002 A 
ATOM     65  C   UNL     1       7.447  11.132 -12.738  1.00  0.00     0.091 A 
ATOM     66  F   UNL     1       6.848  11.947 -10.575  1.00  0.00    -0.205 F 
ATOM     67  C   UNL     1       7.049  10.711 -14.018  1.00  0.00     0.022 A 
BRANCH  65  68
ATOM     68  S   UNL     1       9.208  11.095 -12.383  1.00  0.00     0.127 S 
ATOM     69  O   UNL     1       9.449   9.660 -12.236  1.00  0.00    -0.237 OA
ATOM     70  O   UNL     1       9.779  11.688 -13.592  1.00  0.00    -0.237 OA
ATOM     71  O   UNL     1       9.389  11.888 -11.175  1.00  0.00    -0.744 OA
ENDBRANCH  65  68
ENDBRANCH  47  61
BRANCH  48  72
ATOM     72  C   UNL     1      -1.746  14.759  -5.657  1.00  0.00     0.023 A 
ATOM     73  C   UNL     1      -2.801  15.587  -6.090  1.00  0.00     0.012 A 
ATOM     74  C   UNL     1      -1.681  14.384  -4.302  1.00  0.00     0.148 A 
ATOM     75  C   UNL     1      -3.754  16.059  -5.187  1.00  0.00     0.002 A 
ATOM     76  C   UNL     1      -2.663  14.817  -3.417  1.00  0.00     0.091 A 
ATOM     77  F   UNL     1      -0.662  13.609  -3.904  1.00  0.00    -0.205 F 
ATOM     78  C   UNL     1      -3.691  15.667  -3.853  1.00  0.00     0.022 A 
BRANCH  76  79
ATOM     79  S   UNL     1      -2.727  14.257  -1.710  1.00  0.00     0.127 S 
ATOM     80  O   UNL     1      -2.215  15.422  -0.994  1.00  0.00    -0.237 OA
ATOM     81  O   UNL     1      -4.155  13.999  -1.525  1.00  0.00    -0.237 OA
ATOM     82  O   UNL     1      -1.894  13.063  -1.666  1.00  0.00    -0.744 OA
ENDBRANCH  76  79
ENDBRANCH  48  72
BRANCH  60  83
ATOM     83  C   UNL     1       3.083  18.015  -9.505  1.00  0.00     0.023 A 
ATOM     84  C   UNL     1       3.835  18.622  -8.481  1.00  0.00     0.012 A 
ATOM     85  C   UNL     1       2.793  18.741 -10.677  1.00  0.00     0.148 A 
ATOM     86  C   UNL     1       4.271  19.940  -8.610  1.00  0.00     0.002 A 
ATOM     87  C   UNL     1       3.269  20.039 -10.817  1.00  0.00     0.091 A 
ATOM     88  F   UNL     1       2.058  18.151 -11.631  1.00  0.00    -0.205 F 
ATOM     89  C   UNL     1       4.000  20.643  -9.782  1.00  0.00     0.022 A 
BRANCH  87  90
ATOM     90  S   UNL     1       3.045  20.981 -12.331  1.00  0.00     0.127 S 
ATOM     91  O   UNL     1       1.981  21.908 -11.951  1.00  0.00    -0.237 OA
ATOM     92  O   UNL     1       4.359  21.602 -12.510  1.00  0.00    -0.237 OA
ATOM     93  O   UNL     1       2.696  20.008 -13.357  1.00  0.00    -0.744 OA
ENDBRANCH  87  90
ENDBRANCH  60  83
ENDBRANCH  34  35
ENDBRANCH  26  29
ENDBRANCH  24  25
ENDBRANCH  23  24
ENDBRANCH   1  23
TORSDOF 18
