REMARK SMILES CCCc1cc(OC(F)(F)F)cc2c1O[C@@H](C(F)(F)F)C(C(=O)NCCCCNC(=O)c1ccc(-c3c4nc(c(-c5cccc(S(=O)(=O)[O-])c5F)c5ccc([nH]5)c(-c5cccc(S(=O)(=O)[O-])c5F)c5nc(c(-c6cccc(S(=O)(=O)[O-])c6F)c6ccc3[nH]6)C=C5)C=C4)cc1)=C2
REMARK SMILES IDX 27 1 26 2 25 3 24 4 22 5 23 6 21 8 4 9 5 10 14 11 6 12 13 13
REMARK SMILES IDX 15 14 12 15 95 16 16 17 3 18 2 19 1 20 7 21 8 22 9 23 10 24
REMARK SMILES IDX 11 25 17 26 18 27 19 28 20 29 28 30 29 31 30 32 31 34 32 35
REMARK SMILES IDX 33 36 94 37 34 38 93 39 35 40 36 41 37 42 87 43 38 44 92 45
REMARK SMILES IDX 86 46 88 47 39 48 91 49 85 50 84 51 40 53 72 54 52 55 71 56
REMARK SMILES IDX 53 57 56 58 70 59 89 60 54 61 55 62 69 64 90 65 57 66 41 67
REMARK SMILES IDX 42 68 50 69 43 70 45 71 51 72 44 73 46 74 47 75 48 76 49 77
REMARK SMILES IDX 73 78 74 79 82 80 75 81 77 82 83 83 76 84 78 85 79 86 80 87
REMARK SMILES IDX 81 88 58 89 59 90 67 91 60 92 62 93 68 94 61 95 63 96 64 97
REMARK SMILES IDX 65 98 66 99
REMARK H PARENT 24 7 29 33 88 52 56 63
REMARK Flexibility Score: inf
ROOT
ATOM      1  C   UNL     1      -3.536   6.080  -4.907  1.00  0.00     0.023 C 
ENDROOT
BRANCH   1   2
ATOM      2  C   UNL     1      -2.938   5.700  -3.550  1.00  0.00     0.023 C 
BRANCH   2   3
ATOM      3  C   UNL     1      -3.826   4.775  -2.710  1.00  0.00     0.116 C 
BRANCH   3   4
ATOM      4  N   UNL     1      -3.699   3.410  -3.182  1.00  0.00    -0.352 N 
ATOM      5  C   UNL     1      -2.823   2.421  -2.874  1.00  0.00     0.251 C 
ATOM      6  O   UNL     1      -2.822   1.410  -3.572  1.00  0.00    -0.270 OA
ATOM      7  H   UNL     1      -4.375   3.153  -3.850  1.00  0.00     0.163 HD
BRANCH   5   8
ATOM      8  C   UNL     1      -1.912   2.477  -1.699  1.00  0.00     0.067 C 
ATOM      9  C   UNL     1       0.646   2.258   1.639  1.00  0.00    -0.002 A 
ATOM     10  C   UNL     1       1.275   3.444   2.081  1.00  0.00     0.054 A 
ATOM     11  C   UNL     1      -0.252   2.346   0.566  1.00  0.00     0.131 A 
ATOM     12  C   UNL     1       1.053   4.667   1.443  1.00  0.00     0.130 A 
ATOM     13  C   UNL     1      -0.429   3.549  -0.117  1.00  0.00     0.021 A 
ATOM     14  O   UNL     1      -1.017   1.259   0.263  1.00  0.00    -0.475 OA
ATOM     15  C   UNL     1       0.222   4.704   0.324  1.00  0.00     0.058 A 
ATOM     16  C   UNL     1      -1.332   3.604  -1.258  1.00  0.00     0.025 C 
ATOM     17  C   UNL     1      -1.514   1.135  -1.100  1.00  0.00     0.314 C 
BRANCH   9  18
ATOM     18  C   UNL     1       0.960   0.980   2.394  1.00  0.00     0.039 C 
BRANCH  18  19
ATOM     19  C   UNL     1       0.808  -0.379   1.693  1.00  0.00     0.001 C 
ATOM     20  C   UNL     1       1.636  -0.527   0.423  1.00  0.00     0.004 C 
ENDBRANCH  18  19
ENDBRANCH   9  18
BRANCH  12  21
ATOM     21  O   UNL     1       1.573   5.879   1.796  1.00  0.00    -0.406 OA
BRANCH  21  22
ATOM     22  C   UNL     1       2.313   5.960   3.000  1.00  0.00     0.573 C 
ATOM     23  F   UNL     1       1.585   5.542   4.057  1.00  0.00    -0.132 F 
ATOM     24  F   UNL     1       3.448   5.232   2.919  1.00  0.00    -0.132 F 
ATOM     25  F   UNL     1       2.657   7.250   3.213  1.00  0.00    -0.132 F 
ENDBRANCH  21  22
ENDBRANCH  12  21
BRANCH  17  26
ATOM     26  C   UNL     1      -2.587   0.020  -1.078  1.00  0.00     0.429 C 
ATOM     27  F   UNL     1      -2.635  -0.689  -2.227  1.00  0.00    -0.167 F 
ATOM     28  F   UNL     1      -2.307  -0.896  -0.108  1.00  0.00    -0.167 F 
ATOM     29  F   UNL     1      -3.825   0.495  -0.811  1.00  0.00    -0.167 F 
ENDBRANCH  17  26
ENDBRANCH   5   8
ENDBRANCH   3   4
ENDBRANCH   2   3
ENDBRANCH   1   2
BRANCH   1  30
ATOM     30  C   UNL     1      -4.824   6.887  -4.826  1.00  0.00     0.116 C 
BRANCH  30  31
ATOM     31  N   UNL     1      -4.683   8.110  -4.050  1.00  0.00    -0.352 N 
ATOM     32  C   UNL     1      -5.394   9.281  -4.175  1.00  0.00     0.251 C 
ATOM     33  H   UNL     1      -3.993   8.098  -3.347  1.00  0.00     0.163 HD
ATOM     34  O   UNL     1      -5.090  10.265  -3.519  1.00  0.00    -0.269 OA
BRANCH  32  35
ATOM     35  C   UNL     1      -6.502   9.333  -5.150  1.00  0.00     0.039 A 
ATOM     36  C   UNL     1      -6.513  10.358  -6.098  1.00  0.00     0.014 A 
ATOM     37  C   UNL     1      -7.485   8.341  -5.159  1.00  0.00     0.014 A 
ATOM     38  C   UNL     1      -7.484  10.353  -7.101  1.00  0.00     0.010 A 
ATOM     39  C   UNL     1      -8.408   8.300  -6.198  1.00  0.00     0.010 A 
ATOM     40  C   UNL     1      -8.418   9.306  -7.176  1.00  0.00    -0.014 A 
BRANCH  40  41
ATOM     41  C   UNL     1      -9.408   9.236  -8.277  1.00  0.00     0.031 A 
ATOM     42  C   UNL     1     -10.877   9.335  -7.975  1.00  0.00     0.074 A 
ATOM     43  C   UNL     1      -8.987   8.986  -9.532  1.00  0.00     0.049 A 
ATOM     44  N   UNL     1     -11.893   9.238  -8.791  1.00  0.00    -0.248 NA
ATOM     45  C   UNL     1     -11.256   9.538  -6.566  1.00  0.00     0.031 C 
ATOM     46  C   UNL     1      -7.593   8.781  -9.932  1.00  0.00     0.029 A 
ATOM     47  N   UNL     1      -9.693   8.833 -10.699  1.00  0.00    -0.354 N 
ATOM     48  C   UNL     1     -13.028   9.331  -7.996  1.00  0.00     0.074 A 
ATOM     49  C   UNL     1     -12.577   9.456  -6.627  1.00  0.00     0.031 C 
ATOM     50  C   UNL     1      -7.546   8.532 -11.251  1.00  0.00     0.029 A 
ATOM     51  C   UNL     1      -8.904   8.537 -11.786  1.00  0.00     0.049 A 
ATOM     52  H   UNL     1     -10.671   8.925 -10.752  1.00  0.00     0.167 HD
ATOM     53  C   UNL     1     -14.329   9.345  -8.373  1.00  0.00     0.034 A 
ATOM     54  C   UNL     1      -9.239   8.296 -13.069  1.00  0.00     0.034 A 
ATOM     55  C   UNL     1     -14.768   9.274  -9.739  1.00  0.00     0.049 A 
ATOM     56  C   UNL     1     -10.687   8.378 -13.471  1.00  0.00     0.074 A 
ATOM     57  C   UNL     1     -16.055   9.380 -10.236  1.00  0.00     0.029 A 
ATOM     58  N   UNL     1     -13.933   9.079 -10.829  1.00  0.00    -0.354 N 
ATOM     59  N   UNL     1     -11.735   8.640 -12.728  1.00  0.00    -0.248 NA
ATOM     60  C   UNL     1     -10.995   8.171 -14.893  1.00  0.00     0.031 C 
ATOM     61  C   UNL     1     -15.999   9.234 -11.626  1.00  0.00     0.029 A 
ATOM     62  C   UNL     1     -14.675   9.055 -11.996  1.00  0.00     0.049 A 
ATOM     63  H   UNL     1     -12.956   8.972 -10.779  1.00  0.00     0.167 HD
ATOM     64  C   UNL     1     -12.821   8.663 -13.595  1.00  0.00     0.074 A 
ATOM     65  C   UNL     1     -12.300   8.410 -14.923  1.00  0.00     0.031 C 
ATOM     66  C   UNL     1     -14.133   8.860 -13.316  1.00  0.00     0.034 A 
BRANCH  53  67
ATOM     67  C   UNL     1     -15.366   9.508  -7.294  1.00  0.00     0.023 A 
ATOM     68  C   UNL     1     -15.508  10.757  -6.654  1.00  0.00     0.012 A 
ATOM     69  C   UNL     1     -16.229   8.452  -6.945  1.00  0.00     0.148 A 
ATOM     70  C   UNL     1     -16.467  10.943  -5.661  1.00  0.00     0.002 A 
ATOM     71  C   UNL     1     -17.212   8.658  -5.984  1.00  0.00     0.091 A 
ATOM     72  F   UNL     1     -16.064   7.265  -7.545  1.00  0.00    -0.205 F 
ATOM     73  C   UNL     1     -17.325   9.898  -5.333  1.00  0.00     0.022 A 
BRANCH  71  74
ATOM     74  S   UNL     1     -18.415   7.396  -5.546  1.00  0.00     0.127 S 
ATOM     75  O   UNL     1     -17.939   6.981  -4.227  1.00  0.00    -0.237 OA
ATOM     76  O   UNL     1     -19.666   8.154  -5.531  1.00  0.00    -0.237 OA
ATOM     77  O   UNL     1     -18.332   6.386  -6.591  1.00  0.00    -0.744 OA
ENDBRANCH  71  74
ENDBRANCH  53  67
BRANCH  54  78
ATOM     78  C   UNL     1      -8.174   8.041 -14.079  1.00  0.00     0.023 A 
ATOM     79  C   UNL     1      -7.890   9.029 -15.042  1.00  0.00     0.012 A 
ATOM     80  C   UNL     1      -7.419   6.853 -14.071  1.00  0.00     0.148 A 
ATOM     81  C   UNL     1      -6.894   8.826 -15.998  1.00  0.00     0.002 A 
ATOM     82  C   UNL     1      -6.393   6.679 -14.993  1.00  0.00     0.091 A 
ATOM     83  F   UNL     1      -7.713   5.920 -13.154  1.00  0.00    -0.205 F 
ATOM     84  C   UNL     1      -6.139   7.657 -15.967  1.00  0.00     0.022 A 
BRANCH  82  85
ATOM     85  S   UNL     1      -5.285   5.266 -14.942  1.00  0.00     0.127 S 
ATOM     86  O   UNL     1      -5.733   4.492 -16.096  1.00  0.00    -0.237 OA
ATOM     87  O   UNL     1      -3.975   5.900 -15.095  1.00  0.00    -0.237 OA
ATOM     88  O   UNL     1      -5.500   4.649 -13.640  1.00  0.00    -0.744 OA
ENDBRANCH  82  85
ENDBRANCH  54  78
BRANCH  66  89
ATOM     89  C   UNL     1     -15.102   8.841 -14.468  1.00  0.00     0.023 A 
ATOM     90  C   UNL     1     -15.438   7.615 -15.076  1.00  0.00     0.012 A 
ATOM     91  C   UNL     1     -15.741  10.023 -14.892  1.00  0.00     0.148 A 
ATOM     92  C   UNL     1     -16.375   7.570 -16.108  1.00  0.00     0.002 A 
ATOM     93  C   UNL     1     -16.707   9.964 -15.889  1.00  0.00     0.091 A 
ATOM     94  F   UNL     1     -15.392  11.181 -14.314  1.00  0.00    -0.205 F 
ATOM     95  C   UNL     1     -17.018   8.741 -16.505  1.00  0.00     0.022 A 
BRANCH  93  96
ATOM     96  S   UNL     1     -17.652  11.405 -16.395  1.00  0.00     0.127 S 
ATOM     97  O   UNL     1     -17.043  11.722 -17.686  1.00  0.00    -0.237 OA
ATOM     98  O   UNL     1     -19.013  10.874 -16.477  1.00  0.00    -0.237 OA
ATOM     99  O   UNL     1     -17.456  12.399 -15.348  1.00  0.00    -0.744 OA
ENDBRANCH  93  96
ENDBRANCH  66  89
ENDBRANCH  40  41
ENDBRANCH  32  35
ENDBRANCH  30  31
ENDBRANCH   1  30
TORSDOF 19
