REMARK SMILES CCC[C@@H](C)[C@@](C#N)(CC)C(=O)NCCCCNC(=O)c1ccc(-c2c3nc(c(-c4cccc(S(=O)(=O)[O-])c4F)c4ccc([nH]4)c(-c4cccc(S(=O)(=O)[O-])c4F)c4nc(c(-c5cccc(S(=O)(=O)[O-])c5F)c5ccc2[nH]5)C=C4)C=C3)cc1
REMARK SMILES IDX 15 1 14 2 13 3 11 4 12 5 6 7 4 8 5 9 3 10 2 11 1 12 7 13
REMARK SMILES IDX 8 14 9 15 10 16 16 17 17 18 18 19 19 20 20 22 21 23 22 24
REMARK SMILES IDX 83 25 23 26 82 27 24 28 25 29 26 30 76 31 27 32 81 33 75 34
REMARK SMILES IDX 77 35 28 36 80 37 74 38 73 39 29 41 61 42 41 43 60 44 42 45
REMARK SMILES IDX 45 46 59 47 78 48 43 49 44 50 58 52 79 53 46 54 30 55 31 56
REMARK SMILES IDX 39 57 32 58 34 59 40 60 33 61 35 62 36 63 37 64 38 65 62 66
REMARK SMILES IDX 63 67 71 68 64 69 66 70 72 71 65 72 67 73 68 74 69 75 70 76
REMARK SMILES IDX 47 77 48 78 56 79 49 80 51 81 57 82 50 83 52 84 53 85 54 86
REMARK SMILES IDX 55 87
REMARK H PARENT 13 6 18 21 77 40 45 51
REMARK Flexibility Score: inf
ROOT
ATOM      1  C   UNL     1       0.916   5.273   6.465  1.00  0.00     0.023 C 
ENDROOT
BRANCH   1   2
ATOM      2  C   UNL     1       1.772   4.093   6.016  1.00  0.00     0.116 C 
BRANCH   2   3
ATOM      3  N   UNL     1       0.963   2.897   5.852  1.00  0.00    -0.355 N 
ATOM      4  C   UNL     1       0.545   2.233   4.736  1.00  0.00     0.240 C 
ATOM      5  O   UNL     1      -0.193   1.264   4.928  1.00  0.00    -0.273 OA
ATOM      6  H   UNL     1       0.663   2.494   6.698  1.00  0.00     0.163 HD
BRANCH   4   7
ATOM      7  C   UNL     1       0.959   2.684   3.319  1.00  0.00     0.138 C 
BRANCH   7   8
ATOM      8  C   UNL     1       0.478   1.681   2.174  1.00  0.00     0.016 C 
ATOM      9  C   UNL     1      -1.048   1.641   1.982  1.00  0.00     0.010 C 
BRANCH   8  10
ATOM     10  C   UNL     1       1.062   0.242   2.297  1.00  0.00     0.005 C 
BRANCH  10  11
ATOM     11  C   UNL     1       0.730  -0.728   1.150  1.00  0.00    -0.003 C 
ATOM     12  C   UNL     1       1.081  -0.206  -0.236  1.00  0.00     0.004 C 
ENDBRANCH  10  11
ENDBRANCH   8  10
ENDBRANCH   7   8
BRANCH   7  13
ATOM     13  C   UNL     1       2.479   2.684   3.319  1.00  0.00     0.079 C 
ATOM     14  N   UNL     1       3.740   2.684   3.319  1.00  0.00    -0.197 NA
ENDBRANCH   7  13
BRANCH   7  15
ATOM     15  C   UNL     1       0.484   4.138   2.989  1.00  0.00     0.029 C 
ATOM     16  C   UNL     1      -0.959   4.505   3.333  1.00  0.00     0.006 C 
ENDBRANCH   7  15
ENDBRANCH   4   7
ENDBRANCH   2   3
ENDBRANCH   1   2
BRANCH   1  17
ATOM     17  C   UNL     1       0.366   5.127   7.882  1.00  0.00     0.023 C 
BRANCH  17  18
ATOM     18  C   UNL     1       1.426   4.854   8.940  1.00  0.00     0.116 C 
BRANCH  18  19
ATOM     19  N   UNL     1       2.485   5.853   8.938  1.00  0.00    -0.352 N 
ATOM     20  C   UNL     1       3.100   6.449  10.012  1.00  0.00     0.251 C 
ATOM     21  H   UNL     1       2.801   6.139   8.051  1.00  0.00     0.163 HD
ATOM     22  O   UNL     1       3.860   7.392   9.839  1.00  0.00    -0.269 OA
BRANCH  20  23
ATOM     23  C   UNL     1       2.811   5.950  11.371  1.00  0.00     0.039 A 
ATOM     24  C   UNL     1       2.545   6.873  12.383  1.00  0.00     0.014 A 
ATOM     25  C   UNL     1       2.783   4.578  11.637  1.00  0.00     0.014 A 
ATOM     26  C   UNL     1       2.215   6.415  13.658  1.00  0.00     0.010 A 
ATOM     27  C   UNL     1       2.364   4.125  12.882  1.00  0.00     0.010 A 
ATOM     28  C   UNL     1       2.101   5.037  13.912  1.00  0.00    -0.014 A 
BRANCH  28  29
ATOM     29  C   UNL     1       1.731   4.543  15.262  1.00  0.00     0.031 A 
ATOM     30  C   UNL     1       2.692   3.687  16.044  1.00  0.00     0.074 A 
ATOM     31  C   UNL     1       0.512   4.824  15.763  1.00  0.00     0.049 A 
ATOM     32  N   UNL     1       2.554   3.179  17.241  1.00  0.00    -0.248 NA
ATOM     33  C   UNL     1       3.962   3.331  15.388  1.00  0.00     0.031 C 
ATOM     34  C   UNL     1      -0.539   5.567  15.065  1.00  0.00     0.029 A 
ATOM     35  N   UNL     1      -0.052   4.507  16.972  1.00  0.00    -0.354 N 
ATOM     36  C   UNL     1       3.697   2.423  17.468  1.00  0.00     0.074 A 
ATOM     37  C   UNL     1       4.499   2.498  16.267  1.00  0.00     0.031 C 
ATOM     38  C   UNL     1      -1.613   5.665  15.864  1.00  0.00     0.029 A 
ATOM     39  C   UNL     1      -1.338   4.971  17.118  1.00  0.00     0.049 A 
ATOM     40  H   UNL     1       0.418   3.995  17.668  1.00  0.00     0.167 HD
ATOM     41  C   UNL     1       4.067   1.754  18.585  1.00  0.00     0.034 A 
ATOM     42  C   UNL     1      -2.197   4.853  18.149  1.00  0.00     0.034 A 
ATOM     43  C   UNL     1       3.284   1.714  19.791  1.00  0.00     0.049 A 
ATOM     44  C   UNL     1      -1.743   4.146  19.398  1.00  0.00     0.074 A 
ATOM     45  C   UNL     1       3.605   1.137  21.006  1.00  0.00     0.029 A 
ATOM     46  N   UNL     1       2.019   2.263  19.930  1.00  0.00    -0.354 N 
ATOM     47  N   UNL     1      -0.590   3.577  19.652  1.00  0.00    -0.248 NA
ATOM     48  C   UNL     1      -2.693   4.106  20.518  1.00  0.00     0.031 C 
ATOM     49  C   UNL     1       2.520   1.309  21.871  1.00  0.00     0.029 A 
ATOM     50  C   UNL     1       1.540   2.031  21.208  1.00  0.00     0.049 A 
ATOM     51  H   UNL     1       1.533   2.747  19.224  1.00  0.00     0.167 HD
ATOM     52  C   UNL     1      -0.661   3.146  20.972  1.00  0.00     0.074 A 
ATOM     53  C   UNL     1      -1.962   3.543  21.470  1.00  0.00     0.031 C 
ATOM     54  C   UNL     1       0.262   2.472  21.703  1.00  0.00     0.034 A 
BRANCH  41  55
ATOM     55  C   UNL     1       5.399   1.050  18.571  1.00  0.00     0.023 A 
ATOM     56  C   UNL     1       6.591   1.805  18.553  1.00  0.00     0.012 A 
ATOM     57  C   UNL     1       5.476  -0.356  18.625  1.00  0.00     0.148 A 
ATOM     58  C   UNL     1       7.834   1.175  18.549  1.00  0.00     0.002 A 
ATOM     59  C   UNL     1       6.719  -0.976  18.672  1.00  0.00     0.091 A 
ATOM     60  F   UNL     1       4.335  -1.059  18.620  1.00  0.00    -0.205 F 
ATOM     61  C   UNL     1       7.898  -0.214  18.620  1.00  0.00     0.022 A 
BRANCH  59  62
ATOM     62  S   UNL     1       6.910  -2.753  18.850  1.00  0.00     0.127 S 
ATOM     63  O   UNL     1       7.452  -3.123  17.543  1.00  0.00    -0.237 OA
ATOM     64  O   UNL     1       7.865  -2.849  19.955  1.00  0.00    -0.237 OA
ATOM     65  O   UNL     1       5.583  -3.274  19.145  1.00  0.00    -0.744 OA
ENDBRANCH  59  62
ENDBRANCH  41  55
BRANCH  42  66
ATOM     66  C   UNL     1      -3.549   5.476  18.071  1.00  0.00     0.023 A 
ATOM     67  C   UNL     1      -3.850   6.588  18.882  1.00  0.00     0.012 A 
ATOM     68  C   UNL     1      -4.528   4.986  17.187  1.00  0.00     0.148 A 
ATOM     69  C   UNL     1      -5.116   7.174  18.845  1.00  0.00     0.002 A 
ATOM     70  C   UNL     1      -5.768   5.610  17.111  1.00  0.00     0.091 A 
ATOM     71  F   UNL     1      -4.223   3.924  16.428  1.00  0.00    -0.205 F 
ATOM     72  C   UNL     1      -6.071   6.691  17.954  1.00  0.00     0.022 A 
BRANCH  70  73
ATOM     73  S   UNL     1      -7.010   5.142  15.903  1.00  0.00     0.127 S 
ATOM     74  O   UNL     1      -8.044   4.553  16.750  1.00  0.00    -0.237 OA
ATOM     75  O   UNL     1      -7.359   6.436  15.314  1.00  0.00    -0.237 OA
ATOM     76  O   UNL     1      -6.345   4.226  14.988  1.00  0.00    -0.744 OA
ENDBRANCH  70  73
ENDBRANCH  42  66
BRANCH  54  77
ATOM     77  C   UNL     1      -0.081   2.160  23.137  1.00  0.00     0.023 A 
ATOM     78  C   UNL     1      -1.073   1.205  23.437  1.00  0.00     0.012 A 
ATOM     79  C   UNL     1       0.621   2.780  24.190  1.00  0.00     0.148 A 
ATOM     80  C   UNL     1      -1.395   0.908  24.761  1.00  0.00     0.002 A 
ATOM     81  C   UNL     1       0.334   2.438  25.506  1.00  0.00     0.091 A 
ATOM     82  F   UNL     1       1.549   3.699  23.888  1.00  0.00    -0.205 F 
ATOM     83  C   UNL     1      -0.685   1.516  25.794  1.00  0.00     0.022 A 
BRANCH  81  84
ATOM     84  S   UNL     1       1.267   3.094  26.893  1.00  0.00     0.127 S 
ATOM     85  O   UNL     1       0.314   4.039  27.473  1.00  0.00    -0.237 OA
ATOM     86  O   UNL     1       1.506   1.897  27.700  1.00  0.00    -0.237 OA
ATOM     87  O   UNL     1       2.469   3.687  26.323  1.00  0.00    -0.744 OA
ENDBRANCH  81  84
ENDBRANCH  54  77
ENDBRANCH  28  29
ENDBRANCH  20  23
ENDBRANCH  18  19
ENDBRANCH  17  18
ENDBRANCH   1  17
TORSDOF 19
