REMARK SMILES O=C(NCCCCNC(=O)[C@H]1CC[N@@H+]1CCc1ccccc1)c1ccc(-c2c3nc(c(-c4cccc(S(=O)(=O)[O-])c4F)c4ccc([nH]4)c(-c4cccc(S(=O)(=O)[O-])c4F)c4nc(c(-c5cccc(S(=O)(=O)[O-])c5F)c5ccc2[nH]5)C=C4)C=C3)cc1
REMARK SMILES IDX 5 1 4 2 3 3 1 4 2 5 23 7 24 8 85 9 25 10 84 11 26 12 27 13
REMARK SMILES IDX 28 14 78 15 29 16 83 17 77 18 79 19 30 20 82 21 76 22 75 23
REMARK SMILES IDX 31 25 63 26 43 27 62 28 44 29 47 30 61 31 80 32 45 33 46 34
REMARK SMILES IDX 60 36 81 37 48 38 32 39 33 40 41 41 34 42 36 43 42 44 35 45
REMARK SMILES IDX 37 46 38 47 39 48 40 49 64 50 65 51 73 52 66 53 68 54 74 55
REMARK SMILES IDX 67 56 69 57 70 58 71 59 72 60 49 61 50 62 58 63 51 64 53 65
REMARK SMILES IDX 59 66 52 67 54 68 55 69 56 70 57 71 6 72 7 73 8 74 9 75
REMARK SMILES IDX 10 77 11 78 12 79 14 80 13 81 15 83 16 84 17 85 18 86 22 87
REMARK SMILES IDX 19 88 21 89 20 90
REMARK H PARENT 3 6 79 24 47 35 8 76 14 82
REMARK Flexibility Score: inf
ROOT
ATOM      1  C   UNL     1       2.475   6.456   1.458  1.00  0.00     0.023 C 
ENDROOT
BRANCH   1   2
ATOM      2  C   UNL     1       1.357   7.389   1.896  1.00  0.00     0.116 C 
BRANCH   2   3
ATOM      3  N   UNL     1       1.715   8.798   1.896  1.00  0.00    -0.352 N 
ATOM      4  O   UNL     1       1.237  11.007   1.740  1.00  0.00    -0.269 OA
ATOM      5  C   UNL     1       0.837   9.865   1.831  1.00  0.00     0.251 C 
ATOM      6  H   UNL     1       2.675   9.014   1.947  1.00  0.00     0.163 HD
BRANCH   5   7
ATOM      7  C   UNL     1      -0.610   9.548   1.831  1.00  0.00     0.039 A 
ATOM      8  C   UNL     1      -1.145   8.758   2.851  1.00  0.00     0.014 A 
ATOM      9  C   UNL     1      -1.399   9.955   0.754  1.00  0.00     0.014 A 
ATOM     10  C   UNL     1      -2.438   8.267   2.732  1.00  0.00     0.010 A 
ATOM     11  C   UNL     1      -2.727   9.528   0.679  1.00  0.00     0.010 A 
ATOM     12  C   UNL     1      -3.249   8.664   1.656  1.00  0.00    -0.014 A 
BRANCH  12  13
ATOM     13  C   UNL     1      -4.681   8.279   1.651  1.00  0.00     0.031 A 
ATOM     14  C   UNL     1      -5.260   7.388   0.590  1.00  0.00     0.074 A 
ATOM     15  C   UNL     1      -5.465   8.789   2.621  1.00  0.00     0.049 A 
ATOM     16  N   UNL     1      -6.496   6.986   0.449  1.00  0.00    -0.248 NA
ATOM     17  C   UNL     1      -4.346   6.888  -0.450  1.00  0.00     0.031 C 
ATOM     18  C   UNL     1      -5.010   9.709   3.669  1.00  0.00     0.029 A 
ATOM     19  N   UNL     1      -6.801   8.630   2.878  1.00  0.00    -0.354 N 
ATOM     20  C   UNL     1      -6.524   6.227  -0.715  1.00  0.00     0.074 A 
ATOM     21  C   UNL     1      -5.175   6.212  -1.239  1.00  0.00     0.031 C 
ATOM     22  C   UNL     1      -6.046  10.031   4.454  1.00  0.00     0.029 A 
ATOM     23  C   UNL     1      -7.246   9.389   3.935  1.00  0.00     0.049 A 
ATOM     24  H   UNL     1      -7.385   8.031   2.358  1.00  0.00     0.167 HD
ATOM     25  C   UNL     1      -7.580   5.596  -1.281  1.00  0.00     0.034 A 
ATOM     26  C   UNL     1      -8.489   9.580   4.415  1.00  0.00     0.034 A 
ATOM     27  C   UNL     1      -8.907   5.582  -0.721  1.00  0.00     0.049 A 
ATOM     28  C   UNL     1      -9.629   8.851   3.771  1.00  0.00     0.074 A 
ATOM     29  C   UNL     1     -10.015   4.873  -1.156  1.00  0.00     0.029 A 
ATOM     30  N   UNL     1      -9.313   6.322   0.377  1.00  0.00    -0.354 N 
ATOM     31  N   UNL     1      -9.602   7.997   2.778  1.00  0.00    -0.248 NA
ATOM     32  C   UNL     1     -10.968   9.095   4.323  1.00  0.00     0.031 C 
ATOM     33  C   UNL     1     -11.098   5.208  -0.336  1.00  0.00     0.029 A 
ATOM     34  C   UNL     1     -10.661   6.114   0.617  1.00  0.00     0.049 A 
ATOM     35  H   UNL     1      -8.730   6.910   0.909  1.00  0.00     0.167 HD
ATOM     36  C   UNL     1     -10.917   7.595   2.588  1.00  0.00     0.074 A 
ATOM     37  C   UNL     1     -11.709   8.268   3.598  1.00  0.00     0.031 C 
ATOM     38  C   UNL     1     -11.428   6.766   1.647  1.00  0.00     0.034 A 
BRANCH  25  39
ATOM     39  C   UNL     1      -7.361   4.827  -2.557  1.00  0.00     0.023 A 
ATOM     40  C   UNL     1      -6.762   3.553  -2.506  1.00  0.00     0.012 A 
ATOM     41  C   UNL     1      -7.867   5.307  -3.783  1.00  0.00     0.148 A 
ATOM     42  C   UNL     1      -6.662   2.770  -3.656  1.00  0.00     0.002 A 
ATOM     43  C   UNL     1      -7.793   4.508  -4.918  1.00  0.00     0.091 A 
ATOM     44  F   UNL     1      -8.419   6.528  -3.810  1.00  0.00    -0.205 F 
ATOM     45  C   UNL     1      -7.188   3.241  -4.857  1.00  0.00     0.022 A 
BRANCH  43  46
ATOM     46  S   UNL     1      -8.500   4.992  -6.498  1.00  0.00     0.127 S 
ATOM     47  O   UNL     1      -7.300   5.179  -7.312  1.00  0.00    -0.237 OA
ATOM     48  O   UNL     1      -9.298   3.817  -6.850  1.00  0.00    -0.237 OA
ATOM     49  O   UNL     1      -9.272   6.199  -6.241  1.00  0.00    -0.744 OA
ENDBRANCH  43  46
ENDBRANCH  25  39
BRANCH  26  50
ATOM     50  C   UNL     1      -8.699  10.495   5.570  1.00  0.00     0.023 A 
ATOM     51  C   UNL     1      -9.079   9.965   6.816  1.00  0.00     0.012 A 
ATOM     52  C   UNL     1      -8.470  11.880   5.452  1.00  0.00     0.148 A 
ATOM     53  C   UNL     1      -9.250  10.802   7.920  1.00  0.00     0.002 A 
ATOM     54  C   UNL     1      -8.581  12.698   6.569  1.00  0.00     0.091 A 
ATOM     55  F   UNL     1      -8.130  12.373   4.252  1.00  0.00    -0.205 F 
ATOM     56  C   UNL     1      -8.987  12.165   7.801  1.00  0.00     0.022 A 
BRANCH  54  57
ATOM     57  S   UNL     1      -8.099  14.428   6.512  1.00  0.00     0.127 S 
ATOM     58  O   UNL     1      -9.380  15.090   6.283  1.00  0.00    -0.237 OA
ATOM     59  O   UNL     1      -7.526  14.638   7.843  1.00  0.00    -0.237 OA
ATOM     60  O   UNL     1      -7.126  14.511   5.430  1.00  0.00    -0.744 OA
ENDBRANCH  54  57
ENDBRANCH  26  50
BRANCH  38  61
ATOM     61  C   UNL     1     -12.916   6.550   1.657  1.00  0.00     0.023 A 
ATOM     62  C   UNL     1     -13.762   7.576   1.193  1.00  0.00     0.012 A 
ATOM     63  C   UNL     1     -13.471   5.324   2.069  1.00  0.00     0.148 A 
ATOM     64  C   UNL     1     -15.144   7.396   1.165  1.00  0.00     0.002 A 
ATOM     65  C   UNL     1     -14.845   5.135   1.996  1.00  0.00     0.091 A 
ATOM     66  F   UNL     1     -12.647   4.370   2.526  1.00  0.00    -0.205 F 
ATOM     67  C   UNL     1     -15.684   6.173   1.555  1.00  0.00     0.022 A 
BRANCH  65  68
ATOM     68  S   UNL     1     -15.623   3.566   2.397  1.00  0.00     0.127 S 
ATOM     69  O   UNL     1     -16.265   3.870   3.675  1.00  0.00    -0.237 OA
ATOM     70  O   UNL     1     -16.547   3.382   1.278  1.00  0.00    -0.237 OA
ATOM     71  O   UNL     1     -14.544   2.589   2.456  1.00  0.00    -0.744 OA
ENDBRANCH  65  68
ENDBRANCH  38  61
ENDBRANCH  12  13
ENDBRANCH   5   7
ENDBRANCH   2   3
ENDBRANCH   1   2
BRANCH   1  72
ATOM     72  C   UNL     1       3.677   6.448   2.395  1.00  0.00     0.023 C 
BRANCH  72  73
ATOM     73  C   UNL     1       3.391   5.913   3.805  1.00  0.00     0.116 C 
BRANCH  73  74
ATOM     74  N   UNL     1       3.780   4.521   3.993  1.00  0.00    -0.351 N 
ATOM     75  C   UNL     1       4.984   3.885   4.258  1.00  0.00     0.278 C 
ATOM     76  H   UNL     1       3.023   3.896   3.913  1.00  0.00     0.163 HD
ATOM     77  O   UNL     1       4.885   2.659   4.435  1.00  0.00    -0.268 OA
BRANCH  75  78
ATOM     78  C   UNL     1       6.384   4.644   4.289  1.00  0.00     0.279 C 
ATOM     79  C   UNL     1       6.420   6.167   4.174  1.00  0.00     0.137 C 
ATOM     80  N   UNL     1       6.944   4.831   5.696  1.00  0.00    -0.324 N 
ATOM     81  C   UNL     1       6.269   6.132   5.729  1.00  0.00     0.269 C 
ATOM     82  H   UNL     1       6.811   4.081   6.374  1.00  0.00     0.348 HD
BRANCH  80  83
ATOM     83  C   UNL     1       8.413   5.026   5.826  1.00  0.00     0.267 C 
BRANCH  83  84
ATOM     84  C   UNL     1       9.370   5.919   4.953  1.00  0.00     0.097 C 
BRANCH  84  85
ATOM     85  C   UNL     1       9.517   7.450   4.995  1.00  0.00    -0.042 A 
ATOM     86  C   UNL     1      10.809   7.988   4.838  1.00  0.00     0.004 A 
ATOM     87  C   UNL     1       8.476   8.391   4.984  1.00  0.00     0.004 A 
ATOM     88  C   UNL     1      11.029   9.366   4.674  1.00  0.00     0.000 A 
ATOM     89  C   UNL     1       8.681   9.765   4.813  1.00  0.00     0.000 A 
ATOM     90  C   UNL     1       9.962  10.255   4.652  1.00  0.00     0.000 A 
ENDBRANCH  84  85
ENDBRANCH  83  84
ENDBRANCH  80  83
ENDBRANCH  75  78
ENDBRANCH  73  74
ENDBRANCH  72  73
ENDBRANCH   1  72
TORSDOF 17
