REMARK SMILES O=C(NCCCCNC(=O)[C@H](CCC(F)(F)F)Cc1ccccc1)c1ccc(-c2c3nc(c(-c4cccc(S(=O)(=O)[O-])c4F)c4ccc([nH]4)c(-c4cccc(S(=O)(=O)[O-])c4F)c4nc(c(-c5cccc(S(=O)(=O)[O-])c5F)c5ccc2[nH]5)C=C4)C=C3)cc1
REMARK SMILES IDX 5 1 4 2 3 3 1 4 2 5 25 7 26 8 87 9 27 10 86 11 28 12 29 13
REMARK SMILES IDX 30 14 80 15 31 16 85 17 79 18 81 19 32 20 84 21 78 22 77 23
REMARK SMILES IDX 33 25 65 26 45 27 64 28 46 29 49 30 63 31 82 32 47 33 48 34
REMARK SMILES IDX 62 36 83 37 50 38 34 39 35 40 43 41 36 42 38 43 44 44 37 45
REMARK SMILES IDX 39 46 40 47 41 48 42 49 66 50 67 51 75 52 68 53 70 54 76 55
REMARK SMILES IDX 69 56 71 57 72 58 73 59 74 60 51 61 52 62 60 63 53 64 55 65
REMARK SMILES IDX 61 66 54 67 56 68 57 69 58 70 59 71 6 72 7 73 8 74 9 75
REMARK SMILES IDX 10 77 11 78 18 79 19 80 20 81 24 82 21 83 23 84 22 85 12 86
REMARK SMILES IDX 13 87 14 88 15 89 16 90 17 91
REMARK H PARENT 3 6 81 24 49 35 8 76
REMARK Flexibility Score: inf
ROOT
ATOM      1  C   UNL     1       6.974   7.119   0.575  1.00  0.00     0.023 C 
ENDROOT
BRANCH   1   2
ATOM      2  C   UNL     1       7.449   8.559   0.605  1.00  0.00     0.116 C 
BRANCH   2   3
ATOM      3  N   UNL     1       8.888   8.693   0.434  1.00  0.00    -0.352 N 
ATOM      4  O   UNL     1      10.771   9.559  -0.469  1.00  0.00    -0.269 OA
ATOM      5  C   UNL     1       9.561   9.632  -0.316  1.00  0.00     0.251 C 
ATOM      6  H   UNL     1       9.446   8.035   0.909  1.00  0.00     0.163 HD
BRANCH   5   7
ATOM      7  C   UNL     1       8.767  10.699  -0.958  1.00  0.00     0.039 A 
ATOM      8  C   UNL     1       7.823  11.403  -0.206  1.00  0.00     0.014 A 
ATOM      9  C   UNL     1       8.911  10.931  -2.326  1.00  0.00     0.014 A 
ATOM     10  C   UNL     1       6.922  12.237  -0.848  1.00  0.00     0.010 A 
ATOM     11  C   UNL     1       8.068  11.849  -2.953  1.00  0.00     0.010 A 
ATOM     12  C   UNL     1       7.056  12.492  -2.223  1.00  0.00    -0.014 A 
BRANCH  12  13
ATOM     13  C   UNL     1       6.221  13.549  -2.837  1.00  0.00     0.031 A 
ATOM     14  C   UNL     1       5.235  13.246  -3.926  1.00  0.00     0.074 A 
ATOM     15  C   UNL     1       6.406  14.812  -2.403  1.00  0.00     0.049 A 
ATOM     16  N   UNL     1       4.457  14.074  -4.574  1.00  0.00    -0.248 NA
ATOM     17  C   UNL     1       5.104  11.843  -4.354  1.00  0.00     0.031 C 
ATOM     18  C   UNL     1       7.384  15.213  -1.386  1.00  0.00     0.029 A 
ATOM     19  N   UNL     1       5.803  15.987  -2.763  1.00  0.00    -0.354 N 
ATOM     20  C   UNL     1       3.784  13.310  -5.518  1.00  0.00     0.074 A 
ATOM     21  C   UNL     1       4.231  11.943  -5.351  1.00  0.00     0.031 C 
ATOM     22  C   UNL     1       7.309  16.536  -1.197  1.00  0.00     0.029 A 
ATOM     23  C   UNL     1       6.328  17.085  -2.122  1.00  0.00     0.049 A 
ATOM     24  H   UNL     1       5.068  16.041  -3.415  1.00  0.00     0.167 HD
ATOM     25  C   UNL     1       2.872  13.720  -6.431  1.00  0.00     0.034 A 
ATOM     26  C   UNL     1       6.079  18.397  -2.287  1.00  0.00     0.034 A 
ATOM     27  C   UNL     1       2.401  15.075  -6.544  1.00  0.00     0.049 A 
ATOM     28  C   UNL     1       5.048  18.808  -3.293  1.00  0.00     0.074 A 
ATOM     29  C   UNL     1       1.389  15.568  -7.349  1.00  0.00     0.029 A 
ATOM     30  N   UNL     1       2.923  16.156  -5.850  1.00  0.00    -0.354 N 
ATOM     31  N   UNL     1       4.298  18.051  -4.055  1.00  0.00    -0.248 NA
ATOM     32  C   UNL     1       4.817  20.249  -3.454  1.00  0.00     0.031 C 
ATOM     33  C   UNL     1       1.316  16.952  -7.161  1.00  0.00     0.029 A 
ATOM     34  C   UNL     1       2.276  17.320  -6.231  1.00  0.00     0.049 A 
ATOM     35  H   UNL     1       3.646  16.105  -5.184  1.00  0.00     0.167 HD
ATOM     36  C   UNL     1       3.503  18.921  -4.786  1.00  0.00     0.074 A 
ATOM     37  C   UNL     1       3.834  20.261  -4.344  1.00  0.00     0.031 C 
ATOM     38  C   UNL     1       2.600  18.639  -5.757  1.00  0.00     0.034 A 
BRANCH  25  39
ATOM     39  C   UNL     1       2.280  12.699  -7.365  1.00  0.00     0.023 A 
ATOM     40  C   UNL     1       1.265  11.839  -6.903  1.00  0.00     0.012 A 
ATOM     41  C   UNL     1       2.638  12.680  -8.729  1.00  0.00     0.148 A 
ATOM     42  C   UNL     1       0.619  10.970  -7.782  1.00  0.00     0.002 A 
ATOM     43  C   UNL     1       1.969  11.833  -9.604  1.00  0.00     0.091 A 
ATOM     44  F   UNL     1       3.620  13.495  -9.142  1.00  0.00    -0.205 F 
ATOM     45  C   UNL     1       0.962  10.975  -9.132  1.00  0.00     0.022 A 
BRANCH  43  46
ATOM     46  S   UNL     1       2.288  11.812 -11.373  1.00  0.00     0.127 S 
ATOM     47  O   UNL     1       2.908  10.498 -11.543  1.00  0.00    -0.237 OA
ATOM     48  O   UNL     1       0.940  11.925 -11.930  1.00  0.00    -0.237 OA
ATOM     49  O   UNL     1       3.157  12.949 -11.639  1.00  0.00    -0.744 OA
ENDBRANCH  43  46
ENDBRANCH  25  39
BRANCH  26  50
ATOM     50  C   UNL     1       6.824  19.393  -1.470  1.00  0.00     0.023 A 
ATOM     51  C   UNL     1       6.147  20.121  -0.475  1.00  0.00     0.012 A 
ATOM     52  C   UNL     1       8.213  19.569  -1.627  1.00  0.00     0.148 A 
ATOM     53  C   UNL     1       6.839  21.020   0.338  1.00  0.00     0.002 A 
ATOM     54  C   UNL     1       8.905  20.418  -0.772  1.00  0.00     0.091 A 
ATOM     55  F   UNL     1       8.840  18.885  -2.594  1.00  0.00    -0.205 F 
ATOM     56  C   UNL     1       8.218  21.157   0.201  1.00  0.00     0.022 A 
BRANCH  54  57
ATOM     57  S   UNL     1      10.699  20.501  -0.796  1.00  0.00     0.127 S 
ATOM     58  O   UNL     1      10.937  21.640  -1.676  1.00  0.00    -0.237 OA
ATOM     59  O   UNL     1      11.024  20.733   0.613  1.00  0.00    -0.237 OA
ATOM     60  O   UNL     1      11.126  19.198  -1.292  1.00  0.00    -0.744 OA
ENDBRANCH  54  57
ENDBRANCH  26  50
BRANCH  38  61
ATOM     61  C   UNL     1       1.922  19.806  -6.417  1.00  0.00     0.023 A 
ATOM     62  C   UNL     1       2.642  20.581  -7.348  1.00  0.00     0.012 A 
ATOM     63  C   UNL     1       0.569  20.099  -6.167  1.00  0.00     0.148 A 
ATOM     64  C   UNL     1       2.031  21.648  -8.002  1.00  0.00     0.002 A 
ATOM     65  C   UNL     1      -0.045  21.138  -6.854  1.00  0.00     0.091 A 
ATOM     66  F   UNL     1      -0.089  19.361  -5.261  1.00  0.00    -0.205 F 
ATOM     67  C   UNL     1       0.686  21.920  -7.764  1.00  0.00     0.022 A 
BRANCH  65  68
ATOM     68  S   UNL     1      -1.793  21.509  -6.674  1.00  0.00     0.127 S 
ATOM     69  O   UNL     1      -1.757  22.750  -5.902  1.00  0.00    -0.237 OA
ATOM     70  O   UNL     1      -2.223  21.666  -8.064  1.00  0.00    -0.237 OA
ATOM     71  O   UNL     1      -2.377  20.363  -5.988  1.00  0.00    -0.744 OA
ENDBRANCH  65  68
ENDBRANCH  38  61
ENDBRANCH  12  13
ENDBRANCH   5   7
ENDBRANCH   2   3
ENDBRANCH   1   2
BRANCH   1  72
ATOM     72  C   UNL     1       7.577   6.245   1.665  1.00  0.00     0.023 C 
BRANCH  72  73
ATOM     73  C   UNL     1       7.166   6.620   3.091  1.00  0.00     0.116 C 
BRANCH  73  74
ATOM     74  N   UNL     1       5.864   6.068   3.387  1.00  0.00    -0.356 N 
ATOM     75  C   UNL     1       5.506   4.968   4.097  1.00  0.00     0.223 C 
ATOM     76  H   UNL     1       5.110   6.575   3.010  1.00  0.00     0.163 HD
ATOM     77  O   UNL     1       4.319   4.637   4.021  1.00  0.00    -0.275 OA
BRANCH  75  78
ATOM     78  C   UNL     1       6.515   4.189   4.962  1.00  0.00     0.083 C 
BRANCH  78  79
ATOM     79  C   UNL     1       5.660   3.516   6.082  1.00  0.00     0.049 C 
BRANCH  79  80
ATOM     80  C   UNL     1       6.401   2.569   6.995  1.00  0.00    -0.047 A 
ATOM     81  C   UNL     1       6.162   1.188   6.897  1.00  0.00     0.004 A 
ATOM     82  C   UNL     1       7.350   3.034   7.910  1.00  0.00     0.004 A 
ATOM     83  C   UNL     1       6.878   0.287   7.683  1.00  0.00     0.000 A 
ATOM     84  C   UNL     1       8.059   2.129   8.702  1.00  0.00     0.000 A 
ATOM     85  C   UNL     1       7.828   0.758   8.584  1.00  0.00     0.000 A 
ENDBRANCH  79  80
ENDBRANCH  78  79
BRANCH  78  86
ATOM     86  C   UNL     1       7.303   3.124   4.154  1.00  0.00     0.023 C 
BRANCH  86  87
ATOM     87  C   UNL     1       8.642   3.515   3.517  1.00  0.00     0.116 C 
BRANCH  87  88
ATOM     88  C   UNL     1       9.737   4.010   4.440  1.00  0.00     0.389 C 
ATOM     89  F   UNL     1      10.156   3.044   5.279  1.00  0.00    -0.171 F 
ATOM     90  F   UNL     1      10.804   4.405   3.704  1.00  0.00    -0.171 F 
ATOM     91  F   UNL     1       9.357   5.071   5.178  1.00  0.00    -0.171 F 
ENDBRANCH  87  88
ENDBRANCH  86  87
ENDBRANCH  78  86
ENDBRANCH  75  78
ENDBRANCH  73  74
ENDBRANCH  72  73
ENDBRANCH   1  72
TORSDOF 19
