REMARK SMILES C[N@@H+]1CCC[C@@H](C(=O)N[C@H](C(=O)NCCCCNC(=O)c2ccc(-c3c4nc(c(-c5cccc(S(=O)(=O)[O-])c5F)c5ccc([nH]5)c(-c5cccc(S(=O)(=O)[O-])c5F)c5nc(c(-c6cccc(S(=O)(=O)[O-])c6F)c6ccc3[nH]6)C=C5)C=C4)cc2)c2ccccc2)C1
REMARK SMILES IDX 16 1 15 2 14 3 13 4 11 5 12 6 10 8 9 9 7 10 8 11 6 13 1 14
REMARK SMILES IDX 2 15 3 16 90 17 4 19 5 20 84 21 85 22 89 23 86 24 88 25
REMARK SMILES IDX 87 26 17 27 18 28 19 29 20 31 21 32 22 33 83 34 23 35 82 36
REMARK SMILES IDX 24 37 25 38 26 39 76 40 27 41 81 42 75 43 77 44 28 45 80 46
REMARK SMILES IDX 74 47 73 48 29 50 61 51 41 52 60 53 42 54 45 55 59 56 78 57
REMARK SMILES IDX 43 58 44 59 58 61 79 62 46 63 30 64 31 65 39 66 32 67 34 68
REMARK SMILES IDX 40 69 33 70 35 71 36 72 37 73 38 74 62 75 63 76 71 77 64 78
REMARK SMILES IDX 66 79 72 80 65 81 67 82 68 83 69 84 70 85 47 86 48 87 56 88
REMARK SMILES IDX 49 89 51 90 57 91 50 92 52 93 53 94 54 95 55 96
REMARK H PARENT 13 7 9 12 2 18 18 30 77 49 45 60
REMARK Flexibility Score: inf
ROOT
ATOM      1  C   UNL     1       4.861   0.188   3.769  1.00  0.00     0.023 C 
ENDROOT
BRANCH   1   2
ATOM      2  C   UNL     1       3.939   1.216   3.127  1.00  0.00     0.023 C 
BRANCH   2   3
ATOM      3  C   UNL     1       2.851   0.631   2.221  1.00  0.00     0.116 C 
BRANCH   3   4
ATOM      4  N   UNL     1       1.879  -0.167   2.959  1.00  0.00    -0.354 N 
ATOM      5  C   UNL     1       0.543   0.082   3.188  1.00  0.00     0.247 C 
ATOM      6  O   UNL     1      -0.081  -0.702   3.908  1.00  0.00    -0.272 OA
ATOM      7  H   UNL     1       2.226  -1.002   3.348  1.00  0.00     0.163 HD
BRANCH   5   8
ATOM      8  C   UNL     1      -0.126   1.319   2.534  1.00  0.00     0.202 C 
BRANCH   8   9
ATOM      9  N   UNL     1      -1.571   1.159   2.421  1.00  0.00    -0.340 N 
ATOM     10  C   UNL     1      -2.408   1.083   1.360  1.00  0.00     0.229 C 
ATOM     11  O   UNL     1      -3.613   0.971   1.632  1.00  0.00    -0.275 OA
ATOM     12  H   UNL     1      -2.029   1.094   3.290  1.00  0.00     0.164 HD
BRANCH  10  13
ATOM     13  C   UNL     1      -2.004   1.084  -0.129  1.00  0.00     0.133 C 
ATOM     14  C   UNL     1       1.001   3.277  -0.936  1.00  0.00     0.332 C 
ATOM     15  N   UNL     1       0.247   2.101  -0.520  1.00  0.00    -0.337 N 
ATOM     16  C   UNL     1       0.744   0.875  -1.149  1.00  0.00     0.262 C 
ATOM     17  C   UNL     1      -1.198   2.266  -0.676  1.00  0.00     0.275 C 
ATOM     18  H   UNL     1       0.407   2.001   0.482  1.00  0.00     0.347 HD
ATOM     19  C   UNL     1       0.039  -0.373  -0.609  1.00  0.00     0.062 C 
ATOM     20  C   UNL     1      -1.479  -0.259  -0.640  1.00  0.00     0.025 C 
ENDBRANCH  10  13
ENDBRANCH   8   9
BRANCH   8  21
ATOM     21  C   UNL     1       0.259   2.671   3.131  1.00  0.00    -0.016 A 
ATOM     22  C   UNL     1       1.149   2.808   4.201  1.00  0.00     0.006 A 
ATOM     23  C   UNL     1      -0.139   3.843   2.469  1.00  0.00     0.006 A 
ATOM     24  C   UNL     1       1.778   4.032   4.454  1.00  0.00     0.000 A 
ATOM     25  C   UNL     1       0.466   5.071   2.733  1.00  0.00     0.000 A 
ATOM     26  C   UNL     1       1.462   5.154   3.696  1.00  0.00     0.000 A 
ENDBRANCH   8  21
ENDBRANCH   5   8
ENDBRANCH   3   4
ENDBRANCH   2   3
ENDBRANCH   1   2
BRANCH   1  27
ATOM     27  C   UNL     1       5.748  -0.549   2.780  1.00  0.00     0.116 C 
BRANCH  27  28
ATOM     28  N   UNL     1       6.674   0.345   2.095  1.00  0.00    -0.352 N 
ATOM     29  C   UNL     1       8.050   0.343   2.092  1.00  0.00     0.251 C 
ATOM     30  H   UNL     1       6.254   1.053   1.557  1.00  0.00     0.163 HD
ATOM     31  O   UNL     1       8.663   1.290   1.617  1.00  0.00    -0.269 OA
BRANCH  29  32
ATOM     32  C   UNL     1       8.778  -0.800   2.686  1.00  0.00     0.039 A 
ATOM     33  C   UNL     1       9.881  -0.555   3.506  1.00  0.00     0.014 A 
ATOM     34  C   UNL     1       8.351  -2.109   2.452  1.00  0.00     0.014 A 
ATOM     35  C   UNL     1      10.510  -1.624   4.150  1.00  0.00     0.010 A 
ATOM     36  C   UNL     1       8.908  -3.155   3.177  1.00  0.00     0.010 A 
ATOM     37  C   UNL     1      10.002  -2.928   4.023  1.00  0.00    -0.014 A 
BRANCH  37  38
ATOM     38  C   UNL     1      10.598  -4.071   4.760  1.00  0.00     0.031 A 
ATOM     39  C   UNL     1      11.155  -5.248   4.001  1.00  0.00     0.074 A 
ATOM     40  C   UNL     1      10.557  -4.094   6.108  1.00  0.00     0.049 A 
ATOM     41  N   UNL     1      11.646  -6.368   4.463  1.00  0.00    -0.248 NA
ATOM     42  C   UNL     1      11.125  -5.171   2.530  1.00  0.00     0.031 C 
ATOM     43  C   UNL     1       9.969  -3.054   6.956  1.00  0.00     0.029 A 
ATOM     44  N   UNL     1      10.994  -5.039   7.002  1.00  0.00    -0.354 N 
ATOM     45  C   UNL     1      11.947  -7.139   3.346  1.00  0.00     0.074 A 
ATOM     46  C   UNL     1      11.543  -6.379   2.185  1.00  0.00     0.031 C 
ATOM     47  C   UNL     1      10.091  -3.413   8.244  1.00  0.00     0.029 A 
ATOM     48  C   UNL     1      10.730  -4.722   8.315  1.00  0.00     0.049 A 
ATOM     49  H   UNL     1      11.454  -5.866   6.729  1.00  0.00     0.167 HD
ATOM     50  C   UNL     1      12.537  -8.356   3.288  1.00  0.00     0.034 A 
ATOM     51  C   UNL     1      10.966  -5.414   9.447  1.00  0.00     0.034 A 
ATOM     52  C   UNL     1      12.978  -9.089   4.443  1.00  0.00     0.049 A 
ATOM     53  C   UNL     1      11.654  -6.750   9.354  1.00  0.00     0.074 A 
ATOM     54  C   UNL     1      13.665 -10.289   4.488  1.00  0.00     0.029 A 
ATOM     55  N   UNL     1      12.771  -8.696   5.755  1.00  0.00    -0.354 N 
ATOM     56  N   UNL     1      12.071  -7.392   8.289  1.00  0.00    -0.248 NA
ATOM     57  C   UNL     1      11.937  -7.442  10.620  1.00  0.00     0.031 C 
ATOM     58  C   UNL     1      13.845 -10.637   5.830  1.00  0.00     0.029 A 
ATOM     59  C   UNL     1      13.306  -9.634   6.620  1.00  0.00     0.049 A 
ATOM     60  H   UNL     1      12.310  -7.870   6.032  1.00  0.00     0.167 HD
ATOM     61  C   UNL     1      12.700  -8.539   8.758  1.00  0.00     0.074 A 
ATOM     62  C   UNL     1      12.628  -8.493  10.204  1.00  0.00     0.031 C 
ATOM     63  C   UNL     1      13.275  -9.547   8.057  1.00  0.00     0.034 A 
BRANCH  50  64
ATOM     64  C   UNL     1      12.789  -8.952   1.927  1.00  0.00     0.023 A 
ATOM     65  C   UNL     1      13.768  -8.383   1.087  1.00  0.00     0.012 A 
ATOM     66  C   UNL     1      12.105 -10.109   1.506  1.00  0.00     0.148 A 
ATOM     67  C   UNL     1      14.040  -8.935  -0.164  1.00  0.00     0.002 A 
ATOM     68  C   UNL     1      12.416 -10.683   0.279  1.00  0.00     0.091 A 
ATOM     69  F   UNL     1      11.164 -10.624   2.309  1.00  0.00    -0.205 F 
ATOM     70  C   UNL     1      13.373 -10.090  -0.563  1.00  0.00     0.022 A 
BRANCH  68  71
ATOM     71  S   UNL     1      11.675 -12.216  -0.293  1.00  0.00     0.127 S 
ATOM     72  O   UNL     1      10.875 -11.751  -1.426  1.00  0.00    -0.237 OA
ATOM     73  O   UNL     1      12.851 -13.005  -0.660  1.00  0.00    -0.237 OA
ATOM     74  O   UNL     1      10.914 -12.740   0.832  1.00  0.00    -0.744 OA
ENDBRANCH  68  71
ENDBRANCH  50  64
BRANCH  51  75
ATOM     75  C   UNL     1      10.599  -4.837  10.772  1.00  0.00     0.023 A 
ATOM     76  C   UNL     1      11.616  -4.453  11.668  1.00  0.00     0.012 A 
ATOM     77  C   UNL     1       9.253  -4.663  11.148  1.00  0.00     0.148 A 
ATOM     78  C   UNL     1      11.300  -3.947  12.930  1.00  0.00     0.002 A 
ATOM     79  C   UNL     1       8.945  -4.105  12.383  1.00  0.00     0.091 A 
ATOM     80  F   UNL     1       8.299  -5.043  10.286  1.00  0.00    -0.205 F 
ATOM     81  C   UNL     1       9.966  -3.765  13.284  1.00  0.00     0.022 A 
BRANCH  79  82
ATOM     82  S   UNL     1       7.262  -3.713  12.869  1.00  0.00     0.127 S 
ATOM     83  O   UNL     1       7.012  -4.706  13.909  1.00  0.00    -0.237 OA
ATOM     84  O   UNL     1       7.399  -2.337  13.349  1.00  0.00    -0.237 OA
ATOM     85  O   UNL     1       6.463  -3.847  11.658  1.00  0.00    -0.744 OA
ENDBRANCH  79  82
ENDBRANCH  51  75
BRANCH  63  86
ATOM     86  C   UNL     1      13.921 -10.663   8.835  1.00  0.00     0.023 A 
ATOM     87  C   UNL     1      13.124 -11.590   9.534  1.00  0.00     0.012 A 
ATOM     88  C   UNL     1      15.319 -10.832   8.810  1.00  0.00     0.148 A 
ATOM     89  C   UNL     1      13.712 -12.648  10.227  1.00  0.00     0.002 A 
ATOM     90  C   UNL     1      15.894 -11.919   9.456  1.00  0.00     0.091 A 
ATOM     91  F   UNL     1      16.061  -9.928   8.152  1.00  0.00    -0.205 F 
ATOM     92  C   UNL     1      15.093 -12.819  10.177  1.00  0.00     0.022 A 
BRANCH  90  93
ATOM     93  S   UNL     1      17.651 -12.277   9.363  1.00  0.00     0.127 S 
ATOM     94  O   UNL     1      18.089 -11.976  10.725  1.00  0.00    -0.237 OA
ATOM     95  O   UNL     1      17.658 -13.699   9.019  1.00  0.00    -0.237 OA
ATOM     96  O   UNL     1      18.186 -11.402   8.328  1.00  0.00    -0.744 OA
ENDBRANCH  90  93
ENDBRANCH  63  86
ENDBRANCH  37  38
ENDBRANCH  29  32
ENDBRANCH  27  28
ENDBRANCH   1  27
TORSDOF 17
