REMARK SMILES CC1(C)CCSC[C@H]1[NH+]1CCC(OCCC(=O)NCCCCNC(=O)c2ccc(-c3c4nc(c(-c5cccc(S(=O)(=O)[O-])c5F)c5ccc([nH]5)c(-c5cccc(S(=O)(=O)[O-])c5F)c5nc(c(-c6cccc(S(=O)(=O)[O-])c6F)c6ccc3[nH]6)C=C5)C=C4)cc2)CC1
REMARK SMILES IDX 20 1 19 2 18 3 16 4 17 5 15 7 14 8 13 9 12 10 9 11 10 12
REMARK SMILES IDX 90 13 11 15 89 16 8 17 1 18 2 19 3 20 4 21 5 22 7 23 6 24
REMARK SMILES IDX 21 25 22 26 23 27 24 28 25 30 26 31 27 32 88 33 28 34 87 35
REMARK SMILES IDX 29 36 30 37 31 38 81 39 32 40 86 41 80 42 82 43 33 44 85 45
REMARK SMILES IDX 79 46 78 47 34 49 66 50 46 51 65 52 47 53 50 54 64 55 83 56
REMARK SMILES IDX 48 57 49 58 63 60 84 61 51 62 35 63 36 64 44 65 37 66 39 67
REMARK SMILES IDX 45 68 38 69 40 70 41 71 42 72 43 73 67 74 68 75 76 76 69 77
REMARK SMILES IDX 71 78 77 79 70 80 72 81 73 82 74 83 75 84 52 85 53 86 61 87
REMARK SMILES IDX 54 88 56 89 62 90 55 91 57 92 58 93 59 94 60 95
REMARK H PARENT 18 6 9 14 23 29 82 48 50 59
REMARK Flexibility Score: inf
ROOT
ATOM      1  C   UNL     1       5.307   1.942  -3.301  1.00  0.00     0.023 C 
ENDROOT
BRANCH   1   2
ATOM      2  C   UNL     1       6.075   1.484  -2.049  1.00  0.00     0.116 C 
BRANCH   2   3
ATOM      3  N   UNL     1       5.323   1.288  -0.821  1.00  0.00    -0.356 N 
ATOM      4  C   UNL     1       4.507   0.247  -0.449  1.00  0.00     0.222 C 
ATOM      5  O   UNL     1       4.062   0.228   0.700  1.00  0.00    -0.275 OA
ATOM      6  H   UNL     1       5.411   2.009  -0.156  1.00  0.00     0.163 HD
BRANCH   4   7
ATOM      7  C   UNL     1       4.126  -0.818  -1.467  1.00  0.00     0.128 C 
BRANCH   7   8
ATOM      8  C   UNL     1       2.627  -0.955  -1.815  1.00  0.00     0.170 C 
BRANCH   8   9
ATOM      9  O   UNL     1       2.054  -0.149  -2.866  1.00  0.00    -0.377 OA
BRANCH   9  10
ATOM     10  C   UNL     1       1.832   1.272  -2.716  1.00  0.00     0.129 C 
ATOM     11  N   UNL     1       0.428   3.204  -1.009  1.00  0.00    -0.331 N 
ATOM     12  C   UNL     1       1.864   3.211  -1.025  1.00  0.00     0.265 C 
ATOM     13  C   UNL     1      -0.088   3.001  -2.354  1.00  0.00     0.265 C 
ATOM     14  H   UNL     1       0.038   4.115  -0.768  1.00  0.00     0.348 HD
ATOM     15  C   UNL     1       2.321   1.844  -1.413  1.00  0.00     0.093 C 
ATOM     16  C   UNL     1       0.408   1.726  -3.087  1.00  0.00     0.093 C 
BRANCH  11  17
ATOM     17  C   UNL     1      -0.302   2.879   0.235  1.00  0.00     0.199 C 
ATOM     18  C   UNL     1      -0.057   0.269   0.357  1.00  0.00     0.017 C 
ATOM     19  C   UNL     1      -1.013   1.470   0.407  1.00  0.00     0.018 C 
ATOM     20  C   UNL     1      -2.095   1.249  -0.671  1.00  0.00     0.017 C 
ATOM     21  C   UNL     1      -1.771   1.403   1.766  1.00  0.00     0.023 C 
ATOM     22  C   UNL     1      -0.900   1.542   3.004  1.00  0.00     0.070 C 
ATOM     23  C   UNL     1       0.563   3.256   1.492  1.00  0.00     0.135 C 
ATOM     24  S   UNL     1      -0.280   3.226   3.097  1.00  0.00    -0.156 SA
ENDBRANCH  11  17
ENDBRANCH   9  10
ENDBRANCH   8   9
ENDBRANCH   7   8
ENDBRANCH   4   7
ENDBRANCH   2   3
ENDBRANCH   1   2
BRANCH   1  25
ATOM     25  C   UNL     1       4.801   3.391  -3.371  1.00  0.00     0.023 C 
BRANCH  25  26
ATOM     26  C   UNL     1       5.814   4.448  -2.987  1.00  0.00     0.116 C 
BRANCH  26  27
ATOM     27  N   UNL     1       6.980   4.354  -3.849  1.00  0.00    -0.352 N 
ATOM     28  C   UNL     1       7.469   5.309  -4.695  1.00  0.00     0.251 C 
ATOM     29  H   UNL     1       7.475   3.503  -3.820  1.00  0.00     0.163 HD
ATOM     30  O   UNL     1       8.183   4.979  -5.648  1.00  0.00    -0.269 OA
BRANCH  28  31
ATOM     31  C   UNL     1       7.154   6.724  -4.436  1.00  0.00     0.039 A 
ATOM     32  C   UNL     1       6.959   7.602  -5.503  1.00  0.00     0.014 A 
ATOM     33  C   UNL     1       7.073   7.181  -3.116  1.00  0.00     0.014 A 
ATOM     34  C   UNL     1       6.681   8.941  -5.237  1.00  0.00     0.010 A 
ATOM     35  C   UNL     1       6.668   8.478  -2.858  1.00  0.00     0.010 A 
ATOM     36  C   UNL     1       6.530   9.386  -3.912  1.00  0.00    -0.014 A 
BRANCH  36  37
ATOM     37  C   UNL     1       6.306  10.815  -3.599  1.00  0.00     0.031 A 
ATOM     38  C   UNL     1       7.310  11.554  -2.751  1.00  0.00     0.074 A 
ATOM     39  C   UNL     1       5.181  11.419  -4.022  1.00  0.00     0.049 A 
ATOM     40  N   UNL     1       7.291  12.797  -2.348  1.00  0.00    -0.248 NA
ATOM     41  C   UNL     1       8.468  10.788  -2.250  1.00  0.00     0.031 C 
ATOM     42  C   UNL     1       4.096  10.767  -4.761  1.00  0.00     0.029 A 
ATOM     43  N   UNL     1       4.755  12.713  -3.883  1.00  0.00    -0.354 N 
ATOM     44  C   UNL     1       8.398  12.943  -1.519  1.00  0.00     0.074 A 
ATOM     45  C   UNL     1       9.033  11.651  -1.421  1.00  0.00     0.031 C 
ATOM     46  C   UNL     1       3.145  11.673  -5.037  1.00  0.00     0.029 A 
ATOM     47  C   UNL     1       3.537  12.958  -4.470  1.00  0.00     0.049 A 
ATOM     48  H   UNL     1       5.273  13.402  -3.407  1.00  0.00     0.167 HD
ATOM     49  C   UNL     1       8.873  14.063  -0.928  1.00  0.00     0.034 A 
ATOM     50  C   UNL     1       2.825  14.098  -4.545  1.00  0.00     0.034 A 
ATOM     51  C   UNL     1       8.264  15.353  -1.087  1.00  0.00     0.049 A 
ATOM     52  C   UNL     1       3.408  15.346  -3.941  1.00  0.00     0.074 A 
ATOM     53  C   UNL     1       8.705  16.577  -0.622  1.00  0.00     0.029 A 
ATOM     54  N   UNL     1       7.078  15.582  -1.767  1.00  0.00    -0.354 N 
ATOM     55  N   UNL     1       4.540  15.499  -3.297  1.00  0.00    -0.248 NA
ATOM     56  C   UNL     1       2.639  16.586  -4.110  1.00  0.00     0.031 C 
ATOM     57  C   UNL     1       7.766  17.544  -0.995  1.00  0.00     0.029 A 
ATOM     58  C   UNL     1       6.763  16.927  -1.728  1.00  0.00     0.049 A 
ATOM     59  H   UNL     1       6.539  14.888  -2.212  1.00  0.00     0.167 HD
ATOM     60  C   UNL     1       4.638  16.856  -3.015  1.00  0.00     0.074 A 
ATOM     61  C   UNL     1       3.460  17.483  -3.580  1.00  0.00     0.031 C 
ATOM     62  C   UNL     1       5.606  17.526  -2.341  1.00  0.00     0.034 A 
BRANCH  49  63
ATOM     63  C   UNL     1      10.132  13.947  -0.107  1.00  0.00     0.023 A 
ATOM     64  C   UNL     1      11.361  13.665  -0.742  1.00  0.00     0.012 A 
ATOM     65  C   UNL     1      10.108  14.152   1.286  1.00  0.00     0.148 A 
ATOM     66  C   UNL     1      12.535  13.544   0.000  1.00  0.00     0.002 A 
ATOM     67  C   UNL     1      11.291  14.082   2.012  1.00  0.00     0.091 A 
ATOM     68  F   UNL     1       8.929  14.395   1.876  1.00  0.00    -0.205 F 
ATOM     69  C   UNL     1      12.502  13.764   1.374  1.00  0.00     0.022 A 
BRANCH  67  70
ATOM     70  S   UNL     1      11.372  14.431   3.771  1.00  0.00     0.127 S 
ATOM     71  O   UNL     1      11.689  13.113   4.319  1.00  0.00    -0.237 OA
ATOM     72  O   UNL     1      12.467  15.399   3.840  1.00  0.00    -0.237 OA
ATOM     73  O   UNL     1      10.066  14.960   4.138  1.00  0.00    -0.744 OA
ENDBRANCH  67  70
ENDBRANCH  49  63
BRANCH  50  74
ATOM     74  C   UNL     1       1.530  14.123  -5.283  1.00  0.00     0.023 A 
ATOM     75  C   UNL     1       1.439  14.819  -6.504  1.00  0.00     0.012 A 
ATOM     76  C   UNL     1       0.402  13.432  -4.801  1.00  0.00     0.148 A 
ATOM     77  C   UNL     1       0.238  14.858  -7.213  1.00  0.00     0.002 A 
ATOM     78  C   UNL     1      -0.775  13.428  -5.541  1.00  0.00     0.091 A 
ATOM     79  F   UNL     1       0.508  12.779  -3.636  1.00  0.00    -0.205 F 
ATOM     80  C   UNL     1      -0.866  14.156  -6.737  1.00  0.00     0.022 A 
BRANCH  78  81
ATOM     81  S   UNL     1      -2.202  12.443  -5.073  1.00  0.00     0.127 S 
ATOM     82  O   UNL     1      -3.159  13.473  -4.677  1.00  0.00    -0.237 OA
ATOM     83  O   UNL     1      -2.518  11.756  -6.327  1.00  0.00    -0.237 OA
ATOM     84  O   UNL     1      -1.741  11.564  -4.008  1.00  0.00    -0.744 OA
ENDBRANCH  78  81
ENDBRANCH  50  74
BRANCH  62  85
ATOM     85  C   UNL     1       5.458  19.017  -2.215  1.00  0.00     0.023 A 
ATOM     86  C   UNL     1       4.476  19.559  -1.363  1.00  0.00     0.012 A 
ATOM     87  C   UNL     1       6.349  19.878  -2.885  1.00  0.00     0.148 A 
ATOM     88  C   UNL     1       4.359  20.939  -1.209  1.00  0.00     0.002 A 
ATOM     89  C   UNL     1       6.264  21.248  -2.682  1.00  0.00     0.091 A 
ATOM     90  F   UNL     1       7.266  19.340  -3.703  1.00  0.00    -0.205 F 
ATOM     91  C   UNL     1       5.260  21.782  -1.857  1.00  0.00     0.022 A 
BRANCH  89  92
ATOM     92  S   UNL     1       7.446  22.399  -3.389  1.00  0.00     0.127 S 
ATOM     93  O   UNL     1       6.637  23.069  -4.405  1.00  0.00    -0.237 OA
ATOM     94  O   UNL     1       7.793  23.232  -2.237  1.00  0.00    -0.237 OA
ATOM     95  O   UNL     1       8.543  21.587  -3.899  1.00  0.00    -0.744 OA
ENDBRANCH  89  92
ENDBRANCH  62  85
ENDBRANCH  36  37
ENDBRANCH  28  31
ENDBRANCH  26  27
ENDBRANCH  25  26
ENDBRANCH   1  25
TORSDOF 18
