REMARK SMILES C[NH2+][C@@]1(C(=O)NCCCCNC(=O)c2ccc(-c3c4nc(c(-c5cccc(S(=O)(=O)[O-])c5F)c5ccc([nH]5)c(-c5cccc(S(=O)(=O)[O-])c5F)c5nc(c(-c6cccc(S(=O)(=O)[O-])c6F)c6ccc3[nH]6)C=C5)C=C4)cc2)CCC[C@H]1CCn1ccc(C(F)(F)F)n1
REMARK SMILES IDX 8 1 7 2 6 3 4 4 5 5 3 7 77 8 80 9 78 10 79 11 2 12 1 13
REMARK SMILES IDX 81 16 82 17 83 18 84 19 91 20 85 21 86 22 87 23 88 24 89 25
REMARK SMILES IDX 90 26 9 27 10 28 11 29 12 30 13 32 14 33 15 34 76 35 16 36
REMARK SMILES IDX 75 37 17 38 18 39 19 40 69 41 20 42 74 43 68 44 70 45 21 46
REMARK SMILES IDX 73 47 67 48 66 49 22 51 54 52 34 53 53 54 35 55 38 56 52 57
REMARK SMILES IDX 71 58 36 59 37 60 51 62 72 63 39 64 23 65 24 66 32 67 25 68
REMARK SMILES IDX 27 69 33 70 26 71 28 72 29 73 30 74 31 75 55 76 56 77 64 78
REMARK SMILES IDX 57 79 59 80 65 81 58 82 60 83 61 84 62 85 63 86 40 87 41 88
REMARK SMILES IDX 49 89 42 90 44 91 50 92 43 93 45 94 46 95 47 96 48 97
REMARK H PARENT 6 6 2 14 2 15 11 31 70 50 38 61
REMARK Flexibility Score: inf
ROOT
ATOM      1  C   UNL     1      -4.643  -0.898   0.046  1.00  0.00     0.023 C 
ENDROOT
BRANCH   1   2
ATOM      2  C   UNL     1      -3.970   0.457  -0.132  1.00  0.00     0.116 C 
BRANCH   2   3
ATOM      3  N   UNL     1      -2.683   0.532   0.511  1.00  0.00    -0.351 N 
ATOM      4  C   UNL     1      -1.507   1.011   0.032  1.00  0.00     0.281 C 
ATOM      5  O   UNL     1      -0.906   1.743   0.835  1.00  0.00    -0.268 OA
ATOM      6  H   UNL     1      -2.652   0.185   1.432  1.00  0.00     0.163 HD
BRANCH   4   7
ATOM      7  C   UNL     1      -0.902   0.740  -1.425  1.00  0.00     0.178 C 
ATOM      8  C   UNL     1      -1.446   1.821  -2.384  1.00  0.00     0.079 C 
ATOM      9  C   UNL     1      -1.237  -0.615  -2.140  1.00  0.00     0.062 C 
ATOM     10  C   UNL     1      -2.526   1.192  -3.248  1.00  0.00     0.008 C 
ATOM     11  C   UNL     1      -2.489  -0.309  -3.003  1.00  0.00     0.011 C 
BRANCH   7  12
ATOM     12  N   UNL     1       0.584   0.976  -1.349  1.00  0.00    -0.336 N 
ATOM     13  C   UNL     1       1.244   0.341  -0.199  1.00  0.00     0.331 C 
ATOM     14  H   UNL     1       1.008   0.612  -2.201  1.00  0.00     0.346 HD
ATOM     15  H   UNL     1       0.712   1.982  -1.238  1.00  0.00     0.346 HD
ENDBRANCH   7  12
BRANCH   9  16
ATOM     16  C   UNL     1      -0.205  -1.203  -3.154  1.00  0.00     0.034 C 
BRANCH  16  17
ATOM     17  C   UNL     1       1.045  -1.924  -2.653  1.00  0.00     0.144 C 
BRANCH  17  18
ATOM     18  N   UNL     1       0.800  -3.037  -1.758  1.00  0.00    -0.272 N 
ATOM     19  C   UNL     1       0.587  -4.340  -2.102  1.00  0.00     0.109 A 
ATOM     20  N   UNL     1       0.893  -2.853  -0.433  1.00  0.00    -0.168 NA
ATOM     21  C   UNL     1       0.500  -5.036  -0.918  1.00  0.00     0.055 A 
ATOM     22  C   UNL     1       0.686  -4.068   0.106  1.00  0.00     0.166 A 
BRANCH  22  23
ATOM     23  C   UNL     1       0.690  -4.315   1.592  1.00  0.00     0.435 C 
ATOM     24  F   UNL     1      -0.400  -5.030   1.981  1.00  0.00    -0.164 F 
ATOM     25  F   UNL     1       1.779  -5.038   1.972  1.00  0.00    -0.164 F 
ATOM     26  F   UNL     1       0.699  -3.176   2.333  1.00  0.00    -0.164 F 
ENDBRANCH  22  23
ENDBRANCH  17  18
ENDBRANCH  16  17
ENDBRANCH   9  16
ENDBRANCH   4   7
ENDBRANCH   2   3
ENDBRANCH   1   2
BRANCH   1  27
ATOM     27  C   UNL     1      -5.381  -1.069   1.377  1.00  0.00     0.023 C 
BRANCH  27  28
ATOM     28  C   UNL     1      -6.411   0.012   1.704  1.00  0.00     0.116 C 
BRANCH  28  29
ATOM     29  N   UNL     1      -7.370   0.259   0.634  1.00  0.00    -0.352 N 
ATOM     30  C   UNL     1      -8.680   0.664   0.750  1.00  0.00     0.251 C 
ATOM     31  H   UNL     1      -7.040   0.120  -0.283  1.00  0.00     0.163 HD
ATOM     32  O   UNL     1      -9.393   0.765  -0.244  1.00  0.00    -0.269 OA
BRANCH  30  33
ATOM     33  C   UNL     1      -9.224   0.930   2.095  1.00  0.00     0.039 A 
ATOM     34  C   UNL     1     -10.369   0.245   2.509  1.00  0.00     0.014 A 
ATOM     35  C   UNL     1      -8.551   1.787   2.969  1.00  0.00     0.014 A 
ATOM     36  C   UNL     1     -10.797   0.362   3.832  1.00  0.00     0.010 A 
ATOM     37  C   UNL     1      -8.938   1.846   4.303  1.00  0.00     0.010 A 
ATOM     38  C   UNL     1     -10.060   1.131   4.749  1.00  0.00    -0.014 A 
BRANCH  38  39
ATOM     39  C   UNL     1     -10.429   1.181   6.186  1.00  0.00     0.031 A 
ATOM     40  C   UNL     1     -10.841   2.483   6.814  1.00  0.00     0.074 A 
ATOM     41  C   UNL     1     -10.290   0.076   6.947  1.00  0.00     0.049 A 
ATOM     42  N   UNL     1     -11.136   2.739   8.061  1.00  0.00    -0.248 NA
ATOM     43  C   UNL     1     -10.898   3.660   5.931  1.00  0.00     0.031 C 
ATOM     44  C   UNL     1      -9.805  -1.223   6.474  1.00  0.00     0.029 A 
ATOM     45  N   UNL     1     -10.516  -0.123   8.286  1.00  0.00    -0.354 N 
ATOM     46  C   UNL     1     -11.373   4.106   8.122  1.00  0.00     0.074 A 
ATOM     47  C   UNL     1     -11.153   4.633   6.793  1.00  0.00     0.031 C 
ATOM     48  C   UNL     1      -9.774  -2.083   7.505  1.00  0.00     0.029 A 
ATOM     49  C   UNL     1     -10.216  -1.396   8.714  1.00  0.00     0.049 A 
ATOM     50  H   UNL     1     -10.860   0.579   8.884  1.00  0.00     0.167 HD
ATOM     51  C   UNL     1     -11.772   4.852   9.179  1.00  0.00     0.034 A 
ATOM     52  C   UNL     1     -10.292  -1.946   9.941  1.00  0.00     0.034 A 
ATOM     53  C   UNL     1     -12.048   4.314  10.483  1.00  0.00     0.049 A 
ATOM     54  C   UNL     1     -10.810  -1.113  11.083  1.00  0.00     0.074 A 
ATOM     55  C   UNL     1     -12.556   4.965  11.593  1.00  0.00     0.029 A 
ATOM     56  N   UNL     1     -11.843   2.994  10.852  1.00  0.00    -0.354 N 
ATOM     57  N   UNL     1     -11.198   0.139  11.080  1.00  0.00    -0.248 NA
ATOM     58  C   UNL     1     -10.938  -1.778  12.388  1.00  0.00     0.031 C 
ATOM     59  C   UNL     1     -12.650   4.038  12.637  1.00  0.00     0.029 A 
ATOM     60  C   UNL     1     -12.212   2.808  12.172  1.00  0.00     0.049 A 
ATOM     61  H   UNL     1     -11.487   2.291  10.261  1.00  0.00     0.167 HD
ATOM     62  C   UNL     1     -11.649   0.402  12.368  1.00  0.00     0.074 A 
ATOM     63  C   UNL     1     -11.505  -0.828  13.120  1.00  0.00     0.031 C 
ATOM     64  C   UNL     1     -12.121   1.562  12.888  1.00  0.00     0.034 A 
BRANCH  51  65
ATOM     65  C   UNL     1     -12.005   6.321   8.947  1.00  0.00     0.023 A 
ATOM     66  C   UNL     1     -13.130   6.732   8.202  1.00  0.00     0.012 A 
ATOM     67  C   UNL     1     -11.149   7.294   9.498  1.00  0.00     0.148 A 
ATOM     68  C   UNL     1     -13.381   8.084   7.979  1.00  0.00     0.002 A 
ATOM     69  C   UNL     1     -11.429   8.643   9.307  1.00  0.00     0.091 A 
ATOM     70  F   UNL     1     -10.071   6.886  10.183  1.00  0.00    -0.205 F 
ATOM     71  C   UNL     1     -12.537   9.039   8.540  1.00  0.00     0.022 A 
BRANCH  69  72
ATOM     72  S   UNL     1     -10.445   9.949  10.050  1.00  0.00     0.127 S 
ATOM     73  O   UNL     1      -9.709  10.458   8.894  1.00  0.00    -0.237 OA
ATOM     74  O   UNL     1     -11.472  10.855  10.566  1.00  0.00    -0.237 OA
ATOM     75  O   UNL     1      -9.637   9.305  11.076  1.00  0.00    -0.744 OA
ENDBRANCH  69  72
ENDBRANCH  51  65
BRANCH  52  76
ATOM     76  C   UNL     1      -9.957  -3.386  10.133  1.00  0.00     0.023 A 
ATOM     77  C   UNL     1     -10.995  -4.304  10.384  1.00  0.00     0.012 A 
ATOM     78  C   UNL     1      -8.633  -3.856  10.036  1.00  0.00     0.148 A 
ATOM     79  C   UNL     1     -10.719  -5.660  10.565  1.00  0.00     0.002 A 
ATOM     80  C   UNL     1      -8.371  -5.216  10.166  1.00  0.00     0.091 A 
ATOM     81  F   UNL     1      -7.657  -2.966   9.811  1.00  0.00    -0.205 F 
ATOM     82  C   UNL     1      -9.410  -6.117  10.446  1.00  0.00     0.022 A 
BRANCH  80  83
ATOM     83  S   UNL     1      -6.734  -5.907   9.898  1.00  0.00     0.127 S 
ATOM     84  O   UNL     1      -6.309  -6.208  11.262  1.00  0.00    -0.237 OA
ATOM     85  O   UNL     1      -7.030  -7.079   9.072  1.00  0.00    -0.237 OA
ATOM     86  O   UNL     1      -5.982  -4.867   9.209  1.00  0.00    -0.744 OA
ENDBRANCH  80  83
ENDBRANCH  52  76
BRANCH  64  87
ATOM     87  C   UNL     1     -12.549   1.558  14.331  1.00  0.00     0.023 A 
ATOM     88  C   UNL     1     -11.572   1.536  15.346  1.00  0.00     0.012 A 
ATOM     89  C   UNL     1     -13.910   1.660  14.681  1.00  0.00     0.148 A 
ATOM     90  C   UNL     1     -11.945   1.589  16.688  1.00  0.00     0.002 A 
ATOM     91  C   UNL     1     -14.271   1.758  16.019  1.00  0.00     0.091 A 
ATOM     92  F   UNL     1     -14.825   1.657  13.700  1.00  0.00    -0.205 F 
ATOM     93  C   UNL     1     -13.292   1.713  17.024  1.00  0.00     0.022 A 
BRANCH  91  94
ATOM     94  S   UNL     1     -15.973   2.014  16.534  1.00  0.00     0.127 S 
ATOM     95  O   UNL     1     -16.347   0.681  17.003  1.00  0.00    -0.237 OA
ATOM     96  O   UNL     1     -15.834   3.015  17.592  1.00  0.00    -0.237 OA
ATOM     97  O   UNL     1     -16.680   2.485  15.350  1.00  0.00    -0.744 OA
ENDBRANCH  91  94
ENDBRANCH  64  87
ENDBRANCH  38  39
ENDBRANCH  30  33
ENDBRANCH  28  29
ENDBRANCH  27  28
ENDBRANCH   1  27
TORSDOF 19
