REMARK SMILES CC(C)n1cncc1[C@@H](O)[C@H](C)C(=O)NCCCCNC(=O)c1ccc(-c2c3nc(c(-c4cccc(S(=O)(=O)[O-])c4F)c4ccc([nH]4)c(-c4cccc(S(=O)(=O)[O-])c4F)c4nc(c(-c5cccc(S(=O)(=O)[O-])c5F)c5ccc2[nH]5)C=C4)C=C3)cc1
REMARK SMILES IDX 17 1 16 2 15 3 13 4 14 5 11 7 12 8 9 9 8 10 4 11 5 12 6 13
REMARK SMILES IDX 7 14 2 15 1 16 3 17 10 18 18 20 19 21 20 22 21 23 22 25
REMARK SMILES IDX 23 26 24 27 85 28 25 29 84 30 26 31 27 32 28 33 78 34 29 35
REMARK SMILES IDX 83 36 77 37 79 38 30 39 82 40 76 41 75 42 31 44 63 45 43 46
REMARK SMILES IDX 62 47 44 48 47 49 61 50 80 51 45 52 46 53 60 55 81 56 48 57
REMARK SMILES IDX 32 58 33 59 41 60 34 61 36 62 42 63 35 64 37 65 38 66 39 67
REMARK SMILES IDX 40 68 64 69 65 70 73 71 66 72 68 73 74 74 67 75 69 76 70 77
REMARK SMILES IDX 71 78 72 79 49 80 50 81 58 82 51 83 53 84 59 85 52 86 54 87
REMARK SMILES IDX 55 88 56 89 57 90
REMARK H PARENT 15 6 10 19 20 24 79 43 47 54
REMARK Flexibility Score: inf
ROOT
ATOM      1  C   UNL     1       1.976   2.705  -0.855  1.00  0.00     0.023 C 
ENDROOT
BRANCH   1   2
ATOM      2  C   UNL     1       1.175   2.610   0.439  1.00  0.00     0.116 C 
BRANCH   2   3
ATOM      3  N   UNL     1       0.034   3.506   0.476  1.00  0.00    -0.356 N 
ATOM      4  C   UNL     1      -1.278   3.215   0.718  1.00  0.00     0.225 C 
ATOM      5  O   UNL     1      -2.079   4.153   0.772  1.00  0.00    -0.275 OA
ATOM      6  H   UNL     1       0.234   4.455   0.302  1.00  0.00     0.163 HD
BRANCH   4   7
ATOM      7  C   UNL     1      -1.782   1.778   0.814  1.00  0.00     0.110 C 
ATOM      8  C   UNL     1      -1.670   1.098  -0.555  1.00  0.00     0.021 C 
BRANCH   7   9
ATOM      9  C   UNL     1      -1.339   1.028   2.099  1.00  0.00     0.175 C 
BRANCH   9  10
ATOM     10  C   UNL     1      -1.130  -0.450   1.956  1.00  0.00     0.067 A 
ATOM     11  N   UNL     1      -1.787  -1.494   2.580  1.00  0.00    -0.330 N 
ATOM     12  C   UNL     1      -1.150  -2.653   2.172  1.00  0.00     0.199 A 
ATOM     13  N   UNL     1      -0.185  -2.433   1.320  1.00  0.00    -0.245 NA
ATOM     14  C   UNL     1      -0.138  -1.080   1.212  1.00  0.00     0.137 A 
BRANCH  11  15
ATOM     15  C   UNL     1      -2.871  -1.559   3.564  1.00  0.00     0.082 C 
ATOM     16  C   UNL     1      -3.506  -0.252   4.029  1.00  0.00     0.031 C 
ATOM     17  C   UNL     1      -3.997  -2.492   3.087  1.00  0.00     0.031 C 
ENDBRANCH  11  15
ENDBRANCH   9  10
BRANCH   9  18
ATOM     18  O   UNL     1      -0.119   1.495   2.660  1.00  0.00    -0.386 OA
ATOM     19  H   UNL     1       0.614   1.287   2.059  1.00  0.00     0.211 HD
ENDBRANCH   9  18
ENDBRANCH   7   9
ENDBRANCH   4   7
ENDBRANCH   2   3
ENDBRANCH   1   2
BRANCH   1  20
ATOM     20  C   UNL     1       2.780   3.994  -1.036  1.00  0.00     0.023 C 
BRANCH  20  21
ATOM     21  C   UNL     1       3.811   4.248   0.058  1.00  0.00     0.116 C 
BRANCH  21  22
ATOM     22  N   UNL     1       4.837   3.208   0.117  1.00  0.00    -0.352 N 
ATOM     23  C   UNL     1       5.905   3.134   0.984  1.00  0.00     0.251 C 
ATOM     24  H   UNL     1       4.755   2.477  -0.537  1.00  0.00     0.163 HD
ATOM     25  O   UNL     1       6.892   2.450   0.709  1.00  0.00    -0.269 OA
BRANCH  23  26
ATOM     26  C   UNL     1       5.850   3.882   2.250  1.00  0.00     0.039 A 
ATOM     27  C   UNL     1       6.956   4.609   2.701  1.00  0.00     0.014 A 
ATOM     28  C   UNL     1       4.658   3.862   2.975  1.00  0.00     0.014 A 
ATOM     29  C   UNL     1       6.827   5.384   3.850  1.00  0.00     0.010 A 
ATOM     30  C   UNL     1       4.499   4.707   4.047  1.00  0.00     0.010 A 
ATOM     31  C   UNL     1       5.589   5.444   4.506  1.00  0.00    -0.014 A 
BRANCH  31  32
ATOM     32  C   UNL     1       5.362   6.424   5.564  1.00  0.00     0.031 A 
ATOM     33  C   UNL     1       5.543   7.831   5.114  1.00  0.00     0.074 A 
ATOM     34  C   UNL     1       4.785   6.103   6.743  1.00  0.00     0.049 A 
ATOM     35  N   UNL     1       6.481   8.655   5.450  1.00  0.00    -0.248 NA
ATOM     36  C   UNL     1       4.692   8.320   4.016  1.00  0.00     0.031 C 
ATOM     37  C   UNL     1       4.262   4.790   7.137  1.00  0.00     0.029 A 
ATOM     38  N   UNL     1       4.387   6.907   7.770  1.00  0.00    -0.354 N 
ATOM     39  C   UNL     1       6.147   9.858   4.827  1.00  0.00     0.074 A 
ATOM     40  C   UNL     1       5.243   9.510   3.767  1.00  0.00     0.031 C 
ATOM     41  C   UNL     1       3.399   4.941   8.164  1.00  0.00     0.029 A 
ATOM     42  C   UNL     1       3.425   6.324   8.597  1.00  0.00     0.049 A 
ATOM     43  H   UNL     1       4.744   7.812   7.915  1.00  0.00     0.167 HD
ATOM     44  C   UNL     1       6.352  11.047   5.463  1.00  0.00     0.034 A 
ATOM     45  C   UNL     1       2.659   6.946   9.528  1.00  0.00     0.034 A 
ATOM     46  C   UNL     1       7.251  10.876   6.584  1.00  0.00     0.049 A 
ATOM     47  C   UNL     1       3.330   8.220   9.861  1.00  0.00     0.074 A 
ATOM     48  C   UNL     1       8.520  10.365   6.772  1.00  0.00     0.029 A 
ATOM     49  N   UNL     1       6.673  10.919   7.828  1.00  0.00    -0.354 N 
ATOM     50  N   UNL     1       4.475   8.293  10.479  1.00  0.00    -0.248 NA
ATOM     51  C   UNL     1       2.922   9.419   9.150  1.00  0.00     0.031 C 
ATOM     52  C   UNL     1       8.478   9.723   8.046  1.00  0.00     0.029 A 
ATOM     53  C   UNL     1       7.217   9.939   8.604  1.00  0.00     0.049 A 
ATOM     54  H   UNL     1       5.978  11.556   8.114  1.00  0.00     0.167 HD
ATOM     55  C   UNL     1       5.137   9.327   9.834  1.00  0.00     0.074 A 
ATOM     56  C   UNL     1       4.087  10.070   9.140  1.00  0.00     0.031 C 
ATOM     57  C   UNL     1       6.493   9.288   9.674  1.00  0.00     0.034 A 
BRANCH  44  58
ATOM     58  C   UNL     1       5.398  12.242   5.421  1.00  0.00     0.023 A 
ATOM     59  C   UNL     1       5.775  13.372   6.190  1.00  0.00     0.012 A 
ATOM     60  C   UNL     1       4.057  12.212   4.971  1.00  0.00     0.148 A 
ATOM     61  C   UNL     1       4.843  14.330   6.606  1.00  0.00     0.002 A 
ATOM     62  C   UNL     1       3.148  13.202   5.333  1.00  0.00     0.091 A 
ATOM     63  F   UNL     1       3.597  11.180   4.269  1.00  0.00    -0.205 F 
ATOM     64  C   UNL     1       3.525  14.239   6.187  1.00  0.00     0.022 A 
BRANCH  62  65
ATOM     65  S   UNL     1       1.433  13.158   4.789  1.00  0.00     0.127 S 
ATOM     66  O   UNL     1       0.740  12.888   6.045  1.00  0.00    -0.237 OA
ATOM     67  O   UNL     1       1.259  14.509   4.258  1.00  0.00    -0.237 OA
ATOM     68  O   UNL     1       1.359  12.105   3.784  1.00  0.00    -0.744 OA
ENDBRANCH  62  65
ENDBRANCH  44  58
BRANCH  45  69
ATOM     69  C   UNL     1       1.291   6.643  10.015  1.00  0.00     0.023 A 
ATOM     70  C   UNL     1       0.846   7.210  11.229  1.00  0.00     0.012 A 
ATOM     71  C   UNL     1       0.329   6.043   9.173  1.00  0.00     0.148 A 
ATOM     72  C   UNL     1      -0.513   7.222  11.568  1.00  0.00     0.002 A 
ATOM     73  C   UNL     1      -1.020   6.045   9.520  1.00  0.00     0.091 A 
ATOM     74  F   UNL     1       0.721   5.554   7.989  1.00  0.00    -0.205 F 
ATOM     75  C   UNL     1      -1.446   6.649  10.710  1.00  0.00     0.022 A 
BRANCH  73  76
ATOM     76  S   UNL     1      -2.282   5.330   8.457  1.00  0.00     0.127 S 
ATOM     77  O   UNL     1      -3.064   4.534   9.404  1.00  0.00    -0.237 OA
ATOM     78  O   UNL     1      -2.962   6.518   7.950  1.00  0.00    -0.237 OA
ATOM     79  O   UNL     1      -1.566   4.536   7.466  1.00  0.00    -0.744 OA
ENDBRANCH  73  76
ENDBRANCH  45  69
BRANCH  57  80
ATOM     80  C   UNL     1       7.281   8.325  10.522  1.00  0.00     0.023 A 
ATOM     81  C   UNL     1       7.124   6.926  10.449  1.00  0.00     0.012 A 
ATOM     82  C   UNL     1       8.314   8.854  11.314  1.00  0.00     0.148 A 
ATOM     83  C   UNL     1       7.964   6.076  11.173  1.00  0.00     0.002 A 
ATOM     84  C   UNL     1       9.177   8.005  11.992  1.00  0.00     0.091 A 
ATOM     85  F   UNL     1       8.447  10.188  11.374  1.00  0.00    -0.205 F 
ATOM     86  C   UNL     1       9.000   6.615  11.934  1.00  0.00     0.022 A 
BRANCH  84  87
ATOM     87  S   UNL     1      10.595   8.645  12.885  1.00  0.00     0.127 S 
ATOM     88  O   UNL     1      10.143   8.567  14.272  1.00  0.00    -0.237 OA
ATOM     89  O   UNL     1      11.648   7.692  12.529  1.00  0.00    -0.237 OA
ATOM     90  O   UNL     1      10.816   9.990  12.369  1.00  0.00    -0.744 OA
ENDBRANCH  84  87
ENDBRANCH  57  80
ENDBRANCH  31  32
ENDBRANCH  23  26
ENDBRANCH  21  22
ENDBRANCH  20  21
ENDBRANCH   1  20
TORSDOF 18
