REMARK SMILES CC(C)COc1ccc(CC(=O)NCCCCNC(=O)c2ccc(-c3c4nc(c(-c5cccc(S(=O)(=O)[O-])c5F)c5ccc([nH]5)c(-c5cccc(S(=O)(=O)[O-])c5F)c5nc(c(-c6cccc(S(=O)(=O)[O-])c6F)c6ccc3[nH]6)C=C5)C=C4)cc2)cc1
REMARK SMILES IDX 15 1 14 2 13 3 11 4 12 5 10 7 9 8 6 9 7 10 85 11 8 12 84 13
REMARK SMILES IDX 5 14 4 15 2 16 1 17 3 18 16 19 17 20 18 21 19 22 20 24 21 25
REMARK SMILES IDX 22 26 83 27 23 28 82 29 24 30 25 31 26 32 76 33 27 34 81 35
REMARK SMILES IDX 75 36 77 37 28 38 80 39 74 40 73 41 29 43 61 44 41 45 60 46
REMARK SMILES IDX 42 47 45 48 59 49 78 50 43 51 44 52 58 54 79 55 46 56 30 57
REMARK SMILES IDX 31 58 39 59 32 60 34 61 40 62 33 63 35 64 36 65 37 66 38 67
REMARK SMILES IDX 62 68 63 69 71 70 64 71 66 72 72 73 65 74 67 75 68 76 69 77
REMARK SMILES IDX 70 78 47 79 48 80 56 81 49 82 51 83 57 84 50 85 52 86 53 87
REMARK SMILES IDX 54 88 55 89
REMARK H PARENT 13 6 18 23 77 42 45 53
REMARK Flexibility Score: inf
ROOT
ATOM      1  C   UNL     1       1.188   4.710  -2.219  1.00  0.00     0.023 C 
ENDROOT
BRANCH   1   2
ATOM      2  C   UNL     1       1.614   5.427  -0.936  1.00  0.00     0.116 C 
BRANCH   2   3
ATOM      3  N   UNL     1       0.677   6.464  -0.540  1.00  0.00    -0.356 N 
ATOM      4  C   UNL     1      -0.213   6.491   0.496  1.00  0.00     0.224 C 
ATOM      5  O   UNL     1      -0.926   7.487   0.630  1.00  0.00    -0.275 OA
ATOM      6  H   UNL     1       0.684   7.270  -1.104  1.00  0.00     0.163 HD
BRANCH   4   7
ATOM      7  C   UNL     1      -0.274   5.352   1.499  1.00  0.00     0.135 C 
BRANCH   7   8
ATOM      8  C   UNL     1      -0.685   4.011   0.941  1.00  0.00    -0.038 A 
ATOM      9  C   UNL     1      -1.182   1.511  -0.252  1.00  0.00     0.119 A 
ATOM     10  C   UNL     1      -1.869   2.651  -0.676  1.00  0.00     0.047 A 
ATOM     11  C   UNL     1      -0.342   1.606   0.852  1.00  0.00     0.047 A 
ATOM     12  C   UNL     1      -1.646   3.890  -0.068  1.00  0.00     0.008 A 
ATOM     13  C   UNL     1      -0.084   2.848   1.437  1.00  0.00     0.008 A 
BRANCH   9  14
ATOM     14  O   UNL     1      -1.375   0.407  -1.029  1.00  0.00    -0.493 OA
BRANCH  14  15
ATOM     15  C   UNL     1      -0.840  -0.855  -0.632  1.00  0.00     0.232 C 
BRANCH  15  16
ATOM     16  C   UNL     1       0.502  -1.186  -1.315  1.00  0.00     0.020 C 
ATOM     17  C   UNL     1       1.694  -0.437  -0.716  1.00  0.00     0.011 C 
ATOM     18  C   UNL     1       0.766  -2.691  -1.223  1.00  0.00     0.011 C 
ENDBRANCH  15  16
ENDBRANCH  14  15
ENDBRANCH   9  14
ENDBRANCH   7   8
ENDBRANCH   4   7
ENDBRANCH   2   3
ENDBRANCH   1   2
BRANCH   1  19
ATOM     19  C   UNL     1       1.089   5.596  -3.465  1.00  0.00     0.023 C 
BRANCH  19  20
ATOM     20  C   UNL     1       2.374   6.312  -3.868  1.00  0.00     0.116 C 
BRANCH  20  21
ATOM     21  N   UNL     1       3.456   5.396  -4.201  1.00  0.00    -0.352 N 
ATOM     22  C   UNL     1       4.334   5.438  -5.258  1.00  0.00     0.251 C 
ATOM     23  H   UNL     1       3.576   4.639  -3.582  1.00  0.00     0.163 HD
ATOM     24  O   UNL     1       5.114   4.508  -5.445  1.00  0.00    -0.269 OA
BRANCH  22  25
ATOM     25  C   UNL     1       4.315   6.587  -6.192  1.00  0.00     0.039 A 
ATOM     26  C   UNL     1       4.305   6.338  -7.568  1.00  0.00     0.014 A 
ATOM     27  C   UNL     1       4.288   7.901  -5.717  1.00  0.00     0.014 A 
ATOM     28  C   UNL     1       4.183   7.403  -8.466  1.00  0.00     0.010 A 
ATOM     29  C   UNL     1       4.107   8.955  -6.610  1.00  0.00     0.010 A 
ATOM     30  C   UNL     1       4.039   8.717  -7.992  1.00  0.00    -0.014 A 
BRANCH  30  31
ATOM     31  C   UNL     1       3.760   9.851  -8.911  1.00  0.00     0.031 A 
ATOM     32  C   UNL     1       4.741  10.981  -9.050  1.00  0.00     0.074 A 
ATOM     33  C   UNL     1       2.563   9.919  -9.529  1.00  0.00     0.049 A 
ATOM     34  N   UNL     1       4.618  12.101  -9.715  1.00  0.00    -0.248 NA
ATOM     35  C   UNL     1       6.016  10.848  -8.328  1.00  0.00     0.031 C 
ATOM     36  C   UNL     1       1.495   8.924  -9.417  1.00  0.00     0.029 A 
ATOM     37  N   UNL     1       2.028  10.889 -10.341  1.00  0.00    -0.354 N 
ATOM     38  C   UNL     1       5.779  12.821  -9.464  1.00  0.00     0.074 A 
ATOM     39  C   UNL     1       6.586  12.021  -8.568  1.00  0.00     0.031 C 
ATOM     40  C   UNL     1       0.431   9.338 -10.122  1.00  0.00     0.029 A 
ATOM     41  C   UNL     1       0.725  10.641 -10.709  1.00  0.00     0.049 A 
ATOM     42  H   UNL     1       2.528  11.685 -10.633  1.00  0.00     0.167 HD
ATOM     43  C   UNL     1       6.152  14.027  -9.955  1.00  0.00     0.034 A 
ATOM     44  C   UNL     1      -0.143  11.386 -11.421  1.00  0.00     0.034 A 
ATOM     45  C   UNL     1       5.371  14.799 -10.884  1.00  0.00     0.049 A 
ATOM     46  C   UNL     1       0.303  12.714 -11.969  1.00  0.00     0.074 A 
ATOM     47  C   UNL     1       5.715  15.976 -11.526  1.00  0.00     0.029 A 
ATOM     48  N   UNL     1       4.086  14.482 -11.295  1.00  0.00    -0.354 N 
ATOM     49  N   UNL     1       1.473  13.297 -11.866  1.00  0.00    -0.248 NA
ATOM     50  C   UNL     1      -0.681  13.477 -12.752  1.00  0.00     0.031 C 
ATOM     51  C   UNL     1       4.629  16.381 -12.310  1.00  0.00     0.029 A 
ATOM     52  C   UNL     1       3.614  15.450 -12.164  1.00  0.00     0.049 A 
ATOM     53  H   UNL     1       3.583  13.685 -11.010  1.00  0.00     0.167 HD
ATOM     54  C   UNL     1       1.373  14.482 -12.586  1.00  0.00     0.074 A 
ATOM     55  C   UNL     1       0.038  14.521 -13.145  1.00  0.00     0.031 C 
ATOM     56  C   UNL     1       2.298  15.459 -12.751  1.00  0.00     0.034 A 
BRANCH  43  57
ATOM     57  C   UNL     1       7.498  14.563  -9.546  1.00  0.00     0.023 A 
ATOM     58  C   UNL     1       8.664  13.988 -10.090  1.00  0.00     0.012 A 
ATOM     59  C   UNL     1       7.611  15.669  -8.681  1.00  0.00     0.148 A 
ATOM     60  C   UNL     1       9.923  14.486  -9.758  1.00  0.00     0.002 A 
ATOM     61  C   UNL     1       8.868  16.184  -8.384  1.00  0.00     0.091 A 
ATOM     62  F   UNL     1       6.492  16.188  -8.156  1.00  0.00    -0.205 F 
ATOM     63  C   UNL     1      10.024  15.589  -8.915  1.00  0.00     0.022 A 
BRANCH  61  64
ATOM     64  S   UNL     1       9.099  17.645  -7.364  1.00  0.00     0.127 S 
ATOM     65  O   UNL     1       9.607  17.060  -6.124  1.00  0.00    -0.237 OA
ATOM     66  O   UNL     1      10.089  18.404  -8.129  1.00  0.00    -0.237 OA
ATOM     67  O   UNL     1       7.791  18.277  -7.270  1.00  0.00    -0.744 OA
ENDBRANCH  61  64
ENDBRANCH  43  57
BRANCH  44  68
ATOM     68  C   UNL     1      -1.512  10.866 -11.699  1.00  0.00     0.023 A 
ATOM     69  C   UNL     1      -1.841  10.461 -13.007  1.00  0.00     0.012 A 
ATOM     70  C   UNL     1      -2.472  10.735 -10.677  1.00  0.00     0.148 A 
ATOM     71  C   UNL     1      -3.109   9.957 -13.298  1.00  0.00     0.002 A 
ATOM     72  C   UNL     1      -3.715  10.182 -10.963  1.00  0.00     0.091 A 
ATOM     73  F   UNL     1      -2.146  11.143  -9.443  1.00  0.00    -0.205 F 
ATOM     74  C   UNL     1      -4.041   9.807 -12.275  1.00  0.00     0.022 A 
BRANCH  72  75
ATOM     75  S   UNL     1      -4.926   9.831  -9.682  1.00  0.00     0.127 S 
ATOM     76  O   UNL     1      -5.917  10.878  -9.912  1.00  0.00    -0.237 OA
ATOM     77  O   UNL     1      -5.362   8.479 -10.039  1.00  0.00    -0.237 OA
ATOM     78  O   UNL     1      -4.195   9.909  -8.425  1.00  0.00    -0.744 OA
ENDBRANCH  72  75
ENDBRANCH  44  68
BRANCH  56  79
ATOM     79  C   UNL     1       1.906  16.662 -13.569  1.00  0.00     0.023 A 
ATOM     80  C   UNL     1       1.033  17.618 -13.014  1.00  0.00     0.012 A 
ATOM     81  C   UNL     1       2.461  16.887 -14.844  1.00  0.00     0.148 A 
ATOM     82  C   UNL     1       0.699  18.770 -13.726  1.00  0.00     0.002 A 
ATOM     83  C   UNL     1       2.158  18.058 -15.529  1.00  0.00     0.091 A 
ATOM     84  F   UNL     1       3.276  15.955 -15.360  1.00  0.00    -0.205 F 
ATOM     85  C   UNL     1       1.270  18.995 -14.976  1.00  0.00     0.022 A 
BRANCH  83  86
ATOM     86  S   UNL     1       2.911  18.477 -17.106  1.00  0.00     0.127 S 
ATOM     87  O   UNL     1       1.788  18.309 -18.027  1.00  0.00    -0.237 OA
ATOM     88  O   UNL     1       3.324  19.865 -16.893  1.00  0.00    -0.237 OA
ATOM     89  O   UNL     1       4.012  17.541 -17.286  1.00  0.00    -0.744 OA
ENDBRANCH  83  86
ENDBRANCH  56  79
ENDBRANCH  30  31
ENDBRANCH  22  25
ENDBRANCH  20  21
ENDBRANCH  19  20
ENDBRANCH   1  19
TORSDOF 18
