REMARK SMILES COc1cc([N+](=O)[O-])cc([C@H]2[NH2+][C@H](C(=O)NCCCCNC(=O)c3ccc(-c4c5nc(c(-c6cccc(S(=O)(=O)[O-])c6F)c6ccc([nH]6)c(-c6cccc(S(=O)(=O)[O-])c6F)c6nc(c(-c7cccc(S(=O)(=O)[O-])c7F)c7ccc4[nH]7)C=C6)C=C5)cc3)CS2)c1O
REMARK SMILES IDX 19 1 18 2 17 3 16 4 14 5 15 6 13 8 11 9 12 10 88 11 87 14
REMARK SMILES IDX 10 15 3 16 4 17 89 18 5 19 9 20 2 21 1 22 90 23 6 25 7 26
REMARK SMILES IDX 8 27 20 28 21 29 22 30 23 32 24 33 25 34 86 35 26 36 85 37
REMARK SMILES IDX 27 38 28 39 29 40 79 41 30 42 84 43 78 44 80 45 31 46 83 47
REMARK SMILES IDX 77 48 76 49 32 51 64 52 44 53 63 54 45 55 48 56 62 57 81 58
REMARK SMILES IDX 46 59 47 60 61 62 82 63 49 64 33 65 34 66 42 67 35 68 37 69
REMARK SMILES IDX 43 70 36 71 38 72 39 73 40 74 41 75 65 76 66 77 74 78 67 79
REMARK SMILES IDX 69 80 75 81 68 82 70 83 71 84 72 85 73 86 50 87 51 88 59 89
REMARK SMILES IDX 52 90 54 91 60 92 53 93 55 94 56 95 57 96 58 97
REMARK H PARENT 16 7 12 12 12 13 90 24 21 31 80 50 48 61
REMARK Flexibility Score: inf
ROOT
ATOM      1  C   UNL     1       2.011  -2.275   2.230  1.00  0.00     0.023 C 
ENDROOT
BRANCH   1   2
ATOM      2  C   UNL     1       1.961  -2.896   0.834  1.00  0.00     0.023 C 
BRANCH   2   3
ATOM      3  C   UNL     1       1.632  -1.924  -0.298  1.00  0.00     0.116 C 
BRANCH   3   4
ATOM      4  N   UNL     1       2.781  -1.164  -0.741  1.00  0.00    -0.351 N 
ATOM      5  C   UNL     1       3.637  -1.367  -1.782  1.00  0.00     0.279 C 
ATOM      6  O   UNL     1       4.513  -0.515  -1.966  1.00  0.00    -0.268 OA
ATOM      7  H   UNL     1       2.977  -0.366  -0.199  1.00  0.00     0.163 HD
BRANCH   5   8
ATOM      8  C   UNL     1       3.546  -2.584  -2.723  1.00  0.00     0.283 C 
ATOM      9  C   UNL     1       2.612  -4.757  -2.166  1.00  0.00     0.278 C 
ATOM     10  N   UNL     1       3.751  -3.854  -1.978  1.00  0.00    -0.320 N 
ATOM     11  S   UNL     1       1.950  -4.386  -3.791  1.00  0.00    -0.087 SA
ATOM     12  H   UNL     1       4.598  -4.308  -2.319  1.00  0.00     0.348 HD
ATOM     13  H   UNL     1       3.839  -3.640  -0.984  1.00  0.00     0.348 HD
ATOM     14  C   UNL     1       2.316  -2.616  -3.621  1.00  0.00     0.151 C 
BRANCH   9  15
ATOM     15  C   UNL     1       2.961  -6.190  -1.773  1.00  0.00     0.073 A 
ATOM     16  C   UNL     1       2.956  -8.646  -1.933  1.00  0.00     0.167 A 
ATOM     17  C   UNL     1       3.686  -8.737  -0.743  1.00  0.00     0.136 A 
ATOM     18  C   UNL     1       2.567  -7.379  -2.425  1.00  0.00     0.168 A 
ATOM     19  C   UNL     1       4.033  -7.583  -0.050  1.00  0.00     0.273 A 
ATOM     20  C   UNL     1       3.680  -6.330  -0.557  1.00  0.00     0.100 A 
BRANCH  16  21
ATOM     21  O   UNL     1       2.679  -9.884  -2.454  1.00  0.00    -0.493 OA
ATOM     22  C   UNL     1       1.987  -9.974  -3.689  1.00  0.00     0.278 C 
ENDBRANCH  16  21
BRANCH  18  23
ATOM     23  O   UNL     1       1.762  -7.343  -3.527  1.00  0.00    -0.504 OA
ATOM     24  H   UNL     1       1.510  -8.141  -3.949  1.00  0.00     0.293 HD
ENDBRANCH  18  23
BRANCH  19  25
ATOM     25  N   UNL     1       4.759  -7.680   1.221  1.00  0.00     0.062 N 
ATOM     26  O   UNL     1       5.181  -8.794   1.560  1.00  0.00    -0.258 OA
ATOM     27  O   UNL     1       4.903  -6.641   1.881  1.00  0.00    -0.258 OA
ENDBRANCH  19  25
ENDBRANCH   9  15
ENDBRANCH   5   8
ENDBRANCH   3   4
ENDBRANCH   2   3
ENDBRANCH   1   2
BRANCH   1  28
ATOM     28  C   UNL     1       0.740  -1.562   2.679  1.00  0.00     0.116 C 
BRANCH  28  29
ATOM     29  N   UNL     1      -0.456  -2.390   2.607  1.00  0.00    -0.352 N 
ATOM     30  C   UNL     1      -1.580  -2.330   3.397  1.00  0.00     0.251 C 
ATOM     31  H   UNL     1      -0.460  -3.079   1.905  1.00  0.00     0.163 HD
ATOM     32  O   UNL     1      -2.471  -3.166   3.263  1.00  0.00    -0.269 OA
BRANCH  30  33
ATOM     33  C   UNL     1      -1.688  -1.281   4.433  1.00  0.00     0.039 A 
ATOM     34  C   UNL     1      -2.046  -1.649   5.732  1.00  0.00     0.014 A 
ATOM     35  C   UNL     1      -1.399   0.053   4.133  1.00  0.00     0.014 A 
ATOM     36  C   UNL     1      -2.051  -0.687   6.745  1.00  0.00     0.010 A 
ATOM     37  C   UNL     1      -1.333   0.993   5.157  1.00  0.00     0.010 A 
ATOM     38  C   UNL     1      -1.662   0.635   6.473  1.00  0.00    -0.014 A 
BRANCH  38  39
ATOM     39  C   UNL     1      -1.586   1.653   7.551  1.00  0.00     0.031 A 
ATOM     40  C   UNL     1      -2.481   2.863   7.516  1.00  0.00     0.074 A 
ATOM     41  C   UNL     1      -0.656   1.529   8.519  1.00  0.00     0.049 A 
ATOM     42  N   UNL     1      -2.535   3.872   8.346  1.00  0.00    -0.248 NA
ATOM     43  C   UNL     1      -3.420   2.967   6.386  1.00  0.00     0.031 C 
ATOM     44  C   UNL     1       0.327   0.448   8.616  1.00  0.00     0.029 A 
ATOM     45  N   UNL     1      -0.371   2.332   9.596  1.00  0.00    -0.354 N 
ATOM     46  C   UNL     1      -3.488   4.740   7.827  1.00  0.00     0.074 A 
ATOM     47  C   UNL     1      -3.957   4.162   6.588  1.00  0.00     0.031 C 
ATOM     48  C   UNL     1       1.098   0.648   9.697  1.00  0.00     0.029 A 
ATOM     49  C   UNL     1       0.683   1.881  10.357  1.00  0.00     0.049 A 
ATOM     50  H   UNL     1      -0.873   3.153   9.803  1.00  0.00     0.167 HD
ATOM     51  C   UNL     1      -3.959   5.896   8.352  1.00  0.00     0.034 A 
ATOM     52  C   UNL     1       1.248   2.403  11.464  1.00  0.00     0.034 A 
ATOM     53  C   UNL     1      -3.525   6.445   9.608  1.00  0.00     0.049 A 
ATOM     54  C   UNL     1       0.676   3.667  12.049  1.00  0.00     0.074 A 
ATOM     55  C   UNL     1      -3.998   7.567  10.266  1.00  0.00     0.029 A 
ATOM     56  N   UNL     1      -2.517   5.913  10.397  1.00  0.00    -0.354 N 
ATOM     57  N   UNL     1      -0.337   4.386  11.630  1.00  0.00    -0.248 NA
ATOM     58  C   UNL     1       1.299   4.170  13.282  1.00  0.00     0.031 C 
ATOM     59  C   UNL     1      -3.265   7.721  11.448  1.00  0.00     0.029 A 
ATOM     60  C   UNL     1      -2.350   6.684  11.534  1.00  0.00     0.049 A 
ATOM     61  H   UNL     1      -1.997   5.106  10.181  1.00  0.00     0.167 HD
ATOM     62  C   UNL     1      -0.496   5.402  12.565  1.00  0.00     0.074 A 
ATOM     63  C   UNL     1       0.510   5.192  13.585  1.00  0.00     0.031 C 
ATOM     64  C   UNL     1      -1.384   6.427  12.571  1.00  0.00     0.034 A 
BRANCH  51  65
ATOM     65  C   UNL     1      -5.053   6.611   7.601  1.00  0.00     0.023 A 
ATOM     66  C   UNL     1      -6.349   6.056   7.580  1.00  0.00     0.012 A 
ATOM     67  C   UNL     1      -4.820   7.849   6.973  1.00  0.00     0.148 A 
ATOM     68  C   UNL     1      -7.389   6.705   6.916  1.00  0.00     0.002 A 
ATOM     69  C   UNL     1      -5.873   8.511   6.350  1.00  0.00     0.091 A 
ATOM     70  F   UNL     1      -3.577   8.351   6.986  1.00  0.00    -0.205 F 
ATOM     71  C   UNL     1      -7.154   7.936   6.311  1.00  0.00     0.022 A 
BRANCH  69  72
ATOM     72  S   UNL     1      -5.692  10.136   5.606  1.00  0.00     0.127 S 
ATOM     73  O   UNL     1      -5.798   9.822   4.182  1.00  0.00    -0.237 OA
ATOM     74  O   UNL     1      -6.841  10.857   6.157  1.00  0.00    -0.237 OA
ATOM     75  O   UNL     1      -4.396  10.636   6.042  1.00  0.00    -0.744 OA
ENDBRANCH  69  72
ENDBRANCH  51  65
BRANCH  52  76
ATOM     76  C   UNL     1       2.367   1.689  12.142  1.00  0.00     0.023 A 
ATOM     77  C   UNL     1       2.140   1.082  13.392  1.00  0.00     0.012 A 
ATOM     78  C   UNL     1       3.644   1.594  11.555  1.00  0.00     0.148 A 
ATOM     79  C   UNL     1       3.172   0.425  14.064  1.00  0.00     0.002 A 
ATOM     80  C   UNL     1       4.653   0.892  12.205  1.00  0.00     0.091 A 
ATOM     81  F   UNL     1       3.846   2.190  10.371  1.00  0.00    -0.205 F 
ATOM     82  C   UNL     1       4.425   0.322  13.467  1.00  0.00     0.022 A 
BRANCH  80  83
ATOM     83  S   UNL     1       6.258   0.603  11.450  1.00  0.00     0.127 S 
ATOM     84  O   UNL     1       7.110   1.522  12.199  1.00  0.00    -0.237 OA
ATOM     85  O   UNL     1       6.478  -0.815  11.738  1.00  0.00    -0.237 OA
ATOM     86  O   UNL     1       6.082   0.905  10.036  1.00  0.00    -0.744 OA
ENDBRANCH  80  83
ENDBRANCH  52  76
BRANCH  64  87
ATOM     87  C   UNL     1      -1.339   7.384  13.733  1.00  0.00     0.023 A 
ATOM     88  C   UNL     1      -0.283   8.311  13.834  1.00  0.00     0.012 A 
ATOM     89  C   UNL     1      -2.381   7.415  14.680  1.00  0.00     0.148 A 
ATOM     90  C   UNL     1      -0.249   9.234  14.878  1.00  0.00     0.002 A 
ATOM     91  C   UNL     1      -2.365   8.370  15.690  1.00  0.00     0.091 A 
ATOM     92  F   UNL     1      -3.367   6.512  14.577  1.00  0.00    -0.205 F 
ATOM     93  C   UNL     1      -1.294   9.272  15.798  1.00  0.00     0.022 A 
BRANCH  91  94
ATOM     94  S   UNL     1      -3.716   8.554  16.860  1.00  0.00     0.127 S 
ATOM     95  O   UNL     1      -3.130   8.003  18.081  1.00  0.00    -0.237 OA
ATOM     96  O   UNL     1      -3.915  10.004  16.879  1.00  0.00    -0.237 OA
ATOM     97  O   UNL     1      -4.832   7.800  16.305  1.00  0.00    -0.744 OA
ENDBRANCH  91  94
ENDBRANCH  64  87
ENDBRANCH  38  39
ENDBRANCH  30  33
ENDBRANCH  28  29
ENDBRANCH   1  28
TORSDOF 18
