REMARK SMILES CCOc1cccc(OCC)c1-c1ccc([C@@H](C)C(=O)NCCCCNC(=O)c2ccc(-c3c4nc(c(-c5cccc(S(=O)(=O)[O-])c5F)c5ccc([nH]5)c(-c5cccc(S(=O)(=O)[O-])c5F)c5nc(c(-c6cccc(S(=O)(=O)[O-])c6F)c6ccc3[nH]6)C=C5)C=C4)cc2)cc1F
REMARK SMILES IDX 23 1 22 2 21 3 19 4 20 5 17 7 18 8 16 9 13 10 14 11 93 12
REMARK SMILES IDX 15 13 92 14 94 15 12 16 4 17 5 18 6 19 8 20 7 21 3 22 2 23
REMARK SMILES IDX 1 24 9 25 10 26 11 27 24 28 25 29 26 30 27 31 28 33 29 34
REMARK SMILES IDX 30 35 91 36 31 37 90 38 32 39 33 40 34 41 84 42 35 43 89 44
REMARK SMILES IDX 83 45 85 46 36 47 88 48 82 49 81 50 37 52 69 53 49 54 68 55
REMARK SMILES IDX 50 56 53 57 67 58 86 59 51 60 52 61 66 63 87 64 54 65 38 66
REMARK SMILES IDX 39 67 47 68 40 69 42 70 48 71 41 72 43 73 44 74 45 75 46 76
REMARK SMILES IDX 70 77 71 78 79 79 72 80 74 81 80 82 73 83 75 84 76 85 77 86
REMARK SMILES IDX 78 87 55 88 56 89 64 90 57 91 59 92 65 93 58 94 60 95 61 96
REMARK SMILES IDX 62 97 63 98
REMARK H PARENT 21 6 26 32 85 51 53 62
REMARK Flexibility Score: inf
ROOT
ATOM      1  C   UNL     1       2.914   2.870   2.848  1.00  0.00     0.023 C 
ENDROOT
BRANCH   1   2
ATOM      2  C   UNL     1       2.470   2.352   4.228  1.00  0.00     0.116 C 
BRANCH   2   3
ATOM      3  N   UNL     1       1.070   1.949   4.237  1.00  0.00    -0.356 N 
ATOM      4  C   UNL     1       0.411   0.762   4.114  1.00  0.00     0.227 C 
ATOM      5  O   UNL     1      -0.826   0.841   4.123  1.00  0.00    -0.274 OA
ATOM      6  H   UNL     1       0.458   2.710   4.359  1.00  0.00     0.163 HD
BRANCH   4   7
ATOM      7  C   UNL     1       1.064  -0.635   3.976  1.00  0.00     0.105 C 
ATOM      8  C   UNL     1       2.057  -0.983   5.080  1.00  0.00     0.023 C 
BRANCH   7   9
ATOM      9  C   UNL     1       1.582  -0.942   2.581  1.00  0.00    -0.033 A 
ATOM     10  C   UNL     1       2.493  -1.257  -0.099  1.00  0.00     0.025 A 
ATOM     11  C   UNL     1       2.957  -0.232   0.718  1.00  0.00     0.012 A 
ATOM     12  C   UNL     1       1.536  -2.122   0.451  1.00  0.00     0.131 A 
ATOM     13  C   UNL     1       2.615  -0.183   2.058  1.00  0.00     0.005 A 
ATOM     14  C   UNL     1       1.050  -1.942   1.758  1.00  0.00     0.044 A 
ATOM     15  F   UNL     1       1.037  -3.131  -0.280  1.00  0.00    -0.206 F 
BRANCH  10  16
ATOM     16  C   UNL     1       2.971  -1.288  -1.489  1.00  0.00     0.069 A 
ATOM     17  C   UNL     1       2.044  -0.928  -2.505  1.00  0.00     0.130 A 
ATOM     18  C   UNL     1       2.416  -0.786  -3.844  1.00  0.00     0.047 A 
ATOM     19  C   UNL     1       3.740  -0.976  -4.206  1.00  0.00     0.008 A 
ATOM     20  C   UNL     1       4.316  -1.503  -1.879  1.00  0.00     0.130 A 
ATOM     21  C   UNL     1       4.669  -1.342  -3.235  1.00  0.00     0.047 A 
BRANCH  17  22
ATOM     22  O   UNL     1       0.715  -0.779  -2.182  1.00  0.00    -0.493 OA
BRANCH  22  23
ATOM     23  C   UNL     1       0.276   0.584  -2.210  1.00  0.00     0.226 C 
ATOM     24  C   UNL     1      -0.313   0.931  -0.852  1.00  0.00     0.049 C 
ENDBRANCH  22  23
ENDBRANCH  17  22
BRANCH  20  25
ATOM     25  O   UNL     1       5.418  -1.903  -1.169  1.00  0.00    -0.493 OA
BRANCH  25  26
ATOM     26  C   UNL     1       5.570  -1.780   0.237  1.00  0.00     0.226 C 
ATOM     27  C   UNL     1       6.136  -0.416   0.609  1.00  0.00     0.049 C 
ENDBRANCH  25  26
ENDBRANCH  20  25
ENDBRANCH  10  16
ENDBRANCH   7   9
ENDBRANCH   4   7
ENDBRANCH   2   3
ENDBRANCH   1   2
BRANCH   1  28
ATOM     28  C   UNL     1       2.901   4.377   2.646  1.00  0.00     0.023 C 
BRANCH  28  29
ATOM     29  C   UNL     1       3.897   5.148   3.498  1.00  0.00     0.116 C 
BRANCH  29  30
ATOM     30  N   UNL     1       5.292   4.769   3.299  1.00  0.00    -0.352 N 
ATOM     31  C   UNL     1       6.406   5.577   3.366  1.00  0.00     0.251 C 
ATOM     32  H   UNL     1       5.457   3.820   3.092  1.00  0.00     0.163 HD
ATOM     33  O   UNL     1       7.521   5.123   3.126  1.00  0.00    -0.269 OA
BRANCH  31  34
ATOM     34  C   UNL     1       6.229   7.012   3.679  1.00  0.00     0.039 A 
ATOM     35  C   UNL     1       6.796   7.967   2.832  1.00  0.00     0.014 A 
ATOM     36  C   UNL     1       5.411   7.404   4.740  1.00  0.00     0.014 A 
ATOM     37  C   UNL     1       6.460   9.313   2.994  1.00  0.00     0.010 A 
ATOM     38  C   UNL     1       5.002   8.727   4.836  1.00  0.00     0.010 A 
ATOM     39  C   UNL     1       5.519   9.697   3.963  1.00  0.00    -0.014 A 
BRANCH  39  40
ATOM     40  C   UNL     1       5.039  11.098   4.074  1.00  0.00     0.031 A 
ATOM     41  C   UNL     1       5.241  11.864   5.354  1.00  0.00     0.074 A 
ATOM     42  C   UNL     1       4.322  11.640   3.069  1.00  0.00     0.049 A 
ATOM     43  N   UNL     1       4.830  13.064   5.669  1.00  0.00    -0.248 NA
ATOM     44  C   UNL     1       5.968  11.177   6.436  1.00  0.00     0.031 C 
ATOM     45  C   UNL     1       3.964  10.962   1.820  1.00  0.00     0.029 A 
ATOM     46  N   UNL     1       3.738  12.877   2.951  1.00  0.00    -0.354 N 
ATOM     47  C   UNL     1       5.206  13.257   6.993  1.00  0.00     0.074 A 
ATOM     48  C   UNL     1       5.842  12.037   7.436  1.00  0.00     0.031 C 
ATOM     49  C   UNL     1       3.235  11.794   1.059  1.00  0.00     0.029 A 
ATOM     50  C   UNL     1       3.051  13.055   1.772  1.00  0.00     0.049 A 
ATOM     51  H   UNL     1       3.805  13.572   3.644  1.00  0.00     0.167 HD
ATOM     52  C   UNL     1       5.072  14.365   7.760  1.00  0.00     0.034 A 
ATOM     53  C   UNL     1       2.356  14.115   1.315  1.00  0.00     0.034 A 
ATOM     54  C   UNL     1       4.504  15.599   7.294  1.00  0.00     0.049 A 
ATOM     55  C   UNL     1       2.294  15.362   2.155  1.00  0.00     0.074 A 
ATOM     56  C   UNL     1       4.422  16.812   7.954  1.00  0.00     0.029 A 
ATOM     57  N   UNL     1       3.924  15.780   6.048  1.00  0.00    -0.354 N 
ATOM     58  N   UNL     1       2.814  15.586   3.338  1.00  0.00    -0.248 NA
ATOM     59  C   UNL     1       1.586  16.517   1.583  1.00  0.00     0.031 C 
ATOM     60  C   UNL     1       3.784  17.726   7.109  1.00  0.00     0.029 A 
ATOM     61  C   UNL     1       3.480  17.084   5.919  1.00  0.00     0.049 A 
ATOM     62  H   UNL     1       3.839  15.083   5.358  1.00  0.00     0.167 HD
ATOM     63  C   UNL     1       2.527  16.913   3.636  1.00  0.00     0.074 A 
ATOM     64  C   UNL     1       1.806  17.449   2.500  1.00  0.00     0.031 C 
ATOM     65  C   UNL     1       2.818  17.618   4.757  1.00  0.00     0.034 A 
BRANCH  52  66
ATOM     66  C   UNL     1       5.622  14.312   9.160  1.00  0.00     0.023 A 
ATOM     67  C   UNL     1       7.019  14.309   9.354  1.00  0.00     0.012 A 
ATOM     68  C   UNL     1       4.770  14.313  10.281  1.00  0.00     0.148 A 
ATOM     69  C   UNL     1       7.560  14.271  10.637  1.00  0.00     0.002 A 
ATOM     70  C   UNL     1       5.317  14.319  11.559  1.00  0.00     0.091 A 
ATOM     71  F   UNL     1       3.445  14.291  10.078  1.00  0.00    -0.205 F 
ATOM     72  C   UNL     1       6.710  14.287  11.739  1.00  0.00     0.022 A 
BRANCH  70  73
ATOM     73  S   UNL     1       4.307  14.415  13.042  1.00  0.00     0.127 S 
ATOM     74  O   UNL     1       4.410  13.050  13.557  1.00  0.00    -0.237 OA
ATOM     75  O   UNL     1       5.015  15.420  13.835  1.00  0.00    -0.237 OA
ATOM     76  O   UNL     1       2.981  14.819  12.596  1.00  0.00    -0.744 OA
ENDBRANCH  70  73
ENDBRANCH  52  66
BRANCH  53  77
ATOM     77  C   UNL     1       1.744  14.075  -0.044  1.00  0.00     0.023 A 
ATOM     78  C   UNL     1       2.314  14.846  -1.076  1.00  0.00     0.012 A 
ATOM     79  C   UNL     1       0.635  13.258  -0.332  1.00  0.00     0.148 A 
ATOM     80  C   UNL     1       1.773  14.828  -2.362  1.00  0.00     0.002 A 
ATOM     81  C   UNL     1       0.132  13.204  -1.628  1.00  0.00     0.091 A 
ATOM     82  F   UNL     1       0.097  12.541   0.666  1.00  0.00    -0.205 F 
ATOM     83  C   UNL     1       0.690  14.000  -2.640  1.00  0.00     0.022 A 
BRANCH  81  84
ATOM     84  S   UNL     1      -1.173  12.064  -2.103  1.00  0.00     0.127 S 
ATOM     85  O   UNL     1      -2.319  12.960  -2.236  1.00  0.00    -0.237 OA
ATOM     86  O   UNL     1      -0.663  11.524  -3.364  1.00  0.00    -0.237 OA
ATOM     87  O   UNL     1      -1.248  11.088  -1.024  1.00  0.00    -0.744 OA
ENDBRANCH  81  84
ENDBRANCH  53  77
BRANCH  65  88
ATOM     88  C   UNL     1       2.385  19.059   4.808  1.00  0.00     0.023 A 
ATOM     89  C   UNL     1       1.026  19.371   5.001  1.00  0.00     0.012 A 
ATOM     90  C   UNL     1       3.334  20.098   4.751  1.00  0.00     0.148 A 
ATOM     91  C   UNL     1       0.613  20.698   5.111  1.00  0.00     0.002 A 
ATOM     92  C   UNL     1       2.921  21.416   4.907  1.00  0.00     0.091 A 
ATOM     93  F   UNL     1       4.621  19.781   4.546  1.00  0.00    -0.205 F 
ATOM     94  C   UNL     1       1.560  21.718   5.077  1.00  0.00     0.022 A 
BRANCH  92  95
ATOM     95  S   UNL     1       4.085  22.783   4.971  1.00  0.00     0.127 S 
ATOM     96  O   UNL     1       3.914  23.383   3.649  1.00  0.00    -0.237 OA
ATOM     97  O   UNL     1       3.564  23.587   6.078  1.00  0.00    -0.237 OA
ATOM     98  O   UNL     1       5.389  22.184   5.226  1.00  0.00    -0.744 OA
ENDBRANCH  92  95
ENDBRANCH  65  88
ENDBRANCH  39  40
ENDBRANCH  31  34
ENDBRANCH  29  30
ENDBRANCH  28  29
ENDBRANCH   1  28
TORSDOF 20
