REMARK SMILES Cc1cccc(CC(=O)N2CCCC[C@@H]2C(=O)NCCCCNC(=O)c2ccc(-c3c4nc(c(-c5cccc(S(=O)(=O)[O-])c5F)c5ccc([nH]5)c(-c5cccc(S(=O)(=O)[O-])c5F)c5nc(c(-c6cccc(S(=O)(=O)[O-])c6F)c6ccc3[nH]6)C=C5)C=C4)cc2)c1
REMARK SMILES IDX 20 1 19 2 18 3 16 4 17 5 15 7 10 8 11 9 12 10 14 11 13 12
REMARK SMILES IDX 8 13 9 14 7 15 6 16 1 17 2 18 3 19 89 20 4 21 5 22 21 23
REMARK SMILES IDX 22 24 23 25 24 26 25 28 26 29 27 30 88 31 28 32 87 33 29 34
REMARK SMILES IDX 30 35 31 36 81 37 32 38 86 39 80 40 82 41 33 42 85 43 79 44
REMARK SMILES IDX 78 45 34 47 66 48 46 49 65 50 47 51 50 52 64 53 83 54 48 55
REMARK SMILES IDX 49 56 63 58 84 59 51 60 35 61 36 62 44 63 37 64 39 65 45 66
REMARK SMILES IDX 38 67 40 68 41 69 42 70 43 71 67 72 68 73 76 74 69 75 71 76
REMARK SMILES IDX 77 77 70 78 72 79 73 80 74 81 75 82 52 83 53 84 61 85 54 86
REMARK SMILES IDX 56 87 62 88 55 89 57 90 58 91 59 92 60 93
REMARK H PARENT 18 6 23 27 82 46 50 57
REMARK Flexibility Score: inf
ROOT
ATOM      1  C   UNL     1      -3.638  -1.761  -2.975  1.00  0.00     0.023 C 
ENDROOT
BRANCH   1   2
ATOM      2  C   UNL     1      -3.084  -0.458  -2.397  1.00  0.00     0.116 C 
BRANCH   2   3
ATOM      3  N   UNL     1      -1.641  -0.529  -2.242  1.00  0.00    -0.354 N 
ATOM      4  C   UNL     1      -0.672   0.355  -2.602  1.00  0.00     0.242 C 
ATOM      5  O   UNL     1       0.497  -0.048  -2.625  1.00  0.00    -0.273 OA
ATOM      6  H   UNL     1      -1.312  -1.349  -1.806  1.00  0.00     0.163 HD
BRANCH   4   7
ATOM      7  C   UNL     1      -1.021   1.721  -3.218  1.00  0.00     0.174 C 
ATOM      8  N   UNL     1      -2.186   2.459  -2.674  1.00  0.00    -0.330 N 
ATOM      9  C   UNL     1      -2.762   3.471  -3.556  1.00  0.00     0.120 C 
ATOM     10  C   UNL     1      -3.143   2.911  -4.911  1.00  0.00     0.022 C 
ATOM     11  C   UNL     1      -1.224   1.323  -4.714  1.00  0.00     0.035 C 
ATOM     12  C   UNL     1      -1.909   2.351  -5.595  1.00  0.00     0.004 C 
BRANCH   8  13
ATOM     13  C   UNL     1      -2.557   2.594  -1.335  1.00  0.00     0.227 C 
ATOM     14  O   UNL     1      -3.746   2.806  -1.062  1.00  0.00    -0.275 OA
BRANCH  13  15
ATOM     15  C   UNL     1      -1.523   2.697  -0.224  1.00  0.00     0.135 C 
BRANCH  15  16
ATOM     16  C   UNL     1      -0.868   1.434   0.261  1.00  0.00    -0.038 A 
ATOM     17  C   UNL     1       2.646  -0.025   0.265  1.00  0.00     0.044 C 
ATOM     18  C   UNL     1       1.177   0.126   0.521  1.00  0.00    -0.051 A 
ATOM     19  C   UNL     1       0.422  -0.936   1.027  1.00  0.00     0.003 A 
ATOM     20  C   UNL     1       0.526   1.309   0.156  1.00  0.00     0.007 A 
ATOM     21  C   UNL     1      -0.956  -0.798   1.206  1.00  0.00     0.001 A 
ATOM     22  C   UNL     1      -1.599   0.386   0.834  1.00  0.00     0.004 A 
ENDBRANCH  15  16
ENDBRANCH  13  15
ENDBRANCH   8  13
ENDBRANCH   4   7
ENDBRANCH   2   3
ENDBRANCH   1   2
BRANCH   1  23
ATOM     23  C   UNL     1      -3.387  -2.994  -2.104  1.00  0.00     0.023 C 
BRANCH  23  24
ATOM     24  C   UNL     1      -4.161  -2.950  -0.800  1.00  0.00     0.116 C 
BRANCH  24  25
ATOM     25  N   UNL     1      -5.526  -3.394  -0.968  1.00  0.00    -0.352 N 
ATOM     26  C   UNL     1      -6.486  -3.715  -0.031  1.00  0.00     0.251 C 
ATOM     27  H   UNL     1      -5.818  -3.481  -1.904  1.00  0.00     0.163 HD
ATOM     28  O   UNL     1      -7.417  -4.410  -0.407  1.00  0.00    -0.269 OA
BRANCH  26  29
ATOM     29  C   UNL     1      -6.487  -3.091   1.323  1.00  0.00     0.039 A 
ATOM     30  C   UNL     1      -7.728  -2.990   1.975  1.00  0.00     0.014 A 
ATOM     31  C   UNL     1      -5.396  -2.394   1.831  1.00  0.00     0.014 A 
ATOM     32  C   UNL     1      -7.926  -2.020   2.955  1.00  0.00     0.010 A 
ATOM     33  C   UNL     1      -5.606  -1.373   2.723  1.00  0.00     0.010 A 
ATOM     34  C   UNL     1      -6.887  -1.147   3.228  1.00  0.00    -0.014 A 
BRANCH  34  35
ATOM     35  C   UNL     1      -6.964   0.031   4.064  1.00  0.00     0.031 A 
ATOM     36  C   UNL     1      -6.484  -0.064   5.449  1.00  0.00     0.074 A 
ATOM     37  C   UNL     1      -7.103   1.213   3.429  1.00  0.00     0.049 A 
ATOM     38  N   UNL     1      -6.438   0.927   6.263  1.00  0.00    -0.248 NA
ATOM     39  C   UNL     1      -6.025  -1.318   6.035  1.00  0.00     0.031 C 
ATOM     40  C   UNL     1      -6.615   2.521   3.846  1.00  0.00     0.029 A 
ATOM     41  N   UNL     1      -7.888   1.482   2.310  1.00  0.00    -0.354 N 
ATOM     42  C   UNL     1      -5.732   0.526   7.375  1.00  0.00     0.074 A 
ATOM     43  C   UNL     1      -5.579  -0.898   7.222  1.00  0.00     0.031 C 
ATOM     44  C   UNL     1      -7.273   3.471   3.163  1.00  0.00     0.029 A 
ATOM     45  C   UNL     1      -8.347   2.803   2.447  1.00  0.00     0.049 A 
ATOM     46  H   UNL     1      -8.084   0.866   1.568  1.00  0.00     0.167 HD
ATOM     47  C   UNL     1      -5.273   1.494   8.216  1.00  0.00     0.034 A 
ATOM     48  C   UNL     1      -9.678   3.037   2.667  1.00  0.00     0.034 A 
ATOM     49  C   UNL     1      -5.855   2.794   7.846  1.00  0.00     0.049 A 
ATOM     50  C   UNL     1      -9.973   3.691   4.005  1.00  0.00     0.074 A 
ATOM     51  C   UNL     1      -5.398   3.866   7.098  1.00  0.00     0.029 A 
ATOM     52  N   UNL     1      -7.224   2.978   8.004  1.00  0.00    -0.354 N 
ATOM     53  N   UNL     1      -9.121   3.778   4.990  1.00  0.00    -0.248 NA
ATOM     54  C   UNL     1     -11.244   4.332   4.327  1.00  0.00     0.031 C 
ATOM     55  C   UNL     1      -6.528   4.651   6.729  1.00  0.00     0.029 A 
ATOM     56  C   UNL     1      -7.660   4.079   7.287  1.00  0.00     0.049 A 
ATOM     57  H   UNL     1      -7.805   2.403   8.553  1.00  0.00     0.167 HD
ATOM     58  C   UNL     1      -9.709   4.368   6.079  1.00  0.00     0.074 A 
ATOM     59  C   UNL     1     -11.019   4.759   5.584  1.00  0.00     0.031 C 
ATOM     60  C   UNL     1      -9.076   4.441   7.295  1.00  0.00     0.034 A 
BRANCH  47  61
ATOM     61  C   UNL     1      -4.165   1.365   9.248  1.00  0.00     0.023 A 
ATOM     62  C   UNL     1      -3.693   2.569   9.823  1.00  0.00     0.012 A 
ATOM     63  C   UNL     1      -3.483   0.191   9.648  1.00  0.00     0.148 A 
ATOM     64  C   UNL     1      -2.593   2.618  10.687  1.00  0.00     0.002 A 
ATOM     65  C   UNL     1      -2.386   0.233  10.515  1.00  0.00     0.091 A 
ATOM     66  F   UNL     1      -3.869  -0.999   9.195  1.00  0.00    -0.205 F 
ATOM     67  C   UNL     1      -1.931   1.449  11.028  1.00  0.00     0.022 A 
BRANCH  65  68
ATOM     68  S   UNL     1      -1.473  -1.244  11.005  1.00  0.00     0.127 S 
ATOM     69  O   UNL     1      -0.139  -0.971  10.466  1.00  0.00    -0.237 OA
ATOM     70  O   UNL     1      -1.559  -1.198  12.464  1.00  0.00    -0.237 OA
ATOM     71  O   UNL     1      -2.152  -2.379  10.390  1.00  0.00    -0.744 OA
ENDBRANCH  65  68
ENDBRANCH  47  61
BRANCH  48  72
ATOM     72  C   UNL     1     -10.543   2.046   1.947  1.00  0.00     0.023 A 
ATOM     73  C   UNL     1     -10.429   2.031   0.533  1.00  0.00     0.012 A 
ATOM     74  C   UNL     1     -11.059   0.908   2.595  1.00  0.00     0.148 A 
ATOM     75  C   UNL     1     -10.642   0.858  -0.192  1.00  0.00     0.002 A 
ATOM     76  C   UNL     1     -11.294  -0.255   1.857  1.00  0.00     0.091 A 
ATOM     77  F   UNL     1     -11.252   0.954   3.919  1.00  0.00    -0.205 F 
ATOM     78  C   UNL     1     -11.034  -0.295   0.476  1.00  0.00     0.022 A 
BRANCH  76  79
ATOM     79  S   UNL     1     -11.834  -1.785   2.635  1.00  0.00     0.127 S 
ATOM     80  O   UNL     1     -13.278  -1.726   2.428  1.00  0.00    -0.237 OA
ATOM     81  O   UNL     1     -11.148  -2.809   1.846  1.00  0.00    -0.237 OA
ATOM     82  O   UNL     1     -11.380  -1.695   4.015  1.00  0.00    -0.744 OA
ENDBRANCH  76  79
ENDBRANCH  48  72
BRANCH  60  83
ATOM     83  C   UNL     1      -9.713   4.831   8.625  1.00  0.00     0.023 A 
ATOM     84  C   UNL     1     -11.106   4.891   8.815  1.00  0.00     0.012 A 
ATOM     85  C   UNL     1      -8.917   5.006   9.792  1.00  0.00     0.148 A 
ATOM     86  C   UNL     1     -11.680   5.149  10.067  1.00  0.00     0.002 A 
ATOM     87  C   UNL     1      -9.493   5.137  11.053  1.00  0.00     0.091 A 
ATOM     88  F   UNL     1      -7.581   5.074   9.694  1.00  0.00    -0.205 F 
ATOM     89  C   UNL     1     -10.876   5.242  11.193  1.00  0.00     0.022 A 
BRANCH  87  90
ATOM     90  S   UNL     1      -8.497   5.003  12.547  1.00  0.00     0.127 S 
ATOM     91  O   UNL     1      -8.219   6.404  12.854  1.00  0.00    -0.237 OA
ATOM     92  O   UNL     1      -9.416   4.347  13.479  1.00  0.00    -0.237 OA
ATOM     93  O   UNL     1      -7.353   4.186  12.166  1.00  0.00    -0.744 OA
ENDBRANCH  87  90
ENDBRANCH  60  83
ENDBRANCH  34  35
ENDBRANCH  26  29
ENDBRANCH  24  25
ENDBRANCH  23  24
ENDBRANCH   1  23
TORSDOF 17
