REMARK SMILES CCOc1ccccc1[C@H](C(=O)NCCCCNC(=O)c1ccc(-c2c3nc(c(-c4cccc(S(=O)(=O)[O-])c4F)c4ccc([nH]4)c(-c4cccc(S(=O)(=O)[O-])c4F)c4nc(c(-c5cccc(S(=O)(=O)[O-])c5F)c5ccc2[nH]5)C=C4)C=C3)cc1)[NH+]1CCC([NH+]2CCSCC2)CC1
REMARK SMILES IDX 15 1 14 2 13 3 11 4 12 5 10 7 9 8 4 9 5 10 6 11 8 12 7 13
REMARK SMILES IDX 3 14 2 15 1 16 84 17 85 18 95 19 86 21 94 22 87 23 88 24
REMARK SMILES IDX 89 25 93 26 90 28 92 29 91 30 16 31 17 32 18 33 19 34 20 36
REMARK SMILES IDX 21 37 22 38 83 39 23 40 82 41 24 42 25 43 26 44 76 45 27 46
REMARK SMILES IDX 81 47 75 48 77 49 28 50 80 51 74 52 73 53 29 55 61 56 41 57
REMARK SMILES IDX 60 58 42 59 45 60 59 61 78 62 43 63 44 64 58 66 79 67 46 68
REMARK SMILES IDX 30 69 31 70 39 71 32 72 34 73 40 74 33 75 35 76 36 77 37 78
REMARK SMILES IDX 38 79 62 80 63 81 71 82 64 83 66 84 72 85 65 86 67 87 68 88
REMARK SMILES IDX 69 89 70 90 47 91 48 92 56 93 49 94 51 95 57 96 50 97 52 98
REMARK SMILES IDX 53 99 54 100 55 101
REMARK H PARENT 13 6 84 20 88 27 18 35 77 54 45 65
REMARK Flexibility Score: inf
ROOT
ATOM      1  C   UNL     1      -0.321   3.508   1.994  1.00  0.00     0.023 C 
ENDROOT
BRANCH   1   2
ATOM      2  C   UNL     1       0.769   2.859   1.145  1.00  0.00     0.116 C 
BRANCH   2   3
ATOM      3  N   UNL     1       1.375   1.736   1.833  1.00  0.00    -0.351 N 
ATOM      4  C   UNL     1       2.067   0.657   1.355  1.00  0.00     0.283 C 
ATOM      5  O   UNL     1       2.413  -0.141   2.232  1.00  0.00    -0.268 OA
ATOM      6  H   UNL     1       1.271   1.753   2.812  1.00  0.00     0.163 HD
BRANCH   4   7
ATOM      7  C   UNL     1       2.264   0.426  -0.186  1.00  0.00     0.309 C 
BRANCH   7   8
ATOM      8  C   UNL     1       2.709   1.670  -0.971  1.00  0.00     0.061 A 
ATOM      9  C   UNL     1       3.664   2.584  -0.483  1.00  0.00     0.128 A 
ATOM     10  C   UNL     1       4.115   3.634  -1.285  1.00  0.00     0.047 A 
ATOM     11  C   UNL     1       3.633   3.773  -2.589  1.00  0.00     0.004 A 
ATOM     12  C   UNL     1       2.236   1.829  -2.290  1.00  0.00     0.014 A 
ATOM     13  C   UNL     1       2.692   2.876  -3.090  1.00  0.00     0.001 A 
BRANCH   9  14
ATOM     14  O   UNL     1       3.987   2.557   0.844  1.00  0.00    -0.493 OA
BRANCH  14  15
ATOM     15  C   UNL     1       5.336   2.225   1.170  1.00  0.00     0.226 C 
ATOM     16  C   UNL     1       5.300   1.169   2.269  1.00  0.00     0.049 C 
ENDBRANCH  14  15
ENDBRANCH   9  14
ENDBRANCH   7   8
BRANCH   7  17
ATOM     17  N   UNL     1       3.050  -0.808  -0.619  1.00  0.00    -0.320 N 
ATOM     18  C   UNL     1       4.434  -0.542  -1.025  1.00  0.00     0.269 C 
ATOM     19  C   UNL     1       2.984  -1.948   0.307  1.00  0.00     0.269 C 
ATOM     20  H   UNL     1       2.545  -1.090  -1.458  1.00  0.00     0.349 HD
ATOM     21  C   UNL     1       5.139  -1.758  -1.614  1.00  0.00     0.126 C 
ATOM     22  C   UNL     1       3.624  -3.216  -0.277  1.00  0.00     0.126 C 
ATOM     23  C   UNL     1       5.095  -2.951  -0.654  1.00  0.00     0.195 C 
BRANCH  23  24
ATOM     24  N   UNL     1       5.805  -4.167  -1.141  1.00  0.00    -0.331 N 
ATOM     25  C   UNL     1       7.265  -3.925  -1.220  1.00  0.00     0.273 C 
ATOM     26  C   UNL     1       5.277  -4.678  -2.420  1.00  0.00     0.273 C 
ATOM     27  H   UNL     1       5.631  -4.900  -0.453  1.00  0.00     0.348 HD
ATOM     28  C   UNL     1       8.111  -5.161  -1.556  1.00  0.00     0.131 C 
ATOM     29  C   UNL     1       5.889  -6.010  -2.868  1.00  0.00     0.131 C 
ATOM     30  S   UNL     1       7.675  -5.874  -3.171  1.00  0.00    -0.150 SA
ENDBRANCH  23  24
ENDBRANCH   7  17
ENDBRANCH   4   7
ENDBRANCH   2   3
ENDBRANCH   1   2
BRANCH   1  31
ATOM     31  C   UNL     1       0.180   4.168   3.285  1.00  0.00     0.023 C 
BRANCH  31  32
ATOM     32  C   UNL     1       1.176   5.309   3.087  1.00  0.00     0.116 C 
BRANCH  32  33
ATOM     33  N   UNL     1       0.590   6.419   2.345  1.00  0.00    -0.352 N 
ATOM     34  C   UNL     1       0.322   7.697   2.773  1.00  0.00     0.251 C 
ATOM     35  H   UNL     1       0.353   6.226   1.409  1.00  0.00     0.163 HD
ATOM     36  O   UNL     1      -0.382   8.444   2.097  1.00  0.00    -0.269 OA
BRANCH  34  37
ATOM     37  C   UNL     1       0.885   8.164   4.055  1.00  0.00     0.039 A 
ATOM     38  C   UNL     1       0.050   8.775   4.994  1.00  0.00     0.014 A 
ATOM     39  C   UNL     1       2.243   7.981   4.327  1.00  0.00     0.014 A 
ATOM     40  C   UNL     1       0.566   9.142   6.240  1.00  0.00     0.010 A 
ATOM     41  C   UNL     1       2.737   8.285   5.590  1.00  0.00     0.010 A 
ATOM     42  C   UNL     1       1.906   8.869   6.559  1.00  0.00    -0.014 A 
BRANCH  42  43
ATOM     43  C   UNL     1       2.477   9.177   7.895  1.00  0.00     0.031 A 
ATOM     44  C   UNL     1       3.611  10.159   8.011  1.00  0.00     0.074 A 
ATOM     45  C   UNL     1       2.067   8.484   8.976  1.00  0.00     0.049 A 
ATOM     46  N   UNL     1       4.351  10.447   9.049  1.00  0.00    -0.248 NA
ATOM     47  C   UNL     1       3.982  10.889   6.787  1.00  0.00     0.031 C 
ATOM     48  C   UNL     1       1.018   7.462   8.979  1.00  0.00     0.029 A 
ATOM     49  N   UNL     1       2.514   8.503  10.275  1.00  0.00    -0.354 N 
ATOM     50  C   UNL     1       5.303  11.352   8.595  1.00  0.00     0.074 A 
ATOM     51  C   UNL     1       5.062  11.548   7.182  1.00  0.00     0.031 C 
ATOM     52  C   UNL     1       0.911   6.945  10.214  1.00  0.00     0.029 A 
ATOM     53  C   UNL     1       1.908   7.567  11.080  1.00  0.00     0.049 A 
ATOM     54  H   UNL     1       3.203   9.128  10.598  1.00  0.00     0.167 HD
ATOM     55  C   UNL     1       6.276  11.981   9.296  1.00  0.00     0.034 A 
ATOM     56  C   UNL     1       2.144   7.230  12.364  1.00  0.00     0.034 A 
ATOM     57  C   UNL     1       6.480  11.817  10.709  1.00  0.00     0.049 A 
ATOM     58  C   UNL     1       3.212   7.966  13.129  1.00  0.00     0.074 A 
ATOM     59  C   UNL     1       7.381  12.473  11.528  1.00  0.00     0.029 A 
ATOM     60  N   UNL     1       5.777  10.932  11.512  1.00  0.00    -0.354 N 
ATOM     61  N   UNL     1       4.011   8.920  12.717  1.00  0.00    -0.248 NA
ATOM     62  C   UNL     1       3.392   7.603  14.543  1.00  0.00     0.031 C 
ATOM     63  C   UNL     1       7.240  11.966  12.824  1.00  0.00     0.029 A 
ATOM     64  C   UNL     1       6.228  11.020  12.817  1.00  0.00     0.049 A 
ATOM     65  H   UNL     1       5.063  10.331  11.200  1.00  0.00     0.167 HD
ATOM     66  C   UNL     1       4.753   9.304  13.828  1.00  0.00     0.074 A 
ATOM     67  C   UNL     1       4.305   8.483  14.934  1.00  0.00     0.031 C 
ATOM     68  C   UNL     1       5.723  10.245  13.921  1.00  0.00     0.034 A 
BRANCH  55  69
ATOM     69  C   UNL     1       7.169  12.941   8.554  1.00  0.00     0.023 A 
ATOM     70  C   UNL     1       6.649  14.172   8.107  1.00  0.00     0.012 A 
ATOM     71  C   UNL     1       8.534  12.654   8.354  1.00  0.00     0.148 A 
ATOM     72  C   UNL     1       7.462  15.087   7.440  1.00  0.00     0.002 A 
ATOM     73  C   UNL     1       9.349  13.591   7.730  1.00  0.00     0.091 A 
ATOM     74  F   UNL     1       9.006  11.470   8.768  1.00  0.00    -0.205 F 
ATOM     75  C   UNL     1       8.813  14.801   7.261  1.00  0.00     0.022 A 
BRANCH  73  76
ATOM     76  S   UNL     1      11.118  13.352   7.526  1.00  0.00     0.127 S 
ATOM     77  O   UNL     1      11.222  13.141   6.082  1.00  0.00    -0.237 OA
ATOM     78  O   UNL     1      11.657  14.629   7.995  1.00  0.00    -0.237 OA
ATOM     79  O   UNL     1      11.467  12.205   8.352  1.00  0.00    -0.744 OA
ENDBRANCH  73  76
ENDBRANCH  55  69
BRANCH  56  80
ATOM     80  C   UNL     1       1.315   6.182  13.025  1.00  0.00     0.023 A 
ATOM     81  C   UNL     1       0.395   6.558  14.024  1.00  0.00     0.012 A 
ATOM     82  C   UNL     1       1.412   4.826  12.657  1.00  0.00     0.148 A 
ATOM     83  C   UNL     1      -0.389   5.600  14.666  1.00  0.00     0.002 A 
ATOM     84  C   UNL     1       0.588   3.884  13.263  1.00  0.00     0.091 A 
ATOM     85  F   UNL     1       2.300   4.487  11.712  1.00  0.00    -0.205 F 
ATOM     86  C   UNL     1      -0.300   4.266  14.280  1.00  0.00     0.022 A 
BRANCH  84  87
ATOM     87  S   UNL     1       0.542   2.166  12.741  1.00  0.00     0.127 S 
ATOM     88  O   UNL     1       1.157   1.491  13.881  1.00  0.00    -0.237 OA
ATOM     89  O   UNL     1      -0.895   1.936  12.589  1.00  0.00    -0.237 OA
ATOM     90  O   UNL     1       1.293   2.113  11.494  1.00  0.00    -0.744 OA
ENDBRANCH  84  87
ENDBRANCH  56  80
BRANCH  68  91
ATOM     91  C   UNL     1       6.335  10.502  15.272  1.00  0.00     0.023 A 
ATOM     92  C   UNL     1       7.251   9.582  15.818  1.00  0.00     0.012 A 
ATOM     93  C   UNL     1       6.088  11.717  15.942  1.00  0.00     0.148 A 
ATOM     94  C   UNL     1       7.899   9.861  17.021  1.00  0.00     0.002 A 
ATOM     95  C   UNL     1       6.774  12.010  17.113  1.00  0.00     0.091 A 
ATOM     96  F   UNL     1       5.199  12.569  15.411  1.00  0.00    -0.205 F 
ATOM     97  C   UNL     1       7.673  11.079  17.660  1.00  0.00     0.022 A 
BRANCH  95  98
ATOM     98  S   UNL     1       6.626  13.593  17.949  1.00  0.00     0.127 S 
ATOM     99  O   UNL     1       5.940  13.214  19.184  1.00  0.00    -0.237 OA
ATOM    100  O   UNL     1       8.026  13.982  18.123  1.00  0.00    -0.237 OA
ATOM    101  O   UNL     1       5.864  14.453  17.055  1.00  0.00    -0.744 OA
ENDBRANCH  95  98
ENDBRANCH  68  91
ENDBRANCH  42  43
ENDBRANCH  34  37
ENDBRANCH  32  33
ENDBRANCH  31  32
ENDBRANCH   1  31
TORSDOF 19
