REMARK SMILES CC(C)OC(=O)c1c(NC(=O)[C@H]2[C@@H](C(=O)NCCCCNC(=O)c3ccc(-c4c5nc(c(-c6cccc(S(=O)(=O)[O-])c6F)c6ccc([nH]6)c(-c6cccc(S(=O)(=O)[O-])c6F)c6nc(c(-c7cccc(S(=O)(=O)[O-])c7F)c7ccc4[nH]7)C=C6)C=C5)cc3)[C@@H]3C=C[C@H]2CC3)sc2c1CCC2
REMARK SMILES IDX 17 1 16 2 14 3 15 4 13 6 12 7 90 8 87 9 89 10 91 11 88 12
REMARK SMILES IDX 92 13 10 14 9 15 11 17 8 18 7 19 95 20 93 21 94 22 96 23
REMARK SMILES IDX 98 24 97 25 5 26 6 27 4 28 2 29 1 30 3 31 18 32 19 33 20 34
REMARK SMILES IDX 21 35 22 36 23 38 24 39 25 40 86 41 26 42 85 43 27 44 28 45
REMARK SMILES IDX 29 46 79 47 30 48 84 49 78 50 80 51 31 52 83 53 77 54 76 55
REMARK SMILES IDX 32 57 64 58 44 59 63 60 45 61 48 62 62 63 81 64 46 65 47 66
REMARK SMILES IDX 61 68 82 69 49 70 33 71 34 72 42 73 35 74 37 75 43 76 36 77
REMARK SMILES IDX 38 78 39 79 40 80 41 81 65 82 66 83 74 84 67 85 69 86 75 87
REMARK SMILES IDX 68 88 70 89 71 90 72 91 73 92 50 93 51 94 59 95 52 96 54 97
REMARK SMILES IDX 60 98 53 99 55 100 56 101 57 102 58 103
REMARK H PARENT 16 5 9 16 21 37 80 56 48 67
REMARK Flexibility Score: inf
ROOT
ATOM      1  C   UNL     1      -8.282   1.590  -1.262  1.00  0.00     0.116 C 
ENDROOT
BRANCH   1   2
ATOM      2  N   UNL     1      -7.663   0.797  -2.308  1.00  0.00    -0.356 N 
ATOM      3  C   UNL     1      -6.663  -0.119  -2.324  1.00  0.00     0.224 C 
ATOM      4  O   UNL     1      -5.979  -0.141  -3.358  1.00  0.00    -0.275 OA
ATOM      5  H   UNL     1      -8.053   0.959  -3.197  1.00  0.00     0.163 HD
BRANCH   3   6
ATOM      6  C   UNL     1      -6.258  -1.031  -1.160  1.00  0.00     0.098 C 
ATOM      7  C   UNL     1      -6.185  -2.583  -1.488  1.00  0.00     0.099 C 
ATOM      8  C   UNL     1      -6.907  -3.372  -0.342  1.00  0.00     0.025 C 
ATOM      9  C   UNL     1      -6.890  -0.858   0.242  1.00  0.00     0.025 C 
ATOM     10  C   UNL     1      -6.153  -3.047   0.933  1.00  0.00    -0.027 C 
ATOM     11  C   UNL     1      -8.351  -2.870  -0.175  1.00  0.00     0.009 C 
ATOM     12  C   UNL     1      -6.122  -1.738   1.223  1.00  0.00    -0.027 C 
ATOM     13  C   UNL     1      -8.342  -1.389   0.225  1.00  0.00     0.009 C 
BRANCH   7  14
ATOM     14  C   UNL     1      -6.625  -3.132  -2.848  1.00  0.00     0.229 C 
ATOM     15  N   UNL     1      -6.306  -4.412  -3.257  1.00  0.00    -0.317 N 
ATOM     16  H   UNL     1      -6.545  -4.613  -4.191  1.00  0.00     0.170 HD
ATOM     17  O   UNL     1      -7.359  -2.476  -3.589  1.00  0.00    -0.274 OA
BRANCH  15  18
ATOM     18  C   UNL     1      -5.705  -5.464  -2.577  1.00  0.00     0.110 A 
ATOM     19  C   UNL     1      -5.956  -6.832  -2.741  1.00  0.00     0.098 A 
ATOM     20  C   UNL     1      -5.538  -7.507  -1.551  1.00  0.00    -0.017 A 
ATOM     21  S   UNL     1      -4.464  -5.219  -1.412  1.00  0.00    -0.122 S 
ATOM     22  C   UNL     1      -4.830  -6.686  -0.719  1.00  0.00     0.011 A 
ATOM     23  C   UNL     1      -5.663  -8.859  -0.950  1.00  0.00     0.038 C 
ATOM     24  C   UNL     1      -4.478  -7.260   0.592  1.00  0.00     0.047 C 
ATOM     25  C   UNL     1      -5.264  -8.604   0.545  1.00  0.00     0.010 C 
BRANCH  19  26
ATOM     26  C   UNL     1      -6.638  -7.373  -3.908  1.00  0.00     0.341 C 
ATOM     27  O   UNL     1      -6.521  -6.847  -5.013  1.00  0.00    -0.246 OA
BRANCH  26  28
ATOM     28  O   UNL     1      -7.309  -8.529  -3.659  1.00  0.00    -0.459 OA
BRANCH  28  29
ATOM     29  C   UNL     1      -7.956  -9.215  -4.757  1.00  0.00     0.170 C 
ATOM     30  C   UNL     1      -8.965  -8.368  -5.527  1.00  0.00     0.052 C 
ATOM     31  C   UNL     1      -6.917  -9.869  -5.663  1.00  0.00     0.052 C 
ENDBRANCH  28  29
ENDBRANCH  26  28
ENDBRANCH  19  26
ENDBRANCH  15  18
ENDBRANCH   7  14
ENDBRANCH   3   6
ENDBRANCH   1   2
BRANCH   1  32
ATOM     32  C   UNL     1      -7.669   2.989  -1.175  1.00  0.00     0.023 C 
BRANCH  32  33
ATOM     33  C   UNL     1      -8.225   3.998  -2.185  1.00  0.00     0.023 C 
BRANCH  33  34
ATOM     34  C   UNL     1      -9.712   4.301  -2.023  1.00  0.00     0.116 C 
BRANCH  34  35
ATOM     35  N   UNL     1     -10.044   4.834  -0.699  1.00  0.00    -0.352 N 
ATOM     36  C   UNL     1     -11.298   5.009  -0.149  1.00  0.00     0.251 C 
ATOM     37  H   UNL     1      -9.282   5.099  -0.135  1.00  0.00     0.163 HD
ATOM     38  O   UNL     1     -11.480   5.785   0.782  1.00  0.00    -0.269 OA
BRANCH  36  39
ATOM     39  C   UNL     1     -12.415   4.224  -0.697  1.00  0.00     0.039 A 
ATOM     40  C   UNL     1     -13.636   4.821  -1.019  1.00  0.00     0.014 A 
ATOM     41  C   UNL     1     -12.187   2.871  -0.938  1.00  0.00     0.014 A 
ATOM     42  C   UNL     1     -14.601   4.057  -1.669  1.00  0.00     0.010 A 
ATOM     43  C   UNL     1     -13.079   2.162  -1.700  1.00  0.00     0.010 A 
ATOM     44  C   UNL     1     -14.307   2.731  -2.026  1.00  0.00    -0.014 A 
BRANCH  44  45
ATOM     45  C   UNL     1     -15.229   1.966  -2.857  1.00  0.00     0.031 A 
ATOM     46  C   UNL     1     -15.574   2.605  -4.159  1.00  0.00     0.074 A 
ATOM     47  C   UNL     1     -15.553   0.682  -2.587  1.00  0.00     0.049 A 
ATOM     48  N   UNL     1     -16.731   3.032  -4.548  1.00  0.00    -0.248 NA
ATOM     49  C   UNL     1     -14.479   2.928  -5.089  1.00  0.00     0.031 C 
ATOM     50  C   UNL     1     -15.016  -0.182  -1.528  1.00  0.00     0.029 A 
ATOM     51  N   UNL     1     -16.313  -0.179  -3.316  1.00  0.00    -0.354 N 
ATOM     52  C   UNL     1     -16.554   3.450  -5.866  1.00  0.00     0.074 A 
ATOM     53  C   UNL     1     -15.133   3.558  -6.067  1.00  0.00     0.031 C 
ATOM     54  C   UNL     1     -15.236  -1.475  -1.851  1.00  0.00     0.029 A 
ATOM     55  C   UNL     1     -16.073  -1.521  -3.033  1.00  0.00     0.049 A 
ATOM     56  H   UNL     1     -16.973   0.119  -3.983  1.00  0.00     0.167 HD
ATOM     57  C   UNL     1     -17.577   3.419  -6.766  1.00  0.00     0.034 A 
ATOM     58  C   UNL     1     -16.482  -2.588  -3.764  1.00  0.00     0.034 A 
ATOM     59  C   UNL     1     -18.854   3.282  -6.113  1.00  0.00     0.049 A 
ATOM     60  C   UNL     1     -17.612  -2.128  -4.604  1.00  0.00     0.074 A 
ATOM     61  C   UNL     1     -19.523   3.982  -5.128  1.00  0.00     0.029 A 
ATOM     62  N   UNL     1     -19.461   2.049  -6.167  1.00  0.00    -0.354 N 
ATOM     63  N   UNL     1     -18.760  -1.746  -4.119  1.00  0.00    -0.248 NA
ATOM     64  C   UNL     1     -17.311  -1.667  -5.949  1.00  0.00     0.031 C 
ATOM     65  C   UNL     1     -20.111   2.975  -4.306  1.00  0.00     0.029 A 
ATOM     66  C   UNL     1     -19.839   1.735  -4.888  1.00  0.00     0.049 A 
ATOM     67  H   UNL     1     -19.598   1.498  -6.971  1.00  0.00     0.167 HD
ATOM     68  C   UNL     1     -19.100  -0.637  -4.882  1.00  0.00     0.074 A 
ATOM     69  C   UNL     1     -18.229  -0.703  -6.056  1.00  0.00     0.031 C 
ATOM     70  C   UNL     1     -19.834   0.390  -4.358  1.00  0.00     0.034 A 
BRANCH  57  71
ATOM     71  C   UNL     1     -17.414   3.148  -8.244  1.00  0.00     0.023 A 
ATOM     72  C   UNL     1     -18.543   3.334  -9.073  1.00  0.00     0.012 A 
ATOM     73  C   UNL     1     -16.309   2.474  -8.814  1.00  0.00     0.148 A 
ATOM     74  C   UNL     1     -18.584   2.840 -10.383  1.00  0.00     0.002 A 
ATOM     75  C   UNL     1     -16.319   2.068 -10.143  1.00  0.00     0.091 A 
ATOM     76  F   UNL     1     -15.290   2.088  -8.042  1.00  0.00    -0.205 F 
ATOM     77  C   UNL     1     -17.466   2.218 -10.924  1.00  0.00     0.022 A 
BRANCH  75  78
ATOM     78  S   UNL     1     -14.872   1.324 -10.904  1.00  0.00     0.127 S 
ATOM     79  O   UNL     1     -15.262  -0.082 -10.960  1.00  0.00    -0.237 OA
ATOM     80  O   UNL     1     -14.827   2.009 -12.196  1.00  0.00    -0.237 OA
ATOM     81  O   UNL     1     -13.761   1.652 -10.019  1.00  0.00    -0.744 OA
ENDBRANCH  75  78
ENDBRANCH  57  71
BRANCH  58  82
ATOM     82  C   UNL     1     -15.816  -3.893  -3.990  1.00  0.00     0.023 A 
ATOM     83  C   UNL     1     -16.563  -4.972  -4.504  1.00  0.00     0.012 A 
ATOM     84  C   UNL     1     -14.407  -4.008  -3.975  1.00  0.00     0.148 A 
ATOM     85  C   UNL     1     -15.930  -6.106  -5.028  1.00  0.00     0.002 A 
ATOM     86  C   UNL     1     -13.784  -5.144  -4.482  1.00  0.00     0.091 A 
ATOM     87  F   UNL     1     -13.676  -2.969  -3.550  1.00  0.00    -0.205 F 
ATOM     88  C   UNL     1     -14.541  -6.188  -5.027  1.00  0.00     0.022 A 
BRANCH  86  89
ATOM     89  S   UNL     1     -11.996  -5.327  -4.505  1.00  0.00     0.127 S 
ATOM     90  O   UNL     1     -11.825  -6.674  -3.959  1.00  0.00    -0.237 OA
ATOM     91  O   UNL     1     -11.697  -5.202  -5.929  1.00  0.00    -0.237 OA
ATOM     92  O   UNL     1     -11.479  -4.269  -3.646  1.00  0.00    -0.744 OA
ENDBRANCH  86  89
ENDBRANCH  58  82
BRANCH  70  93
ATOM     93  C   UNL     1     -20.468   0.207  -2.999  1.00  0.00     0.023 A 
ATOM     94  C   UNL     1     -19.710  -0.032  -1.833  1.00  0.00     0.012 A 
ATOM     95  C   UNL     1     -21.842   0.469  -2.868  1.00  0.00     0.148 A 
ATOM     96  C   UNL     1     -20.312  -0.031  -0.570  1.00  0.00     0.002 A 
ATOM     97  C   UNL     1     -22.428   0.516  -1.609  1.00  0.00     0.091 A 
ATOM     98  F   UNL     1     -22.552   0.698  -3.983  1.00  0.00    -0.205 F 
ATOM     99  C   UNL     1     -21.669   0.257  -0.457  1.00  0.00     0.022 A 
BRANCH  97 100
ATOM    100  S   UNL     1     -24.141   1.006  -1.393  1.00  0.00     0.127 S 
ATOM    101  O   UNL     1     -24.793  -0.274  -1.127  1.00  0.00    -0.237 OA
ATOM    102  O   UNL     1     -24.070   1.907  -0.242  1.00  0.00    -0.237 OA
ATOM    103  O   UNL     1     -24.527   1.663  -2.636  1.00  0.00    -0.744 OA
ENDBRANCH  97 100
ENDBRANCH  70  93
ENDBRANCH  44  45
ENDBRANCH  36  39
ENDBRANCH  34  35
ENDBRANCH  33  34
ENDBRANCH  32  33
ENDBRANCH   1  32
TORSDOF 19
