REMARK SMILES CN1C(=O)/C(=C\c2ccc(-c3ccccc3C(=O)NCCCCNC(=O)c3ccc(-c4c5nc(c(-c6cccc(S(=O)(=O)[O-])c6F)c6ccc([nH]6)c(-c6cccc(S(=O)(=O)[O-])c6F)c6nc(c(-c7cccc(S(=O)(=O)[O-])c7F)c7ccc4[nH]7)C=C6)C=C5)cc3)o2)C(=O)[NH+]=C1S
REMARK SMILES IDX 21 1 20 2 19 3 17 4 18 5 16 7 11 8 12 9 13 10 15 11 14 12
REMARK SMILES IDX 10 13 7 14 8 15 90 16 9 17 6 18 1 19 2 20 3 21 94 22 4 23
REMARK SMILES IDX 5 24 93 25 91 26 92 28 95 29 22 31 23 32 24 33 25 34 26 36
REMARK SMILES IDX 27 37 28 38 89 39 29 40 88 41 30 42 31 43 32 44 82 45 33 46
REMARK SMILES IDX 87 47 81 48 83 49 34 50 86 51 80 52 79 53 35 55 67 56 47 57
REMARK SMILES IDX 66 58 48 59 51 60 65 61 84 62 49 63 50 64 64 66 85 67 52 68
REMARK SMILES IDX 36 69 37 70 45 71 38 72 40 73 46 74 39 75 41 76 42 77 43 78
REMARK SMILES IDX 44 79 68 80 69 81 77 82 70 83 72 84 78 85 71 86 73 87 74 88
REMARK SMILES IDX 75 89 76 90 53 91 54 92 62 93 55 94 57 95 63 96 56 97 58 98
REMARK SMILES IDX 59 99 60 100 61 101
REMARK H PARENT 19 6 93 27 95 30 24 35 83 54 51 65
REMARK Flexibility Score: inf
ROOT
ATOM      1  C   UNL     1       1.953  -6.984   2.949  1.00  0.00     0.023 C 
ENDROOT
BRANCH   1   2
ATOM      2  C   UNL     1       3.024  -5.957   3.279  1.00  0.00     0.116 C 
BRANCH   2   3
ATOM      3  N   UNL     1       3.772  -6.100   4.500  1.00  0.00    -0.352 N 
ATOM      4  C   UNL     1       5.040  -5.649   4.811  1.00  0.00     0.252 C 
ATOM      5  O   UNL     1       5.390  -5.766   5.990  1.00  0.00    -0.269 OA
ATOM      6  H   UNL     1       3.312  -6.591   5.219  1.00  0.00     0.163 HD
BRANCH   4   7
ATOM      7  C   UNL     1       6.064  -5.122   3.835  1.00  0.00     0.050 A 
ATOM      8  C   UNL     1       5.891  -4.262   2.731  1.00  0.00     0.030 A 
ATOM      9  C   UNL     1       7.013  -3.896   1.948  1.00  0.00     0.013 A 
ATOM     10  C   UNL     1       8.300  -4.312   2.272  1.00  0.00     0.001 A 
ATOM     11  C   UNL     1       7.389  -5.516   4.147  1.00  0.00     0.014 A 
ATOM     12  C   UNL     1       8.491  -5.113   3.386  1.00  0.00     0.001 A 
BRANCH   8  13
ATOM     13  C   UNL     1       4.646  -3.639   2.339  1.00  0.00     0.135 A 
ATOM     14  C   UNL     1       2.918  -3.463   0.948  1.00  0.00     0.128 A 
ATOM     15  C   UNL     1       2.708  -2.602   2.025  1.00  0.00     0.051 A 
ATOM     16  O   UNL     1       4.136  -4.069   1.148  1.00  0.00    -0.457 OA
ATOM     17  C   UNL     1       3.821  -2.693   2.894  1.00  0.00     0.051 A 
BRANCH  14  18
ATOM     18  C   UNL     1       2.058  -3.811  -0.133  1.00  0.00     0.071 C 
ATOM     19  C   UNL     1       0.322   0.628  -0.438  1.00  0.00     0.301 C 
ATOM     20  N   UNL     1       0.329  -0.738  -0.949  1.00  0.00    -0.189 N 
ATOM     21  C   UNL     1       1.456  -1.468  -0.658  1.00  0.00     0.349 C 
ATOM     22  C   UNL     1      -0.638  -1.304  -1.743  1.00  0.00     0.318 C 
ATOM     23  O   UNL     1       2.529  -0.950  -0.353  1.00  0.00    -0.240 OA
ATOM     24  C   UNL     1       1.311  -2.923  -0.815  1.00  0.00     0.157 C 
ATOM     25  N   UNL     1      -0.651  -2.516  -2.165  1.00  0.00    -0.200 N 
ATOM     26  C   UNL     1       0.274  -3.431  -1.740  1.00  0.00     0.347 C 
ATOM     27  H   UNL     1      -1.343  -2.794  -2.809  1.00  0.00     0.316 HD
ATOM     28  O   UNL     1       0.256  -4.599  -2.096  1.00  0.00    -0.241 OA
BRANCH  22  29
ATOM     29  S   UNL     1      -1.951  -0.297  -2.307  1.00  0.00    -0.055 SA
ATOM     30  H   UNL     1      -1.817   0.954  -1.789  1.00  0.00     0.116 HD
ENDBRANCH  22  29
ENDBRANCH  14  18
ENDBRANCH   8  13
ENDBRANCH   4   7
ENDBRANCH   2   3
ENDBRANCH   1   2
BRANCH   1  31
ATOM     31  C   UNL     1       0.607  -6.886   3.666  1.00  0.00     0.023 C 
BRANCH  31  32
ATOM     32  C   UNL     1      -0.054  -5.517   3.824  1.00  0.00     0.116 C 
BRANCH  32  33
ATOM     33  N   UNL     1      -0.250  -4.748   2.599  1.00  0.00    -0.352 N 
ATOM     34  C   UNL     1      -1.347  -4.009   2.197  1.00  0.00     0.251 C 
ATOM     35  H   UNL     1       0.506  -4.756   1.970  1.00  0.00     0.163 HD
ATOM     36  O   UNL     1      -1.286  -3.307   1.189  1.00  0.00    -0.269 OA
BRANCH  34  37
ATOM     37  C   UNL     1      -2.610  -4.112   2.969  1.00  0.00     0.039 A 
ATOM     38  C   UNL     1      -3.768  -4.563   2.329  1.00  0.00     0.014 A 
ATOM     39  C   UNL     1      -2.612  -3.892   4.347  1.00  0.00     0.014 A 
ATOM     40  C   UNL     1      -4.887  -4.920   3.093  1.00  0.00     0.010 A 
ATOM     41  C   UNL     1      -3.691  -4.334   5.109  1.00  0.00     0.010 A 
ATOM     42  C   UNL     1      -4.832  -4.877   4.496  1.00  0.00    -0.014 A 
BRANCH  42  43
ATOM     43  C   UNL     1      -5.918  -5.448   5.346  1.00  0.00     0.031 A 
ATOM     44  C   UNL     1      -6.633  -4.583   6.352  1.00  0.00     0.074 A 
ATOM     45  C   UNL     1      -6.174  -6.774   5.309  1.00  0.00     0.049 A 
ATOM     46  N   UNL     1      -7.526  -4.922   7.246  1.00  0.00    -0.248 NA
ATOM     47  C   UNL     1      -6.270  -3.157   6.380  1.00  0.00     0.031 C 
ATOM     48  C   UNL     1      -5.488  -7.747   4.454  1.00  0.00     0.029 A 
ATOM     49  N   UNL     1      -7.058  -7.540   6.032  1.00  0.00    -0.354 N 
ATOM     50  C   UNL     1      -7.798  -3.766   7.969  1.00  0.00     0.074 A 
ATOM     51  C   UNL     1      -6.948  -2.725   7.434  1.00  0.00     0.031 C 
ATOM     52  C   UNL     1      -5.979  -8.973   4.696  1.00  0.00     0.029 A 
ATOM     53  C   UNL     1      -6.992  -8.886   5.743  1.00  0.00     0.049 A 
ATOM     54  H   UNL     1      -7.680  -7.163   6.694  1.00  0.00     0.167 HD
ATOM     55  C   UNL     1      -8.696  -3.575   8.965  1.00  0.00     0.034 A 
ATOM     56  C   UNL     1      -7.664  -9.933   6.264  1.00  0.00     0.034 A 
ATOM     57  C   UNL     1      -9.581  -4.594   9.461  1.00  0.00     0.049 A 
ATOM     58  C   UNL     1      -8.700  -9.683   7.329  1.00  0.00     0.074 A 
ATOM     59  C   UNL     1     -10.592  -4.474  10.398  1.00  0.00     0.029 A 
ATOM     60  N   UNL     1      -9.559  -5.922   9.065  1.00  0.00    -0.354 N 
ATOM     61  N   UNL     1      -9.060  -8.549   7.879  1.00  0.00    -0.248 NA
ATOM     62  C   UNL     1      -9.449 -10.851   7.818  1.00  0.00     0.031 C 
ATOM     63  C   UNL     1     -11.171  -5.734  10.581  1.00  0.00     0.029 A 
ATOM     64  C   UNL     1     -10.536  -6.633   9.740  1.00  0.00     0.049 A 
ATOM     65  H   UNL     1      -8.941  -6.303   8.400  1.00  0.00     0.167 HD
ATOM     66  C   UNL     1     -10.099  -8.860   8.749  1.00  0.00     0.074 A 
ATOM     67  C   UNL     1     -10.326 -10.286   8.636  1.00  0.00     0.031 C 
ATOM     68  C   UNL     1     -10.793  -8.041   9.577  1.00  0.00     0.034 A 
BRANCH  55  69
ATOM     69  C   UNL     1      -8.812  -2.188   9.544  1.00  0.00     0.023 A 
ATOM     70  C   UNL     1      -9.386  -1.159   8.768  1.00  0.00     0.012 A 
ATOM     71  C   UNL     1      -8.407  -1.913  10.864  1.00  0.00     0.148 A 
ATOM     72  C   UNL     1      -9.518   0.130   9.281  1.00  0.00     0.002 A 
ATOM     73  C   UNL     1      -8.584  -0.635  11.385  1.00  0.00     0.091 A 
ATOM     74  F   UNL     1      -7.847  -2.897  11.581  1.00  0.00    -0.205 F 
ATOM     75  C   UNL     1      -9.126   0.389  10.591  1.00  0.00     0.022 A 
BRANCH  73  76
ATOM     76  S   UNL     1      -8.186  -0.217  13.086  1.00  0.00     0.127 S 
ATOM     77  O   UNL     1      -7.010   0.635  12.912  1.00  0.00    -0.237 OA
ATOM     78  O   UNL     1      -9.392   0.490  13.519  1.00  0.00    -0.237 OA
ATOM     79  O   UNL     1      -7.946  -1.482  13.765  1.00  0.00    -0.744 OA
ENDBRANCH  73  76
ENDBRANCH  55  69
BRANCH  56  80
ATOM     80  C   UNL     1      -7.435 -11.310   5.735  1.00  0.00     0.023 A 
ATOM     81  C   UNL     1      -8.446 -11.933   4.976  1.00  0.00     0.012 A 
ATOM     82  C   UNL     1      -6.228 -11.997   5.962  1.00  0.00     0.148 A 
ATOM     83  C   UNL     1      -8.273 -13.226   4.482  1.00  0.00     0.002 A 
ATOM     84  C   UNL     1      -6.040 -13.265   5.420  1.00  0.00     0.091 A 
ATOM     85  F   UNL     1      -5.282 -11.395   6.697  1.00  0.00    -0.205 F 
ATOM     86  C   UNL     1      -7.067 -13.888   4.695  1.00  0.00     0.022 A 
BRANCH  84  87
ATOM     87  S   UNL     1      -4.474 -14.139   5.534  1.00  0.00     0.127 S 
ATOM     88  O   UNL     1      -4.794 -15.204   6.481  1.00  0.00    -0.237 OA
ATOM     89  O   UNL     1      -4.273 -14.581   4.154  1.00  0.00    -0.237 OA
ATOM     90  O   UNL     1      -3.507 -13.150   5.993  1.00  0.00    -0.744 OA
ENDBRANCH  84  87
ENDBRANCH  56  80
BRANCH  68  91
ATOM     91  C   UNL     1     -11.896  -8.648  10.404  1.00  0.00     0.023 A 
ATOM     92  C   UNL     1     -11.579  -9.470  11.503  1.00  0.00     0.012 A 
ATOM     93  C   UNL     1     -13.245  -8.335  10.140  1.00  0.00     0.148 A 
ATOM     94  C   UNL     1     -12.588  -9.995  12.309  1.00  0.00     0.002 A 
ATOM     95  C   UNL     1     -14.242  -8.822  10.977  1.00  0.00     0.091 A 
ATOM     96  F   UNL     1     -13.527  -7.567   9.078  1.00  0.00    -0.205 F 
ATOM     97  C   UNL     1     -13.916  -9.661  12.055  1.00  0.00     0.022 A 
BRANCH  95  98
ATOM     98  S   UNL     1     -15.968  -8.364  10.784  1.00  0.00     0.127 S 
ATOM     99  O   UNL     1     -16.547  -9.598  10.257  1.00  0.00    -0.237 OA
ATOM    100  O   UNL     1     -16.360  -8.043  12.157  1.00  0.00    -0.237 OA
ATOM    101  O   UNL     1     -15.982  -7.227   9.872  1.00  0.00    -0.744 OA
ENDBRANCH  95  98
ENDBRANCH  68  91
ENDBRANCH  42  43
ENDBRANCH  34  37
ENDBRANCH  32  33
ENDBRANCH  31  32
ENDBRANCH   1  31
TORSDOF 17
