REMARK SMILES O=C(NCCCCNC(=O)c1cc(SCC(=O)N2CCOCC2)ccn1)c1ccc(-c2c3nc(c(-c4cccc(S(=O)(=O)[O-])c4F)c4ccc([nH]4)c(-c4cccc(S(=O)(=O)[O-])c4F)c4nc(c(-c5cccc(S(=O)(=O)[O-])c5F)c5ccc2[nH]5)C=C4)C=C3)cc1
REMARK SMILES IDX 5 1 4 2 3 3 1 4 2 5 27 7 28 8 89 9 29 10 88 11 30 12 31 13
REMARK SMILES IDX 32 14 82 15 33 16 87 17 81 18 83 19 34 20 86 21 80 22 79 23
REMARK SMILES IDX 35 25 67 26 47 27 66 28 48 29 51 30 65 31 84 32 49 33 50 34
REMARK SMILES IDX 64 36 85 37 52 38 36 39 37 40 45 41 38 42 40 43 46 44 39 45
REMARK SMILES IDX 41 46 42 47 43 48 44 49 68 50 69 51 77 52 70 53 72 54 78 55
REMARK SMILES IDX 71 56 73 57 74 58 75 59 76 60 53 61 54 62 62 63 55 64 57 65
REMARK SMILES IDX 63 66 56 67 58 68 59 69 60 70 61 71 6 72 7 73 8 74 9 75
REMARK SMILES IDX 10 77 11 78 12 79 26 80 13 81 25 82 24 83 14 84 15 85 16 86
REMARK SMILES IDX 17 87 18 88 19 89 23 90 20 91 22 92 21 93
REMARK H PARENT 3 6 83 24 51 35 8 76
REMARK Flexibility Score: inf
ROOT
ATOM      1  C   UNL     1       4.968  -2.640  -0.139  1.00  0.00     0.023 C 
ENDROOT
BRANCH   1   2
ATOM      2  C   UNL     1       4.675  -1.186  -0.491  1.00  0.00     0.116 C 
BRANCH   2   3
ATOM      3  N   UNL     1       3.260  -0.914  -0.703  1.00  0.00    -0.352 N 
ATOM      4  O   UNL     1       1.261   0.077  -0.385  1.00  0.00    -0.269 OA
ATOM      5  C   UNL     1       2.465   0.062  -0.147  1.00  0.00     0.251 C 
ATOM      6  H   UNL     1       2.807  -1.516  -1.336  1.00  0.00     0.163 HD
BRANCH   5   7
ATOM      7  C   UNL     1       3.071   1.060   0.765  1.00  0.00     0.039 A 
ATOM      8  C   UNL     1       4.255   1.710   0.411  1.00  0.00     0.014 A 
ATOM      9  C   UNL     1       2.482   1.304   2.008  1.00  0.00     0.014 A 
ATOM     10  C   UNL     1       4.945   2.448   1.367  1.00  0.00     0.010 A 
ATOM     11  C   UNL     1       3.137   2.121   2.937  1.00  0.00     0.010 A 
ATOM     12  C   UNL     1       4.404   2.651   2.647  1.00  0.00    -0.014 A 
BRANCH  12  13
ATOM     13  C   UNL     1       5.188   3.421   3.650  1.00  0.00     0.031 A 
ATOM     14  C   UNL     1       5.694   2.775   4.915  1.00  0.00     0.074 A 
ATOM     15  C   UNL     1       5.490   4.709   3.392  1.00  0.00     0.049 A 
ATOM     16  N   UNL     1       6.478   3.277   5.836  1.00  0.00    -0.248 NA
ATOM     17  C   UNL     1       5.263   1.395   5.190  1.00  0.00     0.031 C 
ATOM     18  C   UNL     1       5.021   5.465   2.229  1.00  0.00     0.029 A 
ATOM     19  N   UNL     1       6.275   5.604   4.075  1.00  0.00    -0.354 N 
ATOM     20  C   UNL     1       6.596   2.299   6.817  1.00  0.00     0.074 A 
ATOM     21  C   UNL     1       5.800   1.172   6.383  1.00  0.00     0.031 C 
ATOM     22  C   UNL     1       5.565   6.690   2.252  1.00  0.00     0.029 A 
ATOM     23  C   UNL     1       6.393   6.822   3.447  1.00  0.00     0.049 A 
ATOM     24  H   UNL     1       6.712   5.394   4.932  1.00  0.00     0.167 HD
ATOM     25  C   UNL     1       7.320   2.326   7.962  1.00  0.00     0.034 A 
ATOM     26  C   UNL     1       7.098   7.919   3.784  1.00  0.00     0.034 A 
ATOM     27  C   UNL     1       8.167   3.418   8.362  1.00  0.00     0.049 A 
ATOM     28  C   UNL     1       7.951   7.891   5.020  1.00  0.00     0.074 A 
ATOM     29  C   UNL     1       8.994   3.504   9.469  1.00  0.00     0.029 A 
ATOM     30  N   UNL     1       8.304   4.610   7.669  1.00  0.00    -0.354 N 
ATOM     31  N   UNL     1       8.155   6.904   5.857  1.00  0.00    -0.248 NA
ATOM     32  C   UNL     1       8.694   9.118   5.341  1.00  0.00     0.031 C 
ATOM     33  C   UNL     1       9.630   4.751   9.445  1.00  0.00     0.029 A 
ATOM     34  C   UNL     1       9.200   5.439   8.322  1.00  0.00     0.049 A 
ATOM     35  H   UNL     1       7.832   4.835   6.834  1.00  0.00     0.167 HD
ATOM     36  C   UNL     1       9.067   7.381   6.791  1.00  0.00     0.074 A 
ATOM     37  C   UNL     1       9.397   8.737   6.399  1.00  0.00     0.031 C 
ATOM     38  C   UNL     1       9.566   6.762   7.888  1.00  0.00     0.034 A 
BRANCH  25  39
ATOM     39  C   UNL     1       7.279   1.109   8.848  1.00  0.00     0.023 A 
ATOM     40  C   UNL     1       8.026  -0.031   8.490  1.00  0.00     0.012 A 
ATOM     41  C   UNL     1       6.569   1.116  10.065  1.00  0.00     0.148 A 
ATOM     42  C   UNL     1       8.051  -1.153   9.319  1.00  0.00     0.002 A 
ATOM     43  C   UNL     1       6.626   0.006  10.902  1.00  0.00     0.091 A 
ATOM     44  F   UNL     1       5.843   2.199  10.377  1.00  0.00    -0.205 F 
ATOM     45  C   UNL     1       7.361  -1.131  10.528  1.00  0.00     0.022 A 
BRANCH  43  46
ATOM     46  S   UNL     1       5.821  -0.021  12.509  1.00  0.00     0.127 S 
ATOM     47  O   UNL     1       4.599  -0.768  12.216  1.00  0.00    -0.237 OA
ATOM     48  O   UNL     1       6.791  -0.740  13.336  1.00  0.00    -0.237 OA
ATOM     49  O   UNL     1       5.638   1.376  12.878  1.00  0.00    -0.744 OA
ENDBRANCH  43  46
ENDBRANCH  25  39
BRANCH  26  50
ATOM     50  C   UNL     1       7.092   9.100   2.877  1.00  0.00     0.023 A 
ATOM     51  C   UNL     1       8.250   9.404   2.135  1.00  0.00     0.012 A 
ATOM     52  C   UNL     1       5.936   9.881   2.694  1.00  0.00     0.148 A 
ATOM     53  C   UNL     1       8.261  10.474   1.240  1.00  0.00     0.002 A 
ATOM     54  C   UNL     1       5.936  10.910   1.759  1.00  0.00     0.091 A 
ATOM     55  F   UNL     1       4.849   9.594   3.425  1.00  0.00    -0.205 F 
ATOM     56  C   UNL     1       7.101  11.217   1.041  1.00  0.00     0.022 A 
BRANCH  54  57
ATOM     57  S   UNL     1       4.434  11.805   1.346  1.00  0.00     0.127 S 
ATOM     58  O   UNL     1       4.571  13.013   2.155  1.00  0.00    -0.237 OA
ATOM     59  O   UNL     1       4.578  12.010  -0.096  1.00  0.00    -0.237 OA
ATOM     60  O   UNL     1       3.346  10.906   1.710  1.00  0.00    -0.744 OA
ENDBRANCH  54  57
ENDBRANCH  26  50
BRANCH  38  61
ATOM     61  C   UNL     1      10.533   7.536   8.742  1.00  0.00     0.023 A 
ATOM     62  C   UNL     1      10.046   8.547   9.593  1.00  0.00     0.012 A 
ATOM     63  C   UNL     1      11.906   7.225   8.752  1.00  0.00     0.148 A 
ATOM     64  C   UNL     1      10.914   9.256  10.422  1.00  0.00     0.002 A 
ATOM     65  C   UNL     1      12.761   7.911   9.609  1.00  0.00     0.091 A 
ATOM     66  F   UNL     1      12.358   6.277   7.917  1.00  0.00    -0.205 F 
ATOM     67  C   UNL     1      12.269   8.931  10.438  1.00  0.00     0.022 A 
BRANCH  65  68
ATOM     68  S   UNL     1      14.502   7.485   9.739  1.00  0.00     0.127 S 
ATOM     69  O   UNL     1      15.113   8.430   8.807  1.00  0.00    -0.237 OA
ATOM     70  O   UNL     1      14.792   7.747  11.149  1.00  0.00    -0.237 OA
ATOM     71  O   UNL     1      14.583   6.078   9.365  1.00  0.00    -0.744 OA
ENDBRANCH  65  68
ENDBRANCH  38  61
ENDBRANCH  12  13
ENDBRANCH   5   7
ENDBRANCH   2   3
ENDBRANCH   1   2
BRANCH   1  72
ATOM     72  C   UNL     1       4.508  -3.675  -1.162  1.00  0.00     0.023 C 
BRANCH  72  73
ATOM     73  C   UNL     1       4.929  -3.397  -2.598  1.00  0.00     0.116 C 
BRANCH  73  74
ATOM     74  N   UNL     1       6.369  -3.401  -2.796  1.00  0.00    -0.351 N 
ATOM     75  C   UNL     1       7.088  -4.070  -3.764  1.00  0.00     0.269 C 
ATOM     76  H   UNL     1       6.894  -2.862  -2.162  1.00  0.00     0.163 HD
ATOM     77  O   UNL     1       8.307  -3.938  -3.846  1.00  0.00    -0.268 OA
BRANCH  75  78
ATOM     78  C   UNL     1       6.359  -4.959  -4.705  1.00  0.00     0.129 A 
ATOM     79  C   UNL     1       5.452  -4.408  -5.604  1.00  0.00     0.049 A 
ATOM     80  N   UNL     1       6.547  -6.290  -4.519  1.00  0.00    -0.251 NA
ATOM     81  C   UNL     1       4.622  -5.278  -6.296  1.00  0.00     0.012 A 
ATOM     82  C   UNL     1       5.786  -7.109  -5.261  1.00  0.00     0.113 A 
ATOM     83  C   UNL     1       4.815  -6.656  -6.136  1.00  0.00     0.035 A 
BRANCH  81  84
ATOM     84  S   UNL     1       3.294  -4.807  -7.381  1.00  0.00    -0.116 SA
BRANCH  84  85
ATOM     85  C   UNL     1       2.868  -3.094  -6.971  1.00  0.00     0.175 C 
BRANCH  85  86
ATOM     86  C   UNL     1       2.658  -2.696  -5.519  1.00  0.00     0.233 C 
ATOM     87  O   UNL     1       3.406  -1.838  -5.036  1.00  0.00    -0.274 OA
ATOM     88  N   UNL     1       1.551  -3.129  -4.819  1.00  0.00    -0.337 N 
ATOM     89  C   UNL     1       0.845  -4.399  -4.978  1.00  0.00     0.148 C 
ATOM     90  C   UNL     1       1.035  -2.319  -3.704  1.00  0.00     0.148 C 
ATOM     91  C   UNL     1      -0.666  -4.181  -5.052  1.00  0.00     0.181 C 
ATOM     92  C   UNL     1      -0.484  -2.150  -3.848  1.00  0.00     0.181 C 
ATOM     93  O   UNL     1      -1.140  -3.429  -3.928  1.00  0.00    -0.378 OA
ENDBRANCH  85  86
ENDBRANCH  84  85
ENDBRANCH  81  84
ENDBRANCH  75  78
ENDBRANCH  73  74
ENDBRANCH  72  73
ENDBRANCH   1  72
TORSDOF 17
