REMARK SMILES Cc1ccc(S(=O)(=O)N2c3ccc(C(=O)NCCCCNC(=O)c4ccc(-c5c6nc(c(-c7cccc(S(=O)(=O)[O-])c7F)c7ccc([nH]7)c(-c7cccc(S(=O)(=O)[O-])c7F)c7nc(c(-c8cccc(S(=O)(=O)[O-])c8F)c8ccc5[nH]8)C=C7)C=C6)cc4)cc3C[C@H]2C)cc1
REMARK SMILES IDX 19 1 18 2 17 3 16 4 14 5 15 6 13 8 9 9 10 10 90 11 11 12
REMARK SMILES IDX 88 13 89 14 91 15 12 16 87 17 6 18 7 19 8 20 5 21 1 22 2 23
REMARK SMILES IDX 3 24 93 25 4 26 92 27 20 28 21 29 22 30 23 32 24 33 25 34
REMARK SMILES IDX 86 35 26 36 85 37 27 38 28 39 29 40 79 41 30 42 84 43 78 44
REMARK SMILES IDX 80 45 31 46 83 47 77 48 76 49 32 51 64 52 44 53 63 54 45 55
REMARK SMILES IDX 48 56 62 57 81 58 46 59 47 60 61 62 82 63 49 64 33 65 34 66
REMARK SMILES IDX 42 67 35 68 37 69 43 70 36 71 38 72 39 73 40 74 41 75 65 76
REMARK SMILES IDX 66 77 74 78 67 79 69 80 75 81 68 82 70 83 71 84 72 85 73 86
REMARK SMILES IDX 50 87 51 88 59 89 52 90 54 91 60 92 53 93 55 94 56 95 57 96
REMARK SMILES IDX 58 97
REMARK H PARENT 16 7 21 31 80 50 48 61
REMARK Flexibility Score: inf
ROOT
ATOM      1  C   UNL     1     -11.929   2.424   3.519  1.00  0.00     0.023 C 
ENDROOT
BRANCH   1   2
ATOM      2  C   UNL     1     -10.478   2.010   3.315  1.00  0.00     0.023 C 
BRANCH   2   3
ATOM      3  C   UNL     1     -10.174   1.253   2.024  1.00  0.00     0.116 C 
BRANCH   3   4
ATOM      4  N   UNL     1     -10.457   2.005   0.806  1.00  0.00    -0.352 N 
ATOM      5  C   UNL     1      -9.638   2.409  -0.224  1.00  0.00     0.251 C 
ATOM      6  O   UNL     1     -10.094   3.123  -1.116  1.00  0.00    -0.269 OA
ATOM      7  H   UNL     1     -11.400   2.270   0.703  1.00  0.00     0.163 HD
BRANCH   5   8
ATOM      8  C   UNL     1      -8.193   2.070  -0.237  1.00  0.00     0.040 A 
ATOM      9  N   UNL     1      -4.029   1.646   0.216  1.00  0.00    -0.263 N 
ATOM     10  C   UNL     1      -5.470   1.627   0.057  1.00  0.00     0.055 A 
ATOM     11  C   UNL     1      -3.608   2.999  -0.330  1.00  0.00     0.101 C 
ATOM     12  C   UNL     1      -6.352   0.643   0.460  1.00  0.00     0.028 A 
ATOM     13  C   UNL     1      -5.933   2.773  -0.585  1.00  0.00    -0.021 A 
ATOM     14  C   UNL     1      -4.796   3.557  -1.140  1.00  0.00     0.063 C 
ATOM     15  C   UNL     1      -3.307   3.926   0.857  1.00  0.00     0.032 C 
ATOM     16  C   UNL     1      -7.713   0.837   0.227  1.00  0.00     0.016 A 
ATOM     17  C   UNL     1      -7.290   3.026  -0.721  1.00  0.00     0.019 A 
BRANCH   9  18
ATOM     18  S   UNL     1      -3.301   0.240  -0.455  1.00  0.00     0.264 S 
ATOM     19  O   UNL     1      -3.396   0.343  -1.895  1.00  0.00    -0.201 OA
ATOM     20  O   UNL     1      -3.838  -0.913   0.251  1.00  0.00    -0.201 OA
BRANCH  18  21
ATOM     21  C   UNL     1      -1.558   0.201  -0.086  1.00  0.00     0.088 A 
ATOM     22  C   UNL     1       2.725  -0.165   0.090  1.00  0.00     0.044 C 
ATOM     23  C   UNL     1       1.232  -0.041   0.093  1.00  0.00    -0.051 A 
ATOM     24  C   UNL     1       0.441  -1.177  -0.095  1.00  0.00     0.005 A 
ATOM     25  C   UNL     1       0.609   1.200   0.273  1.00  0.00     0.005 A 
ATOM     26  C   UNL     1      -0.945  -1.057  -0.187  1.00  0.00     0.022 A 
ATOM     27  C   UNL     1      -0.783   1.321   0.196  1.00  0.00     0.022 A 
ENDBRANCH  18  21
ENDBRANCH   9  18
ENDBRANCH   5   8
ENDBRANCH   3   4
ENDBRANCH   2   3
ENDBRANCH   1   2
BRANCH   1  28
ATOM     28  C   UNL     1     -12.912   1.268   3.510  1.00  0.00     0.116 C 
BRANCH  28  29
ATOM     29  N   UNL     1     -12.972   0.524   4.751  1.00  0.00    -0.352 N 
ATOM     30  C   UNL     1     -13.861  -0.464   5.137  1.00  0.00     0.251 C 
ATOM     31  H   UNL     1     -12.282   0.755   5.415  1.00  0.00     0.163 HD
ATOM     32  O   UNL     1     -13.977  -0.692   6.338  1.00  0.00    -0.269 OA
BRANCH  30  33
ATOM     33  C   UNL     1     -14.529  -1.328   4.124  1.00  0.00     0.039 A 
ATOM     34  C   UNL     1     -14.731  -2.679   4.448  1.00  0.00     0.014 A 
ATOM     35  C   UNL     1     -14.722  -0.910   2.813  1.00  0.00     0.014 A 
ATOM     36  C   UNL     1     -14.859  -3.630   3.436  1.00  0.00     0.010 A 
ATOM     37  C   UNL     1     -14.730  -1.843   1.808  1.00  0.00     0.010 A 
ATOM     38  C   UNL     1     -14.738  -3.202   2.123  1.00  0.00    -0.014 A 
BRANCH  38  39
ATOM     39  C   UNL     1     -14.626  -4.055   0.958  1.00  0.00     0.031 A 
ATOM     40  C   UNL     1     -15.834  -4.354   0.173  1.00  0.00     0.074 A 
ATOM     41  C   UNL     1     -13.384  -4.242   0.461  1.00  0.00     0.049 A 
ATOM     42  N   UNL     1     -15.897  -5.252  -0.745  1.00  0.00    -0.248 NA
ATOM     43  C   UNL     1     -17.087  -3.633   0.373  1.00  0.00     0.031 C 
ATOM     44  C   UNL     1     -13.014  -4.589  -0.904  1.00  0.00     0.029 A 
ATOM     45  N   UNL     1     -12.181  -4.320   1.171  1.00  0.00    -0.354 N 
ATOM     46  C   UNL     1     -17.065  -5.032  -1.446  1.00  0.00     0.074 A 
ATOM     47  C   UNL     1     -17.804  -4.069  -0.666  1.00  0.00     0.031 C 
ATOM     48  C   UNL     1     -11.778  -5.113  -0.892  1.00  0.00     0.029 A 
ATOM     49  C   UNL     1     -11.406  -5.282   0.504  1.00  0.00     0.049 A 
ATOM     50  H   UNL     1     -11.930  -3.807   1.973  1.00  0.00     0.167 HD
ATOM     51  C   UNL     1     -17.195  -5.558  -2.696  1.00  0.00     0.034 A 
ATOM     52  C   UNL     1     -11.032  -6.462   1.083  1.00  0.00     0.034 A 
ATOM     53  C   UNL     1     -15.997  -6.327  -3.055  1.00  0.00     0.049 A 
ATOM     54  C   UNL     1     -11.584  -7.673   0.347  1.00  0.00     0.074 A 
ATOM     55  C   UNL     1     -14.854  -6.000  -3.769  1.00  0.00     0.029 A 
ATOM     56  N   UNL     1     -15.713  -7.506  -2.380  1.00  0.00    -0.354 N 
ATOM     57  N   UNL     1     -12.472  -7.603  -0.607  1.00  0.00    -0.248 NA
ATOM     58  C   UNL     1     -11.185  -9.051   0.615  1.00  0.00     0.031 C 
ATOM     59  C   UNL     1     -13.847  -6.947  -3.441  1.00  0.00     0.029 A 
ATOM     60  C   UNL     1     -14.385  -7.864  -2.555  1.00  0.00     0.049 A 
ATOM     61  H   UNL     1     -16.366  -8.018  -1.850  1.00  0.00     0.167 HD
ATOM     62  C   UNL     1     -12.835  -8.858  -1.017  1.00  0.00     0.074 A 
ATOM     63  C   UNL     1     -11.951  -9.730  -0.260  1.00  0.00     0.031 C 
ATOM     64  C   UNL     1     -13.857  -9.062  -1.907  1.00  0.00     0.034 A 
BRANCH  51  65
ATOM     65  C   UNL     1     -18.226  -5.096  -3.709  1.00  0.00     0.023 A 
ATOM     66  C   UNL     1     -17.875  -5.188  -5.075  1.00  0.00     0.012 A 
ATOM     67  C   UNL     1     -19.492  -4.534  -3.430  1.00  0.00     0.148 A 
ATOM     68  C   UNL     1     -18.671  -4.660  -6.096  1.00  0.00     0.002 A 
ATOM     69  C   UNL     1     -20.259  -3.944  -4.443  1.00  0.00     0.091 A 
ATOM     70  F   UNL     1     -20.003  -4.633  -2.197  1.00  0.00    -0.205 F 
ATOM     71  C   UNL     1     -19.847  -4.002  -5.777  1.00  0.00     0.022 A 
BRANCH  69  72
ATOM     72  S   UNL     1     -21.753  -2.995  -4.101  1.00  0.00     0.127 S 
ATOM     73  O   UNL     1     -21.540  -1.782  -4.896  1.00  0.00    -0.237 OA
ATOM     74  O   UNL     1     -22.808  -3.870  -4.606  1.00  0.00    -0.237 OA
ATOM     75  O   UNL     1     -21.757  -2.762  -2.662  1.00  0.00    -0.744 OA
ENDBRANCH  69  72
ENDBRANCH  51  65
BRANCH  52  76
ATOM     76  C   UNL     1     -10.786  -6.341   2.553  1.00  0.00     0.023 A 
ATOM     77  C   UNL     1      -9.718  -5.490   2.934  1.00  0.00     0.012 A 
ATOM     78  C   UNL     1     -11.779  -6.644   3.502  1.00  0.00     0.148 A 
ATOM     79  C   UNL     1      -9.725  -4.831   4.164  1.00  0.00     0.002 A 
ATOM     80  C   UNL     1     -11.773  -5.987   4.735  1.00  0.00     0.091 A 
ATOM     81  F   UNL     1     -12.759  -7.488   3.156  1.00  0.00    -0.205 F 
ATOM     82  C   UNL     1     -10.774  -5.049   5.047  1.00  0.00     0.022 A 
BRANCH  80  83
ATOM     83  S   UNL     1     -13.100  -6.191   5.933  1.00  0.00     0.127 S 
ATOM     84  O   UNL     1     -12.516  -7.162   6.853  1.00  0.00    -0.237 OA
ATOM     85  O   UNL     1     -13.244  -4.842   6.476  1.00  0.00    -0.237 OA
ATOM     86  O   UNL     1     -14.243  -6.647   5.155  1.00  0.00    -0.744 OA
ENDBRANCH  80  83
ENDBRANCH  52  76
BRANCH  64  87
ATOM     87  C   UNL     1     -14.491 -10.398  -2.258  1.00  0.00     0.023 A 
ATOM     88  C   UNL     1     -14.400 -11.523  -1.420  1.00  0.00     0.012 A 
ATOM     89  C   UNL     1     -15.359 -10.510  -3.380  1.00  0.00     0.148 A 
ATOM     90  C   UNL     1     -15.098 -12.706  -1.692  1.00  0.00     0.002 A 
ATOM     91  C   UNL     1     -16.147 -11.640  -3.572  1.00  0.00     0.091 A 
ATOM     92  F   UNL     1     -15.416  -9.525  -4.288  1.00  0.00    -0.205 F 
ATOM     93  C   UNL     1     -15.997 -12.755  -2.749  1.00  0.00     0.022 A 
BRANCH  91  94
ATOM     94  S   UNL     1     -17.502 -11.622  -4.757  1.00  0.00     0.127 S 
ATOM     95  O   UNL     1     -16.866 -12.158  -5.958  1.00  0.00    -0.237 OA
ATOM     96  O   UNL     1     -18.479 -12.517  -4.134  1.00  0.00    -0.237 OA
ATOM     97  O   UNL     1     -17.926 -10.229  -4.816  1.00  0.00    -0.744 OA
ENDBRANCH  91  94
ENDBRANCH  64  87
ENDBRANCH  38  39
ENDBRANCH  30  33
ENDBRANCH  28  29
ENDBRANCH   1  28
TORSDOF 16
