REMARK SMILES O=C(NCCCCNC(=O)c1nccnc1C(=O)Nc1ccc(-n2cncn2)c(Cl)c1)c1ccc(-c2c3nc(c(-c4cccc(S(=O)(=O)[O-])c4F)c4ccc([nH]4)c(-c4cccc(S(=O)(=O)[O-])c4F)c4nc(c(-c5cccc(S(=O)(=O)[O-])c5F)c5ccc2[nH]5)C=C4)C=C3)cc1
REMARK SMILES IDX 5 1 4 2 3 3 1 4 2 5 32 7 33 8 94 9 34 10 93 11 35 12 36 13
REMARK SMILES IDX 37 14 87 15 38 16 92 17 86 18 88 19 39 20 91 21 85 22 84 23
REMARK SMILES IDX 40 25 72 26 52 27 71 28 53 29 56 30 70 31 89 32 54 33 55 34
REMARK SMILES IDX 69 36 90 37 57 38 41 39 42 40 50 41 43 42 45 43 51 44 44 45
REMARK SMILES IDX 46 46 47 47 48 48 49 49 73 50 74 51 82 52 75 53 77 54 83 55
REMARK SMILES IDX 76 56 78 57 79 58 80 59 81 60 58 61 59 62 67 63 60 64 62 65
REMARK SMILES IDX 68 66 61 67 63 68 64 69 65 70 66 71 6 72 7 73 8 74 9 75
REMARK SMILES IDX 10 77 11 78 12 79 16 80 13 81 15 82 14 83 17 84 18 85 19 86
REMARK SMILES IDX 20 88 21 89 31 90 22 91 29 92 23 93 30 94 24 95 25 96 28 97
REMARK SMILES IDX 26 98 27 99
REMARK H PARENT 3 6 88 24 56 35 8 76 19 87
REMARK Flexibility Score: inf
ROOT
ATOM      1  C   UNL     1       4.374   1.849  -1.685  1.00  0.00     0.023 C 
ENDROOT
BRANCH   1   2
ATOM      2  C   UNL     1       4.280   1.139  -0.338  1.00  0.00     0.116 C 
BRANCH   2   3
ATOM      3  N   UNL     1       2.940   0.951   0.163  1.00  0.00    -0.352 N 
ATOM      4  O   UNL     1       0.989   0.124   0.745  1.00  0.00    -0.269 OA
ATOM      5  C   UNL     1       1.971  -0.000   0.007  1.00  0.00     0.251 C 
ATOM      6  H   UNL     1       2.656   1.681   0.759  1.00  0.00     0.163 HD
BRANCH   5   7
ATOM      7  C   UNL     1       1.986  -1.103  -0.993  1.00  0.00     0.039 A 
ATOM      8  C   UNL     1       3.103  -1.586  -1.677  1.00  0.00     0.014 A 
ATOM      9  C   UNL     1       0.737  -1.707  -1.240  1.00  0.00     0.014 A 
ATOM     10  C   UNL     1       2.963  -2.602  -2.628  1.00  0.00     0.010 A 
ATOM     11  C   UNL     1       0.595  -2.726  -2.176  1.00  0.00     0.010 A 
ATOM     12  C   UNL     1       1.706  -3.157  -2.894  1.00  0.00    -0.014 A 
BRANCH  12  13
ATOM     13  C   UNL     1       1.610  -4.273  -3.837  1.00  0.00     0.031 A 
ATOM     14  C   UNL     1       2.299  -5.531  -3.419  1.00  0.00     0.074 A 
ATOM     15  C   UNL     1       0.822  -4.268  -4.934  1.00  0.00     0.049 A 
ATOM     16  N   UNL     1       3.274  -6.144  -4.009  1.00  0.00    -0.248 NA
ATOM     17  C   UNL     1       1.903  -6.135  -2.138  1.00  0.00     0.031 C 
ATOM     18  C   UNL     1      -0.174  -3.263  -5.316  1.00  0.00     0.029 A 
ATOM     19  N   UNL     1       0.652  -5.244  -5.875  1.00  0.00    -0.354 N 
ATOM     20  C   UNL     1       3.486  -7.319  -3.283  1.00  0.00     0.074 A 
ATOM     21  C   UNL     1       2.717  -7.190  -2.074  1.00  0.00     0.031 C 
ATOM     22  C   UNL     1      -1.000  -3.789  -6.248  1.00  0.00     0.029 A 
ATOM     23  C   UNL     1      -0.508  -5.101  -6.629  1.00  0.00     0.049 A 
ATOM     24  H   UNL     1       1.292  -5.980  -6.007  1.00  0.00     0.167 HD
ATOM     25  C   UNL     1       4.130  -8.396  -3.817  1.00  0.00     0.034 A 
ATOM     26  C   UNL     1      -1.062  -6.024  -7.453  1.00  0.00     0.034 A 
ATOM     27  C   UNL     1       4.835  -8.050  -5.021  1.00  0.00     0.049 A 
ATOM     28  C   UNL     1      -0.009  -7.002  -7.804  1.00  0.00     0.074 A 
ATOM     29  C   UNL     1       5.859  -7.189  -5.355  1.00  0.00     0.029 A 
ATOM     30  N   UNL     1       4.261  -8.435  -6.207  1.00  0.00    -0.354 N 
ATOM     31  N   UNL     1       1.028  -6.720  -8.540  1.00  0.00    -0.248 NA
ATOM     32  C   UNL     1       0.084  -8.223  -7.023  1.00  0.00     0.031 C 
ATOM     33  C   UNL     1       5.537  -6.732  -6.665  1.00  0.00     0.029 A 
ATOM     34  C   UNL     1       4.363  -7.376  -7.063  1.00  0.00     0.049 A 
ATOM     35  H   UNL     1       3.854  -9.310  -6.403  1.00  0.00     0.167 HD
ATOM     36  C   UNL     1       2.056  -7.465  -7.982  1.00  0.00     0.074 A 
ATOM     37  C   UNL     1       1.393  -8.457  -7.140  1.00  0.00     0.031 C 
ATOM     38  C   UNL     1       3.347  -7.026  -8.029  1.00  0.00     0.034 A 
BRANCH  25  39
ATOM     39  C   UNL     1       3.877  -9.849  -3.472  1.00  0.00     0.023 A 
ATOM     40  C   UNL     1       4.751 -10.810  -4.040  1.00  0.00     0.012 A 
ATOM     41  C   UNL     1       2.687 -10.336  -2.888  1.00  0.00     0.148 A 
ATOM     42  C   UNL     1       4.423 -12.169  -4.092  1.00  0.00     0.002 A 
ATOM     43  C   UNL     1       2.401 -11.699  -2.878  1.00  0.00     0.091 A 
ATOM     44  F   UNL     1       1.758  -9.481  -2.454  1.00  0.00    -0.205 F 
ATOM     45  C   UNL     1       3.246 -12.614  -3.508  1.00  0.00     0.022 A 
BRANCH  43  46
ATOM     46  S   UNL     1       0.916 -12.339  -2.092  1.00  0.00     0.127 S 
ATOM     47  O   UNL     1       0.086 -12.655  -3.257  1.00  0.00    -0.237 OA
ATOM     48  O   UNL     1       1.438 -13.508  -1.376  1.00  0.00    -0.237 OA
ATOM     49  O   UNL     1       0.441 -11.276  -1.232  1.00  0.00    -0.744 OA
ENDBRANCH  43  46
ENDBRANCH  25  39
BRANCH  26  50
ATOM     50  C   UNL     1      -2.485  -6.277  -7.776  1.00  0.00     0.023 A 
ATOM     51  C   UNL     1      -2.824  -6.975  -8.954  1.00  0.00     0.012 A 
ATOM     52  C   UNL     1      -3.487  -6.095  -6.798  1.00  0.00     0.148 A 
ATOM     53  C   UNL     1      -4.108  -7.503  -9.136  1.00  0.00     0.002 A 
ATOM     54  C   UNL     1      -4.763  -6.618  -6.985  1.00  0.00     0.091 A 
ATOM     55  F   UNL     1      -3.159  -5.494  -5.647  1.00  0.00    -0.205 F 
ATOM     56  C   UNL     1      -5.074  -7.333  -8.148  1.00  0.00     0.022 A 
BRANCH  54  57
ATOM     57  S   UNL     1      -6.054  -6.465  -5.742  1.00  0.00     0.127 S 
ATOM     58  O   UNL     1      -7.180  -5.973  -6.536  1.00  0.00    -0.237 OA
ATOM     59  O   UNL     1      -6.188  -7.843  -5.276  1.00  0.00    -0.237 OA
ATOM     60  O   UNL     1      -5.551  -5.512  -4.761  1.00  0.00    -0.744 OA
ENDBRANCH  54  57
ENDBRANCH  26  50
BRANCH  38  61
ATOM     61  C   UNL     1       3.686  -5.883  -8.947  1.00  0.00     0.023 A 
ATOM     62  C   UNL     1       3.158  -4.589  -8.762  1.00  0.00     0.012 A 
ATOM     63  C   UNL     1       4.726  -6.072  -9.873  1.00  0.00     0.148 A 
ATOM     64  C   UNL     1       3.654  -3.507  -9.493  1.00  0.00     0.002 A 
ATOM     65  C   UNL     1       5.253  -4.986 -10.557  1.00  0.00     0.091 A 
ATOM     66  F   UNL     1       5.215  -7.312 -10.031  1.00  0.00    -0.205 F 
ATOM     67  C   UNL     1       4.713  -3.702 -10.377  1.00  0.00     0.022 A 
BRANCH  65  68
ATOM     68  S   UNL     1       6.713  -5.143 -11.587  1.00  0.00     0.127 S 
ATOM     69  O   UNL     1       6.158  -4.994 -12.930  1.00  0.00    -0.237 OA
ATOM     70  O   UNL     1       7.535  -4.019 -11.135  1.00  0.00    -0.237 OA
ATOM     71  O   UNL     1       7.281  -6.452 -11.286  1.00  0.00    -0.744 OA
ENDBRANCH  65  68
ENDBRANCH  38  61
ENDBRANCH  12  13
ENDBRANCH   5   7
ENDBRANCH   2   3
ENDBRANCH   1   2
BRANCH   1  72
ATOM     72  C   UNL     1       3.747   3.247  -1.787  1.00  0.00     0.023 C 
BRANCH  72  73
ATOM     73  C   UNL     1       4.001   4.258  -0.666  1.00  0.00     0.116 C 
BRANCH  73  74
ATOM     74  N   UNL     1       5.366   4.334  -0.176  1.00  0.00    -0.351 N 
ATOM     75  C   UNL     1       6.127   5.452   0.092  1.00  0.00     0.272 C 
ATOM     76  H   UNL     1       5.809   3.469  -0.014  1.00  0.00     0.163 HD
ATOM     77  O   UNL     1       6.981   5.427   0.976  1.00  0.00    -0.267 OA
BRANCH  75  78
ATOM     78  C   UNL     1       5.865   6.726  -0.573  1.00  0.00     0.159 A 
ATOM     79  N   UNL     1       4.767   7.349  -0.011  1.00  0.00    -0.247 NA
ATOM     80  C   UNL     1       6.682   7.327  -1.524  1.00  0.00     0.159 A 
ATOM     81  C   UNL     1       4.500   8.599  -0.423  1.00  0.00     0.132 A 
ATOM     82  N   UNL     1       6.346   8.609  -1.924  1.00  0.00    -0.247 NA
ATOM     83  C   UNL     1       5.277   9.219  -1.369  1.00  0.00     0.132 A 
BRANCH  80  84
ATOM     84  C   UNL     1       7.917   6.871  -2.287  1.00  0.00     0.276 C 
ATOM     85  O   UNL     1       8.254   7.567  -3.262  1.00  0.00    -0.267 OA
ATOM     86  N   UNL     1       8.809   5.845  -2.053  1.00  0.00    -0.321 N 
ATOM     87  H   UNL     1       9.585   5.862  -2.659  1.00  0.00     0.170 HD
BRANCH  86  88
ATOM     88  C   UNL     1       8.847   4.799  -1.151  1.00  0.00     0.043 A 
ATOM     89  C   UNL     1       8.151   3.625  -1.417  1.00  0.00     0.028 A 
ATOM     90  C   UNL     1       9.694   4.872  -0.047  1.00  0.00     0.049 A 
ATOM     91  C   UNL     1       8.067   2.646  -0.427  1.00  0.00     0.032 A 
ATOM     92  C   UNL     1       9.582   3.915   0.965  1.00  0.00     0.068 A 
ATOM     93  C   UNL     1       8.638   2.889   0.836  1.00  0.00     0.085 A 
ATOM     94  Cl  UNL     1      10.681   4.047   2.292  1.00  0.00    -0.082 Cl
BRANCH  93  95
ATOM     95  N   UNL     1       8.009   2.278   1.957  1.00  0.00    -0.220 N 
ATOM     96  C   UNL     1       7.925   2.730   3.256  1.00  0.00     0.226 A 
ATOM     97  N   UNL     1       7.112   1.264   1.797  1.00  0.00    -0.155 NA
ATOM     98  N   UNL     1       7.063   2.017   3.946  1.00  0.00    -0.223 NA
ATOM     99  C   UNL     1       6.590   1.145   3.018  1.00  0.00     0.246 A 
ENDBRANCH  93  95
ENDBRANCH  86  88
ENDBRANCH  80  84
ENDBRANCH  75  78
ENDBRANCH  73  74
ENDBRANCH  72  73
ENDBRANCH   1  72
TORSDOF 17
