REMARK SMILES CC1(C)CCN(S(=O)(=O)c2ccc(O)c(C(=O)NCCCCNC(=O)c3ccc(-c4c5nc(c(-c6cccc(S(=O)(=O)[O-])c6F)c6ccc([nH]6)c(-c6cccc(S(=O)(=O)[O-])c6F)c6nc(c(-c7cccc(S(=O)(=O)[O-])c7F)c7ccc4[nH]7)C=C6)C=C5)cc3)c2)C1
REMARK SMILES IDX 21 1 20 2 19 3 18 4 16 5 17 6 15 8 10 9 11 10 89 11 12 12
REMARK SMILES IDX 13 13 7 14 8 15 9 16 6 17 1 18 2 19 3 20 4 21 90 22 5 23
REMARK SMILES IDX 14 24 22 26 23 27 24 28 25 30 26 31 27 32 88 33 28 34 87 35
REMARK SMILES IDX 29 36 30 37 31 38 81 39 32 40 86 41 80 42 82 43 33 44 85 45
REMARK SMILES IDX 79 46 78 47 34 49 66 50 46 51 65 52 47 53 50 54 64 55 83 56
REMARK SMILES IDX 48 57 49 58 63 60 84 61 51 62 35 63 36 64 44 65 37 66 39 67
REMARK SMILES IDX 45 68 38 69 40 70 41 71 42 72 43 73 67 74 68 75 76 76 69 77
REMARK SMILES IDX 71 78 77 79 70 80 72 81 73 82 74 83 75 84 52 85 53 86 61 87
REMARK SMILES IDX 54 88 56 89 62 90 55 91 57 92 58 93 59 94 60 95
REMARK H PARENT 18 7 14 25 23 29 82 48 50 59
REMARK Flexibility Score: inf
ROOT
ATOM      1  C   UNL     1       4.968  10.194   1.509  1.00  0.00     0.023 C 
ENDROOT
BRANCH   1   2
ATOM      2  C   UNL     1       3.913   9.099   1.370  1.00  0.00     0.023 C 
BRANCH   2   3
ATOM      3  C   UNL     1       3.918   8.351   0.032  1.00  0.00     0.116 C 
BRANCH   3   4
ATOM      4  N   UNL     1       4.824   7.226   0.070  1.00  0.00    -0.352 N 
ATOM      5  C   UNL     1       4.673   5.906   0.398  1.00  0.00     0.255 C 
ATOM      6  O   UNL     1       5.699   5.222   0.295  1.00  0.00    -0.269 OA
ATOM      7  H   UNL     1       5.743   7.458  -0.198  1.00  0.00     0.163 HD
BRANCH   5   8
ATOM      8  C   UNL     1       3.417   5.210   0.846  1.00  0.00     0.082 A 
ATOM      9  C   UNL     1       2.455   2.982   1.247  1.00  0.00     0.083 A 
ATOM     10  C   UNL     1       1.362   3.556   1.888  1.00  0.00     0.025 A 
ATOM     11  C   UNL     1       3.471   3.797   0.733  1.00  0.00     0.039 A 
ATOM     12  C   UNL     1       1.253   4.936   1.957  1.00  0.00     0.048 A 
ATOM     13  C   UNL     1       2.275   5.755   1.457  1.00  0.00     0.128 A 
BRANCH   9  14
ATOM     14  S   UNL     1       2.637   1.214   1.273  1.00  0.00     0.243 S 
ATOM     15  O   UNL     1       2.191   0.755   2.578  1.00  0.00    -0.207 OA
ATOM     16  O   UNL     1       3.949   0.874   0.779  1.00  0.00    -0.207 OA
BRANCH  14  17
ATOM     17  N   UNL     1       1.502   0.646   0.129  1.00  0.00    -0.197 NA
ATOM     18  C   UNL     1      -1.004  -0.158  -1.637  1.00  0.00     0.012 C 
ATOM     19  C   UNL     1      -0.745  -0.207  -0.125  1.00  0.00    -0.020 C 
ATOM     20  C   UNL     1      -2.083  -0.289   0.617  1.00  0.00     0.012 C 
ATOM     21  C   UNL     1       0.186  -1.358   0.253  1.00  0.00     0.024 C 
ATOM     22  C   UNL     1       0.072   1.001   0.349  1.00  0.00     0.109 C 
ATOM     23  C   UNL     1       1.575  -0.831  -0.090  1.00  0.00     0.103 C 
ENDBRANCH  14  17
ENDBRANCH   9  14
BRANCH  13  24
ATOM     24  O   UNL     1       2.098   7.087   1.662  1.00  0.00    -0.507 OA
ATOM     25  H   UNL     1       1.316   7.397   2.075  1.00  0.00     0.293 HD
ENDBRANCH  13  24
ENDBRANCH   5   8
ENDBRANCH   3   4
ENDBRANCH   2   3
ENDBRANCH   1   2
BRANCH   1  26
ATOM     26  C   UNL     1       4.791  11.369   0.557  1.00  0.00     0.116 C 
BRANCH  26  27
ATOM     27  N   UNL     1       3.491  12.021   0.664  1.00  0.00    -0.352 N 
ATOM     28  C   UNL     1       3.176  13.326   0.371  1.00  0.00     0.251 C 
ATOM     29  H   UNL     1       2.750  11.458   0.985  1.00  0.00     0.163 HD
ATOM     30  O   UNL     1       2.050  13.763   0.586  1.00  0.00    -0.269 OA
BRANCH  28  31
ATOM     31  C   UNL     1       4.237  14.205  -0.162  1.00  0.00     0.039 A 
ATOM     32  C   UNL     1       4.505  15.411   0.489  1.00  0.00     0.014 A 
ATOM     33  C   UNL     1       5.012  13.793  -1.248  1.00  0.00     0.014 A 
ATOM     34  C   UNL     1       5.604  16.174   0.092  1.00  0.00     0.010 A 
ATOM     35  C   UNL     1       6.147  14.515  -1.591  1.00  0.00     0.010 A 
ATOM     36  C   UNL     1       6.454  15.712  -0.927  1.00  0.00    -0.014 A 
BRANCH  36  37
ATOM     37  C   UNL     1       7.675  16.459  -1.316  1.00  0.00     0.031 A 
ATOM     38  C   UNL     1       7.797  17.017  -2.707  1.00  0.00     0.074 A 
ATOM     39  C   UNL     1       8.710  16.540  -0.457  1.00  0.00     0.049 A 
ATOM     40  N   UNL     1       8.812  17.621  -3.266  1.00  0.00    -0.248 NA
ATOM     41  C   UNL     1       6.637  16.846  -3.598  1.00  0.00     0.031 C 
ATOM     42  C   UNL     1       8.744  15.960   0.888  1.00  0.00     0.029 A 
ATOM     43  N   UNL     1       9.948  17.115  -0.600  1.00  0.00    -0.354 N 
ATOM     44  C   UNL     1       8.432  17.864  -4.580  1.00  0.00     0.074 A 
ATOM     45  C   UNL     1       7.105  17.312  -4.746  1.00  0.00     0.031 C 
ATOM     46  C   UNL     1       9.940  16.210   1.446  1.00  0.00     0.029 A 
ATOM     47  C   UNL     1      10.766  16.945   0.493  1.00  0.00     0.049 A 
ATOM     48  H   UNL     1      10.225  17.603  -1.409  1.00  0.00     0.167 HD
ATOM     49  C   UNL     1       9.110  18.518  -5.551  1.00  0.00     0.034 A 
ATOM     50  C   UNL     1      12.038  17.337   0.702  1.00  0.00     0.034 A 
ATOM     51  C   UNL     1      10.402  19.118  -5.362  1.00  0.00     0.049 A 
ATOM     52  C   UNL     1      12.744  18.120  -0.373  1.00  0.00     0.074 A 
ATOM     53  C   UNL     1      11.133  19.883  -6.253  1.00  0.00     0.029 A 
ATOM     54  N   UNL     1      11.153  19.025  -4.201  1.00  0.00    -0.354 N 
ATOM     55  N   UNL     1      12.303  18.483  -1.553  1.00  0.00    -0.248 NA
ATOM     56  C   UNL     1      14.108  18.582  -0.074  1.00  0.00     0.031 C 
ATOM     57  C   UNL     1      12.332  20.247  -5.631  1.00  0.00     0.029 A 
ATOM     58  C   UNL     1      12.340  19.720  -4.350  1.00  0.00     0.049 A 
ATOM     59  H   UNL     1      10.882  18.537  -3.390  1.00  0.00     0.167 HD
ATOM     60  C   UNL     1      13.316  19.247  -2.120  1.00  0.00     0.074 A 
ATOM     61  C   UNL     1      14.387  19.310  -1.147  1.00  0.00     0.031 C 
ATOM     62  C   UNL     1      13.364  19.830  -3.343  1.00  0.00     0.034 A 
BRANCH  49  63
ATOM     63  C   UNL     1       8.434  18.682  -6.886  1.00  0.00     0.023 A 
ATOM     64  C   UNL     1       7.356  19.583  -7.007  1.00  0.00     0.012 A 
ATOM     65  C   UNL     1       8.892  17.995  -8.026  1.00  0.00     0.148 A 
ATOM     66  C   UNL     1       6.724  19.774  -8.234  1.00  0.00     0.002 A 
ATOM     67  C   UNL     1       8.284  18.223  -9.256  1.00  0.00     0.091 A 
ATOM     68  F   UNL     1       9.902  17.125  -7.887  1.00  0.00    -0.205 F 
ATOM     69  C   UNL     1       7.194  19.103  -9.359  1.00  0.00     0.022 A 
BRANCH  67  70
ATOM     70  S   UNL     1       8.862  17.464 -10.778  1.00  0.00     0.127 S 
ATOM     71  O   UNL     1       7.805  16.489 -11.042  1.00  0.00    -0.237 OA
ATOM     72  O   UNL     1       8.886  18.601 -11.699  1.00  0.00    -0.237 OA
ATOM     73  O   UNL     1      10.170  16.903 -10.474  1.00  0.00    -0.744 OA
ENDBRANCH  67  70
ENDBRANCH  49  63
BRANCH  50  74
ATOM     74  C   UNL     1      12.696  17.071   2.012  1.00  0.00     0.023 A 
ATOM     75  C   UNL     1      12.935  18.146   2.891  1.00  0.00     0.012 A 
ATOM     76  C   UNL     1      13.062  15.770   2.406  1.00  0.00     0.148 A 
ATOM     77  C   UNL     1      13.555  17.936   4.123  1.00  0.00     0.002 A 
ATOM     78  C   UNL     1      13.633  15.560   3.657  1.00  0.00     0.091 A 
ATOM     79  F   UNL     1      12.841  14.761   1.551  1.00  0.00    -0.205 F 
ATOM     80  C   UNL     1      13.895  16.643   4.510  1.00  0.00     0.022 A 
BRANCH  78  81
ATOM     81  S   UNL     1      13.982  13.914   4.286  1.00  0.00     0.127 S 
ATOM     82  O   UNL     1      15.434  13.842   4.145  1.00  0.00    -0.237 OA
ATOM     83  O   UNL     1      13.500  14.005   5.665  1.00  0.00    -0.237 OA
ATOM     84  O   UNL     1      13.213  13.007   3.444  1.00  0.00    -0.744 OA
ENDBRANCH  78  81
ENDBRANCH  50  74
BRANCH  62  85
ATOM     85  C   UNL     1      14.593  20.624  -3.694  1.00  0.00     0.023 A 
ATOM     86  C   UNL     1      15.790  19.953  -4.010  1.00  0.00     0.012 A 
ATOM     87  C   UNL     1      14.536  22.027  -3.800  1.00  0.00     0.148 A 
ATOM     88  C   UNL     1      16.920  20.669  -4.403  1.00  0.00     0.002 A 
ATOM     89  C   UNL     1      15.652  22.731  -4.235  1.00  0.00     0.091 A 
ATOM     90  F   UNL     1      13.392  22.648  -3.474  1.00  0.00    -0.205 F 
ATOM     91  C   UNL     1      16.848  22.055  -4.528  1.00  0.00     0.022 A 
BRANCH  89  92
ATOM     92  S   UNL     1      15.618  24.505  -4.516  1.00  0.00     0.127 S 
ATOM     93  O   UNL     1      16.361  25.005  -3.360  1.00  0.00    -0.237 OA
ATOM     94  O   UNL     1      16.320  24.633  -5.794  1.00  0.00    -0.237 OA
ATOM     95  O   UNL     1      14.209  24.874  -4.564  1.00  0.00    -0.744 OA
ENDBRANCH  89  92
ENDBRANCH  62  85
ENDBRANCH  36  37
ENDBRANCH  28  31
ENDBRANCH  26  27
ENDBRANCH   1  26
TORSDOF 17
