REMARK SMILES O=C(NCCCCNC(=O)c1ccccc1NC(=O)c1ccc(N2C(=O)[C@H]3CC=CC[C@H]3C2=O)cc1)c1ccc(-c2c3nc(c(-c4cccc(S(=O)(=O)[O-])c4F)c4ccc([nH]4)c(-c4cccc(S(=O)(=O)[O-])c4F)c4nc(c(-c5cccc(S(=O)(=O)[O-])c5F)c5ccc2[nH]5)C=C4)C=C3)cc1
REMARK SMILES IDX 5 1 4 2 3 3 1 4 2 5 37 7 38 8 99 9 39 10 98 11 40 12 41 13
REMARK SMILES IDX 42 14 92 15 43 16 97 17 91 18 93 19 44 20 96 21 90 22 89 23
REMARK SMILES IDX 45 25 77 26 57 27 76 28 58 29 61 30 75 31 94 32 59 33 60 34
REMARK SMILES IDX 74 36 95 37 62 38 46 39 47 40 55 41 48 42 50 43 56 44 49 45
REMARK SMILES IDX 51 46 52 47 53 48 54 49 78 50 79 51 87 52 80 53 82 54 88 55
REMARK SMILES IDX 81 56 83 57 84 58 85 59 86 60 63 61 64 62 72 63 65 64 67 65
REMARK SMILES IDX 73 66 66 67 68 68 69 69 70 70 71 71 6 72 7 73 8 74 9 75
REMARK SMILES IDX 10 77 11 78 12 79 16 80 13 81 15 82 14 83 17 84 18 85 19 87
REMARK SMILES IDX 20 88 21 89 36 90 22 91 35 92 23 93 24 94 25 95 33 96 26 97
REMARK SMILES IDX 27 98 32 99 34 100 28 101 31 102 29 103 30 104
REMARK H PARENT 3 6 93 24 61 35 8 76 17 86
REMARK Flexibility Score: inf
ROOT
ATOM      1  C   UNL     1       4.893   1.078  -2.580  1.00  0.00     0.023 C 
ENDROOT
BRANCH   1   2
ATOM      2  C   UNL     1       4.588   0.939  -1.094  1.00  0.00     0.116 C 
BRANCH   2   3
ATOM      3  N   UNL     1       3.165   0.863  -0.808  1.00  0.00    -0.352 N 
ATOM      4  O   UNL     1       1.234  -0.089  -0.141  1.00  0.00    -0.269 OA
ATOM      5  C   UNL     1       2.461  -0.125  -0.159  1.00  0.00     0.251 C 
ATOM      6  H   UNL     1       2.629   1.626  -1.124  1.00  0.00     0.163 HD
BRANCH   5   7
ATOM      7  C   UNL     1       3.187  -1.245   0.482  1.00  0.00     0.039 A 
ATOM      8  C   UNL     1       4.325  -1.004   1.255  1.00  0.00     0.014 A 
ATOM      9  C   UNL     1       2.735  -2.555   0.296  1.00  0.00     0.014 A 
ATOM     10  C   UNL     1       5.101  -2.071   1.692  1.00  0.00     0.010 A 
ATOM     11  C   UNL     1       3.466  -3.626   0.823  1.00  0.00     0.010 A 
ATOM     12  C   UNL     1       4.676  -3.396   1.493  1.00  0.00    -0.014 A 
BRANCH  12  13
ATOM     13  C   UNL     1       5.486  -4.503   2.069  1.00  0.00     0.031 A 
ATOM     14  C   UNL     1       6.148  -5.538   1.201  1.00  0.00     0.074 A 
ATOM     15  C   UNL     1       5.649  -4.541   3.407  1.00  0.00     0.049 A 
ATOM     16  N   UNL     1       6.947  -6.513   1.555  1.00  0.00    -0.248 NA
ATOM     17  C   UNL     1       5.878  -5.486  -0.245  1.00  0.00     0.031 C 
ATOM     18  C   UNL     1       5.007  -3.626   4.356  1.00  0.00     0.029 A 
ATOM     19  N   UNL     1       6.406  -5.362   4.201  1.00  0.00    -0.354 N 
ATOM     20  C   UNL     1       7.251  -7.207   0.390  1.00  0.00     0.074 A 
ATOM     21  C   UNL     1       6.540  -6.549  -0.686  1.00  0.00     0.031 C 
ATOM     22  C   UNL     1       5.431  -3.908   5.596  1.00  0.00     0.029 A 
ATOM     23  C   UNL     1       6.333  -5.051   5.539  1.00  0.00     0.049 A 
ATOM     24  H   UNL     1       6.949  -6.104   3.848  1.00  0.00     0.167 HD
ATOM     25  C   UNL     1       8.064  -8.280   0.229  1.00  0.00     0.034 A 
ATOM     26  C   UNL     1       6.923  -5.622   6.606  1.00  0.00     0.034 A 
ATOM     27  C   UNL     1       8.800  -8.907   1.296  1.00  0.00     0.049 A 
ATOM     28  C   UNL     1       7.859  -6.774   6.387  1.00  0.00     0.074 A 
ATOM     29  C   UNL     1       9.684  -9.970   1.223  1.00  0.00     0.029 A 
ATOM     30  N   UNL     1       8.742  -8.530   2.629  1.00  0.00    -0.354 N 
ATOM     31  N   UNL     1       8.228  -7.332   5.260  1.00  0.00    -0.248 NA
ATOM     32  C   UNL     1       8.482  -7.358   7.582  1.00  0.00     0.031 C 
ATOM     33  C   UNL     1      10.156 -10.240   2.513  1.00  0.00     0.029 A 
ATOM     34  C   UNL     1       9.573  -9.338   3.388  1.00  0.00     0.049 A 
ATOM     35  H   UNL     1       8.191  -7.795   2.985  1.00  0.00     0.167 HD
ATOM     36  C   UNL     1       9.131  -8.328   5.608  1.00  0.00     0.074 A 
ATOM     37  C   UNL     1       9.289  -8.264   7.047  1.00  0.00     0.031 C 
ATOM     38  C   UNL     1       9.750  -9.235   4.813  1.00  0.00     0.034 A 
BRANCH  25  39
ATOM     39  C   UNL     1       8.258  -8.819  -1.166  1.00  0.00     0.023 A 
ATOM     40  C   UNL     1       9.091  -8.121  -2.063  1.00  0.00     0.012 A 
ATOM     41  C   UNL     1       7.705 -10.055  -1.556  1.00  0.00     0.148 A 
ATOM     42  C   UNL     1       9.359  -8.634  -3.331  1.00  0.00     0.002 A 
ATOM     43  C   UNL     1       8.004 -10.578  -2.810  1.00  0.00     0.091 A 
ATOM     44  F   UNL     1       6.902 -10.696  -0.695  1.00  0.00    -0.205 F 
ATOM     45  C   UNL     1       8.826  -9.866  -3.700  1.00  0.00     0.022 A 
BRANCH  43  46
ATOM     46  S   UNL     1       7.426 -12.190  -3.357  1.00  0.00     0.127 S 
ATOM     47  O   UNL     1       6.454 -11.820  -4.386  1.00  0.00    -0.237 OA
ATOM     48  O   UNL     1       8.652 -12.801  -3.869  1.00  0.00    -0.237 OA
ATOM     49  O   UNL     1       6.870 -12.838  -2.178  1.00  0.00    -0.744 OA
ENDBRANCH  43  46
ENDBRANCH  25  39
BRANCH  26  50
ATOM     50  C   UNL     1       6.678  -5.069   7.967  1.00  0.00     0.023 A 
ATOM     51  C   UNL     1       7.718  -4.409   8.649  1.00  0.00     0.012 A 
ATOM     52  C   UNL     1       5.407  -5.148   8.567  1.00  0.00     0.148 A 
ATOM     53  C   UNL     1       7.502  -3.859   9.913  1.00  0.00     0.002 A 
ATOM     54  C   UNL     1       5.182  -4.543   9.798  1.00  0.00     0.091 A 
ATOM     55  F   UNL     1       4.432  -5.801   7.918  1.00  0.00    -0.205 F 
ATOM     56  C   UNL     1       6.231  -3.912  10.481  1.00  0.00     0.022 A 
BRANCH  54  57
ATOM     57  S   UNL     1       3.531  -4.441  10.499  1.00  0.00     0.127 S 
ATOM     58  O   UNL     1       3.513  -5.592  11.396  1.00  0.00    -0.237 OA
ATOM     59  O   UNL     1       3.553  -3.139  11.168  1.00  0.00    -0.237 OA
ATOM     60  O   UNL     1       2.633  -4.501   9.353  1.00  0.00    -0.744 OA
ENDBRANCH  54  57
ENDBRANCH  26  50
BRANCH  38  61
ATOM     61  C   UNL     1      10.650 -10.234   5.489  1.00  0.00     0.023 A 
ATOM     62  C   UNL     1      10.077 -11.280   6.239  1.00  0.00     0.012 A 
ATOM     63  C   UNL     1      12.049 -10.163   5.355  1.00  0.00     0.148 A 
ATOM     64  C   UNL     1      10.884 -12.221   6.876  1.00  0.00     0.002 A 
ATOM     65  C   UNL     1      12.846 -11.129   5.958  1.00  0.00     0.091 A 
ATOM     66  F   UNL     1      12.578  -9.147   4.657  1.00  0.00    -0.205 F 
ATOM     67  C   UNL     1      12.267 -12.151   6.728  1.00  0.00     0.022 A 
BRANCH  65  68
ATOM     68  S   UNL     1      14.630 -11.157   5.749  1.00  0.00     0.127 S 
ATOM     69  O   UNL     1      15.088 -10.550   6.997  1.00  0.00    -0.237 OA
ATOM     70  O   UNL     1      14.913 -12.588   5.628  1.00  0.00    -0.237 OA
ATOM     71  O   UNL     1      14.896 -10.391   4.538  1.00  0.00    -0.744 OA
ENDBRANCH  65  68
ENDBRANCH  38  61
ENDBRANCH  12  13
ENDBRANCH   5   7
ENDBRANCH   2   3
ENDBRANCH   1   2
BRANCH   1  72
ATOM     72  C   UNL     1       4.395   2.364  -3.238  1.00  0.00     0.023 C 
BRANCH  72  73
ATOM     73  C   UNL     1       4.757   3.653  -2.509  1.00  0.00     0.116 C 
BRANCH  73  74
ATOM     74  N   UNL     1       6.185   3.776  -2.261  1.00  0.00    -0.352 N 
ATOM     75  C   UNL     1       7.048   4.785  -2.594  1.00  0.00     0.253 C 
ATOM     76  H   UNL     1       6.592   3.019  -1.782  1.00  0.00     0.163 HD
ATOM     77  O   UNL     1       8.255   4.645  -2.419  1.00  0.00    -0.269 OA
BRANCH  75  78
ATOM     78  C   UNL     1       6.549   6.052  -3.164  1.00  0.00     0.063 A 
ATOM     79  C   UNL     1       7.108   6.425  -4.397  1.00  0.00     0.016 A 
ATOM     80  C   UNL     1       5.623   6.885  -2.498  1.00  0.00     0.054 A 
ATOM     81  C   UNL     1       6.748   7.628  -4.992  1.00  0.00     0.001 A 
ATOM     82  C   UNL     1       5.337   8.121  -3.085  1.00  0.00     0.027 A 
ATOM     83  C   UNL     1       5.873   8.481  -4.329  1.00  0.00     0.002 A 
BRANCH  80  84
ATOM     84  N   UNL     1       5.053   6.442  -1.281  1.00  0.00    -0.321 N 
ATOM     85  C   UNL     1       3.954   6.814  -0.543  1.00  0.00     0.255 C 
ATOM     86  H   UNL     1       5.556   5.703  -0.870  1.00  0.00     0.170 HD
ATOM     87  O   UNL     1       3.706   6.238   0.514  1.00  0.00    -0.269 OA
BRANCH  85  88
ATOM     88  C   UNL     1       3.046   7.884  -0.973  1.00  0.00     0.040 A 
ATOM     89  C   UNL     1       2.947   9.003  -0.152  1.00  0.00     0.016 A 
ATOM     90  C   UNL     1       2.328   7.824  -2.167  1.00  0.00     0.016 A 
ATOM     91  C   UNL     1       2.244  10.123  -0.597  1.00  0.00     0.027 A 
ATOM     92  C   UNL     1       1.627   8.957  -2.607  1.00  0.00     0.027 A 
ATOM     93  C   UNL     1       1.625  10.149  -1.859  1.00  0.00     0.052 A 
BRANCH  93  94
ATOM     94  N   UNL     1       1.083  11.365  -2.382  1.00  0.00    -0.250 N 
ATOM     95  C   UNL     1       1.456  12.617  -1.943  1.00  0.00     0.238 C 
ATOM     96  C   UNL     1       0.192  11.443  -3.426  1.00  0.00     0.238 C 
ATOM     97  O   UNL     1       2.251  12.915  -1.059  1.00  0.00    -0.274 OA
ATOM     98  C   UNL     1       0.753  13.676  -2.754  1.00  0.00     0.096 C 
ATOM     99  C   UNL     1      -0.062  12.890  -3.775  1.00  0.00     0.096 C 
ATOM    100  O   UNL     1      -0.384  10.531  -4.007  1.00  0.00    -0.274 OA
ATOM    101  C   UNL     1       1.777  14.666  -3.319  1.00  0.00     0.041 C 
ATOM    102  C   UNL     1       0.268  13.140  -5.250  1.00  0.00     0.041 C 
ATOM    103  C   UNL     1       2.405  14.197  -4.596  1.00  0.00    -0.030 C 
ATOM    104  C   UNL     1       1.705  13.487  -5.489  1.00  0.00    -0.030 C 
ENDBRANCH  93  94
ENDBRANCH  85  88
ENDBRANCH  80  84
ENDBRANCH  75  78
ENDBRANCH  73  74
ENDBRANCH  72  73
ENDBRANCH   1  72
TORSDOF 17
