REMARK SMILES CC(C)[C@H](NC(=O)N1c2ccccc2[NH+]=C(NCCCCNC(=O)c2ccc(-c3c4nc(c(-c5cccc(S(=O)(=O)[O-])c5F)c5ccc([nH]5)c(-c5cccc(S(=O)(=O)[O-])c5F)c5nc(c(-c6cccc(S(=O)(=O)[O-])c6F)c6ccc3[nH]6)C=C5)C=C4)cc2)[C@@H]1C(C)C)C(=O)N1CCC(C(=O)[O-])CC1
REMARK SMILES IDX 19 1 18 2 17 3 8 4 9 5 88 6 10 7 14 8 16 9 11 10 13 11 15 12
REMARK SMILES IDX 12 13 6 16 5 17 7 19 4 20 2 21 1 22 3 23 92 24 93 25 94 26
REMARK SMILES IDX 95 27 102 28 96 29 101 30 97 31 98 32 99 33 100 34 89 35
REMARK SMILES IDX 90 36 91 37 20 38 21 39 22 40 23 41 24 43 25 44 26 45 87 46
REMARK SMILES IDX 27 47 86 48 28 49 29 50 30 51 80 52 31 53 85 54 79 55 81 56
REMARK SMILES IDX 32 57 84 58 78 59 77 60 33 62 65 63 45 64 64 65 46 66 49 67
REMARK SMILES IDX 63 68 82 69 47 70 48 71 62 73 83 74 50 75 34 76 35 77 43 78
REMARK SMILES IDX 36 79 38 80 44 81 37 82 39 83 40 84 41 85 42 86 66 87 67 88
REMARK SMILES IDX 75 89 68 90 70 91 76 92 69 93 71 94 72 95 73 96 74 97 51 98
REMARK SMILES IDX 52 99 60 100 53 101 55 102 61 103 54 104 56 105 57 106
REMARK SMILES IDX 58 107 59 108
REMARK H PARENT 15 14 17 15 5 18 22 42 81 61 49 72
REMARK Flexibility Score: inf
ROOT
ATOM      1  C   UNL     1       0.464   2.091  -4.734  1.00  0.00     0.048 C 
ENDROOT
BRANCH   1   2
ATOM      2  C   UNL     1       0.919   2.900  -3.525  1.00  0.00     0.233 C 
BRANCH   2   3
ATOM      3  N   UNL     1      -0.044   2.877  -2.459  1.00  0.00    -0.276 N 
ATOM      4  N   UNL     1       0.585   0.984   0.554  1.00  0.00    -0.275 N 
ATOM      5  C   UNL     1      -0.515   1.458   1.353  1.00  0.00     0.093 A 
ATOM      6  C   UNL     1       1.218   2.103  -0.219  1.00  0.00     0.208 C 
ATOM      7  C   UNL     1      -0.810   0.932   2.619  1.00  0.00     0.031 A 
ATOM      8  C   UNL     1      -1.324   2.470   0.806  1.00  0.00     0.148 A 
ATOM      9  C   UNL     1       0.010   2.648  -1.099  1.00  0.00     0.271 C 
ATOM     10  C   UNL     1      -1.937   1.373   3.314  1.00  0.00     0.002 A 
ATOM     11  C   UNL     1      -2.449   2.901   1.513  1.00  0.00     0.054 A 
ATOM     12  N   UNL     1      -1.145   2.900  -0.520  1.00  0.00    -0.241 N 
ATOM     13  C   UNL     1      -2.760   2.350   2.759  1.00  0.00     0.005 A 
ATOM     14  H   UNL     1      -1.861   3.375  -1.000  1.00  0.00     0.312 HD
ATOM     15  H   UNL     1      -0.958   3.070  -2.772  1.00  0.00     0.304 HD
BRANCH   4  16
ATOM     16  C   UNL     1       1.110  -0.252   0.799  1.00  0.00     0.323 C 
ATOM     17  N   UNL     1       0.334  -1.355   0.576  1.00  0.00    -0.326 N 
ATOM     18  H   UNL     1       0.811  -2.210   0.673  1.00  0.00     0.166 HD
ATOM     19  O   UNL     1       2.230  -0.454   1.262  1.00  0.00    -0.248 OA
BRANCH  17  20
ATOM     20  C   UNL     1      -1.085  -1.492   0.217  1.00  0.00     0.175 C 
BRANCH  20  21
ATOM     21  C   UNL     1      -1.520  -0.865  -1.143  1.00  0.00     0.015 C 
ATOM     22  C   UNL     1      -1.501  -1.793  -2.357  1.00  0.00     0.010 C 
ATOM     23  C   UNL     1      -2.941  -0.288  -1.018  1.00  0.00     0.010 C 
ENDBRANCH  20  21
BRANCH  20  24
ATOM     24  C   UNL     1      -1.673  -2.916   0.430  1.00  0.00     0.245 C 
ATOM     25  O   UNL     1      -2.699  -3.022   1.117  1.00  0.00    -0.272 OA
ATOM     26  N   UNL     1      -1.182  -4.020  -0.255  1.00  0.00    -0.341 N 
ATOM     27  C   UNL     1      -2.119  -5.108  -0.532  1.00  0.00     0.120 C 
ATOM     28  C   UNL     1       0.166  -4.236  -0.784  1.00  0.00     0.120 C 
ATOM     29  C   UNL     1      -1.609  -6.435   0.003  1.00  0.00     0.031 C 
ATOM     30  C   UNL     1       0.746  -5.537  -0.221  1.00  0.00     0.031 C 
ATOM     31  C   UNL     1      -0.193  -6.716  -0.509  1.00  0.00     0.038 C 
BRANCH  31  32
ATOM     32  C   UNL     1       0.328  -8.001   0.076  1.00  0.00     0.045 C 
ATOM     33  O   UNL     1       0.658  -8.992  -0.560  1.00  0.00    -0.550 OA
ATOM     34  O   UNL     1       0.400  -8.003   1.418  1.00  0.00    -0.550 OA
ENDBRANCH  31  32
ENDBRANCH  20  24
ENDBRANCH  17  20
ENDBRANCH   4  16
BRANCH   6  35
ATOM     35  C   UNL     1       2.563   1.922  -0.971  1.00  0.00     0.018 C 
ATOM     36  C   UNL     1       3.118   3.325  -1.336  1.00  0.00     0.010 C 
ATOM     37  C   UNL     1       3.731   1.221  -0.278  1.00  0.00     0.010 C 
ENDBRANCH   6  35
ENDBRANCH   2   3
ENDBRANCH   1   2
BRANCH   1  38
ATOM     38  C   UNL     1      -0.496   2.804  -5.679  1.00  0.00     0.025 C 
BRANCH  38  39
ATOM     39  C   UNL     1      -0.083   4.207  -6.111  1.00  0.00     0.116 C 
BRANCH  39  40
ATOM     40  N   UNL     1       1.270   4.287  -6.651  1.00  0.00    -0.352 N 
ATOM     41  C   UNL     1       1.714   4.883  -7.809  1.00  0.00     0.251 C 
ATOM     42  H   UNL     1       1.967   3.853  -6.107  1.00  0.00     0.163 HD
ATOM     43  O   UNL     1       2.891   4.776  -8.141  1.00  0.00    -0.269 OA
BRANCH  41  44
ATOM     44  C   UNL     1       0.758   5.610  -8.670  1.00  0.00     0.039 A 
ATOM     45  C   UNL     1       0.747   5.339 -10.040  1.00  0.00     0.014 A 
ATOM     46  C   UNL     1      -0.163   6.505  -8.122  1.00  0.00     0.014 A 
ATOM     47  C   UNL     1      -0.249   5.899 -10.842  1.00  0.00     0.010 A 
ATOM     48  C   UNL     1      -1.211   6.981  -8.904  1.00  0.00     0.010 A 
ATOM     49  C   UNL     1      -1.268   6.683 -10.273  1.00  0.00    -0.014 A 
BRANCH  49  50
ATOM     50  C   UNL     1      -2.414   7.152 -11.095  1.00  0.00     0.031 A 
ATOM     51  C   UNL     1      -2.694   8.622 -11.259  1.00  0.00     0.074 A 
ATOM     52  C   UNL     1      -3.249   6.245 -11.641  1.00  0.00     0.049 A 
ATOM     53  N   UNL     1      -3.634   9.205 -11.957  1.00  0.00    -0.248 NA
ATOM     54  C   UNL     1      -1.827   9.559 -10.525  1.00  0.00     0.031 C 
ATOM     55  C   UNL     1      -3.153   4.793 -11.466  1.00  0.00     0.029 A 
ATOM     56  N   UNL     1      -4.354   6.407 -12.440  1.00  0.00    -0.354 N 
ATOM     57  C   UNL     1      -3.493  10.568 -11.723  1.00  0.00     0.074 A 
ATOM     58  C   UNL     1      -2.401  10.724 -10.788  1.00  0.00     0.031 C 
ATOM     59  C   UNL     1      -4.140   4.199 -12.154  1.00  0.00     0.029 A 
ATOM     60  C   UNL     1      -4.959   5.223 -12.793  1.00  0.00     0.049 A 
ATOM     61  H   UNL     1      -4.682   7.287 -12.733  1.00  0.00     0.167 HD
ATOM     62  C   UNL     1      -4.187  11.598 -12.261  1.00  0.00     0.034 A 
ATOM     63  C   UNL     1      -6.052   4.986 -13.545  1.00  0.00     0.034 A 
ATOM     64  C   UNL     1      -5.249  11.441 -13.219  1.00  0.00     0.049 A 
ATOM     65  C   UNL     1      -6.770   6.147 -14.174  1.00  0.00     0.074 A 
ATOM     66  C   UNL     1      -5.942  12.425 -13.902  1.00  0.00     0.029 A 
ATOM     67  N   UNL     1      -5.785  10.226 -13.616  1.00  0.00    -0.354 N 
ATOM     68  N   UNL     1      -6.500   7.428 -14.091  1.00  0.00    -0.248 NA
ATOM     69  C   UNL     1      -7.920   5.831 -15.034  1.00  0.00     0.031 C 
ATOM     70  C   UNL     1      -6.924  11.806 -14.682  1.00  0.00     0.029 A 
ATOM     71  C   UNL     1      -6.815  10.435 -14.518  1.00  0.00     0.049 A 
ATOM     72  H   UNL     1      -5.479   9.345 -13.302  1.00  0.00     0.167 HD
ATOM     73  C   UNL     1      -7.427   8.066 -14.906  1.00  0.00     0.074 A 
ATOM     74  C   UNL     1      -8.243   7.028 -15.501  1.00  0.00     0.031 C 
ATOM     75  C   UNL     1      -7.598   9.393 -15.130  1.00  0.00     0.034 A 
BRANCH  62  76
ATOM     76  C   UNL     1      -3.791  12.997 -11.862  1.00  0.00     0.023 A 
ATOM     77  C   UNL     1      -2.563  13.531 -12.307  1.00  0.00     0.012 A 
ATOM     78  C   UNL     1      -4.661  13.806 -11.106  1.00  0.00     0.148 A 
ATOM     79  C   UNL     1      -2.193  14.834 -11.977  1.00  0.00     0.002 A 
ATOM     80  C   UNL     1      -4.307  15.120 -10.822  1.00  0.00     0.091 A 
ATOM     81  F   UNL     1      -5.814  13.275 -10.674  1.00  0.00    -0.205 F 
ATOM     82  C   UNL     1      -3.069  15.631 -11.246  1.00  0.00     0.022 A 
BRANCH  80  83
ATOM     83  S   UNL     1      -5.399  16.255  -9.960  1.00  0.00     0.127 S 
ATOM     84  O   UNL     1      -4.691  16.440  -8.694  1.00  0.00    -0.237 OA
ATOM     85  O   UNL     1      -5.386  17.422 -10.842  1.00  0.00    -0.237 OA
ATOM     86  O   UNL     1      -6.686  15.580  -9.861  1.00  0.00    -0.744 OA
ENDBRANCH  80  83
ENDBRANCH  62  76
BRANCH  63  87
ATOM     87  C   UNL     1      -6.501   3.585 -13.790  1.00  0.00     0.023 A 
ATOM     88  C   UNL     1      -6.386   3.029 -15.079  1.00  0.00     0.012 A 
ATOM     89  C   UNL     1      -7.021   2.795 -12.746  1.00  0.00     0.148 A 
ATOM     90  C   UNL     1      -6.815   1.726 -15.333  1.00  0.00     0.002 A 
ATOM     91  C   UNL     1      -7.390   1.478 -12.993  1.00  0.00     0.091 A 
ATOM     92  F   UNL     1      -7.132   3.345 -11.529  1.00  0.00    -0.205 F 
ATOM     93  C   UNL     1      -7.307   0.948 -14.289  1.00  0.00     0.022 A 
BRANCH  91  94
ATOM     94  S   UNL     1      -7.901   0.362 -11.682  1.00  0.00     0.127 S 
ATOM     95  O   UNL     1      -9.321   0.186 -11.975  1.00  0.00    -0.237 OA
ATOM     96  O   UNL     1      -7.067  -0.812 -11.944  1.00  0.00    -0.237 OA
ATOM     97  O   UNL     1      -7.591   1.050 -10.436  1.00  0.00    -0.744 OA
ENDBRANCH  91  94
ENDBRANCH  63  87
BRANCH  75  98
ATOM     98  C   UNL     1      -8.696   9.801 -16.079  1.00  0.00     0.023 A 
ATOM     99  C   UNL     1     -10.046   9.646 -15.701  1.00  0.00     0.012 A 
ATOM    100  C   UNL     1      -8.391  10.384 -17.324  1.00  0.00     0.148 A 
ATOM    101  C   UNL     1     -11.072  10.021 -16.567  1.00  0.00     0.002 A 
ATOM    102  C   UNL     1      -9.419  10.807 -18.158  1.00  0.00     0.091 A 
ATOM    103  F   UNL     1      -7.102  10.510 -17.674  1.00  0.00    -0.205 F 
ATOM    104  C   UNL     1     -10.759  10.611 -17.789  1.00  0.00     0.022 A 
BRANCH 102 105
ATOM    105  S   UNL     1      -9.111  11.665 -19.706  1.00  0.00     0.127 S 
ATOM    106  O   UNL     1      -9.467  10.643 -20.689  1.00  0.00    -0.237 OA
ATOM    107  O   UNL     1     -10.046  12.788 -19.628  1.00  0.00    -0.237 OA
ATOM    108  O   UNL     1      -7.705  12.047 -19.681  1.00  0.00    -0.744 OA
ENDBRANCH 102 105
ENDBRANCH  75  98
ENDBRANCH  49  50
ENDBRANCH  41  44
ENDBRANCH  39  40
ENDBRANCH  38  39
ENDBRANCH   1  38
TORSDOF 19
