REMARK SMILES CC[C@@H](C)N(C)S(=O)(=O)c1cc(C(=O)NCCCCNC(=O)c2ccc(-c3c4nc(c(-c5cccc(S(=O)(=O)[O-])c5F)c5ccc([nH]5)c(-c5cccc(S(=O)(=O)[O-])c5F)c5nc(c(-c6cccc(S(=O)(=O)[O-])c6F)c6ccc3[nH]6)C=C5)C=C4)cc2)c(C)cc1C
REMARK SMILES IDX 17 1 16 2 15 3 13 4 14 5 12 7 10 8 11 9 89 10 88 11 90 12
REMARK SMILES IDX 86 13 87 14 7 15 8 16 9 17 5 18 6 19 3 20 4 21 2 22 1 23
REMARK SMILES IDX 18 24 19 25 20 26 21 27 22 29 23 30 24 31 85 32 25 33 84 34
REMARK SMILES IDX 26 35 27 36 28 37 78 38 29 39 83 40 77 41 79 42 30 43 82 44
REMARK SMILES IDX 76 45 75 46 31 48 63 49 43 50 62 51 44 52 47 53 61 54 80 55
REMARK SMILES IDX 45 56 46 57 60 59 81 60 48 61 32 62 33 63 41 64 34 65 36 66
REMARK SMILES IDX 42 67 35 68 37 69 38 70 39 71 40 72 64 73 65 74 73 75 66 76
REMARK SMILES IDX 68 77 74 78 67 79 69 80 70 81 71 82 72 83 49 84 50 85 58 86
REMARK SMILES IDX 51 87 53 88 59 89 52 90 54 91 55 92 56 93 57 94
REMARK H PARENT 15 6 20 28 79 47 47 58
REMARK Flexibility Score: inf
ROOT
ATOM      1  C   UNL     1      -3.143  10.113  -4.375  1.00  0.00     0.023 C 
ENDROOT
BRANCH   1   2
ATOM      2  C   UNL     1      -1.779   9.442  -4.573  1.00  0.00     0.116 C 
BRANCH   2   3
ATOM      3  N   UNL     1      -1.419   8.716  -3.378  1.00  0.00    -0.352 N 
ATOM      4  C   UNL     1      -1.587   7.435  -2.931  1.00  0.00     0.251 C 
ATOM      5  O   UNL     1      -1.193   7.243  -1.774  1.00  0.00    -0.269 OA
ATOM      6  H   UNL     1      -0.937   9.278  -2.729  1.00  0.00     0.163 HD
BRANCH   4   7
ATOM      7  C   UNL     1      -2.106   6.244  -3.697  1.00  0.00     0.044 A 
ATOM      8  C   UNL     1      -2.016   3.763  -3.691  1.00  0.00     0.086 A 
ATOM      9  C   UNL     1      -1.599   5.014  -3.199  1.00  0.00     0.036 A 
ATOM     10  C   UNL     1      -2.915   3.696  -4.758  1.00  0.00    -0.031 A 
ATOM     11  C   UNL     1      -3.396   4.902  -5.272  1.00  0.00     0.009 A 
ATOM     12  C   UNL     1      -3.460   2.428  -5.349  1.00  0.00     0.046 C 
ATOM     13  C   UNL     1      -3.078   6.161  -4.712  1.00  0.00    -0.038 A 
ATOM     14  C   UNL     1      -3.954   7.263  -5.216  1.00  0.00     0.045 C 
BRANCH   8  15
ATOM     15  S   UNL     1      -1.487   2.303  -2.802  1.00  0.00     0.243 S 
ATOM     16  O   UNL     1      -1.802   1.138  -3.590  1.00  0.00    -0.207 OA
ATOM     17  O   UNL     1      -2.014   2.450  -1.456  1.00  0.00    -0.207 OA
BRANCH  15  18
ATOM     18  N   UNL     1       0.229   2.389  -2.742  1.00  0.00    -0.198 NA
ATOM     19  C   UNL     1       0.872   2.689  -4.050  1.00  0.00     0.124 C 
BRANCH  18  20
ATOM     20  C   UNL     1       0.931   1.244  -2.027  1.00  0.00     0.069 C 
ATOM     21  C   UNL     1       0.761  -0.092  -2.760  1.00  0.00     0.026 C 
BRANCH  20  22
ATOM     22  C   UNL     1       0.531   1.149  -0.543  1.00  0.00     0.016 C 
ATOM     23  C   UNL     1       1.285   0.070   0.226  1.00  0.00     0.005 C 
ENDBRANCH  20  22
ENDBRANCH  18  20
ENDBRANCH  15  18
ENDBRANCH   8  15
ENDBRANCH   4   7
ENDBRANCH   2   3
ENDBRANCH   1   2
BRANCH   1  24
ATOM     24  C   UNL     1      -3.114  11.569  -3.933  1.00  0.00     0.023 C 
BRANCH  24  25
ATOM     25  C   UNL     1      -2.568  12.528  -4.975  1.00  0.00     0.116 C 
BRANCH  25  26
ATOM     26  N   UNL     1      -3.281  12.491  -6.246  1.00  0.00    -0.352 N 
ATOM     27  C   UNL     1      -3.439  13.514  -7.151  1.00  0.00     0.251 C 
ATOM     28  H   UNL     1      -3.698  11.632  -6.485  1.00  0.00     0.163 HD
ATOM     29  O   UNL     1      -4.127  13.361  -8.155  1.00  0.00    -0.269 OA
BRANCH  27  30
ATOM     30  C   UNL     1      -2.801  14.814  -6.861  1.00  0.00     0.039 A 
ATOM     31  C   UNL     1      -3.575  15.975  -6.909  1.00  0.00     0.014 A 
ATOM     32  C   UNL     1      -1.466  14.864  -6.455  1.00  0.00     0.014 A 
ATOM     33  C   UNL     1      -3.018  17.184  -6.489  1.00  0.00     0.010 A 
ATOM     34  C   UNL     1      -0.951  16.044  -5.942  1.00  0.00     0.010 A 
ATOM     35  C   UNL     1      -1.712  17.221  -5.975  1.00  0.00    -0.014 A 
BRANCH  35  36
ATOM     36  C   UNL     1      -1.094  18.485  -5.508  1.00  0.00     0.031 A 
ATOM     37  C   UNL     1       0.141  19.000  -6.197  1.00  0.00     0.074 A 
ATOM     38  C   UNL     1      -1.579  19.111  -4.418  1.00  0.00     0.049 A 
ATOM     39  N   UNL     1       0.881  20.035  -5.900  1.00  0.00    -0.248 NA
ATOM     40  C   UNL     1       0.636  18.224  -7.349  1.00  0.00     0.031 C 
ATOM     41  C   UNL     1      -2.712  18.655  -3.608  1.00  0.00     0.029 A 
ATOM     42  N   UNL     1      -1.160  20.255  -3.786  1.00  0.00    -0.354 N 
ATOM     43  C   UNL     1       1.948  20.005  -6.790  1.00  0.00     0.074 A 
ATOM     44  C   UNL     1       1.787  18.824  -7.608  1.00  0.00     0.031 C 
ATOM     45  C   UNL     1      -2.904  19.517  -2.595  1.00  0.00     0.029 A 
ATOM     46  C   UNL     1      -1.898  20.572  -2.670  1.00  0.00     0.049 A 
ATOM     47  H   UNL     1      -0.403  20.798  -4.103  1.00  0.00     0.167 HD
ATOM     48  C   UNL     1       2.949  20.902  -6.946  1.00  0.00     0.034 A 
ATOM     49  C   UNL     1      -1.778  21.602  -1.810  1.00  0.00     0.034 A 
ATOM     50  C   UNL     1       3.058  22.113  -6.183  1.00  0.00     0.049 A 
ATOM     51  C   UNL     1      -0.710  22.634  -2.060  1.00  0.00     0.074 A 
ATOM     52  C   UNL     1       3.972  23.140  -6.324  1.00  0.00     0.029 A 
ATOM     53  N   UNL     1       2.215  22.464  -5.140  1.00  0.00    -0.354 N 
ATOM     54  N   UNL     1       0.193  22.674  -3.010  1.00  0.00    -0.248 NA
ATOM     55  C   UNL     1      -0.671  23.786  -1.147  1.00  0.00     0.031 C 
ATOM     56  C   UNL     1       3.685  24.112  -5.360  1.00  0.00     0.029 A 
ATOM     57  C   UNL     1       2.582  23.696  -4.631  1.00  0.00     0.049 A 
ATOM     58  H   UNL     1       1.466  21.917  -4.810  1.00  0.00     0.167 HD
ATOM     59  C   UNL     1       0.877  23.872  -2.837  1.00  0.00     0.074 A 
ATOM     60  C   UNL     1       0.273  24.536  -1.700  1.00  0.00     0.031 C 
ATOM     61  C   UNL     1       1.922  24.371  -3.543  1.00  0.00     0.034 A 
BRANCH  48  62
ATOM     62  C   UNL     1       3.958  20.639  -8.032  1.00  0.00     0.023 A 
ATOM     63  C   UNL     1       3.571  20.763  -9.383  1.00  0.00     0.012 A 
ATOM     64  C   UNL     1       5.291  20.306  -7.723  1.00  0.00     0.148 A 
ATOM     65  C   UNL     1       4.482  20.522 -10.409  1.00  0.00     0.002 A 
ATOM     66  C   UNL     1       6.206  20.113  -8.752  1.00  0.00     0.091 A 
ATOM     67  F   UNL     1       5.635  20.167  -6.435  1.00  0.00    -0.205 F 
ATOM     68  C   UNL     1       5.801  20.208 -10.094  1.00  0.00     0.022 A 
BRANCH  66  69
ATOM     69  S   UNL     1       7.945  19.781  -8.450  1.00  0.00     0.127 S 
ATOM     70  O   UNL     1       8.046  18.372  -8.826  1.00  0.00    -0.237 OA
ATOM     71  O   UNL     1       8.601  20.706  -9.375  1.00  0.00    -0.237 OA
ATOM     72  O   UNL     1       8.170  20.072  -7.041  1.00  0.00    -0.744 OA
ENDBRANCH  66  69
ENDBRANCH  48  62
BRANCH  49  73
ATOM     73  C   UNL     1      -2.752  21.762  -0.693  1.00  0.00     0.023 A 
ATOM     74  C   UNL     1      -3.702  22.801  -0.754  1.00  0.00     0.012 A 
ATOM     75  C   UNL     1      -2.765  20.885   0.408  1.00  0.00     0.148 A 
ATOM     76  C   UNL     1      -4.624  22.986   0.277  1.00  0.00     0.002 A 
ATOM     77  C   UNL     1      -3.720  21.043   1.407  1.00  0.00     0.091 A 
ATOM     78  F   UNL     1      -1.847  19.909   0.454  1.00  0.00    -0.205 F 
ATOM     79  C   UNL     1      -4.639  22.102   1.352  1.00  0.00     0.022 A 
BRANCH  77  80
ATOM     80  S   UNL     1      -3.894  19.877   2.763  1.00  0.00     0.127 S 
ATOM     81  O   UNL     1      -3.357  20.642   3.886  1.00  0.00    -0.237 OA
ATOM     82  O   UNL     1      -5.341  19.665   2.797  1.00  0.00    -0.237 OA
ATOM     83  O   UNL     1      -3.127  18.704   2.368  1.00  0.00    -0.744 OA
ENDBRANCH  77  80
ENDBRANCH  49  73
BRANCH  61  84
ATOM     84  C   UNL     1       2.454  25.721  -3.147  1.00  0.00     0.023 A 
ATOM     85  C   UNL     1       3.221  25.854  -1.974  1.00  0.00     0.012 A 
ATOM     86  C   UNL     1       2.269  26.837  -3.986  1.00  0.00     0.148 A 
ATOM     87  C   UNL     1       3.773  27.086  -1.626  1.00  0.00     0.002 A 
ATOM     88  C   UNL     1       2.862  28.050  -3.658  1.00  0.00     0.091 A 
ATOM     89  F   UNL     1       1.518  26.693  -5.088  1.00  0.00    -0.205 F 
ATOM     90  C   UNL     1       3.605  28.179  -2.474  1.00  0.00     0.022 A 
BRANCH  88  91
ATOM     91  S   UNL     1       2.780  29.479  -4.743  1.00  0.00     0.127 S 
ATOM     92  O   UNL     1       1.795  30.316  -4.061  1.00  0.00    -0.237 OA
ATOM     93  O   UNL     1       4.151  29.988  -4.694  1.00  0.00    -0.237 OA
ATOM     94  O   UNL     1       2.376  28.967  -6.046  1.00  0.00    -0.744 OA
ENDBRANCH  88  91
ENDBRANCH  61  84
ENDBRANCH  35  36
ENDBRANCH  27  30
ENDBRANCH  25  26
ENDBRANCH  24  25
ENDBRANCH   1  24
TORSDOF 18
