REMARK SMILES C=CC[N@@H+](CC(=O)NCCCCNC(=O)c1ccc(-c2c3nc(c(-c4cccc(S(=O)(=O)[O-])c4F)c4ccc([nH]4)c(-c4cccc(S(=O)(=O)[O-])c4F)c4nc(c(-c5cccc(S(=O)(=O)[O-])c5F)c5ccc2[nH]5)C=C4)C=C3)cc1)C1CCSCC1
REMARK SMILES IDX 10 1 9 2 8 3 6 4 7 5 5 7 4 8 3 10 2 11 1 12 79 13 80 14
REMARK SMILES IDX 84 15 81 16 83 17 82 18 11 19 12 20 13 21 14 22 15 24 16 25
REMARK SMILES IDX 17 26 78 27 18 28 77 29 19 30 20 31 21 32 71 33 22 34 76 35
REMARK SMILES IDX 70 36 72 37 23 38 75 39 69 40 68 41 24 43 56 44 36 45 55 46
REMARK SMILES IDX 37 47 40 48 54 49 73 50 38 51 39 52 53 54 74 55 41 56 25 57
REMARK SMILES IDX 26 58 34 59 27 60 29 61 35 62 28 63 30 64 31 65 32 66 33 67
REMARK SMILES IDX 57 68 58 69 66 70 59 71 61 72 67 73 60 74 62 75 63 76 64 77
REMARK SMILES IDX 65 78 42 79 43 80 51 81 44 82 46 83 52 84 45 85 47 86 48 87
REMARK SMILES IDX 49 88 50 89
REMARK H PARENT 8 6 4 9 13 23 72 42 40 53
REMARK Flexibility Score: inf
ROOT
ATOM      1  C   UNL     1      -1.597   0.025  -1.408  1.00  0.00     0.023 C 
ENDROOT
BRANCH   1   2
ATOM      2  C   UNL     1      -2.887   0.704  -0.947  1.00  0.00     0.116 C 
BRANCH   2   3
ATOM      3  N   UNL     1      -3.605  -0.090   0.026  1.00  0.00    -0.351 N 
ATOM      4  C   UNL     1      -3.667   0.025   1.384  1.00  0.00     0.275 C 
ATOM      5  O   UNL     1      -4.430  -0.741   1.983  1.00  0.00    -0.269 OA
ATOM      6  H   UNL     1      -4.132  -0.831  -0.352  1.00  0.00     0.163 HD
BRANCH   4   7
ATOM      7  C   UNL     1      -2.870   1.085   2.151  1.00  0.00     0.364 C 
BRANCH   7   8
ATOM      8  N   UNL     1      -1.457   0.775   2.450  1.00  0.00    -0.321 N 
ATOM      9  H   UNL     1      -1.319   1.241   3.347  1.00  0.00     0.349 HD
BRANCH   8  10
ATOM     10  C   UNL     1      -0.510   1.453   1.577  1.00  0.00     0.291 C 
BRANCH  10  11
ATOM     11  C   UNL     1       0.948   1.221   1.844  1.00  0.00     0.025 C 
ATOM     12  C   UNL     1       1.766   0.566   1.007  1.00  0.00     0.010 C 
ENDBRANCH  10  11
ENDBRANCH   8  10
BRANCH   8  13
ATOM     13  C   UNL     1      -1.098  -0.525   3.041  1.00  0.00     0.186 C 
ATOM     14  C   UNL     1      -1.186  -1.750   2.112  1.00  0.00     0.076 C 
ATOM     15  C   UNL     1      -1.853  -0.755   4.364  1.00  0.00     0.076 C 
ATOM     16  C   UNL     1      -0.598  -3.017   2.728  1.00  0.00     0.075 C 
ATOM     17  C   UNL     1      -1.270  -1.914   5.163  1.00  0.00     0.075 C 
ATOM     18  S   UNL     1      -1.407  -3.489   4.283  1.00  0.00    -0.162 SA
ENDBRANCH   8  13
ENDBRANCH   7   8
ENDBRANCH   4   7
ENDBRANCH   2   3
ENDBRANCH   1   2
BRANCH   1  19
ATOM     19  C   UNL     1      -1.758  -1.093  -2.425  1.00  0.00     0.023 C 
BRANCH  19  20
ATOM     20  C   UNL     1      -2.307  -0.653  -3.770  1.00  0.00     0.116 C 
BRANCH  20  21
ATOM     21  N   UNL     1      -1.508   0.380  -4.425  1.00  0.00    -0.352 N 
ATOM     22  C   UNL     1      -1.210   0.490  -5.765  1.00  0.00     0.251 C 
ATOM     23  H   UNL     1      -1.140   1.080  -3.840  1.00  0.00     0.163 HD
ATOM     24  O   UNL     1      -0.465   1.373  -6.177  1.00  0.00    -0.269 OA
BRANCH  22  25
ATOM     25  C   UNL     1      -1.777  -0.514  -6.686  1.00  0.00     0.039 A 
ATOM     26  C   UNL     1      -0.919  -1.268  -7.488  1.00  0.00     0.014 A 
ATOM     27  C   UNL     1      -3.143  -0.795  -6.633  1.00  0.00     0.014 A 
ATOM     28  C   UNL     1      -1.423  -2.377  -8.172  1.00  0.00     0.010 A 
ATOM     29  C   UNL     1      -3.618  -1.951  -7.233  1.00  0.00     0.010 A 
ATOM     30  C   UNL     1      -2.765  -2.754  -8.008  1.00  0.00    -0.014 A 
BRANCH  30  31
ATOM     31  C   UNL     1      -3.338  -3.968  -8.641  1.00  0.00     0.031 A 
ATOM     32  C   UNL     1      -4.509  -3.813  -9.573  1.00  0.00     0.074 A 
ATOM     33  C   UNL     1      -2.912  -5.195  -8.277  1.00  0.00     0.049 A 
ATOM     34  N   UNL     1      -5.314  -4.724 -10.049  1.00  0.00    -0.248 NA
ATOM     35  C   UNL     1      -4.853  -2.437  -9.976  1.00  0.00     0.031 C 
ATOM     36  C   UNL     1      -1.831  -5.478  -7.331  1.00  0.00     0.029 A 
ATOM     37  N   UNL     1      -3.367  -6.439  -8.638  1.00  0.00    -0.354 N 
ATOM     38  C   UNL     1      -6.295  -4.029 -10.746  1.00  0.00     0.074 A 
ATOM     39  C   UNL     1      -6.003  -2.620 -10.605  1.00  0.00     0.031 C 
ATOM     40  C   UNL     1      -1.701  -6.808  -7.193  1.00  0.00     0.029 A 
ATOM     41  C   UNL     1      -2.711  -7.473  -8.009  1.00  0.00     0.049 A 
ATOM     42  H   UNL     1      -4.095  -6.578  -9.286  1.00  0.00     0.167 HD
ATOM     43  C   UNL     1      -7.329  -4.520 -11.468  1.00  0.00     0.034 A 
ATOM     44  C   UNL     1      -2.910  -8.804  -8.083  1.00  0.00     0.034 A 
ATOM     45  C   UNL     1      -7.552  -5.921 -11.686  1.00  0.00     0.049 A 
ATOM     46  C   UNL     1      -4.003  -9.326  -8.979  1.00  0.00     0.074 A 
ATOM     47  C   UNL     1      -8.525  -6.529 -12.458  1.00  0.00     0.029 A 
ATOM     48  N   UNL     1      -6.768  -6.933 -11.154  1.00  0.00    -0.354 N 
ATOM     49  N   UNL     1      -4.857  -8.655  -9.714  1.00  0.00    -0.248 NA
ATOM     50  C   UNL     1      -4.139 -10.787  -9.085  1.00  0.00     0.031 C 
ATOM     51  C   UNL     1      -8.316  -7.911 -12.410  1.00  0.00     0.029 A 
ATOM     52  C   UNL     1      -7.214  -8.160 -11.606  1.00  0.00     0.049 A 
ATOM     53  H   UNL     1      -6.007  -6.798 -10.545  1.00  0.00     0.167 HD
ATOM     54  C   UNL     1      -5.598  -9.608 -10.403  1.00  0.00     0.074 A 
ATOM     55  C   UNL     1      -5.086 -10.903 -10.007  1.00  0.00     0.031 C 
ATOM     56  C   UNL     1      -6.623  -9.429 -11.271  1.00  0.00     0.034 A 
BRANCH  43  57
ATOM     57  C   UNL     1      -8.238  -3.530 -12.143  1.00  0.00     0.023 A 
ATOM     58  C   UNL     1      -7.766  -2.817 -13.264  1.00  0.00     0.012 A 
ATOM     59  C   UNL     1      -9.558  -3.327 -11.699  1.00  0.00     0.148 A 
ATOM     60  C   UNL     1      -8.580  -1.890 -13.911  1.00  0.00     0.002 A 
ATOM     61  C   UNL     1     -10.379  -2.431 -12.376  1.00  0.00     0.091 A 
ATOM     62  F   UNL     1      -9.981  -3.994 -10.616  1.00  0.00    -0.205 F 
ATOM     63  C   UNL     1      -9.888  -1.704 -13.473  1.00  0.00     0.022 A 
BRANCH  61  64
ATOM     64  S   UNL     1     -12.101  -2.176 -11.934  1.00  0.00     0.127 S 
ATOM     65  O   UNL     1     -12.048  -0.872 -11.276  1.00  0.00    -0.237 OA
ATOM     66  O   UNL     1     -12.760  -2.174 -13.241  1.00  0.00    -0.237 OA
ATOM     67  O   UNL     1     -12.462  -3.298 -11.078  1.00  0.00    -0.744 OA
ENDBRANCH  61  64
ENDBRANCH  43  57
BRANCH  44  68
ATOM     68  C   UNL     1      -1.996  -9.742  -7.371  1.00  0.00     0.023 A 
ATOM     69  C   UNL     1      -1.082 -10.504  -8.127  1.00  0.00     0.012 A 
ATOM     70  C   UNL     1      -2.003  -9.877  -5.971  1.00  0.00     0.148 A 
ATOM     71  C   UNL     1      -0.218 -11.406  -7.506  1.00  0.00     0.002 A 
ATOM     72  C   UNL     1      -1.105 -10.744  -5.353  1.00  0.00     0.091 A 
ATOM     73  F   UNL     1      -2.889  -9.159  -5.264  1.00  0.00    -0.205 F 
ATOM     74  C   UNL     1      -0.223 -11.520  -6.120  1.00  0.00     0.022 A 
BRANCH  72  75
ATOM     75  S   UNL     1      -0.966 -10.850  -3.565  1.00  0.00     0.127 S 
ATOM     76  O   UNL     1      -1.753 -12.043  -3.272  1.00  0.00    -0.237 OA
ATOM     77  O   UNL     1       0.478 -11.001  -3.373  1.00  0.00    -0.237 OA
ATOM     78  O   UNL     1      -1.500  -9.588  -3.069  1.00  0.00    -0.744 OA
ENDBRANCH  72  75
ENDBRANCH  44  68
BRANCH  56  79
ATOM     79  C   UNL     1      -7.223 -10.649 -11.912  1.00  0.00     0.023 A 
ATOM     80  C   UNL     1      -8.117 -11.453 -11.179  1.00  0.00     0.012 A 
ATOM     81  C   UNL     1      -6.991 -10.927 -13.273  1.00  0.00     0.148 A 
ATOM     82  C   UNL     1      -8.761 -12.527 -11.790  1.00  0.00     0.002 A 
ATOM     83  C   UNL     1      -7.666 -11.975 -13.885  1.00  0.00     0.091 A 
ATOM     84  F   UNL     1      -6.119 -10.159 -13.944  1.00  0.00    -0.205 F 
ATOM     85  C   UNL     1      -8.547 -12.780 -13.143  1.00  0.00     0.022 A 
BRANCH  83  86
ATOM     86  S   UNL     1      -7.520 -12.312 -15.643  1.00  0.00     0.127 S 
ATOM     87  O   UNL     1      -6.665 -13.497 -15.650  1.00  0.00    -0.237 OA
ATOM     88  O   UNL     1      -8.909 -12.560 -16.031  1.00  0.00    -0.237 OA
ATOM     89  O   UNL     1      -6.937 -11.113 -16.232  1.00  0.00    -0.744 OA
ENDBRANCH  83  86
ENDBRANCH  56  79
ENDBRANCH  30  31
ENDBRANCH  22  25
ENDBRANCH  20  21
ENDBRANCH  19  20
ENDBRANCH   1  19
TORSDOF 18
