REMARK SMILES Cc1nn(-c2cccc(C(=O)NCCCCNC(=O)c3ccc(-c4c5nc(c(-c6cccc(S(=O)(=O)[O-])c6F)c6ccc([nH]6)c(-c6cccc(S(=O)(=O)[O-])c6F)c6nc(c(-c7cccc(S(=O)(=O)[O-])c7F)c7ccc4[nH]7)C=C6)C=C5)cc3)c2)c(C)c1Cl
REMARK SMILES IDX 15 1 14 2 13 3 12 4 10 5 11 6 9 8 5 9 6 10 83 11 7 12 8 13
REMARK SMILES IDX 4 14 1 15 2 16 3 17 86 18 84 19 87 20 85 21 16 22 17 23
REMARK SMILES IDX 18 24 19 26 20 27 21 28 82 29 22 30 81 31 23 32 24 33 25 34
REMARK SMILES IDX 75 35 26 36 80 37 74 38 76 39 27 40 79 41 73 42 72 43 28 45
REMARK SMILES IDX 60 46 40 47 59 48 41 49 44 50 58 51 77 52 42 53 43 54 57 56
REMARK SMILES IDX 78 57 45 58 29 59 30 60 38 61 31 62 33 63 39 64 32 65 34 66
REMARK SMILES IDX 35 67 36 68 37 69 61 70 62 71 70 72 63 73 65 74 71 75 64 76
REMARK SMILES IDX 66 77 67 78 68 79 69 80 46 81 47 82 55 83 48 84 50 85 56 86
REMARK SMILES IDX 49 87 51 88 52 89 53 90 54 91
REMARK H PARENT 12 7 17 25 76 44 44 55
REMARK Flexibility Score: inf
ROOT
ATOM      1  C   UNL     1       0.855   6.003  -6.490  1.00  0.00     0.023 C 
ENDROOT
BRANCH   1   2
ATOM      2  C   UNL     1       0.314   5.358  -5.211  1.00  0.00     0.023 C 
BRANCH   2   3
ATOM      3  C   UNL     1       0.275   6.239  -3.962  1.00  0.00     0.116 C 
BRANCH   3   4
ATOM      4  N   UNL     1      -0.853   7.162  -3.913  1.00  0.00    -0.352 N 
ATOM      5  C   UNL     1      -1.986   7.263  -3.132  1.00  0.00     0.251 C 
ATOM      6  O   UNL     1      -2.816   8.119  -3.441  1.00  0.00    -0.269 OA
ATOM      7  H   UNL     1      -0.792   7.874  -4.591  1.00  0.00     0.163 HD
BRANCH   5   8
ATOM      8  C   UNL     1      -2.307   6.347  -1.998  1.00  0.00     0.041 A 
ATOM      9  C   UNL     1      -1.694   4.606  -0.421  1.00  0.00     0.066 A 
ATOM     10  C   UNL     1      -3.046   4.348  -0.169  1.00  0.00     0.028 A 
ATOM     11  C   UNL     1      -1.339   5.668  -1.263  1.00  0.00     0.042 A 
ATOM     12  C   UNL     1      -4.022   5.165  -0.739  1.00  0.00     0.003 A 
ATOM     13  C   UNL     1      -3.655   6.142  -1.670  1.00  0.00     0.014 A 
BRANCH   9  14
ATOM     14  N   UNL     1      -0.694   3.704   0.043  1.00  0.00    -0.236 N 
ATOM     15  C   UNL     1       0.238   0.274   0.082  1.00  0.00     0.070 C 
ATOM     16  C   UNL     1       0.180   1.755   0.158  1.00  0.00     0.079 A 
ATOM     17  N   UNL     1      -1.005   2.380   0.155  1.00  0.00    -0.171 NA
ATOM     18  C   UNL     1       1.243   2.673   0.257  1.00  0.00     0.085 A 
ATOM     19  C   UNL     1       0.661   3.922   0.247  1.00  0.00     0.060 A 
ATOM     20  Cl  UNL     1       2.894   2.301   0.383  1.00  0.00    -0.080 Cl
ATOM     21  C   UNL     1       1.290   5.255   0.440  1.00  0.00     0.068 C 
ENDBRANCH   9  14
ENDBRANCH   5   8
ENDBRANCH   3   4
ENDBRANCH   2   3
ENDBRANCH   1   2
BRANCH   1  22
ATOM     22  C   UNL     1       2.290   6.516  -6.408  1.00  0.00     0.116 C 
BRANCH  22  23
ATOM     23  N   UNL     1       3.268   5.477  -6.086  1.00  0.00    -0.352 N 
ATOM     24  C   UNL     1       4.611   5.653  -5.792  1.00  0.00     0.251 C 
ATOM     25  H   UNL     1       2.935   4.551  -6.077  1.00  0.00     0.163 HD
ATOM     26  O   UNL     1       5.406   4.738  -5.873  1.00  0.00    -0.269 OA
BRANCH  24  27
ATOM     27  C   UNL     1       5.050   6.999  -5.376  1.00  0.00     0.039 A 
ATOM     28  C   UNL     1       6.097   7.646  -6.036  1.00  0.00     0.014 A 
ATOM     29  C   UNL     1       4.326   7.635  -4.369  1.00  0.00     0.014 A 
ATOM     30  C   UNL     1       6.347   8.986  -5.747  1.00  0.00     0.010 A 
ATOM     31  C   UNL     1       4.509   8.983  -4.158  1.00  0.00     0.010 A 
ATOM     32  C   UNL     1       5.530   9.661  -4.828  1.00  0.00    -0.014 A 
BRANCH  32  33
ATOM     33  C   UNL     1       5.640  11.112  -4.671  1.00  0.00     0.031 A 
ATOM     34  C   UNL     1       5.421  11.920  -5.910  1.00  0.00     0.074 A 
ATOM     35  C   UNL     1       5.658  11.710  -3.461  1.00  0.00     0.049 A 
ATOM     36  N   UNL     1       6.242  12.738  -6.487  1.00  0.00    -0.248 NA
ATOM     37  C   UNL     1       4.162  11.727  -6.647  1.00  0.00     0.031 C 
ATOM     38  C   UNL     1       5.518  11.069  -2.147  1.00  0.00     0.029 A 
ATOM     39  N   UNL     1       5.624  13.038  -3.157  1.00  0.00    -0.354 N 
ATOM     40  C   UNL     1       5.525  13.329  -7.531  1.00  0.00     0.074 A 
ATOM     41  C   UNL     1       4.329  12.545  -7.689  1.00  0.00     0.031 C 
ATOM     42  C   UNL     1       5.135  11.993  -1.240  1.00  0.00     0.029 A 
ATOM     43  C   UNL     1       5.182  13.300  -1.864  1.00  0.00     0.049 A 
ATOM     44  H   UNL     1       5.887  13.744  -3.791  1.00  0.00     0.167 HD
ATOM     45  C   UNL     1       5.857  14.555  -8.028  1.00  0.00     0.034 A 
ATOM     46  C   UNL     1       4.824  14.502  -1.354  1.00  0.00     0.034 A 
ATOM     47  C   UNL     1       7.171  14.960  -7.599  1.00  0.00     0.049 A 
ATOM     48  C   UNL     1       5.431  15.543  -2.210  1.00  0.00     0.074 A 
ATOM     49  C   UNL     1       8.451  14.457  -7.717  1.00  0.00     0.029 A 
ATOM     50  N   UNL     1       7.229  15.910  -6.611  1.00  0.00    -0.354 N 
ATOM     51  N   UNL     1       6.716  15.740  -2.307  1.00  0.00    -0.248 NA
ATOM     52  C   UNL     1       4.624  16.134  -3.263  1.00  0.00     0.031 C 
ATOM     53  C   UNL     1       9.087  14.787  -6.484  1.00  0.00     0.029 A 
ATOM     54  C   UNL     1       8.176  15.510  -5.710  1.00  0.00     0.049 A 
ATOM     55  H   UNL     1       6.686  16.731  -6.559  1.00  0.00     0.167 HD
ATOM     56  C   UNL     1       6.912  16.070  -3.640  1.00  0.00     0.074 A 
ATOM     57  C   UNL     1       5.589  16.438  -4.135  1.00  0.00     0.031 C 
ATOM     58  C   UNL     1       8.068  15.729  -4.284  1.00  0.00     0.034 A 
BRANCH  45  59
ATOM     59  C   UNL     1       4.888  15.578  -8.595  1.00  0.00     0.023 A 
ATOM     60  C   UNL     1       5.446  16.750  -9.162  1.00  0.00     0.012 A 
ATOM     61  C   UNL     1       3.498  15.596  -8.345  1.00  0.00     0.148 A 
ATOM     62  C   UNL     1       4.680  17.900  -9.392  1.00  0.00     0.002 A 
ATOM     63  C   UNL     1       2.726  16.713  -8.653  1.00  0.00     0.091 A 
ATOM     64  F   UNL     1       2.921  14.591  -7.681  1.00  0.00    -0.205 F 
ATOM     65  C   UNL     1       3.316  17.880  -9.141  1.00  0.00     0.022 A 
BRANCH  63  66
ATOM     66  S   UNL     1       0.945  16.717  -8.406  1.00  0.00     0.127 S 
ATOM     67  O   UNL     1       0.823  17.498  -7.180  1.00  0.00    -0.237 OA
ATOM     68  O   UNL     1       0.474  17.386  -9.619  1.00  0.00    -0.237 OA
ATOM     69  O   UNL     1       0.568  15.312  -8.319  1.00  0.00    -0.744 OA
ENDBRANCH  63  66
ENDBRANCH  45  59
BRANCH  46  70
ATOM     70  C   UNL     1       3.836  14.823  -0.303  1.00  0.00     0.023 A 
ATOM     71  C   UNL     1       3.943  16.032   0.409  1.00  0.00     0.012 A 
ATOM     72  C   UNL     1       2.642  14.077  -0.181  1.00  0.00     0.148 A 
ATOM     73  C   UNL     1       2.883  16.503   1.191  1.00  0.00     0.002 A 
ATOM     74  C   UNL     1       1.593  14.545   0.605  1.00  0.00     0.091 A 
ATOM     75  F   UNL     1       2.503  12.958  -0.906  1.00  0.00    -0.205 F 
ATOM     76  C   UNL     1       1.705  15.765   1.282  1.00  0.00     0.022 A 
BRANCH  74  77
ATOM     77  S   UNL     1       0.040  13.653   0.757  1.00  0.00     0.127 S 
ATOM     78  O   UNL     1      -0.186  13.682   2.203  1.00  0.00    -0.237 OA
ATOM     79  O   UNL     1      -0.866  14.491  -0.022  1.00  0.00    -0.237 OA
ATOM     80  O   UNL     1       0.296  12.321   0.222  1.00  0.00    -0.744 OA
ENDBRANCH  74  77
ENDBRANCH  46  70
BRANCH  58  81
ATOM     81  C   UNL     1       9.237  15.261  -3.454  1.00  0.00     0.023 A 
ATOM     82  C   UNL     1       9.184  14.087  -2.673  1.00  0.00     0.012 A 
ATOM     83  C   UNL     1      10.470  15.918  -3.607  1.00  0.00     0.148 A 
ATOM     84  C   UNL     1      10.328  13.595  -2.040  1.00  0.00     0.002 A 
ATOM     85  C   UNL     1      11.615  15.399  -3.015  1.00  0.00     0.091 A 
ATOM     86  F   UNL     1      10.507  17.030  -4.357  1.00  0.00    -0.205 F 
ATOM     87  C   UNL     1      11.547  14.243  -2.222  1.00  0.00     0.022 A 
BRANCH  85  88
ATOM     88  S   UNL     1      13.232  16.111  -3.325  1.00  0.00     0.127 S 
ATOM     89  O   UNL     1      13.480  16.855  -2.092  1.00  0.00    -0.237 OA
ATOM     90  O   UNL     1      14.072  14.925  -3.504  1.00  0.00    -0.237 OA
ATOM     91  O   UNL     1      13.087  16.920  -4.530  1.00  0.00    -0.744 OA
ENDBRANCH  85  88
ENDBRANCH  58  81
ENDBRANCH  32  33
ENDBRANCH  24  27
ENDBRANCH  22  23
ENDBRANCH   1  22
TORSDOF 15
