REMARK SMILES CCOc1cc(/C=C(/F)C(=O)NCCCCNC(=O)c2ccc(-c3c4nc(c(-c5cccc(S(=O)(=O)[O-])c5F)c5ccc([nH]5)c(-c5cccc(S(=O)(=O)[O-])c5F)c5nc(c(-c6cccc(S(=O)(=O)[O-])c6F)c6ccc3[nH]6)C=C5)C=C4)cc2)ccc1O
REMARK SMILES IDX 14 1 13 2 12 3 10 4 11 5 8 7 7 8 9 9 6 10 4 11 5 12 85 13
REMARK SMILES IDX 84 14 83 15 3 16 2 17 1 18 86 19 15 21 16 22 17 23 18 24
REMARK SMILES IDX 19 26 20 27 21 28 82 29 22 30 81 31 23 32 24 33 25 34 75 35
REMARK SMILES IDX 26 36 80 37 74 38 76 39 27 40 79 41 73 42 72 43 28 45 60 46
REMARK SMILES IDX 40 47 59 48 41 49 44 50 58 51 77 52 42 53 43 54 57 56 78 57
REMARK SMILES IDX 45 58 29 59 30 60 38 61 31 62 33 63 39 64 32 65 34 66 35 67
REMARK SMILES IDX 36 68 37 69 61 70 62 71 70 72 63 73 65 74 71 75 64 76 66 77
REMARK SMILES IDX 67 78 68 79 69 80 46 81 47 82 55 83 48 84 50 85 56 86 49 87
REMARK SMILES IDX 51 88 52 89 53 90 54 91
REMARK H PARENT 12 6 86 20 17 25 76 44 44 55
REMARK Flexibility Score: inf
ROOT
ATOM      1  C   UNL     1       2.783  -7.288  -5.066  1.00  0.00     0.023 C 
ENDROOT
BRANCH   1   2
ATOM      2  C   UNL     1       1.823  -6.449  -5.907  1.00  0.00     0.116 C 
BRANCH   2   3
ATOM      3  N   UNL     1       1.210  -5.355  -5.173  1.00  0.00    -0.350 N 
ATOM      4  C   UNL     1       1.257  -4.000  -5.317  1.00  0.00     0.280 C 
ATOM      5  O   UNL     1       0.474  -3.339  -4.635  1.00  0.00    -0.267 OA
ATOM      6  H   UNL     1       0.648  -5.652  -4.421  1.00  0.00     0.163 HD
BRANCH   4   7
ATOM      7  C   UNL     1       2.210  -3.356  -6.267  1.00  0.00     0.188 C 
ATOM      8  C   UNL     1       2.640  -2.084  -6.279  1.00  0.00     0.053 C 
ATOM      9  F   UNL     1       2.650  -4.141  -7.276  1.00  0.00    -0.201 F 
BRANCH   8  10
ATOM     10  C   UNL     1       2.395  -0.936  -5.388  1.00  0.00    -0.019 A 
ATOM     11  C   UNL     1       2.050   0.099  -3.211  1.00  0.00     0.161 A 
ATOM     12  C   UNL     1       2.190  -1.044  -4.005  1.00  0.00     0.058 A 
ATOM     13  C   UNL     1       2.181   1.362  -3.786  1.00  0.00     0.157 A 
ATOM     14  C   UNL     1       2.386   1.495  -5.151  1.00  0.00     0.051 A 
ATOM     15  C   UNL     1       2.501   0.351  -5.946  1.00  0.00     0.012 A 
BRANCH  11  16
ATOM     16  O   UNL     1       1.981  -0.071  -1.854  1.00  0.00    -0.490 OA
BRANCH  16  17
ATOM     17  C   UNL     1       0.723   0.317  -1.286  1.00  0.00     0.226 C 
ATOM     18  C   UNL     1       0.826   0.065   0.210  1.00  0.00     0.049 C 
ENDBRANCH  16  17
ENDBRANCH  11  16
BRANCH  13  19
ATOM     19  O   UNL     1       2.207   2.498  -3.029  1.00  0.00    -0.504 OA
ATOM     20  H   UNL     1       2.072   2.448  -2.103  1.00  0.00     0.293 HD
ENDBRANCH  13  19
ENDBRANCH   8  10
ENDBRANCH   4   7
ENDBRANCH   2   3
ENDBRANCH   1   2
BRANCH   1  21
ATOM     21  C   UNL     1       2.205  -7.875  -3.776  1.00  0.00     0.023 C 
BRANCH  21  22
ATOM     22  C   UNL     1       0.862  -8.586  -3.902  1.00  0.00     0.116 C 
BRANCH  22  23
ATOM     23  N   UNL     1       0.882  -9.689  -4.849  1.00  0.00    -0.352 N 
ATOM     24  C   UNL     1       0.420 -10.976  -4.701  1.00  0.00     0.251 C 
ATOM     25  H   UNL     1       1.285  -9.485  -5.723  1.00  0.00     0.163 HD
ATOM     26  O   UNL     1       0.634 -11.800  -5.583  1.00  0.00    -0.269 OA
BRANCH  24  27
ATOM     27  C   UNL     1      -0.306 -11.375  -3.473  1.00  0.00     0.039 A 
ATOM     28  C   UNL     1       0.019 -12.594  -2.870  1.00  0.00     0.014 A 
ATOM     29  C   UNL     1      -1.301 -10.567  -2.918  1.00  0.00     0.014 A 
ATOM     30  C   UNL     1      -0.613 -12.972  -1.682  1.00  0.00     0.010 A 
ATOM     31  C   UNL     1      -1.872 -10.908  -1.693  1.00  0.00     0.010 A 
ATOM     32  C   UNL     1      -1.542 -12.118  -1.065  1.00  0.00    -0.014 A 
BRANCH  32  33
ATOM     33  C   UNL     1      -2.167 -12.477   0.236  1.00  0.00     0.031 A 
ATOM     34  C   UNL     1      -3.657 -12.665   0.342  1.00  0.00     0.074 A 
ATOM     35  C   UNL     1      -1.399 -12.569   1.341  1.00  0.00     0.049 A 
ATOM     36  N   UNL     1      -4.379 -12.954   1.394  1.00  0.00    -0.248 NA
ATOM     37  C   UNL     1      -4.444 -12.480  -0.888  1.00  0.00     0.031 C 
ATOM     38  C   UNL     1       0.045 -12.334   1.390  1.00  0.00     0.029 A 
ATOM     39  N   UNL     1      -1.730 -12.864   2.641  1.00  0.00    -0.354 N 
ATOM     40  C   UNL     1      -5.700 -12.953   0.963  1.00  0.00     0.074 A 
ATOM     41  C   UNL     1      -5.685 -12.598  -0.439  1.00  0.00     0.031 C 
ATOM     42  C   UNL     1       0.477 -12.502   2.650  1.00  0.00     0.029 A 
ATOM     43  C   UNL     1      -0.660 -12.825   3.505  1.00  0.00     0.049 A 
ATOM     44  H   UNL     1      -2.646 -13.082   2.928  1.00  0.00     0.167 HD
ATOM     45  C   UNL     1      -6.824 -13.248   1.661  1.00  0.00     0.034 A 
ATOM     46  C   UNL     1      -0.600 -13.019   4.837  1.00  0.00     0.034 A 
ATOM     47  C   UNL     1      -6.835 -13.633   3.047  1.00  0.00     0.049 A 
ATOM     48  C   UNL     1      -1.858 -13.378   5.582  1.00  0.00     0.074 A 
ATOM     49  C   UNL     1      -7.911 -14.030   3.821  1.00  0.00     0.029 A 
ATOM     50  N   UNL     1      -5.720 -13.656   3.871  1.00  0.00    -0.354 N 
ATOM     51  N   UNL     1      -3.077 -13.523   5.122  1.00  0.00    -0.248 NA
ATOM     52  C   UNL     1      -1.725 -13.639   7.022  1.00  0.00     0.031 C 
ATOM     53  C   UNL     1      -7.453 -14.260   5.122  1.00  0.00     0.029 A 
ATOM     54  C   UNL     1      -6.084 -14.050   5.148  1.00  0.00     0.049 A 
ATOM     55  H   UNL     1      -4.805 -13.427   3.590  1.00  0.00     0.167 HD
ATOM     56  C   UNL     1      -3.847 -13.932   6.205  1.00  0.00     0.074 A 
ATOM     57  C   UNL     1      -2.951 -14.031   7.339  1.00  0.00     0.031 C 
ATOM     58  C   UNL     1      -5.177 -14.193   6.258  1.00  0.00     0.034 A 
BRANCH  45  59
ATOM     59  C   UNL     1      -8.139 -13.207   0.923  1.00  0.00     0.023 A 
ATOM     60  C   UNL     1      -8.423 -14.183  -0.054  1.00  0.00     0.012 A 
ATOM     61  C   UNL     1      -9.115 -12.240   1.236  1.00  0.00     0.148 A 
ATOM     62  C   UNL     1      -9.640 -14.175  -0.736  1.00  0.00     0.002 A 
ATOM     63  C   UNL     1     -10.345 -12.269   0.588  1.00  0.00     0.091 A 
ATOM     64  F   UNL     1      -8.821 -11.309   2.154  1.00  0.00    -0.205 F 
ATOM     65  C   UNL     1     -10.603 -13.226  -0.407  1.00  0.00     0.022 A 
BRANCH  63  66
ATOM     66  S   UNL     1     -11.684 -11.144   0.998  1.00  0.00     0.127 S 
ATOM     67  O   UNL     1     -11.749 -10.314  -0.204  1.00  0.00    -0.237 OA
ATOM     68  O   UNL     1     -12.812 -12.060   1.168  1.00  0.00    -0.237 OA
ATOM     69  O   UNL     1     -11.273 -10.453   2.211  1.00  0.00    -0.744 OA
ENDBRANCH  63  66
ENDBRANCH  45  59
BRANCH  46  70
ATOM     70  C   UNL     1       0.708 -12.937   5.547  1.00  0.00     0.023 A 
ATOM     71  C   UNL     1       1.286 -14.108   6.077  1.00  0.00     0.012 A 
ATOM     72  C   UNL     1       1.389 -11.712   5.686  1.00  0.00     0.148 A 
ATOM     73  C   UNL     1       2.499 -14.054   6.766  1.00  0.00     0.002 A 
ATOM     74  C   UNL     1       2.624 -11.675   6.322  1.00  0.00     0.091 A 
ATOM     75  F   UNL     1       0.818 -10.609   5.182  1.00  0.00    -0.205 F 
ATOM     76  C   UNL     1       3.171 -12.840   6.880  1.00  0.00     0.022 A 
BRANCH  74  77
ATOM     77  S   UNL     1       3.622 -10.184   6.403  1.00  0.00     0.127 S 
ATOM     78  O   UNL     1       3.574  -9.869   7.828  1.00  0.00    -0.237 OA
ATOM     79  O   UNL     1       4.917 -10.664   5.920  1.00  0.00    -0.237 OA
ATOM     80  O   UNL     1       2.970  -9.225   5.521  1.00  0.00    -0.744 OA
ENDBRANCH  74  77
ENDBRANCH  46  70
BRANCH  58  81
ATOM     81  C   UNL     1      -5.745 -14.663   7.573  1.00  0.00     0.023 A 
ATOM     82  C   UNL     1      -5.848 -13.772   8.660  1.00  0.00     0.012 A 
ATOM     83  C   UNL     1      -6.231 -15.978   7.710  1.00  0.00     0.148 A 
ATOM     84  C   UNL     1      -6.386 -14.196   9.876  1.00  0.00     0.002 A 
ATOM     85  C   UNL     1      -6.816 -16.377   8.905  1.00  0.00     0.091 A 
ATOM     86  F   UNL     1      -6.109 -16.817   6.671  1.00  0.00    -0.205 F 
ATOM     87  C   UNL     1      -6.880 -15.493   9.994  1.00  0.00     0.022 A 
BRANCH  85  88
ATOM     88  S   UNL     1      -7.569 -17.994   9.115  1.00  0.00     0.127 S 
ATOM     89  O   UNL     1      -6.608 -18.659   9.994  1.00  0.00    -0.237 OA
ATOM     90  O   UNL     1      -8.846 -17.662   9.748  1.00  0.00    -0.237 OA
ATOM     91  O   UNL     1      -7.688 -18.559   7.778  1.00  0.00    -0.744 OA
ENDBRANCH  85  88
ENDBRANCH  58  81
ENDBRANCH  32  33
ENDBRANCH  24  27
ENDBRANCH  22  23
ENDBRANCH  21  22
ENDBRANCH   1  21
TORSDOF 18
