REMARK SMILES COc1cc([C@@H]2CC[NH2+][C@@H]2C(=O)NCCCCNC(=O)c2ccc(-c3c4nc(c(-c5cccc(S(=O)(=O)[O-])c5F)c5ccc([nH]5)c(-c5cccc(S(=O)(=O)[O-])c5F)c5nc(c(-c6cccc(S(=O)(=O)[O-])c6F)c6ccc3[nH]6)C=C5)C=C4)cc2)cc(OC)c1OC
REMARK SMILES IDX 16 1 15 2 14 3 13 4 11 5 12 6 10 8 6 9 7 10 8 11 9 12 5 15
REMARK SMILES IDX 3 16 4 17 88 18 85 19 84 20 2 21 1 22 89 23 90 24 86 25
REMARK SMILES IDX 87 26 17 27 18 28 19 29 20 31 21 32 22 33 83 34 23 35 82 36
REMARK SMILES IDX 24 37 25 38 26 39 76 40 27 41 81 42 75 43 77 44 28 45 80 46
REMARK SMILES IDX 74 47 73 48 29 50 61 51 41 52 60 53 42 54 45 55 59 56 78 57
REMARK SMILES IDX 43 58 44 59 58 61 79 62 46 63 30 64 31 65 39 66 32 67 34 68
REMARK SMILES IDX 40 69 33 70 35 71 36 72 37 73 38 74 62 75 63 76 71 77 64 78
REMARK SMILES IDX 66 79 72 80 65 81 67 82 68 83 69 84 70 85 47 86 48 87 56 88
REMARK SMILES IDX 49 89 51 90 57 91 50 92 52 93 53 94 54 95 55 96
REMARK H PARENT 13 7 9 13 9 14 18 30 77 49 45 60
REMARK Flexibility Score: inf
ROOT
ATOM      1  C   UNL     1       3.148   9.426  -1.921  1.00  0.00     0.023 C 
ENDROOT
BRANCH   1   2
ATOM      2  C   UNL     1       2.323   8.945  -3.115  1.00  0.00     0.023 C 
BRANCH   2   3
ATOM      3  C   UNL     1       2.106   7.435  -3.174  1.00  0.00     0.116 C 
BRANCH   3   4
ATOM      4  N   UNL     1       1.166   6.978  -2.168  1.00  0.00    -0.351 N 
ATOM      5  C   UNL     1       0.029   6.236  -2.241  1.00  0.00     0.278 C 
ATOM      6  O   UNL     1      -0.531   5.983  -1.164  1.00  0.00    -0.268 OA
ATOM      7  H   UNL     1       1.397   7.260  -1.253  1.00  0.00     0.163 HD
BRANCH   5   8
ATOM      8  C   UNL     1      -0.589   5.679  -3.533  1.00  0.00     0.280 C 
ATOM      9  C   UNL     1      -0.478   4.153  -3.750  1.00  0.00     0.093 C 
ATOM     10  C   UNL     1      -0.241   4.034  -5.261  1.00  0.00     0.076 C 
ATOM     11  C   UNL     1       0.421   5.339  -5.644  1.00  0.00     0.262 C 
ATOM     12  N   UNL     1      -0.215   6.357  -4.804  1.00  0.00    -0.335 N 
ATOM     13  H   UNL     1      -1.047   6.725  -5.265  1.00  0.00     0.346 HD
ATOM     14  H   UNL     1       0.414   7.141  -4.634  1.00  0.00     0.346 HD
BRANCH   9  15
ATOM     15  C   UNL     1       0.540   3.336  -2.974  1.00  0.00    -0.031 A 
ATOM     16  C   UNL     1       1.082   1.291  -1.744  1.00  0.00     0.164 A 
ATOM     17  C   UNL     1       0.147   2.135  -2.370  1.00  0.00     0.055 A 
ATOM     18  C   UNL     1       2.450   1.617  -1.721  1.00  0.00     0.203 A 
ATOM     19  C   UNL     1       2.845   2.844  -2.285  1.00  0.00     0.164 A 
ATOM     20  C   UNL     1       1.894   3.674  -2.909  1.00  0.00     0.055 A 
BRANCH  16  21
ATOM     21  O   UNL     1       0.627   0.079  -1.286  1.00  0.00    -0.493 OA
ATOM     22  C   UNL     1      -0.158   0.228  -0.101  1.00  0.00     0.278 C 
ENDBRANCH  16  21
BRANCH  18  23
ATOM     23  O   UNL     1       3.449   0.791  -1.279  1.00  0.00    -0.490 OA
ATOM     24  C   UNL     1       3.155  -0.194  -0.301  1.00  0.00     0.278 C 
ENDBRANCH  18  23
BRANCH  19  25
ATOM     25  O   UNL     1       4.110   3.376  -2.364  1.00  0.00    -0.493 OA
ATOM     26  C   UNL     1       5.120   2.849  -1.514  1.00  0.00     0.278 C 
ENDBRANCH  19  25
ENDBRANCH   9  15
ENDBRANCH   5   8
ENDBRANCH   3   4
ENDBRANCH   2   3
ENDBRANCH   1   2
BRANCH   1  27
ATOM     27  C   UNL     1       4.522   8.778  -1.767  1.00  0.00     0.116 C 
BRANCH  27  28
ATOM     28  N   UNL     1       5.357   8.903  -2.955  1.00  0.00    -0.352 N 
ATOM     29  C   UNL     1       6.688   9.237  -3.040  1.00  0.00     0.251 C 
ATOM     30  H   UNL     1       4.907   8.725  -3.812  1.00  0.00     0.163 HD
ATOM     31  O   UNL     1       7.218   9.400  -4.137  1.00  0.00    -0.269 OA
BRANCH  29  32
ATOM     32  C   UNL     1       7.468   9.433  -1.801  1.00  0.00     0.039 A 
ATOM     33  C   UNL     1       8.220  10.601  -1.652  1.00  0.00     0.014 A 
ATOM     34  C   UNL     1       7.417   8.489  -0.773  1.00  0.00     0.014 A 
ATOM     35  C   UNL     1       8.859  10.859  -0.437  1.00  0.00     0.010 A 
ATOM     36  C   UNL     1       7.996   8.781   0.458  1.00  0.00     0.010 A 
ATOM     37  C   UNL     1       8.720   9.970   0.641  1.00  0.00    -0.014 A 
BRANCH  37  38
ATOM     38  C   UNL     1       9.296  10.274   1.976  1.00  0.00     0.031 A 
ATOM     39  C   UNL     1      10.351   9.377   2.567  1.00  0.00     0.074 A 
ATOM     40  C   UNL     1       8.790  11.292   2.703  1.00  0.00     0.049 A 
ATOM     41  N   UNL     1      10.919   9.440   3.743  1.00  0.00    -0.248 NA
ATOM     42  C   UNL     1      10.805   8.244   1.743  1.00  0.00     0.031 C 
ATOM     43  C   UNL     1       7.702  12.177   2.280  1.00  0.00     0.029 A 
ATOM     44  N   UNL     1       9.102  11.734   3.965  1.00  0.00    -0.354 N 
ATOM     45  C   UNL     1      11.755   8.332   3.821  1.00  0.00     0.074 A 
ATOM     46  C   UNL     1      11.607   7.603   2.581  1.00  0.00     0.031 C 
ATOM     47  C   UNL     1       7.439  13.053   3.263  1.00  0.00     0.029 A 
ATOM     48  C   UNL     1       8.319  12.780   4.395  1.00  0.00     0.049 A 
ATOM     49  H   UNL     1       9.820  11.339   4.511  1.00  0.00     0.167 HD
ATOM     50  C   UNL     1      12.590   7.971   4.823  1.00  0.00     0.034 A 
ATOM     51  C   UNL     1       8.308  13.442   5.569  1.00  0.00     0.034 A 
ATOM     52  C   UNL     1      12.791   8.739   6.020  1.00  0.00     0.049 A 
ATOM     53  C   UNL     1       9.303  13.059   6.633  1.00  0.00     0.074 A 
ATOM     54  C   UNL     1      13.712   8.528   7.031  1.00  0.00     0.029 A 
ATOM     55  N   UNL     1      12.060   9.861   6.372  1.00  0.00    -0.354 N 
ATOM     56  N   UNL     1      10.226  12.129   6.603  1.00  0.00    -0.248 NA
ATOM     57  C   UNL     1       9.281  13.842   7.878  1.00  0.00     0.031 C 
ATOM     58  C   UNL     1      13.525   9.514   8.005  1.00  0.00     0.029 A 
ATOM     59  C   UNL     1      12.499  10.348   7.591  1.00  0.00     0.049 A 
ATOM     60  H   UNL     1      11.335  10.255   5.835  1.00  0.00     0.167 HD
ATOM     61  C   UNL     1      10.919  12.242   7.803  1.00  0.00     0.074 A 
ATOM     62  C   UNL     1      10.323  13.344   8.529  1.00  0.00     0.031 C 
ATOM     63  C   UNL     1      11.945  11.489   8.270  1.00  0.00     0.034 A 
BRANCH  50  64
ATOM     64  C   UNL     1      13.405   6.718   4.648  1.00  0.00     0.023 A 
ATOM     65  C   UNL     1      14.501   6.720   3.761  1.00  0.00     0.012 A 
ATOM     66  C   UNL     1      13.145   5.572   5.425  1.00  0.00     0.148 A 
ATOM     67  C   UNL     1      15.312   5.593   3.633  1.00  0.00     0.002 A 
ATOM     68  C   UNL     1      13.982   4.467   5.322  1.00  0.00     0.091 A 
ATOM     69  F   UNL     1      12.086   5.584   6.247  1.00  0.00    -0.205 F 
ATOM     70  C   UNL     1      15.060   4.473   4.421  1.00  0.00     0.022 A 
BRANCH  68  71
ATOM     71  S   UNL     1      13.790   3.005   6.347  1.00  0.00     0.127 S 
ATOM     72  O   UNL     1      13.344   2.014   5.368  1.00  0.00    -0.237 OA
ATOM     73  O   UNL     1      15.150   2.798   6.846  1.00  0.00    -0.237 OA
ATOM     74  O   UNL     1      12.814   3.354   7.369  1.00  0.00    -0.744 OA
ENDBRANCH  68  71
ENDBRANCH  50  64
BRANCH  51  75
ATOM     75  C   UNL     1       7.378  14.588   5.780  1.00  0.00     0.023 A 
ATOM     76  C   UNL     1       7.902  15.893   5.856  1.00  0.00     0.012 A 
ATOM     77  C   UNL     1       5.988  14.400   5.904  1.00  0.00     0.148 A 
ATOM     78  C   UNL     1       7.067  16.985   6.092  1.00  0.00     0.002 A 
ATOM     79  C   UNL     1       5.155  15.499   6.086  1.00  0.00     0.091 A 
ATOM     80  F   UNL     1       5.505  13.151   5.847  1.00  0.00    -0.205 F 
ATOM     81  C   UNL     1       5.693  16.790   6.198  1.00  0.00     0.022 A 
BRANCH  79  82
ATOM     82  S   UNL     1       3.365  15.342   6.103  1.00  0.00     0.127 S 
ATOM     83  O   UNL     1       3.072  15.398   7.532  1.00  0.00    -0.237 OA
ATOM     84  O   UNL     1       2.944  16.520   5.342  1.00  0.00    -0.237 OA
ATOM     85  O   UNL     1       3.086  14.076   5.439  1.00  0.00    -0.744 OA
ENDBRANCH  79  82
ENDBRANCH  51  75
BRANCH  63  86
ATOM     86  C   UNL     1      12.525  11.849   9.612  1.00  0.00     0.023 A 
ATOM     87  C   UNL     1      11.805  11.556  10.786  1.00  0.00     0.012 A 
ATOM     88  C   UNL     1      13.819  12.398   9.711  1.00  0.00     0.148 A 
ATOM     89  C   UNL     1      12.351  11.831  12.039  1.00  0.00     0.002 A 
ATOM     90  C   UNL     1      14.376  12.625  10.964  1.00  0.00     0.091 A 
ATOM     91  F   UNL     1      14.481  12.688   8.582  1.00  0.00    -0.205 F 
ATOM     92  C   UNL     1      13.639  12.352  12.128  1.00  0.00     0.022 A 
BRANCH  90  93
ATOM     93  S   UNL     1      16.065  13.201  11.172  1.00  0.00     0.127 S 
ATOM     94  O   UNL     1      15.860  14.601  11.537  1.00  0.00    -0.237 OA
ATOM     95  O   UNL     1      16.554  12.352  12.259  1.00  0.00    -0.237 OA
ATOM     96  O   UNL     1      16.723  12.975   9.892  1.00  0.00    -0.744 OA
ENDBRANCH  90  93
ENDBRANCH  63  86
ENDBRANCH  37  38
ENDBRANCH  29  32
ENDBRANCH  27  28
ENDBRANCH   1  27
TORSDOF 18
