REMARK SMILES CCCN(CC(=O)OC)C(=O)N1CC[C@H](C(=O)NCCCCNC(=O)c2ccc(-c3c4nc(c(-c5cccc(S(=O)(=O)[O-])c5F)c5ccc([nH]5)c(-c5cccc(S(=O)(=O)[O-])c5F)c5nc(c(-c6cccc(S(=O)(=O)[O-])c6F)c6ccc3[nH]6)C=C5)C=C4)cc2)[C@H]1C
REMARK SMILES IDX 19 1 18 2 16 3 17 4 15 6 12 7 13 8 89 9 14 10 90 11 10 12
REMARK SMILES IDX 11 13 4 14 3 15 2 16 1 17 5 18 6 19 7 20 8 21 9 22 20 23
REMARK SMILES IDX 21 24 22 25 23 26 24 27 25 29 26 30 27 31 88 32 28 33 87 34
REMARK SMILES IDX 29 35 30 36 31 37 81 38 32 39 86 40 80 41 82 42 33 43 85 44
REMARK SMILES IDX 79 45 78 46 34 48 66 49 46 50 65 51 47 52 50 53 64 54 83 55
REMARK SMILES IDX 48 56 49 57 63 59 84 60 51 61 35 62 36 63 44 64 37 65 39 66
REMARK SMILES IDX 45 67 38 68 40 69 41 70 42 71 43 72 67 73 68 74 76 75 69 76
REMARK SMILES IDX 71 77 77 78 70 79 72 80 73 81 74 82 75 83 52 84 53 85 61 86
REMARK SMILES IDX 54 87 56 88 62 89 55 90 57 91 58 92 59 93 60 94
REMARK H PARENT 18 5 23 28 82 47 50 58
REMARK Flexibility Score: inf
ROOT
ATOM      1  C   UNL     1       2.571   0.106   4.581  1.00  0.00     0.116 C 
ENDROOT
BRANCH   1   2
ATOM      2  N   UNL     1       2.251   0.418   5.957  1.00  0.00    -0.356 N 
ATOM      3  C   UNL     1       1.133   0.286   6.702  1.00  0.00     0.225 C 
ATOM      4  O   UNL     1       1.250   0.598   7.896  1.00  0.00    -0.275 OA
ATOM      5  H   UNL     1       3.007   0.807   6.454  1.00  0.00     0.163 HD
BRANCH   3   6
ATOM      6  C   UNL     1      -0.253  -0.120   6.205  1.00  0.00     0.102 C 
ATOM      7  N   UNL     1      -0.655  -0.503   3.883  1.00  0.00    -0.321 N 
ATOM      8  C   UNL     1      -1.002   0.890   4.161  1.00  0.00     0.122 C 
ATOM      9  C   UNL     1      -0.443  -1.228   5.154  1.00  0.00     0.096 C 
ATOM     10  C   UNL     1      -1.061   1.053   5.664  1.00  0.00     0.037 C 
ATOM     11  C   UNL     1      -1.671  -2.057   5.567  1.00  0.00     0.032 C 
BRANCH   7  12
ATOM     12  C   UNL     1      -0.171  -0.737   2.611  1.00  0.00     0.320 C 
ATOM     13  O   UNL     1       0.011   0.230   1.865  1.00  0.00    -0.248 OA
BRANCH  12  14
ATOM     14  N   UNL     1       0.170  -1.990   2.172  1.00  0.00    -0.314 N 
BRANCH  14  15
ATOM     15  C   UNL     1       1.075  -2.092   1.015  1.00  0.00     0.122 C 
BRANCH  15  16
ATOM     16  C   UNL     1       0.414  -1.812  -0.346  1.00  0.00     0.018 C 
ATOM     17  C   UNL     1       0.738  -0.433  -0.916  1.00  0.00     0.006 C 
ENDBRANCH  15  16
ENDBRANCH  14  15
BRANCH  14  18
ATOM     18  C   UNL     1      -0.443  -3.243   2.605  1.00  0.00     0.243 C 
BRANCH  18  19
ATOM     19  C   UNL     1       0.342  -4.083   3.613  1.00  0.00     0.325 C 
ATOM     20  O   UNL     1      -0.122  -5.090   4.139  1.00  0.00    -0.250 OA
BRANCH  19  21
ATOM     21  O   UNL     1       1.592  -3.594   3.832  1.00  0.00    -0.468 OA
ATOM     22  C   UNL     1       2.383  -4.242   4.834  1.00  0.00     0.282 C 
ENDBRANCH  19  21
ENDBRANCH  18  19
ENDBRANCH  14  18
ENDBRANCH  12  14
ENDBRANCH   7  12
ENDBRANCH   3   6
ENDBRANCH   1   2
BRANCH   1  23
ATOM     23  C   UNL     1       2.637   1.351   3.701  1.00  0.00     0.023 C 
BRANCH  23  24
ATOM     24  C   UNL     1       4.028   1.969   3.553  1.00  0.00     0.023 C 
BRANCH  24  25
ATOM     25  C   UNL     1       5.118   1.034   3.036  1.00  0.00     0.116 C 
BRANCH  25  26
ATOM     26  N   UNL     1       4.767   0.301   1.826  1.00  0.00    -0.352 N 
ATOM     27  C   UNL     1       5.616  -0.217   0.875  1.00  0.00     0.251 C 
ATOM     28  H   UNL     1       3.806   0.160   1.670  1.00  0.00     0.163 HD
ATOM     29  O   UNL     1       5.167  -0.786  -0.117  1.00  0.00    -0.269 OA
BRANCH  27  30
ATOM     30  C   UNL     1       7.076  -0.035   1.037  1.00  0.00     0.039 A 
ATOM     31  C   UNL     1       7.811   0.515  -0.017  1.00  0.00     0.014 A 
ATOM     32  C   UNL     1       7.702  -0.340   2.248  1.00  0.00     0.014 A 
ATOM     33  C   UNL     1       9.160   0.829   0.172  1.00  0.00     0.010 A 
ATOM     34  C   UNL     1       9.021   0.047   2.459  1.00  0.00     0.010 A 
ATOM     35  C   UNL     1       9.766   0.633   1.424  1.00  0.00    -0.014 A 
BRANCH  35  36
ATOM     36  C   UNL     1      11.174   1.036   1.678  1.00  0.00     0.031 A 
ATOM     37  C   UNL     1      12.198   0.001   2.060  1.00  0.00     0.074 A 
ATOM     38  C   UNL     1      11.509   2.342   1.670  1.00  0.00     0.049 A 
ATOM     39  N   UNL     1      13.454   0.164   2.385  1.00  0.00    -0.248 NA
ATOM     40  C   UNL     1      11.741  -1.398   2.123  1.00  0.00     0.031 C 
ATOM     41  C   UNL     1      10.587   3.453   1.421  1.00  0.00     0.029 A 
ATOM     42  N   UNL     1      12.713   2.959   1.904  1.00  0.00    -0.354 N 
ATOM     43  C   UNL     1      13.922  -1.097   2.736  1.00  0.00     0.074 A 
ATOM     44  C   UNL     1      12.806  -2.010   2.620  1.00  0.00     0.031 C 
ATOM     45  C   UNL     1      11.261   4.612   1.506  1.00  0.00     0.029 A 
ATOM     46  C   UNL     1      12.656   4.332   1.829  1.00  0.00     0.049 A 
ATOM     47  H   UNL     1      13.540   2.465   2.106  1.00  0.00     0.167 HD
ATOM     48  C   UNL     1      15.175  -1.472   3.086  1.00  0.00     0.034 A 
ATOM     49  C   UNL     1      13.622   5.257   1.992  1.00  0.00     0.034 A 
ATOM     50  C   UNL     1      16.300  -0.579   3.121  1.00  0.00     0.049 A 
ATOM     51  C   UNL     1      15.030   4.802   2.267  1.00  0.00     0.074 A 
ATOM     52  C   UNL     1      17.630  -0.877   3.361  1.00  0.00     0.029 A 
ATOM     53  N   UNL     1      16.230   0.787   2.897  1.00  0.00    -0.354 N 
ATOM     54  N   UNL     1      15.487   3.584   2.425  1.00  0.00    -0.248 NA
ATOM     55  C   UNL     1      16.065   5.845   2.337  1.00  0.00     0.031 C 
ATOM     56  C   UNL     1      18.365   0.311   3.277  1.00  0.00     0.029 A 
ATOM     57  C   UNL     1      17.492   1.346   2.981  1.00  0.00     0.049 A 
ATOM     58  H   UNL     1      15.403   1.286   2.706  1.00  0.00     0.167 HD
ATOM     59  C   UNL     1      16.864   3.708   2.574  1.00  0.00     0.074 A 
ATOM     60  C   UNL     1      17.169   5.120   2.468  1.00  0.00     0.031 C 
ATOM     61  C   UNL     1      17.789   2.743   2.799  1.00  0.00     0.034 A 
BRANCH  48  62
ATOM     62  C   UNL     1      15.409  -2.931   3.375  1.00  0.00     0.023 A 
ATOM     63  C   UNL     1      15.404  -3.854   2.309  1.00  0.00     0.012 A 
ATOM     64  C   UNL     1      15.673  -3.386   4.681  1.00  0.00     0.148 A 
ATOM     65  C   UNL     1      15.620  -5.211   2.542  1.00  0.00     0.002 A 
ATOM     66  C   UNL     1      15.929  -4.736   4.900  1.00  0.00     0.091 A 
ATOM     67  F   UNL     1      15.650  -2.499   5.687  1.00  0.00    -0.205 F 
ATOM     68  C   UNL     1      15.892  -5.650   3.834  1.00  0.00     0.022 A 
BRANCH  66  69
ATOM     69  S   UNL     1      16.362  -5.385   6.518  1.00  0.00     0.127 S 
ATOM     70  O   UNL     1      15.118  -6.043   6.915  1.00  0.00    -0.237 OA
ATOM     71  O   UNL     1      17.461  -6.300   6.202  1.00  0.00    -0.237 OA
ATOM     72  O   UNL     1      16.748  -4.232   7.319  1.00  0.00    -0.744 OA
ENDBRANCH  66  69
ENDBRANCH  48  62
BRANCH  49  73
ATOM     73  C   UNL     1      13.311   6.700   1.785  1.00  0.00     0.023 A 
ATOM     74  C   UNL     1      13.785   7.342   0.624  1.00  0.00     0.012 A 
ATOM     75  C   UNL     1      12.530   7.429   2.701  1.00  0.00     0.148 A 
ATOM     76  C   UNL     1      13.514   8.691   0.394  1.00  0.00     0.002 A 
ATOM     77  C   UNL     1      12.222   8.761   2.441  1.00  0.00     0.091 A 
ATOM     78  F   UNL     1      12.098   6.806   3.807  1.00  0.00    -0.205 F 
ATOM     79  C   UNL     1      12.725   9.398   1.296  1.00  0.00     0.022 A 
BRANCH  77  80
ATOM     80  S   UNL     1      11.107   9.707   3.486  1.00  0.00     0.127 S 
ATOM     81  O   UNL     1      12.038  10.554   4.227  1.00  0.00    -0.237 OA
ATOM     82  O   UNL     1      10.285  10.411   2.501  1.00  0.00    -0.237 OA
ATOM     83  O   UNL     1      10.381   8.718   4.271  1.00  0.00    -0.744 OA
ENDBRANCH  77  80
ENDBRANCH  49  73
BRANCH  61  84
ATOM     84  C   UNL     1      19.229   3.167   2.907  1.00  0.00     0.023 A 
ATOM     85  C   UNL     1      19.678   3.816   4.074  1.00  0.00     0.012 A 
ATOM     86  C   UNL     1      20.152   2.849   1.892  1.00  0.00     0.148 A 
ATOM     87  C   UNL     1      21.020   4.167   4.216  1.00  0.00     0.002 A 
ATOM     88  C   UNL     1      21.496   3.165   2.060  1.00  0.00     0.091 A 
ATOM     89  F   UNL     1      19.702   2.253   0.778  1.00  0.00    -0.205 F 
ATOM     90  C   UNL     1      21.930   3.831   3.217  1.00  0.00     0.022 A 
BRANCH  88  91
ATOM     91  S   UNL     1      22.740   2.680   0.858  1.00  0.00     0.127 S 
ATOM     92  O   UNL     1      22.917   3.914   0.095  1.00  0.00    -0.237 OA
ATOM     93  O   UNL     1      23.877   2.320   1.706  1.00  0.00    -0.237 OA
ATOM     94  O   UNL     1      22.162   1.560   0.126  1.00  0.00    -0.744 OA
ENDBRANCH  88  91
ENDBRANCH  61  84
ENDBRANCH  35  36
ENDBRANCH  27  30
ENDBRANCH  25  26
ENDBRANCH  24  25
ENDBRANCH  23  24
ENDBRANCH   1  23
TORSDOF 21
