REMARK SMILES Cc1ccc(NC(=O)Cn2c(CCC(=O)NCCCCNC(=O)c3ccc(-c4c5nc(c(-c6cccc(S(=O)(=O)[O-])c6F)c6ccc([nH]6)c(-c6cccc(S(=O)(=O)[O-])c6F)c6nc(c(-c7cccc(S(=O)(=O)[O-])c7F)c7ccc4[nH]7)C=C6)C=C5)cc3)ccc2-c2ccccc2)cc1
REMARK SMILES IDX 17 1 16 2 14 3 15 4 13 6 12 7 11 8 10 9 89 10 87 11 88 12
REMARK SMILES IDX 9 13 7 14 6 15 8 17 5 18 1 19 2 20 3 21 97 22 4 23 96 24
REMARK SMILES IDX 90 25 91 26 95 27 92 28 94 29 93 30 18 31 19 32 20 33 21 34
REMARK SMILES IDX 22 35 23 37 24 38 25 39 86 40 26 41 85 42 27 43 28 44 29 45
REMARK SMILES IDX 79 46 30 47 84 48 78 49 80 50 31 51 83 52 77 53 76 54 32 56
REMARK SMILES IDX 64 57 44 58 63 59 45 60 48 61 62 62 81 63 46 64 47 65 61 67
REMARK SMILES IDX 82 68 49 69 33 70 34 71 42 72 35 73 37 74 43 75 36 76 38 77
REMARK SMILES IDX 39 78 40 79 41 80 65 81 66 82 74 83 67 84 69 85 75 86 68 87
REMARK SMILES IDX 70 88 71 89 72 90 73 91 50 92 51 93 59 94 52 95 54 96 60 97
REMARK SMILES IDX 53 98 55 99 56 100 57 101 58 102
REMARK H PARENT 16 5 6 16 21 36 80 55 48 66
REMARK Flexibility Score: inf
ROOT
ATOM      1  C   UNL     1      -5.741  -2.829  -2.869  1.00  0.00     0.116 C 
ENDROOT
BRANCH   1   2
ATOM      2  N   UNL     1      -5.671  -1.850  -1.781  1.00  0.00    -0.356 N 
ATOM      3  C   UNL     1      -4.890  -0.742  -1.660  1.00  0.00     0.220 C 
ATOM      4  O   UNL     1      -5.088   0.043  -0.727  1.00  0.00    -0.275 OA
ATOM      5  H   UNL     1      -6.279  -2.018  -1.025  1.00  0.00     0.163 HD
BRANCH   3   6
ATOM      6  C   UNL     1      -3.775  -0.469  -2.643  1.00  0.00     0.106 C 
BRANCH   6   7
ATOM      7  C   UNL     1      -2.438  -0.405  -1.911  1.00  0.00     0.064 C 
BRANCH   7   8
ATOM      8  C   UNL     1      -1.700  -1.714  -1.894  1.00  0.00     0.019 A 
ATOM      9  N   UNL     1      -1.728  -2.721  -0.937  1.00  0.00    -0.335 N 
ATOM     10  C   UNL     1      -1.022  -3.825  -1.448  1.00  0.00     0.049 A 
ATOM     11  C   UNL     1      -0.854  -2.131  -2.911  1.00  0.00     0.024 A 
ATOM     12  C   UNL     1      -0.437  -3.439  -2.637  1.00  0.00     0.029 A 
BRANCH   9  13
ATOM     13  C   UNL     1      -2.432  -2.829   0.354  1.00  0.00     0.222 C 
BRANCH  13  14
ATOM     14  C   UNL     1      -2.943  -1.628   1.112  1.00  0.00     0.244 C 
ATOM     15  N   UNL     1      -2.202  -0.516   1.389  1.00  0.00    -0.325 N 
ATOM     16  H   UNL     1      -2.704   0.217   1.813  1.00  0.00     0.169 HD
ATOM     17  O   UNL     1      -4.085  -1.660   1.593  1.00  0.00    -0.273 OA
BRANCH  15  18
ATOM     18  C   UNL     1      -0.848  -0.244   1.169  1.00  0.00     0.041 A 
ATOM     19  C   UNL     1       3.151   0.624  -0.131  1.00  0.00     0.044 C 
ATOM     20  C   UNL     1       1.784   0.365   0.425  1.00  0.00    -0.051 A 
ATOM     21  C   UNL     1       1.452  -0.914   0.884  1.00  0.00     0.005 A 
ATOM     22  C   UNL     1       0.801   1.359   0.410  1.00  0.00     0.005 A 
ATOM     23  C   UNL     1       0.143  -1.215   1.259  1.00  0.00     0.026 A 
ATOM     24  C   UNL     1      -0.503   1.063   0.812  1.00  0.00     0.026 A 
ENDBRANCH  15  18
ENDBRANCH  13  14
ENDBRANCH   9  13
BRANCH  10  25
ATOM     25  C   UNL     1      -1.035  -5.186  -0.907  1.00  0.00    -0.002 A 
ATOM     26  C   UNL     1       0.045  -5.692  -0.180  1.00  0.00     0.010 A 
ATOM     27  C   UNL     1      -2.089  -6.046  -1.236  1.00  0.00     0.010 A 
ATOM     28  C   UNL     1       0.052  -7.032   0.226  1.00  0.00     0.001 A 
ATOM     29  C   UNL     1      -2.093  -7.378  -0.823  1.00  0.00     0.001 A 
ATOM     30  C   UNL     1      -1.018  -7.871  -0.091  1.00  0.00     0.000 A 
ENDBRANCH  10  25
ENDBRANCH   7   8
ENDBRANCH   6   7
ENDBRANCH   3   6
ENDBRANCH   1   2
BRANCH   1  31
ATOM     31  C   UNL     1      -5.020  -4.129  -2.511  1.00  0.00     0.023 C 
BRANCH  31  32
ATOM     32  C   UNL     1      -5.871  -5.123  -1.696  1.00  0.00     0.023 C 
BRANCH  32  33
ATOM     33  C   UNL     1      -6.525  -6.237  -2.547  1.00  0.00     0.116 C 
BRANCH  33  34
ATOM     34  N   UNL     1      -5.551  -7.240  -2.985  1.00  0.00    -0.352 N 
ATOM     35  C   UNL     1      -5.687  -8.498  -3.528  1.00  0.00     0.251 C 
ATOM     36  H   UNL     1      -4.615  -6.959  -2.869  1.00  0.00     0.163 HD
ATOM     37  O   UNL     1      -4.688  -9.223  -3.559  1.00  0.00    -0.269 OA
BRANCH  35  38
ATOM     38  C   UNL     1      -6.976  -9.055  -4.042  1.00  0.00     0.039 A 
ATOM     39  C   UNL     1      -7.210 -10.444  -3.941  1.00  0.00     0.014 A 
ATOM     40  C   UNL     1      -7.928  -8.283  -4.694  1.00  0.00     0.014 A 
ATOM     41  C   UNL     1      -8.433 -11.029  -4.346  1.00  0.00     0.010 A 
ATOM     42  C   UNL     1      -9.130  -8.872  -5.130  1.00  0.00     0.010 A 
ATOM     43  C   UNL     1      -9.438 -10.235  -4.900  1.00  0.00    -0.014 A 
BRANCH  43  44
ATOM     44  C   UNL     1     -10.899 -10.564  -4.753  1.00  0.00     0.031 A 
ATOM     45  C   UNL     1     -11.462  -9.861  -3.592  1.00  0.00     0.074 A 
ATOM     46  C   UNL     1     -11.860 -10.799  -5.685  1.00  0.00     0.049 A 
ATOM     47  N   UNL     1     -12.049  -8.729  -3.783  1.00  0.00    -0.248 NA
ATOM     48  C   UNL     1     -11.198 -10.215  -2.212  1.00  0.00     0.031 C 
ATOM     49  C   UNL     1     -11.634 -11.145  -7.074  1.00  0.00     0.029 A 
ATOM     50  N   UNL     1     -13.251 -10.493  -5.610  1.00  0.00    -0.354 N 
ATOM     51  C   UNL     1     -12.189  -8.151  -2.559  1.00  0.00     0.074 A 
ATOM     52  C   UNL     1     -11.666  -9.116  -1.609  1.00  0.00     0.031 C 
ATOM     53  C   UNL     1     -12.755 -10.868  -7.768  1.00  0.00     0.029 A 
ATOM     54  C   UNL     1     -13.792 -10.283  -6.884  1.00  0.00     0.049 A 
ATOM     55  H   UNL     1     -13.764 -10.437  -4.771  1.00  0.00     0.167 HD
ATOM     56  C   UNL     1     -12.589  -6.861  -2.455  1.00  0.00     0.034 A 
ATOM     57  C   UNL     1     -14.547  -9.215  -7.291  1.00  0.00     0.034 A 
ATOM     58  C   UNL     1     -12.156  -5.980  -3.570  1.00  0.00     0.049 A 
ATOM     59  C   UNL     1     -13.543  -8.245  -7.787  1.00  0.00     0.074 A 
ATOM     60  C   UNL     1     -11.727  -4.667  -3.663  1.00  0.00     0.029 A 
ATOM     61  N   UNL     1     -12.000  -6.471  -4.862  1.00  0.00    -0.354 N 
ATOM     62  N   UNL     1     -12.748  -7.628  -6.977  1.00  0.00    -0.248 NA
ATOM     63  C   UNL     1     -13.418  -7.897  -9.187  1.00  0.00     0.031 C 
ATOM     64  C   UNL     1     -11.223  -4.440  -4.989  1.00  0.00     0.029 A 
ATOM     65  C   UNL     1     -11.345  -5.607  -5.729  1.00  0.00     0.049 A 
ATOM     66  H   UNL     1     -12.327  -7.358  -5.138  1.00  0.00     0.167 HD
ATOM     67  C   UNL     1     -11.989  -6.775  -7.730  1.00  0.00     0.074 A 
ATOM     68  C   UNL     1     -12.434  -6.993  -9.101  1.00  0.00     0.031 C 
ATOM     69  C   UNL     1     -11.045  -5.990  -7.135  1.00  0.00     0.034 A 
BRANCH  56  70
ATOM     70  C   UNL     1     -13.678  -6.528  -1.445  1.00  0.00     0.023 A 
ATOM     71  C   UNL     1     -14.615  -5.545  -1.827  1.00  0.00     0.012 A 
ATOM     72  C   UNL     1     -13.982  -7.249  -0.261  1.00  0.00     0.148 A 
ATOM     73  C   UNL     1     -15.790  -5.312  -1.097  1.00  0.00     0.002 A 
ATOM     74  C   UNL     1     -15.172  -7.051   0.442  1.00  0.00     0.091 A 
ATOM     75  F   UNL     1     -13.129  -8.156   0.211  1.00  0.00    -0.205 F 
ATOM     76  C   UNL     1     -16.078  -6.075   0.030  1.00  0.00     0.022 A 
BRANCH  74  77
ATOM     77  S   UNL     1     -15.629  -8.077   1.857  1.00  0.00     0.127 S 
ATOM     78  O   UNL     1     -15.976  -7.079   2.868  1.00  0.00    -0.237 OA
ATOM     79  O   UNL     1     -16.761  -8.841   1.335  1.00  0.00    -0.237 OA
ATOM     80  O   UNL     1     -14.454  -8.879   2.186  1.00  0.00    -0.744 OA
ENDBRANCH  74  77
ENDBRANCH  56  70
BRANCH  57  81
ATOM     81  C   UNL     1     -15.809  -8.554  -6.780  1.00  0.00     0.023 A 
ATOM     82  C   UNL     1     -16.982  -9.323  -6.687  1.00  0.00     0.012 A 
ATOM     83  C   UNL     1     -15.965  -7.135  -6.696  1.00  0.00     0.148 A 
ATOM     84  C   UNL     1     -18.244  -8.711  -6.567  1.00  0.00     0.002 A 
ATOM     85  C   UNL     1     -17.220  -6.533  -6.619  1.00  0.00     0.091 A 
ATOM     86  F   UNL     1     -14.892  -6.340  -6.724  1.00  0.00    -0.205 F 
ATOM     87  C   UNL     1     -18.367  -7.322  -6.558  1.00  0.00     0.022 A 
BRANCH  85  88
ATOM     88  S   UNL     1     -17.420  -4.743  -6.787  1.00  0.00     0.127 S 
ATOM     89  O   UNL     1     -18.659  -4.643  -7.572  1.00  0.00    -0.237 OA
ATOM     90  O   UNL     1     -17.526  -4.299  -5.418  1.00  0.00    -0.237 OA
ATOM     91  O   UNL     1     -16.239  -4.295  -7.537  1.00  0.00    -0.744 OA
ENDBRANCH  85  88
ENDBRANCH  57  81
BRANCH  69  92
ATOM     92  C   UNL     1      -9.752  -5.614  -7.870  1.00  0.00     0.023 A 
ATOM     93  C   UNL     1      -9.546  -5.843  -9.254  1.00  0.00     0.012 A 
ATOM     94  C   UNL     1      -8.606  -5.176  -7.162  1.00  0.00     0.148 A 
ATOM     95  C   UNL     1      -8.331  -5.620  -9.911  1.00  0.00     0.002 A 
ATOM     96  C   UNL     1      -7.388  -4.947  -7.817  1.00  0.00     0.091 A 
ATOM     97  F   UNL     1      -8.664  -5.054  -5.830  1.00  0.00    -0.205 F 
ATOM     98  C   UNL     1      -7.249  -5.164  -9.191  1.00  0.00     0.022 A 
BRANCH  96  99
ATOM     99  S   UNL     1      -5.905  -4.406  -6.962  1.00  0.00     0.127 S 
ATOM    100  O   UNL     1      -4.949  -5.453  -7.317  1.00  0.00    -0.237 OA
ATOM    101  O   UNL     1      -5.653  -3.110  -7.588  1.00  0.00    -0.237 OA
ATOM    102  O   UNL     1      -6.248  -4.347  -5.547  1.00  0.00    -0.744 OA
ENDBRANCH  96  99
ENDBRANCH  69  92
ENDBRANCH  43  44
ENDBRANCH  35  38
ENDBRANCH  33  34
ENDBRANCH  32  33
ENDBRANCH  31  32
ENDBRANCH   1  31
TORSDOF 20
