REMARK SMILES Cc1n[nH]c(CCC(=O)NCCCCNC(=O)c2ccc(-c3c4nc(c(-c5cccc(S(=O)(=O)[O-])c5F)c5ccc([nH]5)c(-c5cccc(S(=O)(=O)[O-])c5F)c5nc(c(-c6cccc(S(=O)(=O)[O-])c6F)c6ccc3[nH]6)C=C5)C=C4)cc2)c1C
REMARK SMILES IDX 13 1 12 2 11 3 10 4 8 5 9 6 7 8 6 9 5 10 1 11 2 12 3 13
REMARK SMILES IDX 81 14 4 15 82 16 14 18 15 19 16 20 17 22 18 23 19 24 80 25
REMARK SMILES IDX 20 26 79 27 21 28 22 29 23 30 73 31 24 32 78 33 72 34 74 35
REMARK SMILES IDX 25 36 77 37 71 38 70 39 26 41 58 42 38 43 57 44 39 45 42 46
REMARK SMILES IDX 56 47 75 48 40 49 41 50 55 52 76 53 43 54 27 55 28 56 36 57
REMARK SMILES IDX 29 58 31 59 37 60 30 61 32 62 33 63 34 64 35 65 59 66 60 67
REMARK SMILES IDX 68 68 61 69 63 70 69 71 62 72 64 73 65 74 66 75 67 76 44 77
REMARK SMILES IDX 45 78 53 79 46 80 48 81 54 82 47 83 49 84 50 85 51 86 52 87
REMARK H PARENT 10 7 4 17 15 21 74 40 42 51
REMARK Flexibility Score: inf
ROOT
ATOM      1  C   UNL     1      -0.763   0.789   0.069  1.00  0.00     0.023 C 
ENDROOT
BRANCH   1   2
ATOM      2  C   UNL     1      -0.788  -0.610   0.701  1.00  0.00     0.023 C 
BRANCH   2   3
ATOM      3  C   UNL     1      -2.085  -1.022   1.395  1.00  0.00     0.116 C 
BRANCH   3   4
ATOM      4  N   UNL     1      -3.179  -1.177   0.445  1.00  0.00    -0.356 N 
ATOM      5  C   UNL     1      -3.541  -2.235  -0.334  1.00  0.00     0.220 C 
ATOM      6  O   UNL     1      -4.406  -2.065  -1.197  1.00  0.00    -0.275 OA
ATOM      7  H   UNL     1      -3.753  -0.383   0.350  1.00  0.00     0.163 HD
BRANCH   5   8
ATOM      8  C   UNL     1      -2.918  -3.604  -0.139  1.00  0.00     0.106 C 
BRANCH   8   9
ATOM      9  C   UNL     1      -2.237  -4.124  -1.412  1.00  0.00     0.066 C 
BRANCH   9  10
ATOM     10  C   UNL     1      -0.839  -3.614  -1.546  1.00  0.00     0.039 A 
ATOM     11  C   UNL     1       2.010  -1.341  -1.903  1.00  0.00     0.069 C 
ATOM     12  C   UNL     1       1.036  -2.451  -1.745  1.00  0.00     0.062 A 
ATOM     13  N   UNL     1       1.346  -3.489  -0.959  1.00  0.00    -0.181 NA
ATOM     14  C   UNL     1      -0.310  -2.523  -2.214  1.00  0.00    -0.007 A 
ATOM     15  N   UNL     1       0.202  -4.178  -0.862  1.00  0.00    -0.282 N 
ATOM     16  C   UNL     1      -1.034  -1.548  -3.070  1.00  0.00     0.048 C 
ATOM     17  H   UNL     1       0.118  -5.012  -0.346  1.00  0.00     0.190 HD
ENDBRANCH   9  10
ENDBRANCH   8   9
ENDBRANCH   5   8
ENDBRANCH   3   4
ENDBRANCH   2   3
ENDBRANCH   1   2
BRANCH   1  18
ATOM     18  C   UNL     1      -0.092   1.846   0.940  1.00  0.00     0.116 C 
BRANCH  18  19
ATOM     19  N   UNL     1       1.332   1.574   1.168  1.00  0.00    -0.352 N 
ATOM     20  C   UNL     1       2.111   1.914   2.265  1.00  0.00     0.251 C 
ATOM     21  H   UNL     1       1.796   1.087   0.449  1.00  0.00     0.163 HD
ATOM     22  O   UNL     1       3.322   1.891   2.231  1.00  0.00    -0.269 OA
BRANCH  20  23
ATOM     23  C   UNL     1       1.388   2.330   3.480  1.00  0.00     0.039 A 
ATOM     24  C   UNL     1       1.511   3.639   3.940  1.00  0.00     0.014 A 
ATOM     25  C   UNL     1       0.398   1.474   3.954  1.00  0.00     0.014 A 
ATOM     26  C   UNL     1       0.513   4.143   4.768  1.00  0.00     0.010 A 
ATOM     27  C   UNL     1      -0.649   2.017   4.670  1.00  0.00     0.010 A 
ATOM     28  C   UNL     1      -0.617   3.357   5.065  1.00  0.00    -0.014 A 
BRANCH  28  29
ATOM     29  C   UNL     1      -1.825   4.014   5.584  1.00  0.00     0.031 A 
ATOM     30  C   UNL     1      -2.183   5.316   4.939  1.00  0.00     0.074 A 
ATOM     31  C   UNL     1      -2.727   3.457   6.421  1.00  0.00     0.049 A 
ATOM     32  N   UNL     1      -2.095   6.497   5.460  1.00  0.00    -0.248 NA
ATOM     33  C   UNL     1      -2.572   5.323   3.521  1.00  0.00     0.031 C 
ATOM     34  C   UNL     1      -2.767   2.083   6.931  1.00  0.00     0.029 A 
ATOM     35  N   UNL     1      -3.893   3.989   6.893  1.00  0.00    -0.354 N 
ATOM     36  C   UNL     1      -2.649   7.372   4.525  1.00  0.00     0.074 A 
ATOM     37  C   UNL     1      -2.737   6.629   3.295  1.00  0.00     0.031 C 
ATOM     38  C   UNL     1      -4.004   1.813   7.398  1.00  0.00     0.029 A 
ATOM     39  C   UNL     1      -4.766   3.045   7.416  1.00  0.00     0.049 A 
ATOM     40  H   UNL     1      -4.096   4.952   6.864  1.00  0.00     0.167 HD
ATOM     41  C   UNL     1      -3.218   8.550   4.912  1.00  0.00     0.034 A 
ATOM     42  C   UNL     1      -6.031   3.249   7.844  1.00  0.00     0.034 A 
ATOM     43  C   UNL     1      -2.889   8.861   6.283  1.00  0.00     0.049 A 
ATOM     44  C   UNL     1      -6.141   4.677   8.206  1.00  0.00     0.074 A 
ATOM     45  C   UNL     1      -1.737   9.058   7.015  1.00  0.00     0.029 A 
ATOM     46  N   UNL     1      -3.893   8.657   7.196  1.00  0.00    -0.354 N 
ATOM     47  N   UNL     1      -5.499   5.220   9.203  1.00  0.00    -0.248 NA
ATOM     48  C   UNL     1      -6.731   5.610   7.261  1.00  0.00     0.031 C 
ATOM     49  C   UNL     1      -2.027   8.537   8.312  1.00  0.00     0.029 A 
ATOM     50  C   UNL     1      -3.352   8.094   8.316  1.00  0.00     0.049 A 
ATOM     51  H   UNL     1      -4.843   8.880   7.066  1.00  0.00     0.167 HD
ATOM     52  C   UNL     1      -5.213   6.504   8.768  1.00  0.00     0.074 A 
ATOM     53  C   UNL     1      -6.141   6.737   7.667  1.00  0.00     0.031 C 
ATOM     54  C   UNL     1      -4.054   7.128   9.137  1.00  0.00     0.034 A 
BRANCH  41  55
ATOM     55  C   UNL     1      -4.407   9.236   4.248  1.00  0.00     0.023 A 
ATOM     56  C   UNL     1      -4.822  10.475   4.803  1.00  0.00     0.012 A 
ATOM     57  C   UNL     1      -5.309   8.614   3.357  1.00  0.00     0.148 A 
ATOM     58  C   UNL     1      -6.097  11.004   4.573  1.00  0.00     0.002 A 
ATOM     59  C   UNL     1      -6.548   9.185   3.070  1.00  0.00     0.091 A 
ATOM     60  F   UNL     1      -5.047   7.401   2.870  1.00  0.00    -0.205 F 
ATOM     61  C   UNL     1      -6.963  10.357   3.706  1.00  0.00     0.022 A 
BRANCH  59  62
ATOM     62  S   UNL     1      -7.688   8.417   1.912  1.00  0.00     0.127 S 
ATOM     63  O   UNL     1      -8.667   7.826   2.819  1.00  0.00    -0.237 OA
ATOM     64  O   UNL     1      -8.163   9.571   1.148  1.00  0.00    -0.237 OA
ATOM     65  O   UNL     1      -6.880   7.482   1.137  1.00  0.00    -0.744 OA
ENDBRANCH  59  62
ENDBRANCH  41  55
BRANCH  42  66
ATOM     66  C   UNL     1      -7.183   2.326   7.883  1.00  0.00     0.023 A 
ATOM     67  C   UNL     1      -8.248   2.577   8.768  1.00  0.00     0.012 A 
ATOM     68  C   UNL     1      -7.364   1.354   6.874  1.00  0.00     0.148 A 
ATOM     69  C   UNL     1      -9.473   1.917   8.625  1.00  0.00     0.002 A 
ATOM     70  C   UNL     1      -8.582   0.694   6.740  1.00  0.00     0.091 A 
ATOM     71  F   UNL     1      -6.376   1.145   5.993  1.00  0.00    -0.205 F 
ATOM     72  C   UNL     1      -9.645   0.984   7.605  1.00  0.00     0.022 A 
BRANCH  70  73
ATOM     73  S   UNL     1      -8.876  -0.510   5.438  1.00  0.00     0.127 S 
ATOM     74  O   UNL     1      -9.572  -1.577   6.158  1.00  0.00    -0.237 OA
ATOM     75  O   UNL     1      -9.710   0.246   4.508  1.00  0.00    -0.237 OA
ATOM     76  O   UNL     1      -7.556  -0.887   4.947  1.00  0.00    -0.744 OA
ENDBRANCH  70  73
ENDBRANCH  42  66
BRANCH  54  77
ATOM     77  C   UNL     1      -3.299   6.591  10.326  1.00  0.00     0.023 A 
ATOM     78  C   UNL     1      -2.761   5.289  10.358  1.00  0.00     0.012 A 
ATOM     79  C   UNL     1      -2.987   7.479  11.371  1.00  0.00     0.148 A 
ATOM     80  C   UNL     1      -1.955   4.873  11.421  1.00  0.00     0.002 A 
ATOM     81  C   UNL     1      -2.143   7.080  12.400  1.00  0.00     0.091 A 
ATOM     82  F   UNL     1      -3.505   8.717  11.330  1.00  0.00    -0.205 F 
ATOM     83  C   UNL     1      -1.634   5.773  12.435  1.00  0.00     0.022 A 
BRANCH  81  84
ATOM     84  S   UNL     1      -1.589   8.238  13.654  1.00  0.00     0.127 S 
ATOM     85  O   UNL     1      -2.451   7.902  14.785  1.00  0.00    -0.237 OA
ATOM     86  O   UNL     1      -0.182   7.870  13.827  1.00  0.00    -0.237 OA
ATOM     87  O   UNL     1      -1.786   9.564  13.082  1.00  0.00    -0.744 OA
ENDBRANCH  81  84
ENDBRANCH  54  77
ENDBRANCH  28  29
ENDBRANCH  20  23
ENDBRANCH  18  19
ENDBRANCH   1  18
TORSDOF 16
