REMARK SMILES CCN(Cc1c(C)nn(CC)c1C)C(=O)Cn1ccc(C(=O)NCCCCNC(=O)c2ccc(-c3c4nc(c(-c5cccc(S(=O)(=O)[O-])c5F)c5ccc([nH]5)c(-c5cccc(S(=O)(=O)[O-])c5F)c5nc(c(-c6cccc(S(=O)(=O)[O-])c6F)c6ccc3[nH]6)C=C5)C=C4)cc2)n1
REMARK SMILES IDX 24 1 23 2 21 3 22 4 20 6 17 7 18 8 94 9 19 10 16 11 14 12
REMARK SMILES IDX 15 13 3 14 2 15 1 16 4 17 5 18 6 19 12 20 7 21 8 22 9 23
REMARK SMILES IDX 13 24 10 25 11 26 25 27 26 28 27 29 28 30 29 31 30 33 31 34
REMARK SMILES IDX 32 35 93 36 33 37 92 38 34 39 35 40 36 41 86 42 37 43 91 44
REMARK SMILES IDX 85 45 87 46 38 47 90 48 84 49 83 50 39 52 71 53 51 54 70 55
REMARK SMILES IDX 52 56 55 57 69 58 88 59 53 60 54 61 68 63 89 64 56 65 40 66
REMARK SMILES IDX 41 67 49 68 42 69 44 70 50 71 43 72 45 73 46 74 47 75 48 76
REMARK SMILES IDX 72 77 73 78 81 79 74 80 76 81 82 82 75 83 77 84 78 85 79 86
REMARK SMILES IDX 80 87 57 88 58 89 66 90 59 91 61 92 67 93 60 94 62 95 63 96
REMARK SMILES IDX 64 97 65 98
REMARK H PARENT 23 5 28 32 87 51 55 62
REMARK Flexibility Score: inf
ROOT
ATOM      1  C   UNL     1      -1.667  -3.046  -4.145  1.00  0.00     0.116 C 
ENDROOT
BRANCH   1   2
ATOM      2  N   UNL     1      -1.223  -4.420  -4.134  1.00  0.00    -0.351 N 
ATOM      3  C   UNL     1       0.040  -4.969  -3.945  1.00  0.00     0.271 C 
ATOM      4  O   UNL     1       0.115  -6.197  -4.051  1.00  0.00    -0.267 OA
ATOM      5  H   UNL     1      -1.936  -5.081  -4.287  1.00  0.00     0.163 HD
BRANCH   3   6
ATOM      6  C   UNL     1       1.280  -4.165  -3.737  1.00  0.00     0.150 A 
ATOM      7  N   UNL     1       2.644  -2.508  -3.527  1.00  0.00    -0.263 N 
ATOM      8  C   UNL     1       3.447  -3.587  -3.783  1.00  0.00     0.110 A 
ATOM      9  N   UNL     1       1.345  -2.858  -3.417  1.00  0.00    -0.167 NA
ATOM     10  C   UNL     1       2.605  -4.667  -3.904  1.00  0.00     0.056 A 
BRANCH   7  11
ATOM     11  C   UNL     1       3.043  -1.115  -3.732  1.00  0.00     0.244 C 
BRANCH  11  12
ATOM     12  C   UNL     1       2.619  -0.123  -2.677  1.00  0.00     0.244 C 
ATOM     13  O   UNL     1       3.475   0.271  -1.871  1.00  0.00    -0.273 OA
BRANCH  12  14
ATOM     14  N   UNL     1       1.325   0.395  -2.642  1.00  0.00    -0.337 N 
BRANCH  14  15
ATOM     15  C   UNL     1       0.916   1.013  -1.371  1.00  0.00     0.116 C 
ATOM     16  C   UNL     1       0.970   0.044  -0.188  1.00  0.00     0.027 C 
ENDBRANCH  14  15
BRANCH  14  17
ATOM     17  C   UNL     1       0.248   0.046  -3.573  1.00  0.00     0.159 C 
BRANCH  17  18
ATOM     18  C   UNL     1       0.442   0.484  -4.998  1.00  0.00     0.015 A 
ATOM     19  C   UNL     1       0.308   1.825  -5.462  1.00  0.00     0.065 A 
ATOM     20  C   UNL     1       0.643  -0.249  -6.173  1.00  0.00     0.041 A 
ATOM     21  C   UNL     1       0.011   3.046  -4.673  1.00  0.00     0.069 C 
ATOM     22  N   UNL     1       0.449   1.925  -6.787  1.00  0.00    -0.178 NA
ATOM     23  N   UNL     1       0.626   0.664  -7.199  1.00  0.00    -0.270 N 
ATOM     24  C   UNL     1       0.841  -1.693  -6.476  1.00  0.00     0.067 C 
BRANCH  23  25
ATOM     25  C   UNL     1       0.766   0.399  -8.621  1.00  0.00     0.141 C 
ATOM     26  C   UNL     1      -0.560   0.451  -9.359  1.00  0.00     0.029 C 
ENDBRANCH  23  25
ENDBRANCH  17  18
ENDBRANCH  14  17
ENDBRANCH  12  14
ENDBRANCH  11  12
ENDBRANCH   7  11
ENDBRANCH   3   6
ENDBRANCH   1   2
BRANCH   1  27
ATOM     27  C   UNL     1      -2.328  -2.568  -5.446  1.00  0.00     0.023 C 
BRANCH  27  28
ATOM     28  C   UNL     1      -3.800  -2.926  -5.652  1.00  0.00     0.023 C 
BRANCH  28  29
ATOM     29  C   UNL     1      -4.745  -2.365  -4.598  1.00  0.00     0.116 C 
BRANCH  29  30
ATOM     30  N   UNL     1      -4.874  -0.907  -4.629  1.00  0.00    -0.352 N 
ATOM     31  C   UNL     1      -5.683  -0.129  -3.811  1.00  0.00     0.251 C 
ATOM     32  H   UNL     1      -4.332  -0.429  -5.298  1.00  0.00     0.163 HD
ATOM     33  O   UNL     1      -6.022   0.994  -4.134  1.00  0.00    -0.269 OA
BRANCH  31  34
ATOM     34  C   UNL     1      -6.115  -0.707  -2.522  1.00  0.00     0.039 A 
ATOM     35  C   UNL     1      -7.447  -0.636  -2.103  1.00  0.00     0.014 A 
ATOM     36  C   UNL     1      -5.160  -1.384  -1.767  1.00  0.00     0.014 A 
ATOM     37  C   UNL     1      -7.829  -1.344  -0.965  1.00  0.00     0.010 A 
ATOM     38  C   UNL     1      -5.561  -2.182  -0.724  1.00  0.00     0.010 A 
ATOM     39  C   UNL     1      -6.885  -2.141  -0.296  1.00  0.00    -0.014 A 
BRANCH  39  40
ATOM     40  C   UNL     1      -7.309  -3.091   0.733  1.00  0.00     0.031 A 
ATOM     41  C   UNL     1      -8.340  -4.059   0.260  1.00  0.00     0.074 A 
ATOM     42  C   UNL     1      -6.652  -3.241   1.905  1.00  0.00     0.049 A 
ATOM     43  N   UNL     1      -9.575  -4.143   0.633  1.00  0.00    -0.248 NA
ATOM     44  C   UNL     1      -8.015  -4.915  -0.895  1.00  0.00     0.031 C 
ATOM     45  C   UNL     1      -5.420  -2.556   2.321  1.00  0.00     0.029 A 
ATOM     46  N   UNL     1      -6.837  -4.149   2.907  1.00  0.00    -0.354 N 
ATOM     47  C   UNL     1     -10.088  -5.255  -0.036  1.00  0.00     0.074 A 
ATOM     48  C   UNL     1      -9.189  -5.504  -1.128  1.00  0.00     0.031 C 
ATOM     49  C   UNL     1      -4.834  -3.248   3.320  1.00  0.00     0.029 A 
ATOM     50  C   UNL     1      -5.720  -4.321   3.727  1.00  0.00     0.049 A 
ATOM     51  H   UNL     1      -7.681  -4.639   3.039  1.00  0.00     0.167 HD
ATOM     52  C   UNL     1     -11.010  -6.061   0.562  1.00  0.00     0.034 A 
ATOM     53  C   UNL     1      -5.508  -5.305   4.638  1.00  0.00     0.034 A 
ATOM     54  C   UNL     1     -11.585  -5.406   1.715  1.00  0.00     0.049 A 
ATOM     55  C   UNL     1      -6.824  -5.893   4.957  1.00  0.00     0.074 A 
ATOM     56  C   UNL     1     -12.257  -4.224   1.953  1.00  0.00     0.029 A 
ATOM     57  N   UNL     1     -11.131  -5.841   2.935  1.00  0.00    -0.354 N 
ATOM     58  N   UNL     1      -7.762  -5.255   5.596  1.00  0.00    -0.248 NA
ATOM     59  C   UNL     1      -7.254  -7.060   4.208  1.00  0.00     0.031 C 
ATOM     60  C   UNL     1     -11.799  -3.789   3.233  1.00  0.00     0.029 A 
ATOM     61  C   UNL     1     -10.938  -4.761   3.746  1.00  0.00     0.049 A 
ATOM     62  H   UNL     1     -10.972  -6.780   3.185  1.00  0.00     0.167 HD
ATOM     63  C   UNL     1      -8.924  -5.622   4.935  1.00  0.00     0.074 A 
ATOM     64  C   UNL     1      -8.570  -6.835   4.198  1.00  0.00     0.031 C 
ATOM     65  C   UNL     1      -9.956  -4.737   4.807  1.00  0.00     0.034 A 
BRANCH  52  66
ATOM     66  C   UNL     1     -11.071  -7.582   0.434  1.00  0.00     0.023 A 
ATOM     67  C   UNL     1     -12.095  -8.236   1.165  1.00  0.00     0.012 A 
ATOM     68  C   UNL     1     -10.043  -8.407  -0.078  1.00  0.00     0.148 A 
ATOM     69  C   UNL     1     -12.034  -9.600   1.469  1.00  0.00     0.002 A 
ATOM     70  C   UNL     1     -10.024  -9.777   0.167  1.00  0.00     0.091 A 
ATOM     71  F   UNL     1      -9.001  -7.877  -0.716  1.00  0.00    -0.205 F 
ATOM     72  C   UNL     1     -10.994 -10.372   0.974  1.00  0.00     0.022 A 
BRANCH  70  73
ATOM     73  S   UNL     1      -8.724 -10.838  -0.486  1.00  0.00     0.127 S 
ATOM     74  O   UNL     1      -8.008 -11.201   0.733  1.00  0.00    -0.237 OA
ATOM     75  O   UNL     1      -9.503 -11.916  -1.095  1.00  0.00    -0.237 OA
ATOM     76  O   UNL     1      -7.984 -10.021  -1.440  1.00  0.00    -0.744 OA
ENDBRANCH  70  73
ENDBRANCH  52  66
BRANCH  53  77
ATOM     77  C   UNL     1      -4.255  -5.941   5.109  1.00  0.00     0.023 A 
ATOM     78  C   UNL     1      -4.255  -6.667   6.319  1.00  0.00     0.012 A 
ATOM     79  C   UNL     1      -3.152  -6.097   4.242  1.00  0.00     0.148 A 
ATOM     80  C   UNL     1      -3.217  -7.553   6.633  1.00  0.00     0.002 A 
ATOM     81  C   UNL     1      -2.119  -6.975   4.561  1.00  0.00     0.091 A 
ATOM     82  F   UNL     1      -3.163  -5.459   3.064  1.00  0.00    -0.205 F 
ATOM     83  C   UNL     1      -2.155  -7.716   5.749  1.00  0.00     0.022 A 
BRANCH  81  84
ATOM     84  S   UNL     1      -0.732  -7.262   3.454  1.00  0.00     0.127 S 
ATOM     85  O   UNL     1       0.410  -7.130   4.359  1.00  0.00    -0.237 OA
ATOM     86  O   UNL     1      -0.993  -8.623   2.991  1.00  0.00    -0.237 OA
ATOM     87  O   UNL     1      -0.816  -6.221   2.438  1.00  0.00    -0.744 OA
ENDBRANCH  81  84
ENDBRANCH  53  77
BRANCH  65  88
ATOM     88  C   UNL     1      -9.960  -3.524   5.701  1.00  0.00     0.023 A 
ATOM     89  C   UNL     1      -8.947  -2.543   5.684  1.00  0.00     0.012 A 
ATOM     90  C   UNL     1     -11.096  -3.312   6.498  1.00  0.00     0.148 A 
ATOM     91  C   UNL     1      -9.053  -1.394   6.474  1.00  0.00     0.002 A 
ATOM     92  C   UNL     1     -11.222  -2.147   7.241  1.00  0.00     0.091 A 
ATOM     93  F   UNL     1     -12.051  -4.256   6.506  1.00  0.00    -0.205 F 
ATOM     94  C   UNL     1     -10.197  -1.190   7.243  1.00  0.00     0.022 A 
BRANCH  92  95
ATOM     95  S   UNL     1     -12.726  -1.793   8.149  1.00  0.00     0.127 S 
ATOM     96  O   UNL     1     -12.354  -2.161   9.513  1.00  0.00    -0.237 OA
ATOM     97  O   UNL     1     -12.900  -0.356   7.928  1.00  0.00    -0.237 OA
ATOM     98  O   UNL     1     -13.762  -2.614   7.534  1.00  0.00    -0.744 OA
ENDBRANCH  92  95
ENDBRANCH  65  88
ENDBRANCH  39  40
ENDBRANCH  31  34
ENDBRANCH  29  30
ENDBRANCH  28  29
ENDBRANCH  27  28
ENDBRANCH   1  27
TORSDOF 21
