REMARK SMILES Cc1ccc(C(=O)N2C[C@@H](C(=O)NCCCCNC(=O)c3ccc(-c4c5nc(c(-c6cccc(S(=O)(=O)[O-])c6F)c6ccc([nH]6)c(-c6cccc(S(=O)(=O)[O-])c6F)c6nc(c(-c7cccc(S(=O)(=O)[O-])c7F)c7ccc4[nH]7)C=C6)C=C5)cc3)C[C@H](C(=O)N3CCOCC3)C2)cc1F
REMARK SMILES IDX 16 1 15 2 14 3 13 4 11 5 12 6 10 8 8 9 9 10 94 11 85 12
REMARK SMILES IDX 84 13 6 14 7 15 5 16 1 17 2 18 3 19 96 20 4 21 95 22 97 23
REMARK SMILES IDX 86 24 87 25 88 26 89 27 93 28 90 29 92 30 91 31 17 32 18 33
REMARK SMILES IDX 19 34 20 36 21 37 22 38 83 39 23 40 82 41 24 42 25 43 26 44
REMARK SMILES IDX 76 45 27 46 81 47 75 48 77 49 28 50 80 51 74 52 73 53 29 55
REMARK SMILES IDX 61 56 41 57 60 58 42 59 45 60 59 61 78 62 43 63 44 64 58 66
REMARK SMILES IDX 79 67 46 68 30 69 31 70 39 71 32 72 34 73 40 74 33 75 35 76
REMARK SMILES IDX 36 77 37 78 38 79 62 80 63 81 71 82 64 83 66 84 72 85 65 86
REMARK SMILES IDX 67 87 68 88 69 89 70 90 47 91 48 92 56 93 49 94 51 95 57 96
REMARK SMILES IDX 50 97 52 98 53 99 54 100 55 101
REMARK H PARENT 13 7 18 35 77 54 45 65
REMARK Flexibility Score: inf
ROOT
ATOM      1  C   UNL     1     -10.457   1.370   1.412  1.00  0.00     0.023 C 
ENDROOT
BRANCH   1   2
ATOM      2  C   UNL     1      -9.151   1.164   0.642  1.00  0.00     0.023 C 
BRANCH   2   3
ATOM      3  C   UNL     1      -7.956   0.765   1.511  1.00  0.00     0.116 C 
BRANCH   3   4
ATOM      4  N   UNL     1      -8.198  -0.512   2.158  1.00  0.00    -0.356 N 
ATOM      5  C   UNL     1      -7.736  -1.748   1.848  1.00  0.00     0.224 C 
ATOM      6  O   UNL     1      -8.265  -2.726   2.381  1.00  0.00    -0.275 OA
ATOM      7  H   UNL     1      -8.790  -0.474   2.943  1.00  0.00     0.163 HD
BRANCH   5   8
ATOM      8  C   UNL     1      -6.594  -1.938   0.869  1.00  0.00     0.099 C 
ATOM      9  N   UNL     1      -4.266  -1.202   0.381  1.00  0.00    -0.337 N 
ATOM     10  C   UNL     1      -5.329  -1.262   1.373  1.00  0.00     0.133 C 
ATOM     11  C   UNL     1      -4.623  -0.727  -0.953  1.00  0.00     0.133 C 
ATOM     12  C   UNL     1      -5.819  -1.486  -1.557  1.00  0.00     0.099 C 
ATOM     13  C   UNL     1      -6.983  -1.657  -0.587  1.00  0.00     0.030 C 
BRANCH   9  14
ATOM     14  C   UNL     1      -2.970  -1.381   0.852  1.00  0.00     0.254 C 
ATOM     15  O   UNL     1      -2.708  -2.146   1.779  1.00  0.00    -0.269 OA
BRANCH  14  16
ATOM     16  C   UNL     1      -1.852  -0.579   0.307  1.00  0.00     0.042 A 
ATOM     17  C   UNL     1       1.688   1.804  -0.209  1.00  0.00     0.047 C 
ATOM     18  C   UNL     1       0.436   0.985  -0.125  1.00  0.00    -0.015 A 
ATOM     19  C   UNL     1      -0.824   1.590  -0.036  1.00  0.00     0.007 A 
ATOM     20  C   UNL     1       0.522  -0.408  -0.042  1.00  0.00     0.126 A 
ATOM     21  C   UNL     1      -1.966   0.812   0.184  1.00  0.00     0.014 A 
ATOM     22  C   UNL     1      -0.604  -1.192   0.179  1.00  0.00     0.053 A 
ATOM     23  F   UNL     1       1.720  -1.006  -0.118  1.00  0.00    -0.207 F 
ENDBRANCH  14  16
ENDBRANCH   9  14
BRANCH  12  24
ATOM     24  C   UNL     1      -5.319  -2.686  -2.375  1.00  0.00     0.227 C 
ATOM     25  O   UNL     1      -5.075  -2.506  -3.575  1.00  0.00    -0.275 OA
ATOM     26  N   UNL     1      -4.905  -3.840  -1.760  1.00  0.00    -0.338 N 
ATOM     27  C   UNL     1      -5.634  -4.673  -0.805  1.00  0.00     0.148 C 
ATOM     28  C   UNL     1      -3.654  -4.456  -2.191  1.00  0.00     0.148 C 
ATOM     29  C   UNL     1      -4.738  -4.998   0.398  1.00  0.00     0.181 C 
ATOM     30  C   UNL     1      -2.806  -4.763  -0.950  1.00  0.00     0.181 C 
ATOM     31  O   UNL     1      -3.519  -5.627  -0.046  1.00  0.00    -0.378 OA
ENDBRANCH  12  24
ENDBRANCH   5   8
ENDBRANCH   3   4
ENDBRANCH   2   3
ENDBRANCH   1   2
BRANCH   1  32
ATOM     32  C   UNL     1     -10.320   2.381   2.530  1.00  0.00     0.116 C 
BRANCH  32  33
ATOM     33  N   UNL     1      -9.968   3.707   2.030  1.00  0.00    -0.352 N 
ATOM     34  C   UNL     1     -10.047   4.897   2.735  1.00  0.00     0.251 C 
ATOM     35  H   UNL     1      -9.642   3.760   1.102  1.00  0.00     0.163 HD
ATOM     36  O   UNL     1     -10.213   5.964   2.191  1.00  0.00    -0.269 OA
BRANCH  34  37
ATOM     37  C   UNL     1      -9.932   4.773   4.197  1.00  0.00     0.039 A 
ATOM     38  C   UNL     1     -10.750   5.488   5.075  1.00  0.00     0.014 A 
ATOM     39  C   UNL     1      -8.989   3.859   4.653  1.00  0.00     0.014 A 
ATOM     40  C   UNL     1     -10.632   5.240   6.440  1.00  0.00     0.010 A 
ATOM     41  C   UNL     1      -9.030   3.461   5.950  1.00  0.00     0.010 A 
ATOM     42  C   UNL     1      -9.771   4.220   6.854  1.00  0.00    -0.014 A 
BRANCH  42  43
ATOM     43  C   UNL     1      -9.452   3.904   8.233  1.00  0.00     0.031 A 
ATOM     44  C   UNL     1     -10.491   3.397   9.126  1.00  0.00     0.074 A 
ATOM     45  C   UNL     1      -8.141   3.999   8.548  1.00  0.00     0.049 A 
ATOM     46  N   UNL     1     -10.544   3.626  10.388  1.00  0.00    -0.248 NA
ATOM     47  C   UNL     1     -11.628   2.619   8.637  1.00  0.00     0.031 C 
ATOM     48  C   UNL     1      -7.399   3.527   9.699  1.00  0.00     0.029 A 
ATOM     49  N   UNL     1      -7.198   4.728   7.829  1.00  0.00    -0.354 N 
ATOM     50  C   UNL     1     -11.420   2.699  10.912  1.00  0.00     0.074 A 
ATOM     51  C   UNL     1     -12.214   2.263   9.787  1.00  0.00     0.031 C 
ATOM     52  C   UNL     1      -6.226   4.195   9.758  1.00  0.00     0.029 A 
ATOM     53  C   UNL     1      -6.238   5.210   8.710  1.00  0.00     0.049 A 
ATOM     54  H   UNL     1      -7.208   4.876   6.856  1.00  0.00     0.167 HD
ATOM     55  C   UNL     1     -11.193   2.225  12.174  1.00  0.00     0.034 A 
ATOM     56  C   UNL     1      -6.174   6.566   8.890  1.00  0.00     0.034 A 
ATOM     57  C   UNL     1     -10.000   2.864  12.732  1.00  0.00     0.049 A 
ATOM     58  C   UNL     1      -6.645   6.909  10.278  1.00  0.00     0.074 A 
ATOM     59  C   UNL     1      -8.693   2.418  12.844  1.00  0.00     0.029 A 
ATOM     60  N   UNL     1      -9.964   4.242  12.910  1.00  0.00    -0.354 N 
ATOM     61  N   UNL     1      -7.558   6.235  10.927  1.00  0.00    -0.248 NA
ATOM     62  C   UNL     1      -6.054   7.982  11.066  1.00  0.00     0.031 C 
ATOM     63  C   UNL     1      -7.858   3.554  12.998  1.00  0.00     0.029 A 
ATOM     64  C   UNL     1      -8.658   4.684  12.994  1.00  0.00     0.049 A 
ATOM     65  H   UNL     1     -10.758   4.821  12.969  1.00  0.00     0.167 HD
ATOM     66  C   UNL     1      -7.605   6.691  12.218  1.00  0.00     0.074 A 
ATOM     67  C   UNL     1      -6.672   7.804  12.245  1.00  0.00     0.031 C 
ATOM     68  C   UNL     1      -8.357   6.095  13.190  1.00  0.00     0.034 A 
BRANCH  55  69
ATOM     69  C   UNL     1     -11.800   0.955  12.750  1.00  0.00     0.023 A 
ATOM     70  C   UNL     1     -12.967   0.351  12.234  1.00  0.00     0.012 A 
ATOM     71  C   UNL     1     -11.193   0.279  13.836  1.00  0.00     0.148 A 
ATOM     72  C   UNL     1     -13.442  -0.891  12.683  1.00  0.00     0.002 A 
ATOM     73  C   UNL     1     -11.674  -0.951  14.293  1.00  0.00     0.091 A 
ATOM     74  F   UNL     1     -10.135   0.814  14.458  1.00  0.00    -0.205 F 
ATOM     75  C   UNL     1     -12.787  -1.552  13.710  1.00  0.00     0.022 A 
BRANCH  73  76
ATOM     76  S   UNL     1     -10.831  -1.767  15.654  1.00  0.00     0.127 S 
ATOM     77  O   UNL     1      -9.518  -2.063  15.089  1.00  0.00    -0.237 OA
ATOM     78  O   UNL     1     -10.882  -0.773  16.721  1.00  0.00    -0.237 OA
ATOM     79  O   UNL     1     -11.659  -2.949  15.899  1.00  0.00    -0.744 OA
ENDBRANCH  73  76
ENDBRANCH  55  69
BRANCH  56  80
ATOM     80  C   UNL     1      -6.518   7.320   7.629  1.00  0.00     0.023 A 
ATOM     81  C   UNL     1      -7.807   7.847   7.423  1.00  0.00     0.012 A 
ATOM     82  C   UNL     1      -5.718   7.049   6.492  1.00  0.00     0.148 A 
ATOM     83  C   UNL     1      -8.317   7.981   6.121  1.00  0.00     0.002 A 
ATOM     84  C   UNL     1      -6.271   7.080   5.213  1.00  0.00     0.091 A 
ATOM     85  F   UNL     1      -4.463   6.610   6.683  1.00  0.00    -0.205 F 
ATOM     86  C   UNL     1      -7.573   7.548   5.019  1.00  0.00     0.022 A 
BRANCH  84  87
ATOM     87  S   UNL     1      -5.426   6.200   3.885  1.00  0.00     0.127 S 
ATOM     88  O   UNL     1      -4.402   7.150   3.464  1.00  0.00    -0.237 OA
ATOM     89  O   UNL     1      -4.953   4.976   4.528  1.00  0.00    -0.237 OA
ATOM     90  O   UNL     1      -6.477   5.952   2.897  1.00  0.00    -0.744 OA
ENDBRANCH  84  87
ENDBRANCH  56  80
BRANCH  68  91
ATOM     91  C   UNL     1      -8.738   6.723  14.506  1.00  0.00     0.023 A 
ATOM     92  C   UNL     1      -9.286   5.896  15.521  1.00  0.00     0.012 A 
ATOM     93  C   UNL     1      -8.695   8.096  14.773  1.00  0.00     0.148 A 
ATOM     94  C   UNL     1      -9.758   6.408  16.731  1.00  0.00     0.002 A 
ATOM     95  C   UNL     1      -9.039   8.585  16.030  1.00  0.00     0.091 A 
ATOM     96  F   UNL     1      -8.381   8.969  13.807  1.00  0.00    -0.205 F 
ATOM     97  C   UNL     1      -9.604   7.757  17.002  1.00  0.00     0.022 A 
BRANCH  95  98
ATOM     98  S   UNL     1      -8.587  10.272  16.425  1.00  0.00     0.127 S 
ATOM     99  O   UNL     1      -7.136  10.254  16.255  1.00  0.00    -0.237 OA
ATOM    100  O   UNL     1      -9.341  11.064  15.460  1.00  0.00    -0.237 OA
ATOM    101  O   UNL     1      -9.030  10.426  17.811  1.00  0.00    -0.744 OA
ENDBRANCH  95  98
ENDBRANCH  68  91
ENDBRANCH  42  43
ENDBRANCH  34  37
ENDBRANCH  32  33
ENDBRANCH   1  32
TORSDOF 17
