REMARK SMILES COc1ccc2c(C[NH2+]Cc3cccs3)c(C(=O)NCCCCNC(=O)c3ccc(-c4c5nc(c(-c6cccc(S(=O)(=O)[O-])c6F)c6ccc([nH]6)c(-c6cccc(S(=O)(=O)[O-])c6F)c6nc(c(-c7cccc(S(=O)(=O)[O-])c7F)c7ccc4[nH]7)C=C6)C=C5)cc3)[nH]c2c1
REMARK SMILES IDX 21 1 20 2 19 3 17 4 18 5 16 7 3 8 4 9 92 10 5 11 91 12 6 13
REMARK SMILES IDX 90 14 7 15 2 17 1 18 8 19 9 20 10 23 11 24 12 25 15 26 13 27
REMARK SMILES IDX 14 28 22 29 23 30 24 31 25 32 26 34 27 35 28 36 89 37 29 38
REMARK SMILES IDX 88 39 30 40 31 41 32 42 82 43 33 44 87 45 81 46 83 47 34 48
REMARK SMILES IDX 86 49 80 50 79 51 35 53 67 54 47 55 66 56 48 57 51 58 65 59
REMARK SMILES IDX 84 60 49 61 50 62 64 64 85 65 52 66 36 67 37 68 45 69 38 70
REMARK SMILES IDX 40 71 46 72 39 73 41 74 42 75 43 76 44 77 68 78 69 79 77 80
REMARK SMILES IDX 70 81 72 82 78 83 71 84 73 85 74 86 75 87 76 88 53 89 54 90
REMARK SMILES IDX 62 91 55 92 57 93 63 94 56 95 58 96 59 97 60 98 61 99
REMARK H PARENT 19 6 90 16 9 21 9 22 24 33 83 52 51 63
REMARK Flexibility Score: inf
ROOT
ATOM      1  C   UNL     1      -3.353   6.068  -4.435  1.00  0.00     0.023 C 
ENDROOT
BRANCH   1   2
ATOM      2  C   UNL     1      -2.382   5.605  -5.521  1.00  0.00     0.116 C 
BRANCH   2   3
ATOM      3  N   UNL     1      -1.201   6.438  -5.527  1.00  0.00    -0.351 N 
ATOM      4  C   UNL     1       0.045   6.335  -4.972  1.00  0.00     0.268 C 
ATOM      5  O   UNL     1       0.754   7.333  -5.121  1.00  0.00    -0.268 OA
ATOM      6  H   UNL     1      -1.321   7.266  -6.046  1.00  0.00     0.163 HD
BRANCH   4   7
ATOM      7  C   UNL     1       0.503   5.145  -4.269  1.00  0.00     0.114 A 
ATOM      8  C   UNL     1       1.177   1.128  -2.071  1.00  0.00     0.120 A 
ATOM      9  C   UNL     1       2.510   1.524  -2.135  1.00  0.00     0.047 A 
ATOM     10  C   UNL     1       0.159   1.905  -2.629  1.00  0.00     0.073 A 
ATOM     11  C   UNL     1       2.854   2.743  -2.734  1.00  0.00     0.015 A 
ATOM     12  C   UNL     1       0.525   3.129  -3.204  1.00  0.00     0.050 A 
ATOM     13  C   UNL     1       1.841   3.566  -3.273  1.00  0.00     0.009 A 
ATOM     14  N   UNL     1      -0.254   4.115  -3.761  1.00  0.00    -0.350 N 
ATOM     15  C   UNL     1       1.829   4.841  -3.929  1.00  0.00     0.045 A 
ATOM     16  H   UNL     1      -1.237   4.087  -3.794  1.00  0.00     0.167 HD
BRANCH   8  17
ATOM     17  O   UNL     1       0.810  -0.067  -1.506  1.00  0.00    -0.497 OA
ATOM     18  C   UNL     1       1.107  -0.090  -0.111  1.00  0.00     0.278 C 
ENDBRANCH   8  17
BRANCH  15  19
ATOM     19  C   UNL     1       3.038   5.687  -4.199  1.00  0.00     0.300 C 
BRANCH  19  20
ATOM     20  N   UNL     1       3.394   5.522  -5.605  1.00  0.00    -0.338 N 
ATOM     21  H   UNL     1       2.605   5.815  -6.181  1.00  0.00     0.346 HD
ATOM     22  H   UNL     1       3.620   4.540  -5.760  1.00  0.00     0.346 HD
BRANCH  20  23
ATOM     23  C   UNL     1       4.565   6.318  -5.968  1.00  0.00     0.308 C 
BRANCH  23  24
ATOM     24  C   UNL     1       5.846   5.774  -5.393  1.00  0.00     0.059 A 
ATOM     25  C   UNL     1       6.821   6.458  -4.692  1.00  0.00     0.021 A 
ATOM     26  S   UNL     1       6.262   4.117  -5.584  1.00  0.00    -0.143 S 
ATOM     27  C   UNL     1       7.885   5.609  -4.271  1.00  0.00     0.012 A 
ATOM     28  C   UNL     1       7.693   4.306  -4.670  1.00  0.00     0.065 A 
ENDBRANCH  23  24
ENDBRANCH  20  23
ENDBRANCH  19  20
ENDBRANCH  15  19
ENDBRANCH   4   7
ENDBRANCH   2   3
ENDBRANCH   1   2
BRANCH   1  29
ATOM     29  C   UNL     1      -4.080   7.380  -4.767  1.00  0.00     0.023 C 
BRANCH  29  30
ATOM     30  C   UNL     1      -4.896   7.370  -6.059  1.00  0.00     0.116 C 
BRANCH  30  31
ATOM     31  N   UNL     1      -5.850   6.270  -6.124  1.00  0.00    -0.352 N 
ATOM     32  C   UNL     1      -7.124   6.266  -6.637  1.00  0.00     0.251 C 
ATOM     33  H   UNL     1      -5.539   5.414  -5.751  1.00  0.00     0.163 HD
ATOM     34  O   UNL     1      -7.838   5.274  -6.514  1.00  0.00    -0.269 OA
BRANCH  32  35
ATOM     35  C   UNL     1      -7.639   7.480  -7.301  1.00  0.00     0.039 A 
ATOM     36  C   UNL     1      -8.852   8.021  -6.867  1.00  0.00     0.014 A 
ATOM     37  C   UNL     1      -6.898   8.108  -8.305  1.00  0.00     0.014 A 
ATOM     38  C   UNL     1      -9.280   9.246  -7.381  1.00  0.00     0.010 A 
ATOM     39  C   UNL     1      -7.299   9.355  -8.775  1.00  0.00     0.010 A 
ATOM     40  C   UNL     1      -8.483   9.945  -8.303  1.00  0.00    -0.014 A 
BRANCH  40  41
ATOM     41  C   UNL     1      -8.825  11.326  -8.727  1.00  0.00     0.031 A 
ATOM     42  C   UNL     1      -9.151  11.628 -10.162  1.00  0.00     0.074 A 
ATOM     43  C   UNL     1      -8.724  12.328  -7.830  1.00  0.00     0.049 A 
ATOM     44  N   UNL     1      -9.394  12.783 -10.723  1.00  0.00    -0.248 NA
ATOM     45  C   UNL     1      -9.184  10.489 -11.094  1.00  0.00     0.031 C 
ATOM     46  C   UNL     1      -8.331  12.171  -6.427  1.00  0.00     0.029 A 
ATOM     47  N   UNL     1      -8.907  13.681  -7.971  1.00  0.00    -0.354 N 
ATOM     48  C   UNL     1      -9.574  12.520 -12.075  1.00  0.00     0.074 A 
ATOM     49  C   UNL     1      -9.393  11.095 -12.255  1.00  0.00     0.031 C 
ATOM     50  C   UNL     1      -8.294  13.379  -5.841  1.00  0.00     0.029 A 
ATOM     51  C   UNL     1      -8.633  14.398  -6.829  1.00  0.00     0.049 A 
ATOM     52  H   UNL     1      -9.206  14.100  -8.811  1.00  0.00     0.167 HD
ATOM     53  C   UNL     1      -9.887  13.383 -13.070  1.00  0.00     0.034 A 
ATOM     54  C   UNL     1      -8.638  15.727  -6.605  1.00  0.00     0.034 A 
ATOM     55  C   UNL     1     -10.115  14.789 -12.878  1.00  0.00     0.049 A 
ATOM     56  C   UNL     1      -9.025  16.654  -7.724  1.00  0.00     0.074 A 
ATOM     57  C   UNL     1     -10.552  15.722 -13.802  1.00  0.00     0.029 A 
ATOM     58  N   UNL     1      -9.915  15.469 -11.688  1.00  0.00    -0.354 N 
ATOM     59  N   UNL     1      -9.380  16.363  -8.951  1.00  0.00    -0.248 NA
ATOM     60  C   UNL     1      -9.041  18.093  -7.420  1.00  0.00     0.031 C 
ATOM     61  C   UNL     1     -10.595  16.972 -13.175  1.00  0.00     0.029 A 
ATOM     62  C   UNL     1     -10.200  16.814 -11.857  1.00  0.00     0.049 A 
ATOM     63  H   UNL     1      -9.614  15.057 -10.845  1.00  0.00     0.167 HD
ATOM     64  C   UNL     1      -9.688  17.575  -9.557  1.00  0.00     0.074 A 
ATOM     65  C   UNL     1      -9.506  18.603  -8.553  1.00  0.00     0.031 C 
ATOM     66  C   UNL     1     -10.065  17.819 -10.836  1.00  0.00     0.034 A 
BRANCH  53  67
ATOM     67  C   UNL     1     -10.067  12.826 -14.457  1.00  0.00     0.023 A 
ATOM     68  C   UNL     1     -11.232  12.093 -14.761  1.00  0.00     0.012 A 
ATOM     69  C   UNL     1      -9.139  13.108 -15.479  1.00  0.00     0.148 A 
ATOM     70  C   UNL     1     -11.461  11.630 -16.055  1.00  0.00     0.002 A 
ATOM     71  C   UNL     1      -9.394  12.676 -16.775  1.00  0.00     0.091 A 
ATOM     72  F   UNL     1      -8.029  13.791 -15.164  1.00  0.00    -0.205 F 
ATOM     73  C   UNL     1     -10.550  11.931 -17.063  1.00  0.00     0.022 A 
BRANCH  71  74
ATOM     74  S   UNL     1      -8.321  13.073 -18.161  1.00  0.00     0.127 S 
ATOM     75  O   UNL     1      -7.766  11.760 -18.488  1.00  0.00    -0.237 OA
ATOM     76  O   UNL     1      -9.271  13.595 -19.144  1.00  0.00    -0.237 OA
ATOM     77  O   UNL     1      -7.362  14.047 -17.662  1.00  0.00    -0.744 OA
ENDBRANCH  71  74
ENDBRANCH  53  67
BRANCH  54  78
ATOM     78  C   UNL     1      -8.319  16.260  -5.250  1.00  0.00     0.023 A 
ATOM     79  C   UNL     1      -9.343  16.846  -4.481  1.00  0.00     0.012 A 
ATOM     80  C   UNL     1      -7.019  16.181  -4.714  1.00  0.00     0.148 A 
ATOM     81  C   UNL     1      -9.072  17.377  -3.220  1.00  0.00     0.002 A 
ATOM     82  C   UNL     1      -6.768  16.661  -3.433  1.00  0.00     0.091 A 
ATOM     83  F   UNL     1      -6.051  15.637  -5.465  1.00  0.00    -0.205 F 
ATOM     84  C   UNL     1      -7.788  17.275  -2.691  1.00  0.00     0.022 A 
BRANCH  82  85
ATOM     85  S   UNL     1      -5.175  16.443  -2.632  1.00  0.00     0.127 S 
ATOM     86  O   UNL     1      -4.578  17.767  -2.786  1.00  0.00    -0.237 OA
ATOM     87  O   UNL     1      -5.562  16.097  -1.264  1.00  0.00    -0.237 OA
ATOM     88  O   UNL     1      -4.527  15.358  -3.357  1.00  0.00    -0.744 OA
ENDBRANCH  82  85
ENDBRANCH  54  78
BRANCH  66  89
ATOM     89  C   UNL     1     -10.321  19.251 -11.226  1.00  0.00     0.023 A 
ATOM     90  C   UNL     1      -9.233  20.130 -11.390  1.00  0.00     0.012 A 
ATOM     91  C   UNL     1     -11.626  19.705 -11.499  1.00  0.00     0.148 A 
ATOM     92  C   UNL     1      -9.441  21.448 -11.793  1.00  0.00     0.002 A 
ATOM     93  C   UNL     1     -11.822  21.007 -11.945  1.00  0.00     0.091 A 
ATOM     94  F   UNL     1     -12.650  18.858 -11.319  1.00  0.00    -0.205 F 
ATOM     95  C   UNL     1     -10.733  21.882 -12.082  1.00  0.00     0.022 A 
BRANCH  93  96
ATOM     96  S   UNL     1     -13.438  21.625 -12.428  1.00  0.00     0.127 S 
ATOM     97  O   UNL     1     -13.762  22.514 -11.314  1.00  0.00    -0.237 OA
ATOM     98  O   UNL     1     -13.146  22.309 -13.689  1.00  0.00    -0.237 OA
ATOM     99  O   UNL     1     -14.292  20.453 -12.563  1.00  0.00    -0.744 OA
ENDBRANCH  93  96
ENDBRANCH  66  89
ENDBRANCH  40  41
ENDBRANCH  32  35
ENDBRANCH  30  31
ENDBRANCH  29  30
ENDBRANCH   1  29
TORSDOF 19
