REMARK SMILES Cc1nn([C@H]2CCS(=O)(=O)C2)c(C)c1/C=C(\CC(=O)NCCCCNC(=O)c1ccc(-c2c3nc(c(-c4cccc(S(=O)(=O)[O-])c4F)c4ccc([nH]4)c(-c4cccc(S(=O)(=O)[O-])c4F)c4nc(c(-c5cccc(S(=O)(=O)[O-])c5F)c5ccc2[nH]5)C=C4)C=C3)cc1)c1nc2ccccc2s1
REMARK SMILES IDX 22 1 21 2 20 3 18 4 19 5 17 7 16 8 15 9 14 10 1 11 2 12 3 13
REMARK SMILES IDX 4 14 12 15 13 16 5 17 6 18 11 19 7 20 8 21 9 22 10 23 91 24
REMARK SMILES IDX 92 25 99 26 93 27 98 28 94 29 97 30 95 31 96 32 23 33 24 34
REMARK SMILES IDX 25 35 26 36 27 38 28 39 29 40 90 41 30 42 89 43 31 44 32 45
REMARK SMILES IDX 33 46 83 47 34 48 88 49 82 50 84 51 35 52 87 53 81 54 80 55
REMARK SMILES IDX 36 57 68 58 48 59 67 60 49 61 52 62 66 63 85 64 50 65 51 66
REMARK SMILES IDX 65 68 86 69 53 70 37 71 38 72 46 73 39 74 41 75 47 76 40 77
REMARK SMILES IDX 42 78 43 79 44 80 45 81 69 82 70 83 78 84 71 85 73 86 79 87
REMARK SMILES IDX 72 88 74 89 75 90 76 91 77 92 54 93 55 94 63 95 56 96 58 97
REMARK SMILES IDX 64 98 57 99 59 100 60 101 61 102 62 103
REMARK H PARENT 20 6 25 37 84 56 52 67
REMARK Flexibility Score: inf
ROOT
ATOM      1  C   UNL     1       5.416  -9.080   0.700  1.00  0.00     0.023 C 
ENDROOT
BRANCH   1   2
ATOM      2  C   UNL     1       4.351  -8.227   1.397  1.00  0.00     0.116 C 
BRANCH   2   3
ATOM      3  N   UNL     1       4.902  -7.554   2.554  1.00  0.00    -0.356 N 
ATOM      4  C   UNL     1       5.484  -6.319   2.611  1.00  0.00     0.224 C 
ATOM      5  O   UNL     1       6.181  -6.021   3.580  1.00  0.00    -0.275 OA
ATOM      6  H   UNL     1       4.851  -8.046   3.405  1.00  0.00     0.163 HD
BRANCH   4   7
ATOM      7  C   UNL     1       5.124  -5.296   1.545  1.00  0.00     0.138 C 
BRANCH   7   8
ATOM      8  C   UNL     1       5.738  -5.442   0.171  1.00  0.00    -0.002 C 
ATOM      9  C   UNL     1       5.030  -5.521  -0.983  1.00  0.00     0.019 C 
BRANCH   9  10
ATOM     10  C   UNL     1       3.608  -5.632  -1.217  1.00  0.00     0.019 A 
ATOM     11  C   UNL     1       3.747  -7.006  -3.462  1.00  0.00     0.069 C 
ATOM     12  C   UNL     1       3.061  -6.344  -2.324  1.00  0.00     0.067 A 
ATOM     13  N   UNL     1       1.734  -6.398  -2.264  1.00  0.00    -0.177 NA
ATOM     14  N   UNL     1       1.418  -5.815  -1.090  1.00  0.00    -0.265 N 
ATOM     15  C   UNL     1       2.487  -5.138  -0.544  1.00  0.00     0.043 A 
ATOM     16  C   UNL     1       2.304  -4.120   0.528  1.00  0.00     0.067 C 
BRANCH  14  17
ATOM     17  C   UNL     1       0.032  -5.981  -0.694  1.00  0.00     0.123 C 
ATOM     18  C   UNL     1      -0.329  -7.479  -0.543  1.00  0.00     0.044 C 
ATOM     19  C   UNL     1      -0.537  -5.361   0.584  1.00  0.00     0.164 C 
ATOM     20  C   UNL     1      -1.831  -7.524  -0.304  1.00  0.00     0.139 C 
ATOM     21  S   UNL     1      -2.206  -6.031   0.598  1.00  0.00     0.152 S 
ATOM     22  O   UNL     1      -3.026  -5.197  -0.272  1.00  0.00    -0.229 OA
ATOM     23  O   UNL     1      -2.613  -6.394   1.926  1.00  0.00    -0.229 OA
ENDBRANCH  14  17
ENDBRANCH   9  10
BRANCH   8  24
ATOM     24  C   UNL     1       7.173  -5.552   0.094  1.00  0.00     0.121 A 
ATOM     25  N   UNL     1       7.870  -6.507   0.674  1.00  0.00    -0.236 NA
ATOM     26  S   UNL     1       8.152  -4.284  -0.557  1.00  0.00    -0.114 S 
ATOM     27  C   UNL     1       9.109  -6.022   1.034  1.00  0.00     0.082 A 
ATOM     28  C   UNL     1       9.447  -4.793   0.466  1.00  0.00     0.055 A 
ATOM     29  C   UNL     1       9.985  -6.612   1.966  1.00  0.00     0.030 A 
ATOM     30  C   UNL     1      10.640  -4.130   0.794  1.00  0.00     0.021 A 
ATOM     31  C   UNL     1      11.112  -5.902   2.389  1.00  0.00     0.002 A 
ATOM     32  C   UNL     1      11.432  -4.677   1.810  1.00  0.00     0.002 A 
ENDBRANCH   8  24
ENDBRANCH   7   8
ENDBRANCH   4   7
ENDBRANCH   2   3
ENDBRANCH   1   2
BRANCH   1  33
ATOM     33  C   UNL     1       6.011 -10.191   1.577  1.00  0.00     0.023 C 
BRANCH  33  34
ATOM     34  C   UNL     1       5.002 -11.262   1.956  1.00  0.00     0.116 C 
BRANCH  34  35
ATOM     35  N   UNL     1       4.553 -12.028   0.791  1.00  0.00    -0.352 N 
ATOM     36  C   UNL     1       3.582 -13.009   0.752  1.00  0.00     0.251 C 
ATOM     37  H   UNL     1       4.994 -11.819  -0.064  1.00  0.00     0.163 HD
ATOM     38  O   UNL     1       3.559 -13.847  -0.141  1.00  0.00    -0.269 OA
BRANCH  36  39
ATOM     39  C   UNL     1       2.550 -12.997   1.799  1.00  0.00     0.039 A 
ATOM     40  C   UNL     1       2.122 -14.167   2.432  1.00  0.00     0.014 A 
ATOM     41  C   UNL     1       2.045 -11.751   2.166  1.00  0.00     0.014 A 
ATOM     42  C   UNL     1       1.222 -14.059   3.487  1.00  0.00     0.010 A 
ATOM     43  C   UNL     1       1.305 -11.633   3.308  1.00  0.00     0.010 A 
ATOM     44  C   UNL     1       0.829 -12.783   3.924  1.00  0.00    -0.014 A 
BRANCH  44  45
ATOM     45  C   UNL     1       0.017 -12.605   5.118  1.00  0.00     0.031 A 
ATOM     46  C   UNL     1       0.645 -13.161   6.346  1.00  0.00     0.074 A 
ATOM     47  C   UNL     1      -1.066 -11.795   5.128  1.00  0.00     0.049 A 
ATOM     48  N   UNL     1       0.276 -14.206   7.011  1.00  0.00    -0.248 NA
ATOM     49  C   UNL     1       1.947 -12.620   6.774  1.00  0.00     0.031 C 
ATOM     50  C   UNL     1      -1.556 -10.933   4.040  1.00  0.00     0.029 A 
ATOM     51  N   UNL     1      -1.874 -11.442   6.163  1.00  0.00    -0.354 N 
ATOM     52  C   UNL     1       1.137 -14.269   8.106  1.00  0.00     0.074 A 
ATOM     53  C   UNL     1       2.272 -13.457   7.763  1.00  0.00     0.031 C 
ATOM     54  C   UNL     1      -2.372  -9.983   4.548  1.00  0.00     0.029 A 
ATOM     55  C   UNL     1      -2.600 -10.270   5.950  1.00  0.00     0.049 A 
ATOM     56  H   UNL     1      -1.940 -11.968   6.992  1.00  0.00     0.167 HD
ATOM     57  C   UNL     1       0.695 -14.722   9.313  1.00  0.00     0.034 A 
ATOM     58  C   UNL     1      -3.291  -9.558   6.876  1.00  0.00     0.034 A 
ATOM     59  C   UNL     1      -0.580 -15.384   9.171  1.00  0.00     0.049 A 
ATOM     60  C   UNL     1      -3.536 -10.462   8.023  1.00  0.00     0.074 A 
ATOM     61  C   UNL     1      -1.054 -16.455   8.440  1.00  0.00     0.029 A 
ATOM     62  N   UNL     1      -1.685 -14.657   9.545  1.00  0.00    -0.354 N 
ATOM     63  N   UNL     1      -4.286 -11.526   7.947  1.00  0.00    -0.248 NA
ATOM     64  C   UNL     1      -2.568 -10.451   9.107  1.00  0.00     0.031 C 
ATOM     65  C   UNL     1      -2.355 -16.056   8.014  1.00  0.00     0.029 A 
ATOM     66  C   UNL     1      -2.643 -14.813   8.583  1.00  0.00     0.049 A 
ATOM     67  H   UNL     1      -1.771 -14.117  10.364  1.00  0.00     0.167 HD
ATOM     68  C   UNL     1      -3.568 -12.494   8.637  1.00  0.00     0.074 A 
ATOM     69  C   UNL     1      -2.579 -11.750   9.418  1.00  0.00     0.031 C 
ATOM     70  C   UNL     1      -3.637 -13.809   8.274  1.00  0.00     0.034 A 
BRANCH  57  71
ATOM     71  C   UNL     1       1.152 -14.217  10.670  1.00  0.00     0.023 A 
ATOM     72  C   UNL     1       0.603 -14.864  11.803  1.00  0.00     0.012 A 
ATOM     73  C   UNL     1       1.829 -12.998  10.904  1.00  0.00     0.148 A 
ATOM     74  C   UNL     1       0.644 -14.287  13.077  1.00  0.00     0.002 A 
ATOM     75  C   UNL     1       1.931 -12.463  12.184  1.00  0.00     0.091 A 
ATOM     76  F   UNL     1       2.278 -12.268   9.883  1.00  0.00    -0.205 F 
ATOM     77  C   UNL     1       1.309 -13.084  13.268  1.00  0.00     0.022 A 
BRANCH  75  78
ATOM     78  S   UNL     1       2.812 -10.927  12.500  1.00  0.00     0.127 S 
ATOM     79  O   UNL     1       1.713 -10.023  12.825  1.00  0.00    -0.237 OA
ATOM     80  O   UNL     1       3.664 -11.302  13.628  1.00  0.00    -0.237 OA
ATOM     81  O   UNL     1       3.541 -10.629  11.274  1.00  0.00    -0.744 OA
ENDBRANCH  75  78
ENDBRANCH  57  71
BRANCH  58  82
ATOM     82  C   UNL     1      -3.515  -8.095   6.972  1.00  0.00     0.023 A 
ATOM     83  C   UNL     1      -4.572  -7.592   7.760  1.00  0.00     0.012 A 
ATOM     84  C   UNL     1      -2.528  -7.185   6.528  1.00  0.00     0.148 A 
ATOM     85  C   UNL     1      -4.628  -6.237   8.114  1.00  0.00     0.002 A 
ATOM     86  C   UNL     1      -2.592  -5.838   6.875  1.00  0.00     0.091 A 
ATOM     87  F   UNL     1      -1.472  -7.661   5.854  1.00  0.00    -0.205 F 
ATOM     88  C   UNL     1      -3.636  -5.362   7.679  1.00  0.00     0.022 A 
BRANCH  86  89
ATOM     89  S   UNL     1      -1.321  -4.661   6.385  1.00  0.00     0.127 S 
ATOM     90  O   UNL     1      -2.113  -3.564   5.829  1.00  0.00    -0.237 OA
ATOM     91  O   UNL     1      -0.680  -4.361   7.663  1.00  0.00    -0.237 OA
ATOM     92  O   UNL     1      -0.482  -5.348   5.408  1.00  0.00    -0.744 OA
ENDBRANCH  86  89
ENDBRANCH  58  82
BRANCH  70  93
ATOM     93  C   UNL     1      -4.710 -14.224   7.300  1.00  0.00     0.023 A 
ATOM     94  C   UNL     1      -4.746 -13.790   5.958  1.00  0.00     0.012 A 
ATOM     95  C   UNL     1      -5.595 -15.233   7.713  1.00  0.00     0.148 A 
ATOM     96  C   UNL     1      -5.656 -14.346   5.053  1.00  0.00     0.002 A 
ATOM     97  C   UNL     1      -6.460 -15.818   6.800  1.00  0.00     0.091 A 
ATOM     98  F   UNL     1      -5.544 -15.632   8.993  1.00  0.00    -0.205 F 
ATOM     99  C   UNL     1      -6.502 -15.372   5.470  1.00  0.00     0.022 A 
BRANCH  97 100
ATOM    100  S   UNL     1      -7.471 -17.228   7.251  1.00  0.00     0.127 S 
ATOM    101  O   UNL     1      -8.802 -16.633   7.339  1.00  0.00    -0.237 OA
ATOM    102  O   UNL     1      -7.276 -18.130   6.115  1.00  0.00    -0.237 OA
ATOM    103  O   UNL     1      -6.925 -17.730   8.507  1.00  0.00    -0.744 OA
ENDBRANCH  97 100
ENDBRANCH  70  93
ENDBRANCH  44  45
ENDBRANCH  36  39
ENDBRANCH  34  35
ENDBRANCH  33  34
ENDBRANCH   1  33
TORSDOF 18
