REMARK SMILES CCn1cc(C)c(C(=O)NCCCCNC(=O)c2ccc(-c3c4nc(c(-c5cccc(S(=O)(=O)[O-])c5F)c5ccc([nH]5)c(-c5cccc(S(=O)(=O)[O-])c5F)c5nc(c(-c6cccc(S(=O)(=O)[O-])c6F)c6ccc3[nH]6)C=C5)C=C4)cc2)c1CC(=O)NCc1cccc(C)c1
REMARK SMILES IDX 12 1 11 2 10 3 8 4 9 5 7 7 3 8 4 9 81 10 5 11 6 12 2 13 1 14
REMARK SMILES IDX 82 15 83 16 84 17 85 18 86 20 87 21 88 22 93 23 89 24 91 25
REMARK SMILES IDX 90 26 92 27 13 28 14 29 15 30 16 31 17 33 18 34 19 35 80 36
REMARK SMILES IDX 20 37 79 38 21 39 22 40 23 41 73 42 24 43 78 44 72 45 74 46
REMARK SMILES IDX 25 47 77 48 71 49 70 50 26 52 58 53 38 54 57 55 39 56 42 57
REMARK SMILES IDX 56 58 75 59 40 60 41 61 55 63 76 64 43 65 27 66 28 67 36 68
REMARK SMILES IDX 29 69 31 70 37 71 30 72 32 73 33 74 34 75 35 76 59 77 60 78
REMARK SMILES IDX 68 79 61 80 63 81 69 82 62 83 64 84 65 85 66 86 67 87 44 88
REMARK SMILES IDX 45 89 53 90 46 91 48 92 54 93 47 94 49 95 50 96 51 97 52 98
REMARK H PARENT 10 6 85 19 15 32 74 51 42 62
REMARK Flexibility Score: inf
ROOT
ATOM      1  C   UNL     1       3.966  -1.314   6.151  1.00  0.00     0.023 C 
ENDROOT
BRANCH   1   2
ATOM      2  C   UNL     1       2.590  -0.746   6.558  1.00  0.00     0.116 C 
BRANCH   2   3
ATOM      3  N   UNL     1       2.555   0.702   6.504  1.00  0.00    -0.352 N 
ATOM      4  C   UNL     1       2.050   1.665   5.661  1.00  0.00     0.253 C 
ATOM      5  O   UNL     1       2.248   2.818   6.067  1.00  0.00    -0.269 OA
ATOM      6  H   UNL     1       3.015   1.103   7.277  1.00  0.00     0.163 HD
BRANCH   4   7
ATOM      7  C   UNL     1       1.295   1.448   4.394  1.00  0.00     0.064 A 
ATOM      8  N   UNL     1       0.340   0.711   2.483  1.00  0.00    -0.350 N 
ATOM      9  C   UNL     1      -0.090   1.994   2.644  1.00  0.00     0.090 A 
ATOM     10  C   UNL     1       1.321   0.430   3.422  1.00  0.00     0.040 A 
ATOM     11  C   UNL     1       0.497   2.503   3.779  1.00  0.00    -0.020 A 
ATOM     12  C   UNL     1       0.360   3.915   4.241  1.00  0.00     0.047 C 
BRANCH   8  13
ATOM     13  C   UNL     1      -0.147  -0.131   1.397  1.00  0.00     0.118 C 
ATOM     14  C   UNL     1       0.413   0.252   0.034  1.00  0.00     0.027 C 
ENDBRANCH   8  13
BRANCH  10  15
ATOM     15  C   UNL     1       2.284  -0.696   3.217  1.00  0.00     0.154 C 
BRANCH  15  16
ATOM     16  C   UNL     1       3.713  -0.159   3.175  1.00  0.00     0.226 C 
ATOM     17  O   UNL     1       4.174   0.725   3.892  1.00  0.00    -0.275 OA
ATOM     18  N   UNL     1       4.567  -0.688   2.245  1.00  0.00    -0.352 N 
ATOM     19  H   UNL     1       5.305  -1.284   2.511  1.00  0.00     0.163 HD
BRANCH  18  20
ATOM     20  C   UNL     1       4.348  -0.344   0.861  1.00  0.00     0.151 C 
BRANCH  20  21
ATOM     21  C   UNL     1       4.655   1.125   0.655  1.00  0.00    -0.029 A 
ATOM     22  C   UNL     1       5.937   1.527   0.269  1.00  0.00     0.005 A 
ATOM     23  C   UNL     1       3.722   2.114   1.020  1.00  0.00     0.009 A 
ATOM     24  C   UNL     1       6.269   2.882   0.235  1.00  0.00     0.001 A 
ATOM     25  C   UNL     1       4.051   3.474   1.009  1.00  0.00    -0.051 A 
ATOM     26  C   UNL     1       5.333   3.850   0.606  1.00  0.00     0.003 A 
ATOM     27  C   UNL     1       3.079   4.502   1.510  1.00  0.00     0.044 C 
ENDBRANCH  20  21
ENDBRANCH  18  20
ENDBRANCH  15  16
ENDBRANCH  10  15
ENDBRANCH   4   7
ENDBRANCH   2   3
ENDBRANCH   1   2
BRANCH   1  28
ATOM     28  C   UNL     1       5.047  -1.476   7.222  1.00  0.00     0.023 C 
BRANCH  28  29
ATOM     29  C   UNL     1       4.851  -2.680   8.117  1.00  0.00     0.116 C 
BRANCH  29  30
ATOM     30  N   UNL     1       4.898  -3.954   7.381  1.00  0.00    -0.352 N 
ATOM     31  C   UNL     1       4.469  -5.188   7.832  1.00  0.00     0.251 C 
ATOM     32  H   UNL     1       5.274  -3.924   6.472  1.00  0.00     0.163 HD
ATOM     33  O   UNL     1       4.844  -6.242   7.323  1.00  0.00    -0.269 OA
BRANCH  31  34
ATOM     34  C   UNL     1       3.490  -5.181   8.921  1.00  0.00     0.039 A 
ATOM     35  C   UNL     1       3.681  -5.886  10.114  1.00  0.00     0.014 A 
ATOM     36  C   UNL     1       2.444  -4.280   8.752  1.00  0.00     0.014 A 
ATOM     37  C   UNL     1       2.831  -5.613  11.181  1.00  0.00     0.010 A 
ATOM     38  C   UNL     1       1.766  -3.865   9.857  1.00  0.00     0.010 A 
ATOM     39  C   UNL     1       1.886  -4.590  11.039  1.00  0.00    -0.014 A 
BRANCH  39  40
ATOM     40  C   UNL     1       1.043  -4.146  12.135  1.00  0.00     0.031 A 
ATOM     41  C   UNL     1       1.791  -3.534  13.268  1.00  0.00     0.074 A 
ATOM     42  C   UNL     1      -0.288  -4.008  11.938  1.00  0.00     0.049 A 
ATOM     43  N   UNL     1       1.952  -4.003  14.462  1.00  0.00    -0.248 NA
ATOM     44  C   UNL     1       2.627  -2.353  12.986  1.00  0.00     0.031 C 
ATOM     45  C   UNL     1      -1.043  -4.209  10.689  1.00  0.00     0.029 A 
ATOM     46  N   UNL     1      -1.223  -3.462  12.752  1.00  0.00    -0.354 N 
ATOM     47  C   UNL     1       2.670  -3.022  15.150  1.00  0.00     0.074 A 
ATOM     48  C   UNL     1       3.293  -2.222  14.135  1.00  0.00     0.031 C 
ATOM     49  C   UNL     1      -2.203  -3.521  10.750  1.00  0.00     0.029 A 
ATOM     50  C   UNL     1      -2.350  -2.985  12.088  1.00  0.00     0.049 A 
ATOM     51  H   UNL     1      -1.115  -3.408  13.729  1.00  0.00     0.167 HD
ATOM     52  C   UNL     1       2.409  -2.752  16.463  1.00  0.00     0.034 A 
ATOM     53  C   UNL     1      -3.285  -2.138  12.591  1.00  0.00     0.034 A 
ATOM     54  C   UNL     1       1.602  -3.806  17.043  1.00  0.00     0.049 A 
ATOM     55  C   UNL     1      -3.136  -2.169  14.068  1.00  0.00     0.074 A 
ATOM     56  C   UNL     1       1.717  -5.179  17.149  1.00  0.00     0.029 A 
ATOM     57  N   UNL     1       0.268  -3.530  17.238  1.00  0.00    -0.354 N 
ATOM     58  N   UNL     1      -3.346  -3.237  14.788  1.00  0.00    -0.248 NA
ATOM     59  C   UNL     1      -2.268  -1.167  14.668  1.00  0.00     0.031 C 
ATOM     60  C   UNL     1       0.404  -5.672  16.879  1.00  0.00     0.029 A 
ATOM     61  C   UNL     1      -0.450  -4.578  16.730  1.00  0.00     0.049 A 
ATOM     62  H   UNL     1      -0.103  -2.725  17.666  1.00  0.00     0.167 HD
ATOM     63  C   UNL     1      -2.288  -3.257  15.690  1.00  0.00     0.074 A 
ATOM     64  C   UNL     1      -1.711  -1.911  15.628  1.00  0.00     0.031 C 
ATOM     65  C   UNL     1      -1.771  -4.434  16.157  1.00  0.00     0.034 A 
BRANCH  52  66
ATOM     66  C   UNL     1       2.467  -1.374  17.121  1.00  0.00     0.023 A 
ATOM     67  C   UNL     1       2.097  -1.315  18.487  1.00  0.00     0.012 A 
ATOM     68  C   UNL     1       2.566  -0.133  16.449  1.00  0.00     0.148 A 
ATOM     69  C   UNL     1       1.711  -0.120  19.103  1.00  0.00     0.002 A 
ATOM     70  C   UNL     1       2.232   1.062  17.079  1.00  0.00     0.091 A 
ATOM     71  F   UNL     1       2.895  -0.079  15.162  1.00  0.00    -0.205 F 
ATOM     72  C   UNL     1       1.764   1.070  18.393  1.00  0.00     0.022 A 
BRANCH  70  73
ATOM     73  S   UNL     1       2.313   2.642  16.219  1.00  0.00     0.127 S 
ATOM     74  O   UNL     1       0.896   2.967  16.083  1.00  0.00    -0.237 OA
ATOM     75  O   UNL     1       3.051   3.463  17.179  1.00  0.00    -0.237 OA
ATOM     76  O   UNL     1       3.028   2.383  14.976  1.00  0.00    -0.744 OA
ENDBRANCH  70  73
ENDBRANCH  52  66
BRANCH  53  77
ATOM     77  C   UNL     1      -4.067  -1.087  11.891  1.00  0.00     0.023 A 
ATOM     78  C   UNL     1      -5.236  -0.567  12.482  1.00  0.00     0.012 A 
ATOM     79  C   UNL     1      -3.536  -0.408  10.770  1.00  0.00     0.148 A 
ATOM     80  C   UNL     1      -5.840   0.599  11.989  1.00  0.00     0.002 A 
ATOM     81  C   UNL     1      -4.150   0.739  10.273  1.00  0.00     0.091 A 
ATOM     82  F   UNL     1      -2.377  -0.830  10.249  1.00  0.00    -0.205 F 
ATOM     83  C   UNL     1      -5.297   1.254  10.888  1.00  0.00     0.022 A 
BRANCH  81  84
ATOM     84  S   UNL     1      -3.497   1.631   8.854  1.00  0.00     0.127 S 
ATOM     85  O   UNL     1      -4.700   1.836   8.046  1.00  0.00    -0.237 OA
ATOM     86  O   UNL     1      -2.964   2.838   9.479  1.00  0.00    -0.237 OA
ATOM     87  O   UNL     1      -2.516   0.737   8.250  1.00  0.00    -0.744 OA
ENDBRANCH  81  84
ENDBRANCH  53  77
BRANCH  65  88
ATOM     88  C   UNL     1      -2.499  -5.721  15.855  1.00  0.00     0.023 A 
ATOM     89  C   UNL     1      -2.654  -6.224  14.546  1.00  0.00     0.012 A 
ATOM     90  C   UNL     1      -2.843  -6.544  16.940  1.00  0.00     0.148 A 
ATOM     91  C   UNL     1      -3.151  -7.514  14.326  1.00  0.00     0.002 A 
ATOM     92  C   UNL     1      -3.292  -7.839  16.720  1.00  0.00     0.091 A 
ATOM     93  F   UNL     1      -2.684  -6.053  18.179  1.00  0.00    -0.205 F 
ATOM     94  C   UNL     1      -3.456  -8.327  15.414  1.00  0.00     0.022 A 
BRANCH  92  95
ATOM     95  S   UNL     1      -3.575  -8.971  18.082  1.00  0.00     0.127 S 
ATOM     96  O   UNL     1      -5.034  -9.020  18.138  1.00  0.00    -0.237 OA
ATOM     97  O   UNL     1      -2.939 -10.201  17.606  1.00  0.00    -0.237 OA
ATOM     98  O   UNL     1      -2.922  -8.375  19.241  1.00  0.00    -0.744 OA
ENDBRANCH  92  95
ENDBRANCH  65  88
ENDBRANCH  39  40
ENDBRANCH  31  34
ENDBRANCH  29  30
ENDBRANCH  28  29
ENDBRANCH   1  28
TORSDOF 19
