REMARK SMILES O=C(NCCCCNC(=O)c1ccc(-c2c3nc(c(-c4cccc(S(=O)(=O)[O-])c4F)c4ccc([nH]4)c(-c4cccc(S(=O)(=O)[O-])c4F)c4nc(c(-c5cccc(S(=O)(=O)[O-])c5F)c5ccc2[nH]5)C=C4)C=C3)cc1)C1=Cc2cc(S(F)(F)(F)(F)F)cc(Br)c2O[C@@H]1C(F)(F)F
REMARK SMILES IDX 6 1 5 2 4 3 3 4 1 5 2 6 74 8 75 9 90 10 76 11 89 12 77 13
REMARK SMILES IDX 88 14 78 15 86 16 85 17 87 18 91 19 92 20 93 21 94 22 79 23
REMARK SMILES IDX 80 24 81 25 82 26 83 27 84 28 7 29 8 30 9 31 10 33 11 34
REMARK SMILES IDX 12 35 73 36 13 37 72 38 14 39 15 40 16 41 66 42 17 43 71 44
REMARK SMILES IDX 65 45 67 46 18 47 70 48 64 49 63 50 19 52 51 53 31 54 50 55
REMARK SMILES IDX 32 56 35 57 49 58 68 59 33 60 34 61 48 63 69 64 36 65 20 66
REMARK SMILES IDX 21 67 29 68 22 69 24 70 30 71 23 72 25 73 26 74 27 75 28 76
REMARK SMILES IDX 52 77 53 78 61 79 54 80 56 81 62 82 55 83 57 84 58 85 59 86
REMARK SMILES IDX 60 87 37 88 38 89 46 90 39 91 41 92 47 93 40 94 42 95 43 96
REMARK SMILES IDX 44 97 45 98
REMARK H PARENT 3 7 8 32 67 51 35 62
REMARK Flexibility Score: inf
ROOT
ATOM      1  C   UNL     1       4.528  -1.867   3.097  1.00  0.00     0.023 C 
ENDROOT
BRANCH   1   2
ATOM      2  C   UNL     1       5.035  -0.774   2.171  1.00  0.00     0.023 C 
BRANCH   2   3
ATOM      3  C   UNL     1       4.528  -1.030   0.760  1.00  0.00     0.116 C 
BRANCH   3   4
ATOM      4  N   UNL     1       3.058  -1.030   0.760  1.00  0.00    -0.352 N 
ATOM      5  O   UNL     1       1.052  -0.058  -0.062  1.00  0.00    -0.270 OA
ATOM      6  C   UNL     1       2.323  -0.058  -0.062  1.00  0.00     0.251 C 
ATOM      7  H   UNL     1       2.566  -1.680   1.312  1.00  0.00     0.163 HD
BRANCH   6   8
ATOM      8  C   UNL     1       3.083   0.946  -0.913  1.00  0.00     0.067 C 
ATOM      9  C   UNL     1       4.443   0.946  -0.913  1.00  0.00     0.025 C 
ATOM     10  C   UNL     1       2.323   1.951  -1.764  1.00  0.00     0.314 C 
ATOM     11  C   UNL     1       5.203  -0.058  -0.062  1.00  0.00     0.020 A 
ATOM     12  O   UNL     1       3.605  -1.752  -0.536  1.00  0.00    -0.474 OA
ATOM     13  C   UNL     1       6.349   0.402   0.566  1.00  0.00     0.036 A 
ATOM     14  C   UNL     1       4.863  -1.341  -0.021  1.00  0.00     0.142 A 
ATOM     15  C   UNL     1       7.231  -0.627   0.974  1.00  0.00     0.109 A 
ATOM     16  C   UNL     1       5.716  -2.274   0.515  1.00  0.00     0.062 A 
ATOM     17  C   UNL     1       6.893  -1.897   1.101  1.00  0.00     0.044 A 
ATOM     18  Br  UNL     1       5.240  -4.174   0.441  1.00  0.00    -0.047 Br
BRANCH  10  19
ATOM     19  C   UNL     1       2.690   1.757  -3.226  1.00  0.00     0.429 C 
ATOM     20  F   UNL     1       2.369   0.522  -3.604  1.00  0.00    -0.167 F 
ATOM     21  F   UNL     1       2.025   2.635  -3.971  1.00  0.00    -0.167 F 
ATOM     22  F   UNL     1       3.998   1.942  -3.383  1.00  0.00    -0.167 F 
ENDBRANCH  10  19
BRANCH  15  23
ATOM     23  S   UNL     1       8.942  -0.169   1.349  1.00  0.00     0.310 S 
ATOM     24  F   UNL     1       8.665  -0.183   2.911  1.00  0.00    -0.094 F 
ATOM     25  F   UNL     1       8.501   1.343   1.354  1.00  0.00    -0.094 F 
ATOM     26  F   UNL     1      10.409   0.229   1.675  1.00  0.00    -0.094 F 
ATOM     27  F   UNL     1       9.335  -1.693   1.478  1.00  0.00    -0.094 F 
ATOM     28  F   UNL     1       7.434  -0.592   1.130  1.00  0.00    -0.094 F 
ENDBRANCH  15  23
ENDBRANCH   6   8
ENDBRANCH   3   4
ENDBRANCH   2   3
ENDBRANCH   1   2
BRANCH   1  29
ATOM     29  C   UNL     1       5.035  -3.216   2.613  1.00  0.00     0.116 C 
BRANCH  29  30
ATOM     30  N   UNL     1       6.505  -3.216   2.613  1.00  0.00    -0.352 N 
ATOM     31  C   UNL     1       7.240  -4.188   3.436  1.00  0.00     0.251 C 
ATOM     32  H   UNL     1       6.997  -2.566   2.062  1.00  0.00     0.163 HD
ATOM     33  O   UNL     1       8.511  -4.188   3.436  1.00  0.00    -0.269 OA
BRANCH  31  34
ATOM     34  C   UNL     1       6.480  -5.192   4.287  1.00  0.00     0.039 A 
ATOM     35  C   UNL     1       6.901  -5.549   5.557  1.00  0.00     0.014 A 
ATOM     36  C   UNL     1       5.456  -5.804   3.703  1.00  0.00     0.014 A 
ATOM     37  C   UNL     1       6.356  -6.770   6.020  1.00  0.00     0.010 A 
ATOM     38  C   UNL     1       4.883  -6.913   4.279  1.00  0.00     0.010 A 
ATOM     39  C   UNL     1       5.290  -7.357   5.506  1.00  0.00    -0.014 A 
BRANCH  39  40
ATOM     40  C   UNL     1       4.554  -8.466   6.240  1.00  0.00     0.031 A 
ATOM     41  C   UNL     1       4.510  -9.679   5.550  1.00  0.00     0.074 A 
ATOM     42  C   UNL     1       4.076  -8.290   7.527  1.00  0.00     0.049 A 
ATOM     43  N   UNL     1       4.051 -10.851   5.993  1.00  0.00    -0.248 NA
ATOM     44  C   UNL     1       4.986  -9.860   4.171  1.00  0.00     0.031 C 
ATOM     45  C   UNL     1       4.125  -7.072   8.233  1.00  0.00     0.029 A 
ATOM     46  N   UNL     1       3.481  -9.226   8.343  1.00  0.00    -0.354 N 
ATOM     47  C   UNL     1       4.192 -11.786   5.051  1.00  0.00     0.074 A 
ATOM     48  C   UNL     1       4.790 -11.161   3.864  1.00  0.00     0.031 C 
ATOM     49  C   UNL     1       3.557  -7.268   9.452  1.00  0.00     0.029 A 
ATOM     50  C   UNL     1       3.144  -8.612   9.529  1.00  0.00     0.049 A 
ATOM     51  H   UNL     1       3.323 -10.172   8.118  1.00  0.00     0.167 HD
ATOM     52  C   UNL     1       3.847 -13.136   5.138  1.00  0.00     0.034 A 
ATOM     53  C   UNL     1       2.512  -9.174  10.627  1.00  0.00     0.034 A 
ATOM     54  C   UNL     1       3.254 -13.708   6.252  1.00  0.00     0.049 A 
ATOM     55  C   UNL     1       2.114 -10.512  10.691  1.00  0.00     0.074 A 
ATOM     56  C   UNL     1       2.907 -15.069   6.358  1.00  0.00     0.029 A 
ATOM     57  N   UNL     1       2.896 -13.088   7.429  1.00  0.00    -0.354 N 
ATOM     58  N   UNL     1       2.291 -11.456   9.765  1.00  0.00    -0.248 NA
ATOM     59  C   UNL     1       1.414 -11.110  11.835  1.00  0.00     0.031 C 
ATOM     60  C   UNL     1       2.339 -15.265   7.578  1.00  0.00     0.029 A 
ATOM     61  C   UNL     1       2.321 -14.030   8.253  1.00  0.00     0.049 A 
ATOM     62  H   UNL     1       3.027 -12.136   7.643  1.00  0.00     0.167 HD
ATOM     63  C   UNL     1       1.794 -12.618  10.193  1.00  0.00     0.074 A 
ATOM     64  C   UNL     1       1.216 -12.411  11.528  1.00  0.00     0.031 C 
ATOM     65  C   UNL     1       1.802 -13.844   9.525  1.00  0.00     0.034 A 
BRANCH  52  66
ATOM     66  C   UNL     1       4.139 -14.029   3.943  1.00  0.00     0.023 A 
ATOM     67  C   UNL     1       5.480 -14.224   3.654  1.00  0.00     0.012 A 
ATOM     68  C   UNL     1       3.191 -14.688   3.289  1.00  0.00     0.148 A 
ATOM     69  C   UNL     1       5.710 -14.929   2.449  1.00  0.00     0.002 A 
ATOM     70  C   UNL     1       3.504 -15.468   2.201  1.00  0.00     0.091 A 
ATOM     71  F   UNL     1       1.926 -14.593   3.689  1.00  0.00    -0.205 F 
ATOM     72  C   UNL     1       4.804 -15.658   1.823  1.00  0.00     0.022 A 
BRANCH  70  73
ATOM     73  S   UNL     1       2.176 -16.256   1.257  1.00  0.00     0.127 S 
ATOM     74  O   UNL     1       2.221 -15.767  -0.192  1.00  0.00    -0.237 OA
ATOM     75  O   UNL     1       2.359 -17.775   1.288  1.00  0.00    -0.237 OA
ATOM     76  O   UNL     1       0.666 -15.850   1.949  1.00  0.00    -0.744 OA
ENDBRANCH  70  73
ENDBRANCH  52  66
BRANCH  53  77
ATOM     77  C   UNL     1       2.235  -8.285  11.828  1.00  0.00     0.023 A 
ATOM     78  C   UNL     1       2.653  -8.672  13.090  1.00  0.00     0.012 A 
ATOM     79  C   UNL     1       1.466  -7.216  11.655  1.00  0.00     0.148 A 
ATOM     80  C   UNL     1       1.964  -8.028  14.145  1.00  0.00     0.002 A 
ATOM     81  C   UNL     1       0.936  -6.553  12.735  1.00  0.00     0.091 A 
ATOM     82  F   UNL     1       1.206  -6.784  10.424  1.00  0.00    -0.205 F 
ATOM     83  C   UNL     1       1.260  -6.919  14.012  1.00  0.00     0.022 A 
BRANCH  81  84
ATOM     84  S   UNL     1      -0.206  -5.176  12.464  1.00  0.00     0.127 S 
ATOM     85  O   UNL     1      -1.553  -5.494  13.117  1.00  0.00    -0.237 OA
ATOM     86  O   UNL     1       0.374  -3.903  13.085  1.00  0.00    -0.237 OA
ATOM     87  O   UNL     1      -0.427  -4.941  10.785  1.00  0.00    -0.744 OA
ENDBRANCH  81  84
ENDBRANCH  53  77
BRANCH  65  88
ATOM     88  C   UNL     1       1.207 -15.048  10.236  1.00  0.00     0.023 A 
ATOM     89  C   UNL     1      -0.079 -15.031  10.753  1.00  0.00     0.012 A 
ATOM     90  C   UNL     1       2.022 -16.074  10.451  1.00  0.00     0.148 A 
ATOM     91  C   UNL     1      -0.316 -16.023  11.733  1.00  0.00     0.002 A 
ATOM     92  C   UNL     1       1.668 -17.078  11.320  1.00  0.00     0.091 A 
ATOM     93  F   UNL     1       3.191 -16.130   9.820  1.00  0.00    -0.205 F 
ATOM     94  C   UNL     1       0.436 -17.094  11.912  1.00  0.00     0.022 A 
BRANCH  92  95
ATOM     95  S   UNL     1       2.851 -18.399  11.685  1.00  0.00     0.127 S 
ATOM     96  O   UNL     1       3.154 -18.412  13.185  1.00  0.00    -0.237 OA
ATOM     97  O   UNL     1       2.253 -19.747  11.274  1.00  0.00    -0.237 OA
ATOM     98  O   UNL     1       4.296 -18.127  10.813  1.00  0.00    -0.744 OA
ENDBRANCH  92  95
ENDBRANCH  65  88
ENDBRANCH  39  40
ENDBRANCH  31  34
ENDBRANCH  29  30
ENDBRANCH   1  29
TORSDOF 16
