REMARK SMILES Cc1ccccc1NC(=S)NN1C(=O)CS[C@H]1c1ccccc1C(=O)NCCCCNC(=O)c1ccc(-c2c3nc(c(-c4cccc(S(=O)(=O)[O-])c4F)c4ccc([nH]4)c(-c4cccc(S(=O)(=O)[O-])c4F)c4nc(c(-c5cccc(S(=O)(=O)[O-])c5F)c5ccc2[nH]5)C=C4)C=C3)cc1
REMARK SMILES IDX 27 1 26 2 24 3 25 4 23 6 18 7 19 8 20 9 22 10 21 11 17 12
REMARK SMILES IDX 12 13 13 14 14 15 15 16 16 17 11 18 9 20 10 21 8 22 7 24
REMARK SMILES IDX 1 25 2 26 3 27 4 28 6 29 5 30 28 31 29 32 30 33 31 34 32 35
REMARK SMILES IDX 33 37 34 38 35 39 96 40 36 41 95 42 37 43 38 44 39 45 89 46
REMARK SMILES IDX 40 47 94 48 88 49 90 50 41 51 93 52 87 53 86 54 42 56 74 57
REMARK SMILES IDX 54 58 73 59 55 60 58 61 72 62 91 63 56 64 57 65 71 67 92 68
REMARK SMILES IDX 59 69 43 70 44 71 52 72 45 73 47 74 53 75 46 76 48 77 49 78
REMARK SMILES IDX 50 79 51 80 75 81 76 82 84 83 77 84 79 85 85 86 78 87 80 88
REMARK SMILES IDX 81 89 82 90 83 91 60 92 61 93 69 94 62 95 64 96 70 97 63 98
REMARK SMILES IDX 65 99 66 100 67 101 68 102
REMARK H PARENT 26 5 11 19 8 23 31 36 90 55 58 66
REMARK Flexibility Score: inf
ROOT
ATOM      1  C   UNL     1      -3.375   2.893   0.505  1.00  0.00     0.116 C 
ENDROOT
BRANCH   1   2
ATOM      2  N   UNL     1      -2.555   4.096   1.321  1.00  0.00    -0.352 N 
ATOM      3  C   UNL     1      -2.543   5.441   1.095  1.00  0.00     0.251 C 
ATOM      4  O   UNL     1      -1.760   6.200   1.649  1.00  0.00    -0.269 OA
ATOM      5  H   UNL     1      -2.001   3.792   2.076  1.00  0.00     0.163 HD
BRANCH   3   6
ATOM      6  C   UNL     1      -3.599   5.936   0.212  1.00  0.00     0.046 A 
ATOM      7  C   UNL     1      -4.139   5.129  -0.803  1.00  0.00    -0.001 A 
ATOM      8  C   UNL     1      -5.459   5.432  -1.188  1.00  0.00     0.007 A 
ATOM      9  C   UNL     1      -6.141   6.540  -0.652  1.00  0.00     0.000 A 
ATOM     10  C   UNL     1      -4.221   7.115   0.653  1.00  0.00     0.014 A 
ATOM     11  C   UNL     1      -5.499   7.419   0.217  1.00  0.00     0.001 A 
BRANCH   7  12
ATOM     12  C   UNL     1      -3.382   3.890  -1.391  1.00  0.00     0.197 C 
ATOM     13  N   UNL     1      -1.780   3.433  -0.622  1.00  0.00    -0.236 N 
ATOM     14  C   UNL     1      -1.734   2.051   0.444  1.00  0.00     0.252 C 
ATOM     15  O   UNL     1      -0.593   1.964   0.524  1.00  0.00    -0.272 OA
ATOM     16  C   UNL     1      -3.425   0.898   0.439  1.00  0.00     0.174 C 
ATOM     17  S   UNL     1      -4.896   2.114  -1.001  1.00  0.00    -0.120 SA
BRANCH  13  18
ATOM     18  N   UNL     1      -0.354   3.998  -0.919  1.00  0.00    -0.270 N 
ATOM     19  H   UNL     1      -0.318   4.756  -1.545  1.00  0.00     0.191 HD
BRANCH  18  20
ATOM     20  C   UNL     1       0.933   3.551  -0.394  1.00  0.00     0.189 C 
ATOM     21  S   UNL     1       2.121   4.758  -0.256  1.00  0.00    -0.039 S 
BRANCH  20  22
ATOM     22  N   UNL     1       1.357   2.230   0.017  1.00  0.00    -0.331 N 
ATOM     23  H   UNL     1       2.107   2.218   0.656  1.00  0.00     0.169 HD
BRANCH  22  24
ATOM     24  C   UNL     1       0.814   0.801  -0.393  1.00  0.00     0.043 A 
ATOM     25  C   UNL     1       2.693   0.612  -2.264  1.00  0.00     0.046 C 
ATOM     26  C   UNL     1       1.209   0.425  -2.046  1.00  0.00    -0.028 A 
ATOM     27  C   UNL     1       0.222  -0.734  -3.005  1.00  0.00     0.005 A 
ATOM     28  C   UNL     1      -1.151  -1.645  -2.265  1.00  0.00     0.000 A 
ATOM     29  C   UNL     1      -0.585  -0.143   0.418  1.00  0.00     0.026 A 
ATOM     30  C   UNL     1      -1.625  -1.294  -0.552  1.00  0.00     0.002 A 
ENDBRANCH  22  24
ENDBRANCH  20  22
ENDBRANCH  18  20
ENDBRANCH  13  18
ENDBRANCH   7  12
ENDBRANCH   3   6
ENDBRANCH   1   2
BRANCH   1  31
ATOM     31  C   UNL     1      -2.582   1.663  -1.178  1.00  0.00     0.023 C 
BRANCH  31  32
ATOM     32  C   UNL     1      -1.029   0.424  -1.553  1.00  0.00     0.023 C 
BRANCH  32  33
ATOM     33  C   UNL     1       0.356  -1.203  -0.962  1.00  0.00     0.116 C 
BRANCH  33  34
ATOM     34  N   UNL     1       0.143  -2.718  -0.309  1.00  0.00    -0.352 N 
ATOM     35  C   UNL     1       1.216  -3.623  -0.314  1.00  0.00     0.251 C 
ATOM     36  H   UNL     1      -0.725  -2.977   0.076  1.00  0.00     0.163 HD
ATOM     37  O   UNL     1       1.694  -4.167  -1.296  1.00  0.00    -0.269 OA
BRANCH  35  38
ATOM     38  C   UNL     1       1.878  -3.641   1.019  1.00  0.00     0.039 A 
ATOM     39  C   UNL     1       1.422  -4.536   1.987  1.00  0.00     0.014 A 
ATOM     40  C   UNL     1       2.335  -2.371   1.372  1.00  0.00     0.014 A 
ATOM     41  C   UNL     1       1.204  -4.068   3.279  1.00  0.00     0.010 A 
ATOM     42  C   UNL     1       1.893  -1.850   2.557  1.00  0.00     0.010 A 
ATOM     43  C   UNL     1       1.319  -2.702   3.506  1.00  0.00    -0.014 A 
BRANCH  43  44
ATOM     44  C   UNL     1       1.167  -2.053   4.786  1.00  0.00     0.031 A 
ATOM     45  C   UNL     1       2.419  -1.940   5.568  1.00  0.00     0.074 A 
ATOM     46  C   UNL     1       0.057  -1.320   5.029  1.00  0.00     0.049 A 
ATOM     47  N   UNL     1       2.476  -1.540   6.785  1.00  0.00    -0.248 NA
ATOM     48  C   UNL     1       3.739  -2.289   5.018  1.00  0.00     0.031 C 
ATOM     49  C   UNL     1      -0.082  -0.231   5.989  1.00  0.00     0.029 A 
ATOM     50  N   UNL     1      -1.255  -1.516   4.571  1.00  0.00    -0.354 N 
ATOM     51  C   UNL     1       3.792  -1.197   7.006  1.00  0.00     0.074 A 
ATOM     52  C   UNL     1       4.553  -1.848   5.978  1.00  0.00     0.031 C 
ATOM     53  C   UNL     1      -1.384  -0.073   6.279  1.00  0.00     0.029 A 
ATOM     54  C   UNL     1      -2.077  -1.196   5.671  1.00  0.00     0.049 A 
ATOM     55  H   UNL     1      -1.539  -1.813   3.676  1.00  0.00     0.167 HD
ATOM     56  C   UNL     1       4.057  -0.222   7.910  1.00  0.00     0.034 A 
ATOM     57  C   UNL     1      -2.777  -2.144   6.372  1.00  0.00     0.034 A 
ATOM     58  C   UNL     1       2.865   0.061   8.716  1.00  0.00     0.049 A 
ATOM     59  C   UNL     1      -2.331  -2.269   7.829  1.00  0.00     0.074 A 
ATOM     60  C   UNL     1       1.960   1.106   8.749  1.00  0.00     0.029 A 
ATOM     61  N   UNL     1       2.269  -0.991   9.410  1.00  0.00    -0.354 N 
ATOM     62  N   UNL     1      -1.309  -1.634   8.340  1.00  0.00    -0.248 NA
ATOM     63  C   UNL     1      -2.989  -3.115   8.825  1.00  0.00     0.031 C 
ATOM     64  C   UNL     1       0.749   0.606   9.321  1.00  0.00     0.029 A 
ATOM     65  C   UNL     1       0.938  -0.718   9.689  1.00  0.00     0.049 A 
ATOM     66  H   UNL     1       2.733  -1.821   9.668  1.00  0.00     0.167 HD
ATOM     67  C   UNL     1      -1.060  -2.072   9.614  1.00  0.00     0.074 A 
ATOM     68  C   UNL     1      -2.201  -2.928   9.901  1.00  0.00     0.031 C 
ATOM     69  C   UNL     1       0.092  -1.754  10.291  1.00  0.00     0.034 A 
BRANCH  56  70
ATOM     70  C   UNL     1       5.330   0.597   7.948  1.00  0.00     0.023 A 
ATOM     71  C   UNL     1       5.528   1.412   9.081  1.00  0.00     0.012 A 
ATOM     72  C   UNL     1       6.305   0.706   6.919  1.00  0.00     0.148 A 
ATOM     73  C   UNL     1       6.632   2.265   9.202  1.00  0.00     0.002 A 
ATOM     74  C   UNL     1       7.451   1.491   7.079  1.00  0.00     0.091 A 
ATOM     75  F   UNL     1       6.090   0.142   5.725  1.00  0.00    -0.205 F 
ATOM     76  C   UNL     1       7.609   2.286   8.215  1.00  0.00     0.022 A 
BRANCH  74  77
ATOM     77  S   UNL     1       8.798   1.500   5.878  1.00  0.00     0.127 S 
ATOM     78  O   UNL     1       8.686   2.835   5.294  1.00  0.00    -0.237 OA
ATOM     79  O   UNL     1       9.975   1.304   6.725  1.00  0.00    -0.237 OA
ATOM     80  O   UNL     1       8.531   0.395   4.964  1.00  0.00    -0.744 OA
ENDBRANCH  74  77
ENDBRANCH  56  70
BRANCH  57  81
ATOM     81  C   UNL     1      -3.289  -3.247   5.498  1.00  0.00     0.023 A 
ATOM     82  C   UNL     1      -4.222  -2.855   4.504  1.00  0.00     0.012 A 
ATOM     83  C   UNL     1      -2.574  -4.445   5.320  1.00  0.00     0.148 A 
ATOM     84  C   UNL     1      -4.288  -3.520   3.280  1.00  0.00     0.002 A 
ATOM     85  C   UNL     1      -2.661  -5.115   4.098  1.00  0.00     0.091 A 
ATOM     86  F   UNL     1      -1.758  -4.856   6.298  1.00  0.00    -0.205 F 
ATOM     87  C   UNL     1      -3.470  -4.620   3.060  1.00  0.00     0.022 A 
BRANCH  85  88
ATOM     88  S   UNL     1      -1.662  -6.557   3.703  1.00  0.00     0.127 S 
ATOM     89  O   UNL     1      -2.648  -7.629   3.787  1.00  0.00    -0.237 OA
ATOM     90  O   UNL     1      -1.209  -6.244   2.348  1.00  0.00    -0.237 OA
ATOM     91  O   UNL     1      -0.607  -6.580   4.704  1.00  0.00    -0.744 OA
ENDBRANCH  85  88
ENDBRANCH  57  81
BRANCH  69  92
ATOM     92  C   UNL     1       0.560  -2.432  11.575  1.00  0.00     0.023 A 
ATOM     93  C   UNL     1       0.088  -3.696  11.981  1.00  0.00     0.012 A 
ATOM     94  C   UNL     1       1.620  -1.883  12.347  1.00  0.00     0.148 A 
ATOM     95  C   UNL     1       0.574  -4.343  13.125  1.00  0.00     0.002 A 
ATOM     96  C   UNL     1       2.191  -2.592  13.401  1.00  0.00     0.091 A 
ATOM     97  F   UNL     1       2.079  -0.652  12.076  1.00  0.00    -0.205 F 
ATOM     98  C   UNL     1       1.643  -3.803  13.822  1.00  0.00     0.022 A 
BRANCH  96  99
ATOM     99  S   UNL     1       3.750  -2.065  14.131  1.00  0.00     0.127 S 
ATOM    100  O   UNL     1       3.301  -1.264  15.265  1.00  0.00    -0.237 OA
ATOM    101  O   UNL     1       4.375  -3.339  14.494  1.00  0.00    -0.237 OA
ATOM    102  O   UNL     1       4.440  -1.350  13.065  1.00  0.00    -0.744 OA
ENDBRANCH  96  99
ENDBRANCH  69  92
ENDBRANCH  43  44
ENDBRANCH  35  38
ENDBRANCH  33  34
ENDBRANCH  32  33
ENDBRANCH  31  32
ENDBRANCH   1  31
TORSDOF 19
