REMARK SMILES Cc1c(Cl)cc2c(c1C)O[C@@H](C(F)(F)F)C(C(=O)NCCCCNC(=O)c1ccc(-c3c4nc(c(-c5cccc(S(=O)(=O)[O-])c5F)c5ccc([nH]5)c(-c5cccc(S(=O)(=O)[O-])c5F)c5nc(c(-c6cccc(S(=O)(=O)[O-])c6F)c6ccc3[nH]6)C=C5)C=C4)cc1)=C2
REMARK SMILES IDX 22 1 21 2 20 3 19 4 17 5 18 6 16 8 1 9 2 10 3 11 8 12 4 13
REMARK SMILES IDX 5 14 7 15 9 16 6 17 10 18 90 19 11 20 12 21 13 22 14 23
REMARK SMILES IDX 15 24 23 25 24 26 25 27 26 29 27 30 28 31 89 32 29 33 88 34
REMARK SMILES IDX 30 35 31 36 32 37 82 38 33 39 87 40 81 41 83 42 34 43 86 44
REMARK SMILES IDX 80 45 79 46 35 48 67 49 47 50 66 51 48 52 51 53 65 54 84 55
REMARK SMILES IDX 49 56 50 57 64 59 85 60 52 61 36 62 37 63 45 64 38 65 40 66
REMARK SMILES IDX 46 67 39 68 41 69 42 70 43 71 44 72 68 73 69 74 77 75 70 76
REMARK SMILES IDX 72 77 78 78 71 79 73 80 74 81 75 82 76 83 53 84 54 85 62 86
REMARK SMILES IDX 55 87 57 88 63 89 56 90 58 91 59 92 60 93 61 94
REMARK H PARENT 19 7 24 28 83 47 51 58
REMARK Flexibility Score: inf
ROOT
ATOM      1  C   UNL     1      -1.393  -0.017  10.692  1.00  0.00     0.023 C 
ENDROOT
BRANCH   1   2
ATOM      2  C   UNL     1      -1.357  -0.235   9.179  1.00  0.00     0.023 C 
BRANCH   2   3
ATOM      3  C   UNL     1      -2.325   0.642   8.388  1.00  0.00     0.116 C 
BRANCH   3   4
ATOM      4  N   UNL     1      -1.737   1.925   8.055  1.00  0.00    -0.352 N 
ATOM      5  C   UNL     1      -1.159   2.486   6.968  1.00  0.00     0.251 C 
ATOM      6  O   UNL     1      -0.867   3.681   7.085  1.00  0.00    -0.270 OA
ATOM      7  H   UNL     1      -1.764   2.548   8.816  1.00  0.00     0.163 HD
BRANCH   5   8
ATOM      8  C   UNL     1      -0.858   1.784   5.685  1.00  0.00     0.067 C 
ATOM      9  C   UNL     1       1.101   0.216  -0.364  1.00  0.00     0.046 C 
ATOM     10  C   UNL     1       0.666   0.814   0.950  1.00  0.00    -0.026 A 
ATOM     11  C   UNL     1       0.884   2.186   1.205  1.00  0.00     0.045 A 
ATOM     12  C   UNL     1       0.095   0.019   1.974  1.00  0.00    -0.004 A 
ATOM     13  Cl  UNL     1       1.659   3.221   0.052  1.00  0.00    -0.084 Cl
ATOM     14  C   UNL     1       0.494   2.772   2.412  1.00  0.00     0.032 A 
ATOM     15  C   UNL     1      -0.298   0.635   3.181  1.00  0.00     0.131 A 
ATOM     16  C   UNL     1      -0.122  -1.468   1.845  1.00  0.00     0.049 C 
ATOM     17  C   UNL     1      -0.106   1.999   3.401  1.00  0.00     0.019 A 
ATOM     18  O   UNL     1      -0.917  -0.149   4.121  1.00  0.00    -0.475 OA
ATOM     19  C   UNL     1      -0.534   2.594   4.660  1.00  0.00     0.025 C 
ATOM     20  C   UNL     1      -0.787   0.293   5.504  1.00  0.00     0.314 C 
BRANCH  20  21
ATOM     21  C   UNL     1       0.446  -0.363   6.149  1.00  0.00     0.429 C 
ATOM     22  F   UNL     1       1.001   0.397   7.117  1.00  0.00    -0.167 F 
ATOM     23  F   UNL     1       0.097  -1.545   6.721  1.00  0.00    -0.167 F 
ATOM     24  F   UNL     1       1.424  -0.634   5.253  1.00  0.00    -0.167 F 
ENDBRANCH  20  21
ENDBRANCH   5   8
ENDBRANCH   3   4
ENDBRANCH   2   3
ENDBRANCH   1   2
BRANCH   1  25
ATOM     25  C   UNL     1      -2.728  -0.322  11.360  1.00  0.00     0.116 C 
BRANCH  25  26
ATOM     26  N   UNL     1      -3.237  -1.658  11.079  1.00  0.00    -0.352 N 
ATOM     27  C   UNL     1      -4.028  -2.441  11.891  1.00  0.00     0.251 C 
ATOM     28  H   UNL     1      -2.987  -2.046  10.210  1.00  0.00     0.163 HD
ATOM     29  O   UNL     1      -4.343  -3.576  11.562  1.00  0.00    -0.269 OA
BRANCH  27  30
ATOM     30  C   UNL     1      -4.441  -1.886  13.194  1.00  0.00     0.039 A 
ATOM     31  C   UNL     1      -4.056  -2.552  14.358  1.00  0.00     0.014 A 
ATOM     32  C   UNL     1      -5.085  -0.648  13.252  1.00  0.00     0.014 A 
ATOM     33  C   UNL     1      -4.246  -1.930  15.592  1.00  0.00     0.010 A 
ATOM     34  C   UNL     1      -5.208  -0.001  14.476  1.00  0.00     0.010 A 
ATOM     35  C   UNL     1      -4.782  -0.632  15.654  1.00  0.00    -0.014 A 
BRANCH  35  36
ATOM     36  C   UNL     1      -4.877   0.091  16.945  1.00  0.00     0.031 A 
ATOM     37  C   UNL     1      -6.221   0.452  17.509  1.00  0.00     0.074 A 
ATOM     38  C   UNL     1      -3.749   0.486  17.568  1.00  0.00     0.049 A 
ATOM     39  N   UNL     1      -6.502   1.080  18.619  1.00  0.00    -0.248 NA
ATOM     40  C   UNL     1      -7.403   0.084  16.710  1.00  0.00     0.031 C 
ATOM     41  C   UNL     1      -2.388   0.276  17.068  1.00  0.00     0.029 A 
ATOM     42  N   UNL     1      -3.566   1.157  18.752  1.00  0.00    -0.354 N 
ATOM     43  C   UNL     1      -7.885   1.203  18.642  1.00  0.00     0.074 A 
ATOM     44  C   UNL     1      -8.385   0.628  17.413  1.00  0.00     0.031 C 
ATOM     45  C   UNL     1      -1.511   0.780  17.951  1.00  0.00     0.029 A 
ATOM     46  C   UNL     1      -2.244   1.362  19.073  1.00  0.00     0.049 A 
ATOM     47  H   UNL     1      -4.311   1.462  19.318  1.00  0.00     0.167 HD
ATOM     48  C   UNL     1      -8.672   1.705  19.621  1.00  0.00     0.034 A 
ATOM     49  C   UNL     1      -1.687   1.933  20.159  1.00  0.00     0.034 A 
ATOM     50  C   UNL     1      -8.174   2.212  20.868  1.00  0.00     0.049 A 
ATOM     51  C   UNL     1      -2.584   2.433  21.259  1.00  0.00     0.074 A 
ATOM     52  C   UNL     1      -8.893   2.654  21.964  1.00  0.00     0.029 A 
ATOM     53  N   UNL     1      -6.831   2.336  21.190  1.00  0.00    -0.354 N 
ATOM     54  N   UNL     1      -3.893   2.389  21.337  1.00  0.00    -0.248 NA
ATOM     55  C   UNL     1      -1.933   3.032  22.434  1.00  0.00     0.031 C 
ATOM     56  C   UNL     1      -7.982   3.045  22.950  1.00  0.00     0.029 A 
ATOM     57  C   UNL     1      -6.698   2.847  22.467  1.00  0.00     0.049 A 
ATOM     58  H   UNL     1      -6.083   2.095  20.596  1.00  0.00     0.167 HD
ATOM     59  C   UNL     1      -4.220   2.925  22.577  1.00  0.00     0.074 A 
ATOM     60  C   UNL     1      -2.972   3.271  23.225  1.00  0.00     0.031 C 
ATOM     61  C   UNL     1      -5.445   3.129  23.120  1.00  0.00     0.034 A 
BRANCH  48  62
ATOM     62  C   UNL     1     -10.161   1.634  19.422  1.00  0.00     0.023 A 
ATOM     63  C   UNL     1     -10.805   0.386  19.549  1.00  0.00     0.012 A 
ATOM     64  C   UNL     1     -10.926   2.787  19.168  1.00  0.00     0.148 A 
ATOM     65  C   UNL     1     -12.186   0.281  19.400  1.00  0.00     0.002 A 
ATOM     66  C   UNL     1     -12.308   2.680  19.056  1.00  0.00     0.091 A 
ATOM     67  F   UNL     1     -10.291   3.959  19.025  1.00  0.00    -0.205 F 
ATOM     68  C   UNL     1     -12.938   1.428  19.164  1.00  0.00     0.022 A 
BRANCH  66  69
ATOM     69  S   UNL     1     -13.371   4.108  18.816  1.00  0.00     0.127 S 
ATOM     70  O   UNL     1     -13.744   3.965  17.410  1.00  0.00    -0.237 OA
ATOM     71  O   UNL     1     -14.456   3.850  19.764  1.00  0.00    -0.237 OA
ATOM     72  O   UNL     1     -12.554   5.271  19.134  1.00  0.00    -0.744 OA
ENDBRANCH  66  69
ENDBRANCH  48  62
BRANCH  49  73
ATOM     73  C   UNL     1      -0.204   1.942  20.310  1.00  0.00     0.023 A 
ATOM     74  C   UNL     1       0.388   1.067  21.242  1.00  0.00     0.012 A 
ATOM     75  C   UNL     1       0.623   2.749  19.506  1.00  0.00     0.148 A 
ATOM     76  C   UNL     1       1.775   1.007  21.383  1.00  0.00     0.002 A 
ATOM     77  C   UNL     1       2.006   2.651  19.618  1.00  0.00     0.091 A 
ATOM     78  F   UNL     1       0.042   3.587  18.636  1.00  0.00    -0.205 F 
ATOM     79  C   UNL     1       2.584   1.790  20.564  1.00  0.00     0.022 A 
BRANCH  77  80
ATOM     80  S   UNL     1       3.122   3.525  18.513  1.00  0.00     0.127 S 
ATOM     81  O   UNL     1       3.611   4.601  19.370  1.00  0.00    -0.237 OA
ATOM     82  O   UNL     1       4.110   2.493  18.195  1.00  0.00    -0.237 OA
ATOM     83  O   UNL     1       2.302   3.933  17.380  1.00  0.00    -0.744 OA
ENDBRANCH  77  80
ENDBRANCH  49  73
BRANCH  61  84
ATOM     84  C   UNL     1      -5.519   3.753  24.486  1.00  0.00     0.023 A 
ATOM     85  C   UNL     1      -5.328   5.142  24.616  1.00  0.00     0.012 A 
ATOM     86  C   UNL     1      -5.920   2.998  25.606  1.00  0.00     0.148 A 
ATOM     87  C   UNL     1      -5.530   5.771  25.843  1.00  0.00     0.002 A 
ATOM     88  C   UNL     1      -6.160   3.638  26.816  1.00  0.00     0.091 A 
ATOM     89  F   UNL     1      -6.081   1.674  25.459  1.00  0.00    -0.205 F 
ATOM     90  C   UNL     1      -5.960   5.023  26.937  1.00  0.00     0.022 A 
BRANCH  88  91
ATOM     91  S   UNL     1      -6.810   2.775  28.252  1.00  0.00     0.127 S 
ATOM     92  O   UNL     1      -5.646   2.749  29.136  1.00  0.00    -0.237 OA
ATOM     93  O   UNL     1      -7.887   3.664  28.687  1.00  0.00    -0.237 OA
ATOM     94  O   UNL     1      -7.257   1.475  27.770  1.00  0.00    -0.744 OA
ENDBRANCH  88  91
ENDBRANCH  61  84
ENDBRANCH  35  36
ENDBRANCH  27  30
ENDBRANCH  25  26
ENDBRANCH   1  25
TORSDOF 15
