REMARK SMILES COc1ccc(C[NH2+]Cc2cccn2-c2sc(C)c(C)c2C(=O)NCCCCNC(=O)c2ccc(-c3c4nc(c(-c5cccc(S(=O)(=O)[O-])c5F)c5ccc([nH]5)c(-c5cccc(S(=O)(=O)[O-])c5F)c5nc(c(-c6cccc(S(=O)(=O)[O-])c6F)c6ccc3[nH]6)C=C5)C=C4)cc2)cc1
REMARK SMILES IDX 25 1 24 2 22 3 23 4 21 6 15 7 16 8 17 9 19 10 18 11 20 12
REMARK SMILES IDX 14 13 10 14 11 15 12 16 13 17 9 18 8 19 7 22 6 23 3 24 4 25
REMARK SMILES IDX 96 26 5 27 95 28 2 29 1 30 26 31 27 32 28 33 29 34 30 35
REMARK SMILES IDX 31 37 32 38 33 39 94 40 34 41 93 42 35 43 36 44 37 45 87 46
REMARK SMILES IDX 38 47 92 48 86 49 88 50 39 51 91 52 85 53 84 54 40 56 72 57
REMARK SMILES IDX 52 58 71 59 53 60 56 61 70 62 89 63 54 64 55 65 69 67 90 68
REMARK SMILES IDX 57 69 41 70 42 71 50 72 43 73 45 74 51 75 44 76 46 77 47 78
REMARK SMILES IDX 48 79 49 80 73 81 74 82 82 83 75 84 77 85 83 86 76 87 78 88
REMARK SMILES IDX 79 89 80 90 81 91 58 92 59 93 67 94 60 95 62 96 68 97 61 98
REMARK SMILES IDX 63 99 64 100 65 101 66 102
REMARK H PARENT 24 5 8 20 8 21 29 36 88 55 56 66
REMARK Flexibility Score: inf
ROOT
ATOM      1  C   UNL     1       5.300  -6.572   8.569  1.00  0.00     0.116 C 
ENDROOT
BRANCH   1   2
ATOM      2  N   UNL     1       5.469  -7.922   9.013  1.00  0.00    -0.352 N 
ATOM      3  C   UNL     1       4.967  -9.089   8.463  1.00  0.00     0.254 C 
ATOM      4  O   UNL     1       5.354 -10.126   9.008  1.00  0.00    -0.269 OA
ATOM      5  H   UNL     1       6.017  -8.037   9.823  1.00  0.00     0.163 HD
BRANCH   3   6
ATOM      6  C   UNL     1       3.936  -9.158   7.381  1.00  0.00     0.078 A 
ATOM      7  C   UNL     1       3.655  -8.303   6.321  1.00  0.00     0.113 A 
ATOM      8  S   UNL     1       2.352  -8.775   5.339  1.00  0.00    -0.122 S 
ATOM      9  C   UNL     1       2.076 -10.174   6.258  1.00  0.00     0.007 A 
ATOM     10  C   UNL     1       2.988 -10.299   7.298  1.00  0.00    -0.022 A 
ATOM     11  C   UNL     1       0.965 -11.098   5.871  1.00  0.00     0.057 C 
ATOM     12  C   UNL     1       3.000 -11.474   8.238  1.00  0.00     0.046 C 
BRANCH   7  13
ATOM     13  N   UNL     1       4.329  -7.177   5.844  1.00  0.00    -0.306 N 
ATOM     14  C   UNL     1       3.878  -5.849   5.855  1.00  0.00     0.078 A 
ATOM     15  C   UNL     1       4.939  -5.046   5.455  1.00  0.00     0.029 A 
ATOM     16  C   UNL     1       6.012  -5.884   5.095  1.00  0.00     0.020 A 
ATOM     17  C   UNL     1       5.616  -7.178   5.341  1.00  0.00     0.092 A 
BRANCH  14  18
ATOM     18  C   UNL     1       2.530  -5.434   6.379  1.00  0.00     0.316 C 
BRANCH  18  19
ATOM     19  N   UNL     1       1.980  -4.288   5.657  1.00  0.00    -0.338 N 
ATOM     20  H   UNL     1       1.089  -4.025   6.079  1.00  0.00     0.346 HD
ATOM     21  H   UNL     1       2.646  -3.518   5.717  1.00  0.00     0.346 HD
BRANCH  19  22
ATOM     22  C   UNL     1       1.765  -4.608   4.248  1.00  0.00     0.297 C 
BRANCH  22  23
ATOM     23  C   UNL     1       1.450  -3.366   3.457  1.00  0.00     0.006 A 
ATOM     24  C   UNL     1       0.844  -1.119   1.892  1.00  0.00     0.118 A 
ATOM     25  C   UNL     1      -0.115  -1.660   2.750  1.00  0.00     0.047 A 
ATOM     26  C   UNL     1       2.128  -1.663   1.862  1.00  0.00     0.047 A 
ATOM     27  C   UNL     1       0.183  -2.779   3.527  1.00  0.00     0.013 A 
ATOM     28  C   UNL     1       2.430  -2.780   2.644  1.00  0.00     0.013 A 
BRANCH  24  29
ATOM     29  O   UNL     1       0.437  -0.039   1.157  1.00  0.00    -0.497 OA
ATOM     30  C   UNL     1       1.066   0.089  -0.114  1.00  0.00     0.278 C 
ENDBRANCH  24  29
ENDBRANCH  22  23
ENDBRANCH  19  22
ENDBRANCH  18  19
ENDBRANCH  14  18
ENDBRANCH   7  13
ENDBRANCH   3   6
ENDBRANCH   1   2
BRANCH   1  31
ATOM     31  C   UNL     1       5.321  -5.422   9.564  1.00  0.00     0.023 C 
BRANCH  31  32
ATOM     32  C   UNL     1       6.675  -4.987  10.125  1.00  0.00     0.023 C 
BRANCH  32  33
ATOM     33  C   UNL     1       7.778  -4.686   9.103  1.00  0.00     0.116 C 
BRANCH  33  34
ATOM     34  N   UNL     1       7.487  -3.524   8.271  1.00  0.00    -0.352 N 
ATOM     35  C   UNL     1       8.372  -2.765   7.536  1.00  0.00     0.251 C 
ATOM     36  H   UNL     1       6.543  -3.248   8.230  1.00  0.00     0.163 HD
ATOM     37  O   UNL     1       8.037  -1.647   7.150  1.00  0.00    -0.269 OA
BRANCH  35  38
ATOM     38  C   UNL     1       9.716  -3.284   7.192  1.00  0.00     0.039 A 
ATOM     39  C   UNL     1      10.825  -2.431   7.270  1.00  0.00     0.014 A 
ATOM     40  C   UNL     1       9.867  -4.589   6.713  1.00  0.00     0.014 A 
ATOM     41  C   UNL     1      12.094  -2.912   6.938  1.00  0.00     0.010 A 
ATOM     42  C   UNL     1      11.129  -5.068   6.379  1.00  0.00     0.010 A 
ATOM     43  C   UNL     1      12.247  -4.242   6.516  1.00  0.00    -0.014 A 
BRANCH  43  44
ATOM     44  C   UNL     1      13.606  -4.845   6.489  1.00  0.00     0.031 A 
ATOM     45  C   UNL     1      14.048  -5.148   7.966  1.00  0.00     0.074 A 
ATOM     46  C   UNL     1      14.207  -5.006   5.257  1.00  0.00     0.049 A 
ATOM     47  N   UNL     1      15.199  -4.989   8.550  1.00  0.00    -0.248 NA
ATOM     48  C   UNL     1      13.023  -5.536   8.986  1.00  0.00     0.031 C 
ATOM     49  C   UNL     1      13.563  -4.732   3.945  1.00  0.00     0.029 A 
ATOM     50  N   UNL     1      15.449  -5.450   4.823  1.00  0.00    -0.354 N 
ATOM     51  C   UNL     1      15.100  -5.547   9.860  1.00  0.00     0.074 A 
ATOM     52  C   UNL     1      13.706  -5.666  10.130  1.00  0.00     0.031 C 
ATOM     53  C   UNL     1      14.425  -4.915   2.911  1.00  0.00     0.029 A 
ATOM     54  C   UNL     1      15.716  -5.350   3.417  1.00  0.00     0.049 A 
ATOM     55  H   UNL     1      16.114  -5.816   5.450  1.00  0.00     0.167 HD
ATOM     56  C   UNL     1      16.176  -6.102  10.511  1.00  0.00     0.034 A 
ATOM     57  C   UNL     1      16.899  -5.573   2.740  1.00  0.00     0.034 A 
ATOM     58  C   UNL     1      17.281  -6.061   9.611  1.00  0.00     0.049 A 
ATOM     59  C   UNL     1      17.768  -6.179   3.745  1.00  0.00     0.074 A 
ATOM     60  C   UNL     1      18.015  -5.037   9.076  1.00  0.00     0.029 A 
ATOM     61  N   UNL     1      17.395  -7.192   8.833  1.00  0.00    -0.354 N 
ATOM     62  N   UNL     1      17.646  -7.399   4.168  1.00  0.00    -0.248 NA
ATOM     63  C   UNL     1      18.797  -5.348   4.379  1.00  0.00     0.031 C 
ATOM     64  C   UNL     1      18.097  -5.424   7.726  1.00  0.00     0.029 A 
ATOM     65  C   UNL     1      17.755  -6.777   7.590  1.00  0.00     0.049 A 
ATOM     66  H   UNL     1      17.246  -8.121   9.121  1.00  0.00     0.167 HD
ATOM     67  C   UNL     1      18.282  -7.321   5.376  1.00  0.00     0.074 A 
ATOM     68  C   UNL     1      19.229  -6.225   5.281  1.00  0.00     0.031 C 
ATOM     69  C   UNL     1      17.583  -7.678   6.487  1.00  0.00     0.034 A 
BRANCH  56  70
ATOM     70  C   UNL     1      16.390  -7.041  11.693  1.00  0.00     0.023 A 
ATOM     71  C   UNL     1      17.765  -7.276  12.023  1.00  0.00     0.012 A 
ATOM     72  C   UNL     1      15.452  -7.929  12.238  1.00  0.00     0.148 A 
ATOM     73  C   UNL     1      18.203  -8.427  12.672  1.00  0.00     0.002 A 
ATOM     74  C   UNL     1      15.894  -9.051  12.954  1.00  0.00     0.091 A 
ATOM     75  F   UNL     1      14.151  -7.732  12.010  1.00  0.00    -0.205 F 
ATOM     76  C   UNL     1      17.262  -9.330  13.121  1.00  0.00     0.022 A 
BRANCH  74  77
ATOM     77  S   UNL     1      14.781 -10.242  13.712  1.00  0.00     0.127 S 
ATOM     78  O   UNL     1      14.984 -11.422  12.883  1.00  0.00    -0.237 OA
ATOM     79  O   UNL     1      15.331 -10.345  15.064  1.00  0.00    -0.237 OA
ATOM     80  O   UNL     1      13.455  -9.629  13.656  1.00  0.00    -0.744 OA
ENDBRANCH  74  77
ENDBRANCH  56  70
BRANCH  57  81
ATOM     81  C   UNL     1      17.601  -5.358   1.394  1.00  0.00     0.023 A 
ATOM     82  C   UNL     1      17.002  -4.837   0.243  1.00  0.00     0.012 A 
ATOM     83  C   UNL     1      19.030  -5.550   1.303  1.00  0.00     0.148 A 
ATOM     84  C   UNL     1      17.787  -4.434  -0.868  1.00  0.00     0.002 A 
ATOM     85  C   UNL     1      19.808  -5.013   0.283  1.00  0.00     0.091 A 
ATOM     86  F   UNL     1      19.662  -6.301   2.212  1.00  0.00    -0.205 F 
ATOM     87  C   UNL     1      19.185  -4.463  -0.826  1.00  0.00     0.022 A 
BRANCH  85  88
ATOM     88  S   UNL     1      21.606  -4.850   0.432  1.00  0.00     0.127 S 
ATOM     89  O   UNL     1      22.080  -5.391  -0.840  1.00  0.00    -0.237 OA
ATOM     90  O   UNL     1      21.753  -3.401   0.574  1.00  0.00    -0.237 OA
ATOM     91  O   UNL     1      21.996  -5.616   1.608  1.00  0.00    -0.744 OA
ENDBRANCH  85  88
ENDBRANCH  57  81
BRANCH  69  92
ATOM     92  C   UNL     1      16.505  -8.753   6.283  1.00  0.00     0.023 A 
ATOM     93  C   UNL     1      16.916  -9.935   5.626  1.00  0.00     0.012 A 
ATOM     94  C   UNL     1      15.124  -8.648   6.591  1.00  0.00     0.148 A 
ATOM     95  C   UNL     1      16.018 -10.945   5.268  1.00  0.00     0.002 A 
ATOM     96  C   UNL     1      14.218  -9.656   6.218  1.00  0.00     0.091 A 
ATOM     97  F   UNL     1      14.693  -7.567   7.239  1.00  0.00    -0.205 F 
ATOM     98  C   UNL     1      14.670 -10.806   5.561  1.00  0.00     0.022 A 
BRANCH  96  99
ATOM     99  S   UNL     1      12.428  -9.564   6.467  1.00  0.00     0.127 S 
ATOM    100  O   UNL     1      11.906  -9.810   5.120  1.00  0.00    -0.237 OA
ATOM    101  O   UNL     1      12.186 -10.654   7.408  1.00  0.00    -0.237 OA
ATOM    102  O   UNL     1      12.147  -8.226   6.974  1.00  0.00    -0.744 OA
ENDBRANCH  96  99
ENDBRANCH  69  92
ENDBRANCH  43  44
ENDBRANCH  35  38
ENDBRANCH  33  34
ENDBRANCH  32  33
ENDBRANCH  31  32
ENDBRANCH   1  31
TORSDOF 20
