REMARK SMILES O=C(NCCCCNC(=O)[C@@H]1CCN(c2ncnc3c2CCCCC3)C1)c1ccc(-c2c3nc(c(-c4cccc(S(=O)(=O)[O-])c4F)c4ccc([nH]4)c(-c4cccc(S(=O)(=O)[O-])c4F)c4nc(c(-c5cccc(S(=O)(=O)[O-])c5F)c5ccc2[nH]5)C=C4)C=C3)cc1
REMARK SMILES IDX 6 1 5 2 4 3 3 4 1 5 2 6 27 8 28 9 89 10 29 11 88 12 30 13
REMARK SMILES IDX 31 14 32 15 82 16 33 17 87 18 81 19 83 20 34 21 86 22 80 23
REMARK SMILES IDX 79 24 35 26 67 27 47 28 66 29 48 30 51 31 65 32 84 33 49 34
REMARK SMILES IDX 50 35 64 37 85 38 52 39 36 40 37 41 45 42 38 43 40 44 46 45
REMARK SMILES IDX 39 46 41 47 42 48 43 49 44 50 68 51 69 52 77 53 70 54 72 55
REMARK SMILES IDX 78 56 71 57 73 58 74 59 75 60 76 61 53 62 54 63 62 64 55 65
REMARK SMILES IDX 57 66 63 67 56 68 58 69 59 70 60 71 61 72 7 73 8 74 9 75
REMARK SMILES IDX 10 77 11 78 12 79 26 80 13 81 14 82 15 83 16 84 20 85 17 86
REMARK SMILES IDX 19 87 18 88 21 89 22 90 23 91 25 93 24 94
REMARK H PARENT 3 7 83 25 51 36 8 76
REMARK Flexibility Score: 90.00
ROOT
ATOM      1  C   UNL     1       4.931   3.302   1.183  1.00  0.00     0.023 C 
ENDROOT
BRANCH   1   2
ATOM      2  C   UNL     1       5.159   2.497  -0.089  1.00  0.00     0.023 C 
BRANCH   2   3
ATOM      3  C   UNL     1       4.631   1.069  -0.043  1.00  0.00     0.116 C 
BRANCH   3   4
ATOM      4  N   UNL     1       3.212   0.961   0.273  1.00  0.00    -0.352 N 
ATOM      5  O   UNL     1       1.150   0.024   0.123  1.00  0.00    -0.269 OA
ATOM      6  C   UNL     1       2.342  -0.015  -0.163  1.00  0.00     0.251 C 
ATOM      7  H   UNL     1       2.836   1.657   0.858  1.00  0.00     0.163 HD
BRANCH   6   8
ATOM      8  C   UNL     1       2.890  -1.077  -1.026  1.00  0.00     0.039 A 
ATOM      9  C   UNL     1       4.000  -1.804  -0.591  1.00  0.00     0.014 A 
ATOM     10  C   UNL     1       2.398  -1.221  -2.324  1.00  0.00     0.014 A 
ATOM     11  C   UNL     1       4.718  -2.557  -1.508  1.00  0.00     0.010 A 
ATOM     12  C   UNL     1       3.071  -2.053  -3.219  1.00  0.00     0.010 A 
ATOM     13  C   UNL     1       4.257  -2.694  -2.829  1.00  0.00    -0.014 A 
BRANCH  13  14
ATOM     14  C   UNL     1       4.994  -3.578  -3.762  1.00  0.00     0.031 A 
ATOM     15  C   UNL     1       5.677  -3.036  -4.984  1.00  0.00     0.074 A 
ATOM     16  C   UNL     1       5.057  -4.889  -3.466  1.00  0.00     0.049 A 
ATOM     17  N   UNL     1       6.356  -3.683  -5.896  1.00  0.00    -0.248 NA
ATOM     18  C   UNL     1       5.590  -1.586  -5.218  1.00  0.00     0.031 C 
ATOM     19  C   UNL     1       4.422  -5.512  -2.301  1.00  0.00     0.029 A 
ATOM     20  N   UNL     1       5.691  -5.927  -4.094  1.00  0.00    -0.354 N 
ATOM     21  C   UNL     1       6.751  -2.731  -6.828  1.00  0.00     0.074 A 
ATOM     22  C   UNL     1       6.228  -1.458  -6.375  1.00  0.00     0.031 C 
ATOM     23  C   UNL     1       4.745  -6.810  -2.267  1.00  0.00     0.029 A 
ATOM     24  C   UNL     1       5.546  -7.128  -3.443  1.00  0.00     0.049 A 
ATOM     25  H   UNL     1       6.201  -5.823  -4.930  1.00  0.00     0.167 HD
ATOM     26  C   UNL     1       7.494  -2.904  -7.948  1.00  0.00     0.034 A 
ATOM     27  C   UNL     1       5.997  -8.356  -3.760  1.00  0.00     0.034 A 
ATOM     28  C   UNL     1       8.023  -4.175  -8.372  1.00  0.00     0.049 A 
ATOM     29  C   UNL     1       6.811  -8.520  -5.007  1.00  0.00     0.074 A 
ATOM     30  C   UNL     1       8.780  -4.462  -9.495  1.00  0.00     0.029 A 
ATOM     31  N   UNL     1       7.859  -5.371  -7.686  1.00  0.00    -0.354 N 
ATOM     32  N   UNL     1       7.207  -7.602  -5.856  1.00  0.00    -0.248 NA
ATOM     33  C   UNL     1       7.253  -9.880  -5.336  1.00  0.00     0.031 C 
ATOM     34  C   UNL     1       9.069  -5.831  -9.489  1.00  0.00     0.029 A 
ATOM     35  C   UNL     1       8.505  -6.397  -8.357  1.00  0.00     0.049 A 
ATOM     36  H   UNL     1       7.357  -5.474  -6.846  1.00  0.00     0.167 HD
ATOM     37  C   UNL     1       7.955  -8.268  -6.816  1.00  0.00     0.074 A 
ATOM     38  C   UNL     1       7.981  -9.665  -6.425  1.00  0.00     0.031 C 
ATOM     39  C   UNL     1       8.547  -7.774  -7.930  1.00  0.00     0.034 A 
BRANCH  26  40
ATOM     40  C   UNL     1       7.817  -1.683  -8.773  1.00  0.00     0.023 A 
ATOM     41  C   UNL     1       8.781  -0.769  -8.301  1.00  0.00     0.012 A 
ATOM     42  C   UNL     1       7.224  -1.468 -10.033  1.00  0.00     0.148 A 
ATOM     43  C   UNL     1       9.131   0.351  -9.057  1.00  0.00     0.002 A 
ATOM     44  C   UNL     1       7.605  -0.369 -10.797  1.00  0.00     0.091 A 
ATOM     45  F   UNL     1       6.289  -2.330 -10.457  1.00  0.00    -0.205 F 
ATOM     46  C   UNL     1       8.552   0.545 -10.308  1.00  0.00     0.022 A 
BRANCH  44  47
ATOM     47  S   UNL     1       6.963  -0.084 -12.452  1.00  0.00     0.127 S 
ATOM     48  O   UNL     1       5.939   0.929 -12.201  1.00  0.00    -0.237 OA
ATOM     49  O   UNL     1       8.141   0.406 -13.168  1.00  0.00    -0.237 OA
ATOM     50  O   UNL     1       6.476  -1.377 -12.911  1.00  0.00    -0.744 OA
ENDBRANCH  44  47
ENDBRANCH  26  40
BRANCH  27  51
ATOM     51  C   UNL     1       5.738  -9.482  -2.820  1.00  0.00     0.023 A 
ATOM     52  C   UNL     1       6.804  -9.992  -2.056  1.00  0.00     0.012 A 
ATOM     53  C   UNL     1       4.429  -9.944  -2.574  1.00  0.00     0.148 A 
ATOM     54  C   UNL     1       6.571 -10.938  -1.058  1.00  0.00     0.002 A 
ATOM     55  C   UNL     1       4.196 -10.835  -1.534  1.00  0.00     0.091 A 
ATOM     56  F   UNL     1       3.432  -9.452  -3.322  1.00  0.00    -0.205 F 
ATOM     57  C   UNL     1       5.267 -11.344  -0.784  1.00  0.00     0.022 A 
BRANCH  55  58
ATOM     58  S   UNL     1       2.539 -11.272  -0.993  1.00  0.00     0.127 S 
ATOM     59  O   UNL     1       2.469 -12.686  -1.354  1.00  0.00    -0.237 OA
ATOM     60  O   UNL     1       2.613 -11.005   0.444  1.00  0.00    -0.237 OA
ATOM     61  O   UNL     1       1.639 -10.389  -1.723  1.00  0.00    -0.744 OA
ENDBRANCH  55  58
ENDBRANCH  27  51
BRANCH  39  62
ATOM     62  C   UNL     1       9.276  -8.751  -8.812  1.00  0.00     0.023 A 
ATOM     63  C   UNL     1       8.537  -9.625  -9.633  1.00  0.00     0.012 A 
ATOM     64  C   UNL     1      10.682  -8.758  -8.879  1.00  0.00     0.148 A 
ATOM     65  C   UNL     1       9.188 -10.510 -10.491  1.00  0.00     0.002 A 
ATOM     66  C   UNL     1      11.323  -9.614  -9.767  1.00  0.00     0.091 A 
ATOM     67  F   UNL     1      11.368  -7.937  -8.070  1.00  0.00    -0.205 F 
ATOM     68  C   UNL     1      10.579 -10.496 -10.567  1.00  0.00     0.022 A 
BRANCH  66  69
ATOM     69  S   UNL     1      13.106  -9.594  -9.986  1.00  0.00     0.127 S 
ATOM     70  O   UNL     1      13.519 -10.741  -9.181  1.00  0.00    -0.237 OA
ATOM     71  O   UNL     1      13.250  -9.780 -11.431  1.00  0.00    -0.237 OA
ATOM     72  O   UNL     1      13.546  -8.291  -9.504  1.00  0.00    -0.744 OA
ENDBRANCH  66  69
ENDBRANCH  39  62
ENDBRANCH  13  14
ENDBRANCH   6   8
ENDBRANCH   3   4
ENDBRANCH   2   3
ENDBRANCH   1   2
BRANCH   1  73
ATOM     73  C   UNL     1       5.585   2.708   2.429  1.00  0.00     0.116 C 
BRANCH  73  74
ATOM     74  N   UNL     1       6.877   3.307   2.708  1.00  0.00    -0.356 N 
ATOM     75  C   UNL     1       7.316   4.302   3.514  1.00  0.00     0.224 C 
ATOM     76  H   UNL     1       7.604   2.893   2.190  1.00  0.00     0.163 HD
ATOM     77  O   UNL     1       8.531   4.536   3.459  1.00  0.00    -0.275 OA
BRANCH  75  78
ATOM     78  C   UNL     1       6.461   5.170   4.425  1.00  0.00     0.099 C 
ATOM     79  C   UNL     1       5.089   4.703   4.894  1.00  0.00     0.037 C 
ATOM     80  C   UNL     1       6.206   6.549   3.780  1.00  0.00     0.131 C 
ATOM     81  C   UNL     1       4.142   5.399   3.926  1.00  0.00     0.119 C 
ATOM     82  N   UNL     1       4.750   6.713   3.872  1.00  0.00    -0.355 N 
BRANCH  82  83
ATOM     83  C   UNL     1       4.128   7.818   3.345  1.00  0.00     0.135 A 
ATOM     84  N   UNL     1       4.798   8.486   2.387  1.00  0.00    -0.219 NA
ATOM     85  C   UNL     1       2.885   8.269   3.807  1.00  0.00     0.016 A 
ATOM     86  C   UNL     1       4.205   9.554   1.847  1.00  0.00     0.224 A 
ATOM     87  C   UNL     1       2.351   9.380   3.154  1.00  0.00     0.049 A 
ATOM     88  N   UNL     1       3.002  10.034   2.171  1.00  0.00    -0.241 NA
BRANCH  85  89
ATOM     89  C   UNL     1       2.167   7.655   4.981  1.00  0.00     0.041 C 
BRANCH  89  90
ATOM     90  C   UNL     1       1.972   8.593   6.168  1.00  0.00     0.005 C 
BRANCH  90  91
ATOM     91  C   UNL     1       0.789   9.537   6.021  1.00  0.00     0.001 CG0
ATOM     92  G   UNL     1       0.952  10.564   4.905  1.00  0.00     0.000 G0
ENDBRANCH  90  91
ENDBRANCH  89  90
ENDBRANCH  85  89
BRANCH  87  93
ATOM     93  C   UNL     1       0.998   9.944   3.510  1.00  0.00     0.057 C 
BRANCH  93  94
ATOM     94  C   UNL     1       0.952  10.564   4.905  1.00  0.00     0.006 CG0
ATOM     95  G   UNL     1       0.789   9.537   6.021  1.00  0.00     0.000 G0
ENDBRANCH  93  94
ENDBRANCH  87  93
ENDBRANCH  82  83
ENDBRANCH  75  78
ENDBRANCH  73  74
ENDBRANCH   1  73
TORSDOF 15
