REMARK SMILES C/C(=N\NC(N)=O)c1nnn(-c2ccc(C(=O)NCCCCNC(=O)c3ccc(-c4c5nc(c(-c6cccc(S(=O)(=O)[O-])c6F)c6ccc([nH]6)c(-c6cccc(S(=O)(=O)[O-])c6F)c6nc(c(-c7cccc(S(=O)(=O)[O-])c7F)c7ccc4[nH]7)C=C6)C=C5)cc3)cc2)c1C
REMARK SMILES IDX 20 1 19 2 18 3 16 4 17 5 15 7 12 8 13 9 90 10 14 11 89 12
REMARK SMILES IDX 11 13 8 14 9 15 91 16 10 17 92 18 2 19 1 20 3 21 4 22 5 23
REMARK SMILES IDX 6 25 7 26 21 29 22 30 23 31 24 32 25 34 26 35 27 36 88 37
REMARK SMILES IDX 28 38 87 39 29 40 30 41 31 42 81 43 32 44 86 45 80 46 82 47
REMARK SMILES IDX 33 48 85 49 79 50 78 51 34 53 66 54 46 55 65 56 47 57 50 58
REMARK SMILES IDX 64 59 83 60 48 61 49 62 63 64 84 65 51 66 35 67 36 68 44 69
REMARK SMILES IDX 37 70 39 71 45 72 38 73 40 74 41 75 42 76 43 77 67 78 68 79
REMARK SMILES IDX 76 80 69 81 71 82 77 83 70 84 72 85 73 86 74 87 75 88 52 89
REMARK SMILES IDX 53 90 61 91 54 92 56 93 62 94 55 95 57 96 58 97 59 98 60 99
REMARK H PARENT 18 6 4 24 6 27 6 28 23 33 82 52 50 63
REMARK Flexibility Score: inf
ROOT
ATOM      1  C   UNL     1       8.895  -6.279  -1.751  1.00  0.00     0.023 C 
ENDROOT
BRANCH   1   2
ATOM      2  C   UNL     1       8.673  -5.010  -2.585  1.00  0.00     0.116 C 
BRANCH   2   3
ATOM      3  N   UNL     1       8.303  -5.330  -3.954  1.00  0.00    -0.352 N 
ATOM      4  C   UNL     1       7.098  -5.404  -4.610  1.00  0.00     0.251 C 
ATOM      5  O   UNL     1       7.110  -5.700  -5.804  1.00  0.00    -0.269 OA
ATOM      6  H   UNL     1       9.075  -5.535  -4.529  1.00  0.00     0.163 HD
BRANCH   4   7
ATOM      7  C   UNL     1       5.787  -5.101  -3.967  1.00  0.00     0.039 A 
ATOM      8  C   UNL     1       3.366  -4.251  -2.866  1.00  0.00     0.067 A 
ATOM      9  C   UNL     1       3.514  -4.237  -4.251  1.00  0.00     0.029 A 
ATOM     10  C   UNL     1       4.357  -4.785  -2.041  1.00  0.00     0.029 A 
ATOM     11  C   UNL     1       4.741  -4.642  -4.793  1.00  0.00     0.016 A 
ATOM     12  C   UNL     1       5.543  -5.249  -2.602  1.00  0.00     0.016 A 
BRANCH   8  13
ATOM     13  N   UNL     1       2.287  -3.589  -2.259  1.00  0.00    -0.217 N 
ATOM     14  C   UNL     1       1.064  -2.330  -0.978  1.00  0.00     0.132 A 
ATOM     15  N   UNL     1       0.266  -3.287  -1.556  1.00  0.00    -0.128 NA
ATOM     16  C   UNL     1       2.361  -2.489  -1.428  1.00  0.00     0.071 A 
ATOM     17  N   UNL     1       1.011  -4.003  -2.392  1.00  0.00    -0.061 NA
ATOM     18  C   UNL     1       3.594  -1.690  -1.226  1.00  0.00     0.069 C 
BRANCH  14  19
ATOM     19  C   UNL     1       0.544  -1.257  -0.143  1.00  0.00     0.087 C 
ATOM     20  C   UNL     1       0.664   0.137  -0.703  1.00  0.00     0.071 C 
ATOM     21  N   UNL     1      -0.002  -1.629   0.978  1.00  0.00    -0.174 NA
BRANCH  21  22
ATOM     22  N   UNL     1      -0.492  -0.740   1.896  1.00  0.00    -0.229 N 
ATOM     23  C   UNL     1       0.093   0.440   2.308  1.00  0.00     0.332 C 
ATOM     24  H   UNL     1      -1.357  -0.968   2.308  1.00  0.00     0.195 HD
ATOM     25  N   UNL     1      -0.662   1.094   3.240  1.00  0.00    -0.350 N 
ATOM     26  O   UNL     1       1.143   0.925   1.932  1.00  0.00    -0.247 OA
ATOM     27  H   UNL     1      -1.512   0.703   3.546  1.00  0.00     0.161 HD
ATOM     28  H   UNL     1      -0.356   1.955   3.605  1.00  0.00     0.161 HD
ENDBRANCH  21  22
ENDBRANCH  14  19
ENDBRANCH   8  13
ENDBRANCH   4   7
ENDBRANCH   2   3
ENDBRANCH   1   2
BRANCH   1  29
ATOM     29  C   UNL     1      10.192  -7.045  -2.050  1.00  0.00     0.023 C 
BRANCH  29  30
ATOM     30  C   UNL     1      11.478  -6.287  -1.735  1.00  0.00     0.116 C 
BRANCH  30  31
ATOM     31  N   UNL     1      11.594  -5.933  -0.323  1.00  0.00    -0.352 N 
ATOM     32  C   UNL     1      12.517  -5.090   0.265  1.00  0.00     0.251 C 
ATOM     33  H   UNL     1      10.935  -6.344   0.283  1.00  0.00     0.163 HD
ATOM     34  O   UNL     1      12.788  -5.208   1.456  1.00  0.00    -0.269 OA
BRANCH  32  35
ATOM     35  C   UNL     1      13.167  -4.047  -0.551  1.00  0.00     0.039 A 
ATOM     36  C   UNL     1      14.522  -3.760  -0.390  1.00  0.00     0.014 A 
ATOM     37  C   UNL     1      12.407  -3.357  -1.498  1.00  0.00     0.014 A 
ATOM     38  C   UNL     1      15.117  -2.840  -1.249  1.00  0.00     0.010 A 
ATOM     39  C   UNL     1      13.019  -2.541  -2.426  1.00  0.00     0.010 A 
ATOM     40  C   UNL     1      14.372  -2.259  -2.296  1.00  0.00    -0.014 A 
BRANCH  40  41
ATOM     41  C   UNL     1      15.067  -1.525  -3.356  1.00  0.00     0.031 A 
ATOM     42  C   UNL     1      16.235  -2.273  -3.891  1.00  0.00     0.074 A 
ATOM     43  C   UNL     1      14.666  -0.363  -3.919  1.00  0.00     0.049 A 
ATOM     44  N   UNL     1      17.471  -2.075  -3.576  1.00  0.00    -0.248 NA
ATOM     45  C   UNL     1      16.009  -3.503  -4.665  1.00  0.00     0.031 C 
ATOM     46  C   UNL     1      13.405   0.352  -3.705  1.00  0.00     0.029 A 
ATOM     47  N   UNL     1      15.269   0.385  -4.893  1.00  0.00    -0.354 N 
ATOM     48  C   UNL     1      18.197  -2.960  -4.364  1.00  0.00     0.074 A 
ATOM     49  C   UNL     1      17.258  -3.960  -4.795  1.00  0.00     0.031 C 
ATOM     50  C   UNL     1      13.234   1.276  -4.679  1.00  0.00     0.029 A 
ATOM     51  C   UNL     1      14.440   1.340  -5.483  1.00  0.00     0.049 A 
ATOM     52  H   UNL     1      16.210   0.260  -5.155  1.00  0.00     0.167 HD
ATOM     53  C   UNL     1      19.414  -2.587  -4.849  1.00  0.00     0.034 A 
ATOM     54  C   UNL     1      14.716   2.116  -6.563  1.00  0.00     0.034 A 
ATOM     55  C   UNL     1      19.905  -1.419  -4.146  1.00  0.00     0.049 A 
ATOM     56  C   UNL     1      16.186   2.207  -6.658  1.00  0.00     0.074 A 
ATOM     57  C   UNL     1      20.154  -1.081  -2.830  1.00  0.00     0.029 A 
ATOM     58  N   UNL     1      19.810  -0.234  -4.832  1.00  0.00    -0.354 N 
ATOM     59  N   UNL     1      16.922   2.836  -5.788  1.00  0.00    -0.248 NA
ATOM     60  C   UNL     1      16.884   1.266  -7.514  1.00  0.00     0.031 C 
ATOM     61  C   UNL     1      19.773   0.291  -2.718  1.00  0.00     0.029 A 
ATOM     62  C   UNL     1      19.392   0.747  -3.981  1.00  0.00     0.049 A 
ATOM     63  H   UNL     1      20.011  -0.111  -5.788  1.00  0.00     0.167 HD
ATOM     64  C   UNL     1      18.025   2.012  -5.636  1.00  0.00     0.074 A 
ATOM     65  C   UNL     1      18.021   1.157  -6.823  1.00  0.00     0.031 C 
ATOM     66  C   UNL     1      18.641   1.903  -4.422  1.00  0.00     0.034 A 
BRANCH  53  67
ATOM     67  C   UNL     1      19.932  -2.919  -6.243  1.00  0.00     0.023 A 
ATOM     68  C   UNL     1      21.214  -2.417  -6.574  1.00  0.00     0.012 A 
ATOM     69  C   UNL     1      19.142  -3.388  -7.318  1.00  0.00     0.148 A 
ATOM     70  C   UNL     1      21.637  -2.284  -7.901  1.00  0.00     0.002 A 
ATOM     71  C   UNL     1      19.595  -3.320  -8.632  1.00  0.00     0.091 A 
ATOM     72  F   UNL     1      17.893  -3.803  -7.112  1.00  0.00    -0.205 F 
ATOM     73  C   UNL     1      20.824  -2.732  -8.932  1.00  0.00     0.022 A 
BRANCH  71  74
ATOM     74  S   UNL     1      18.604  -3.920 -10.008  1.00  0.00     0.127 S 
ATOM     75  O   UNL     1      18.286  -2.674 -10.699  1.00  0.00    -0.237 OA
ATOM     76  O   UNL     1      19.557  -4.790 -10.697  1.00  0.00    -0.237 OA
ATOM     77  O   UNL     1      17.475  -4.622  -9.411  1.00  0.00    -0.744 OA
ENDBRANCH  71  74
ENDBRANCH  53  67
BRANCH  54  78
ATOM     78  C   UNL     1      13.854   2.644  -7.650  1.00  0.00     0.023 A 
ATOM     79  C   UNL     1      14.349   3.655  -8.505  1.00  0.00     0.012 A 
ATOM     80  C   UNL     1      12.704   1.938  -8.059  1.00  0.00     0.148 A 
ATOM     81  C   UNL     1      13.760   3.908  -9.750  1.00  0.00     0.002 A 
ATOM     82  C   UNL     1      12.122   2.192  -9.299  1.00  0.00     0.091 A 
ATOM     83  F   UNL     1      12.241   0.955  -7.277  1.00  0.00    -0.205 F 
ATOM     84  C   UNL     1      12.657   3.165 -10.155  1.00  0.00     0.022 A 
BRANCH  82  85
ATOM     85  S   UNL     1      10.720   1.245  -9.908  1.00  0.00     0.127 S 
ATOM     86  O   UNL     1       9.813   2.303 -10.357  1.00  0.00    -0.237 OA
ATOM     87  O   UNL     1      11.328   0.463 -10.981  1.00  0.00    -0.237 OA
ATOM     88  O   UNL     1      10.232   0.482  -8.767  1.00  0.00    -0.744 OA
ENDBRANCH  82  85
ENDBRANCH  54  78
BRANCH  66  89
ATOM     89  C   UNL     1      18.358   2.964  -3.388  1.00  0.00     0.023 A 
ATOM     90  C   UNL     1      17.074   3.218  -2.863  1.00  0.00     0.012 A 
ATOM     91  C   UNL     1      19.458   3.652  -2.849  1.00  0.00     0.148 A 
ATOM     92  C   UNL     1      16.891   4.162  -1.847  1.00  0.00     0.002 A 
ATOM     93  C   UNL     1      19.280   4.550  -1.806  1.00  0.00     0.091 A 
ATOM     94  F   UNL     1      20.673   3.404  -3.362  1.00  0.00    -0.205 F 
ATOM     95  C   UNL     1      17.996   4.819  -1.310  1.00  0.00     0.022 A 
BRANCH  93  96
ATOM     96  S   UNL     1      20.679   5.336  -1.006  1.00  0.00     0.127 S 
ATOM     97  O   UNL     1      20.618   6.692  -1.548  1.00  0.00    -0.237 OA
ATOM     98  O   UNL     1      20.334   5.226   0.412  1.00  0.00    -0.237 OA
ATOM     99  O   UNL     1      21.851   4.558  -1.393  1.00  0.00    -0.744 OA
ENDBRANCH  93  96
ENDBRANCH  66  89
ENDBRANCH  40  41
ENDBRANCH  32  35
ENDBRANCH  30  31
ENDBRANCH  29  30
ENDBRANCH   1  29
TORSDOF 17
