REMARK SMILES COc1ccc(-c2c(C(=O)NCCCCNC(=O)c3ccc(-c4c5nc(c(-c6cccc(S(=O)(=O)[O-])c6F)c6ccc([nH]6)c(-c6cccc(S(=O)(=O)[O-])c6F)c6nc(c(-c7cccc(S(=O)(=O)[O-])c7F)c7ccc4[nH]7)C=C6)C=C5)cc3)sc3c2N=C(O)C[C@H]3c2ccc(OC)c(OC)c2)cc1
REMARK SMILES IDX 14 1 13 2 12 3 11 4 9 5 10 6 8 8 7 9 84 10 82 11 83 12 85 13
REMARK SMILES IDX 89 14 86 15 88 16 6 17 3 18 4 19 101 20 5 21 100 22 2 23
REMARK SMILES IDX 1 24 90 25 91 26 99 27 92 28 96 29 93 30 97 31 98 32 94 33
REMARK SMILES IDX 95 34 87 35 15 37 16 38 17 39 18 41 19 42 20 43 81 44 21 45
REMARK SMILES IDX 80 46 22 47 23 48 24 49 74 50 25 51 79 52 73 53 75 54 26 55
REMARK SMILES IDX 78 56 72 57 71 58 27 60 59 61 39 62 58 63 40 64 43 65 57 66
REMARK SMILES IDX 76 67 41 68 42 69 56 71 77 72 44 73 28 74 29 75 37 76 30 77
REMARK SMILES IDX 32 78 38 79 31 80 33 81 34 82 35 83 36 84 60 85 61 86 69 87
REMARK SMILES IDX 62 88 64 89 70 90 63 91 65 92 66 93 67 94 68 95 45 96 46 97
REMARK SMILES IDX 54 98 47 99 49 100 55 101 48 102 50 103 51 104 52 105 53 106
REMARK H PARENT 11 7 87 36 16 40 75 59 43 70
REMARK Flexibility Score: inf
ROOT
ATOM      1  C   UNL     1      -0.347   3.225   2.515  1.00  0.00     0.023 C 
ENDROOT
BRANCH   1   2
ATOM      2  C   UNL     1       0.877   3.750   1.765  1.00  0.00     0.023 C 
BRANCH   2   3
ATOM      3  C   UNL     1       0.664   4.406   0.403  1.00  0.00     0.116 C 
BRANCH   3   4
ATOM      4  N   UNL     1       0.266   5.784   0.391  1.00  0.00    -0.351 N 
ATOM      5  C   UNL     1       0.658   6.833  -0.421  1.00  0.00     0.262 C 
ATOM      6  O   UNL     1       0.171   7.912  -0.058  1.00  0.00    -0.268 OA
ATOM      7  H   UNL     1      -0.399   6.024   1.077  1.00  0.00     0.163 HD
BRANCH   5   8
ATOM      8  C   UNL     1       1.622   6.753  -1.545  1.00  0.00     0.102 A 
ATOM      9  C   UNL     1       2.143   5.790  -2.424  1.00  0.00     0.031 A 
ATOM     10  C   UNL     1       3.127   6.347  -3.310  1.00  0.00     0.090 A 
ATOM     11  S   UNL     1       2.352   8.313  -1.926  1.00  0.00    -0.131 S 
ATOM     12  C   UNL     1       3.346   7.678  -3.134  1.00  0.00     0.040 A 
ATOM     13  N   UNL     1       3.830   5.567  -4.242  1.00  0.00    -0.216 NA
ATOM     14  C   UNL     1       4.368   8.473  -3.870  1.00  0.00     0.071 C 
ATOM     15  C   UNL     1       4.829   6.150  -4.810  1.00  0.00     0.186 C 
ATOM     16  C   UNL     1       5.371   7.535  -4.560  1.00  0.00     0.111 C 
BRANCH   9  17
ATOM     17  C   UNL     1       1.896   4.357  -2.394  1.00  0.00    -0.014 A 
ATOM     18  C   UNL     1       1.504   1.604  -2.081  1.00  0.00     0.118 A 
ATOM     19  C   UNL     1       0.516   2.403  -2.672  1.00  0.00     0.047 A 
ATOM     20  C   UNL     1       2.731   2.167  -1.742  1.00  0.00     0.047 A 
ATOM     21  C   UNL     1       0.700   3.784  -2.821  1.00  0.00     0.012 A 
ATOM     22  C   UNL     1       2.932   3.532  -1.919  1.00  0.00     0.012 A 
BRANCH  18  23
ATOM     23  O   UNL     1       1.176   0.291  -1.885  1.00  0.00    -0.497 OA
ATOM     24  C   UNL     1       1.961  -0.403  -0.917  1.00  0.00     0.278 C 
ENDBRANCH  18  23
ENDBRANCH   9  17
BRANCH  14  25
ATOM     25  C   UNL     1       3.791   9.476  -4.857  1.00  0.00    -0.035 A 
ATOM     26  C   UNL     1       2.898   9.103  -5.863  1.00  0.00     0.008 A 
ATOM     27  C   UNL     1       4.204  10.820  -4.784  1.00  0.00     0.054 A 
ATOM     28  C   UNL     1       2.443  10.054  -6.777  1.00  0.00     0.051 A 
ATOM     29  C   UNL     1       3.755  11.785  -5.699  1.00  0.00     0.161 A 
ATOM     30  C   UNL     1       2.862  11.391  -6.709  1.00  0.00     0.160 A 
BRANCH  29  31
ATOM     31  O   UNL     1       4.192  13.084  -5.679  1.00  0.00    -0.493 OA
ATOM     32  C   UNL     1       4.940  13.517  -4.551  1.00  0.00     0.278 C 
ENDBRANCH  29  31
BRANCH  30  33
ATOM     33  O   UNL     1       2.344  12.159  -7.720  1.00  0.00    -0.493 OA
ATOM     34  C   UNL     1       2.275  13.562  -7.514  1.00  0.00     0.278 C 
ENDBRANCH  30  33
ENDBRANCH  14  25
BRANCH  15  35
ATOM     35  O   UNL     1       5.566   5.430  -5.683  1.00  0.00    -0.496 OA
ATOM     36  H   UNL     1       5.310   4.556  -5.904  1.00  0.00     0.294 HD
ENDBRANCH  15  35
ENDBRANCH   5   8
ENDBRANCH   3   4
ENDBRANCH   2   3
ENDBRANCH   1   2
BRANCH   1  37
ATOM     37  C   UNL     1      -1.235   2.260   1.739  1.00  0.00     0.116 C 
BRANCH  37  38
ATOM     38  N   UNL     1      -0.571   1.021   1.329  1.00  0.00    -0.352 N 
ATOM     39  C   UNL     1      -1.160  -0.075   0.705  1.00  0.00     0.251 C 
ATOM     40  H   UNL     1       0.394   0.957   1.514  1.00  0.00     0.163 HD
ATOM     41  O   UNL     1      -0.640  -1.172   0.720  1.00  0.00    -0.269 OA
BRANCH  39  42
ATOM     42  C   UNL     1      -2.466   0.140   0.048  1.00  0.00     0.039 A 
ATOM     43  C   UNL     1      -3.556  -0.697   0.307  1.00  0.00     0.014 A 
ATOM     44  C   UNL     1      -2.611   1.288  -0.719  1.00  0.00     0.014 A 
ATOM     45  C   UNL     1      -4.829  -0.290  -0.096  1.00  0.00     0.010 A 
ATOM     46  C   UNL     1      -3.873   1.753  -0.989  1.00  0.00     0.010 A 
ATOM     47  C   UNL     1      -4.989   0.961  -0.705  1.00  0.00    -0.014 A 
BRANCH  47  48
ATOM     48  C   UNL     1      -6.316   1.533  -0.938  1.00  0.00     0.031 A 
ATOM     49  C   UNL     1      -7.193   1.727   0.259  1.00  0.00     0.074 A 
ATOM     50  C   UNL     1      -6.613   2.167  -2.093  1.00  0.00     0.049 A 
ATOM     51  N   UNL     1      -8.390   1.273   0.451  1.00  0.00    -0.248 NA
ATOM     52  C   UNL     1      -6.658   2.476   1.406  1.00  0.00     0.031 C 
ATOM     53  C   UNL     1      -5.731   2.393  -3.247  1.00  0.00     0.029 A 
ATOM     54  N   UNL     1      -7.699   2.932  -2.387  1.00  0.00    -0.354 N 
ATOM     55  C   UNL     1      -8.833   1.822   1.658  1.00  0.00     0.074 A 
ATOM     56  C   UNL     1      -7.678   2.431   2.266  1.00  0.00     0.031 C 
ATOM     57  C   UNL     1      -6.177   3.461  -3.941  1.00  0.00     0.029 A 
ATOM     58  C   UNL     1      -7.465   3.850  -3.403  1.00  0.00     0.049 A 
ATOM     59  H   UNL     1      -8.564   2.843  -1.925  1.00  0.00     0.167 HD
ATOM     60  C   UNL     1     -10.157   1.893   1.983  1.00  0.00     0.034 A 
ATOM     61  C   UNL     1      -8.249   4.895  -3.747  1.00  0.00     0.034 A 
ATOM     62  C   UNL     1     -10.967   1.136   1.066  1.00  0.00     0.049 A 
ATOM     63  C   UNL     1      -9.605   4.617  -3.225  1.00  0.00     0.074 A 
ATOM     64  C   UNL     1     -11.065  -0.187   0.693  1.00  0.00     0.029 A 
ATOM     65  N   UNL     1     -11.649   1.852   0.112  1.00  0.00    -0.354 N 
ATOM     66  N   UNL     1     -10.349   3.629  -3.643  1.00  0.00    -0.248 NA
ATOM     67  C   UNL     1      -9.995   5.194  -1.949  1.00  0.00     0.031 C 
ATOM     68  C   UNL     1     -11.377  -0.149  -0.698  1.00  0.00     0.029 A 
ATOM     69  C   UNL     1     -11.485   1.193  -1.075  1.00  0.00     0.049 A 
ATOM     70  H   UNL     1     -12.159   2.682   0.256  1.00  0.00     0.167 HD
ATOM     71  C   UNL     1     -10.998   3.175  -2.503  1.00  0.00     0.074 A 
ATOM     72  C   UNL     1     -10.856   4.260  -1.535  1.00  0.00     0.031 C 
ATOM     73  C   UNL     1     -11.323   1.855  -2.352  1.00  0.00     0.034 A 
BRANCH  60  74
ATOM     74  C   UNL     1     -10.814   2.875   2.930  1.00  0.00     0.023 A 
ATOM     75  C   UNL     1     -12.168   2.635   3.275  1.00  0.00     0.012 A 
ATOM     76  C   UNL     1     -10.285   4.134   3.279  1.00  0.00     0.148 A 
ATOM     77  C   UNL     1     -12.967   3.614   3.876  1.00  0.00     0.002 A 
ATOM     78  C   UNL     1     -11.062   5.077   3.951  1.00  0.00     0.091 A 
ATOM     79  F   UNL     1      -9.071   4.492   2.849  1.00  0.00    -0.205 F 
ATOM     80  C   UNL     1     -12.411   4.836   4.222  1.00  0.00     0.022 A 
BRANCH  78  81
ATOM     81  S   UNL     1     -10.362   6.644   4.482  1.00  0.00     0.127 S 
ATOM     82  O   UNL     1     -10.766   7.531   3.396  1.00  0.00    -0.237 OA
ATOM     83  O   UNL     1     -11.047   6.873   5.756  1.00  0.00    -0.237 OA
ATOM     84  O   UNL     1      -8.933   6.387   4.617  1.00  0.00    -0.744 OA
ENDBRANCH  78  81
ENDBRANCH  60  74
BRANCH  61  85
ATOM     85  C   UNL     1      -7.856   6.184  -4.348  1.00  0.00     0.023 A 
ATOM     86  C   UNL     1      -8.773   6.904  -5.133  1.00  0.00     0.012 A 
ATOM     87  C   UNL     1      -6.650   6.820  -3.972  1.00  0.00     0.148 A 
ATOM     88  C   UNL     1      -8.505   8.222  -5.522  1.00  0.00     0.002 A 
ATOM     89  C   UNL     1      -6.384   8.126  -4.370  1.00  0.00     0.091 A 
ATOM     90  F   UNL     1      -5.807   6.172  -3.154  1.00  0.00    -0.205 F 
ATOM     91  C   UNL     1      -7.314   8.834  -5.139  1.00  0.00     0.022 A 
BRANCH  89  92
ATOM     92  S   UNL     1      -4.869   8.975  -3.903  1.00  0.00     0.127 S 
ATOM     93  O   UNL     1      -4.488   9.630  -5.156  1.00  0.00    -0.237 OA
ATOM     94  O   UNL     1      -5.343   9.879  -2.859  1.00  0.00    -0.237 OA
ATOM     95  O   UNL     1      -3.953   7.925  -3.475  1.00  0.00    -0.744 OA
ENDBRANCH  89  92
ENDBRANCH  61  85
BRANCH  73  96
ATOM     96  C   UNL     1     -11.185   0.936  -3.543  1.00  0.00     0.023 A 
ATOM     97  C   UNL     1      -9.928   0.672  -4.128  1.00  0.00     0.012 A 
ATOM     98  C   UNL     1     -12.284   0.147  -3.922  1.00  0.00     0.148 A 
ATOM     99  C   UNL     1      -9.770  -0.343  -5.073  1.00  0.00     0.002 A 
ATOM    100  C   UNL     1     -12.114  -0.895  -4.827  1.00  0.00     0.091 A 
ATOM    101  F   UNL     1     -13.473   0.400  -3.353  1.00  0.00    -0.205 F 
ATOM    102  C   UNL     1     -10.860  -1.138  -5.411  1.00  0.00     0.022 A 
BRANCH 100 103
ATOM    103  S   UNL     1     -13.439  -2.051  -5.186  1.00  0.00     0.127 S 
ATOM    104  O   UNL     1     -13.894  -1.598  -6.499  1.00  0.00    -0.237 OA
ATOM    105  O   UNL     1     -12.745  -3.340  -5.191  1.00  0.00    -0.237 OA
ATOM    106  O   UNL     1     -14.401  -1.903  -4.100  1.00  0.00    -0.744 OA
ENDBRANCH 100 103
ENDBRANCH  73  96
ENDBRANCH  47  48
ENDBRANCH  39  42
ENDBRANCH  37  38
ENDBRANCH   1  37
TORSDOF 20
