REMARK SMILES O=C(C[C@H](NC(=O)[C@]12C[C@H]3C[C@H](C[C@H](C3)C1)C2)c1cccc([N+](=O)[O-])c1)NCCCCNC(=O)c1ccc(-c2c3nc(c(-c4cccc(S(=O)(=O)[O-])c4F)c4ccc([nH]4)c(-c4cccc(S(=O)(=O)[O-])c4F)c4nc(c(-c5cccc(S(=O)(=O)[O-])c5F)c5ccc2[nH]5)C=C4)C=C3)cc1
REMARK SMILES IDX 29 1 28 2 27 3 1 4 2 5 3 7 4 8 18 9 19 10 26 11 20 12 22 13
REMARK SMILES IDX 21 14 23 15 24 16 25 17 5 18 6 19 7 21 8 22 9 23 16 24 17 25
REMARK SMILES IDX 10 26 14 27 12 28 11 29 15 30 13 31 30 32 31 33 32 34 33 35
REMARK SMILES IDX 34 37 35 38 36 39 97 40 37 41 96 42 38 43 39 44 40 45 90 46
REMARK SMILES IDX 41 47 95 48 89 49 91 50 42 51 94 52 88 53 87 54 43 56 75 57
REMARK SMILES IDX 55 58 74 59 56 60 59 61 73 62 92 63 57 64 58 65 72 67 93 68
REMARK SMILES IDX 60 69 44 70 45 71 53 72 46 73 48 74 54 75 47 76 49 77 50 78
REMARK SMILES IDX 51 79 52 80 76 81 77 82 85 83 78 84 80 85 86 86 79 87 81 88
REMARK SMILES IDX 82 89 83 90 84 91 61 92 62 93 70 94 63 95 65 96 71 97 64 98
REMARK SMILES IDX 66 99 67 100 68 101 69 102
REMARK H PARENT 27 6 5 20 32 36 91 55 59 66
REMARK Flexibility Score: inf
ROOT
ATOM      1  C   UNL     1       5.946   1.542  -3.343  1.00  0.00     0.023 C 
ENDROOT
BRANCH   1   2
ATOM      2  C   UNL     1       6.226   1.949  -1.900  1.00  0.00     0.116 C 
BRANCH   2   3
ATOM      3  N   UNL     1       5.580   1.046  -0.974  1.00  0.00    -0.356 N 
ATOM      4  O   UNL     1       7.420   0.690   0.356  1.00  0.00    -0.275 OA
ATOM      5  C   UNL     1       6.246   0.480   0.083  1.00  0.00     0.222 C 
ATOM      6  H   UNL     1       4.629   0.830  -1.107  1.00  0.00     0.163 HD
BRANCH   5   7
ATOM      7  C   UNL     1       5.404  -0.479   0.873  1.00  0.00     0.129 C 
BRANCH   7   8
ATOM      8  C   UNL     1       4.368   0.189   1.776  1.00  0.00     0.122 C 
BRANCH   8   9
ATOM      9  C   UNL     1       4.886   1.209   2.774  1.00  0.00    -0.018 A 
ATOM     10  C   UNL     1       5.578   0.754   3.910  1.00  0.00     0.006 A 
ATOM     11  C   UNL     1       4.652   2.589   2.641  1.00  0.00     0.091 A 
ATOM     12  C   UNL     1       5.997   1.638   4.906  1.00  0.00     0.007 A 
ATOM     13  C   UNL     1       5.072   3.474   3.646  1.00  0.00     0.269 A 
ATOM     14  C   UNL     1       5.739   3.001   4.782  1.00  0.00     0.085 A 
BRANCH  13  15
ATOM     15  N   UNL     1       4.798   4.912   3.515  1.00  0.00     0.062 N 
ATOM     16  O   UNL     1       5.141   5.650   4.450  1.00  0.00    -0.258 OA
ATOM     17  O   UNL     1       4.248   5.302   2.476  1.00  0.00    -0.258 OA
ENDBRANCH  13  15
ENDBRANCH   8   9
BRANCH   8  18
ATOM     18  N   UNL     1       3.186   0.662   1.065  1.00  0.00    -0.348 N 
ATOM     19  C   UNL     1       1.849   0.475   1.201  1.00  0.00     0.226 C 
ATOM     20  H   UNL     1       3.409   1.255   0.312  1.00  0.00     0.164 HD
ATOM     21  O   UNL     1       1.176   1.167   0.425  1.00  0.00    -0.274 OA
BRANCH  19  22
ATOM     22  C   UNL     1       1.151  -0.437   2.240  1.00  0.00     0.050 C 
ATOM     23  C   UNL     1       1.997  -1.567   2.855  1.00  0.00     0.020 C 
ATOM     24  C   UNL     1      -0.081  -1.084   1.537  1.00  0.00     0.020 C 
ATOM     25  C   UNL     1       0.605   0.427   3.406  1.00  0.00     0.020 C 
ATOM     26  C   UNL     1       1.194  -2.456   3.805  1.00  0.00    -0.010 C 
ATOM     27  C   UNL     1      -0.887  -1.961   2.510  1.00  0.00    -0.010 C 
ATOM     28  C   UNL     1      -0.195  -0.445   4.402  1.00  0.00    -0.010 C 
ATOM     29  C   UNL     1       0.698  -1.567   4.958  1.00  0.00     0.007 C 
ATOM     30  C   UNL     1       0.018  -3.074   3.050  1.00  0.00     0.007 C 
ATOM     31  C   UNL     1      -1.386  -1.095   3.679  1.00  0.00     0.007 C 
ENDBRANCH  19  22
ENDBRANCH   8  18
ENDBRANCH   7   8
ENDBRANCH   5   7
ENDBRANCH   2   3
ENDBRANCH   1   2
BRANCH   1  32
ATOM     32  C   UNL     1       4.466   1.570  -3.739  1.00  0.00     0.023 C 
BRANCH  32  33
ATOM     33  C   UNL     1       3.753   2.894  -3.483  1.00  0.00     0.116 C 
BRANCH  33  34
ATOM     34  N   UNL     1       4.375   3.998  -4.196  1.00  0.00    -0.352 N 
ATOM     35  C   UNL     1       3.816   4.887  -5.083  1.00  0.00     0.251 C 
ATOM     36  H   UNL     1       5.334   4.128  -4.017  1.00  0.00     0.163 HD
ATOM     37  O   UNL     1       4.540   5.632  -5.735  1.00  0.00    -0.269 OA
BRANCH  35  38
ATOM     38  C   UNL     1       2.349   4.924  -5.265  1.00  0.00     0.039 A 
ATOM     39  C   UNL     1       1.833   4.996  -6.562  1.00  0.00     0.014 A 
ATOM     40  C   UNL     1       1.485   4.889  -4.167  1.00  0.00     0.014 A 
ATOM     41  C   UNL     1       0.450   4.971  -6.758  1.00  0.00     0.010 A 
ATOM     42  C   UNL     1       0.112   4.785  -4.369  1.00  0.00     0.010 A 
ATOM     43  C   UNL     1      -0.422   4.830  -5.666  1.00  0.00    -0.014 A 
BRANCH  43  44
ATOM     44  C   UNL     1      -1.890   4.712  -5.864  1.00  0.00     0.031 A 
ATOM     45  C   UNL     1      -2.823   5.745  -5.289  1.00  0.00     0.074 A 
ATOM     46  C   UNL     1      -2.391   3.630  -6.494  1.00  0.00     0.049 A 
ATOM     47  N   UNL     1      -4.130   5.785  -5.325  1.00  0.00    -0.248 NA
ATOM     48  C   UNL     1      -2.210   6.867  -4.558  1.00  0.00     0.031 C 
ATOM     49  C   UNL     1      -1.598   2.522  -7.032  1.00  0.00     0.029 A 
ATOM     50  N   UNL     1      -3.688   3.271  -6.766  1.00  0.00    -0.354 N 
ATOM     51  C   UNL     1      -4.497   6.908  -4.592  1.00  0.00     0.074 A 
ATOM     52  C   UNL     1      -3.276   7.506  -4.099  1.00  0.00     0.031 C 
ATOM     53  C   UNL     1      -2.423   1.614  -7.576  1.00  0.00     0.029 A 
ATOM     54  C   UNL     1      -3.803   2.052  -7.394  1.00  0.00     0.049 A 
ATOM     55  H   UNL     1      -4.463   3.832  -6.533  1.00  0.00     0.167 HD
ATOM     56  C   UNL     1      -5.735   7.410  -4.369  1.00  0.00     0.034 A 
ATOM     57  C   UNL     1      -4.895   1.359  -7.771  1.00  0.00     0.034 A 
ATOM     58  C   UNL     1      -6.945   6.830  -4.889  1.00  0.00     0.049 A 
ATOM     59  C   UNL     1      -6.258   1.952  -7.532  1.00  0.00     0.074 A 
ATOM     60  C   UNL     1      -8.238   7.316  -4.797  1.00  0.00     0.029 A 
ATOM     61  N   UNL     1      -7.016   5.632  -5.581  1.00  0.00    -0.354 N 
ATOM     62  N   UNL     1      -6.574   3.099  -6.980  1.00  0.00    -0.248 NA
ATOM     63  C   UNL     1      -7.413   1.172  -7.998  1.00  0.00     0.031 C 
ATOM     64  C   UNL     1      -9.096   6.390  -5.400  1.00  0.00     0.029 A 
ATOM     65  C   UNL     1      -8.332   5.350  -5.906  1.00  0.00     0.049 A 
ATOM     66  H   UNL     1      -6.245   5.064  -5.808  1.00  0.00     0.167 HD
ATOM     67  C   UNL     1      -7.958   3.196  -7.069  1.00  0.00     0.074 A 
ATOM     68  C   UNL     1      -8.418   2.001  -7.746  1.00  0.00     0.031 C 
ATOM     69  C   UNL     1      -8.775   4.181  -6.622  1.00  0.00     0.034 A 
BRANCH  56  70
ATOM     70  C   UNL     1      -5.846   8.672  -3.553  1.00  0.00     0.023 A 
ATOM     71  C   UNL     1      -5.397   9.896  -4.090  1.00  0.00     0.012 A 
ATOM     72  C   UNL     1      -6.453   8.659  -2.281  1.00  0.00     0.148 A 
ATOM     73  C   UNL     1      -5.514  11.079  -3.361  1.00  0.00     0.002 A 
ATOM     74  C   UNL     1      -6.611   9.849  -1.581  1.00  0.00     0.091 A 
ATOM     75  F   UNL     1      -6.858   7.484  -1.778  1.00  0.00    -0.205 F 
ATOM     76  C   UNL     1      -6.130  11.057  -2.113  1.00  0.00     0.022 A 
BRANCH  74  77
ATOM     77  S   UNL     1      -7.470   9.942  -0.006  1.00  0.00     0.127 S 
ATOM     78  O   UNL     1      -6.374  10.252   0.910  1.00  0.00    -0.237 OA
ATOM     79  O   UNL     1      -8.406  11.044  -0.232  1.00  0.00    -0.237 OA
ATOM     80  O   UNL     1      -8.098   8.643   0.189  1.00  0.00    -0.744 OA
ENDBRANCH  74  77
ENDBRANCH  56  70
BRANCH  57  81
ATOM     81  C   UNL     1      -4.746   0.050  -8.468  1.00  0.00     0.023 A 
ATOM     82  C   UNL     1      -5.098  -0.053  -9.829  1.00  0.00     0.012 A 
ATOM     83  C   UNL     1      -4.246  -1.085  -7.801  1.00  0.00     0.148 A 
ATOM     84  C   UNL     1      -4.991  -1.271 -10.502  1.00  0.00     0.002 A 
ATOM     85  C   UNL     1      -4.088  -2.281  -8.492  1.00  0.00     0.091 A 
ATOM     86  F   UNL     1      -3.925  -0.970  -6.505  1.00  0.00    -0.205 F 
ATOM     87  C   UNL     1      -4.478  -2.381  -9.837  1.00  0.00     0.022 A 
BRANCH  85  88
ATOM     88  S   UNL     1      -3.317  -3.727  -7.756  1.00  0.00     0.127 S 
ATOM     89  O   UNL     1      -4.443  -4.653  -7.666  1.00  0.00    -0.237 OA
ATOM     90  O   UNL     1      -2.311  -4.075  -8.761  1.00  0.00    -0.237 OA
ATOM     91  O   UNL     1      -2.766  -3.278  -6.485  1.00  0.00    -0.744 OA
ENDBRANCH  85  88
ENDBRANCH  57  81
BRANCH  69  92
ATOM     92  C   UNL     1     -10.252   4.042  -6.887  1.00  0.00     0.023 A 
ATOM     93  C   UNL     1     -11.008   3.078  -6.190  1.00  0.00     0.012 A 
ATOM     94  C   UNL     1     -10.904   4.918  -7.778  1.00  0.00     0.148 A 
ATOM     95  C   UNL     1     -12.382   2.965  -6.403  1.00  0.00     0.002 A 
ATOM     96  C   UNL     1     -12.281   4.836  -7.944  1.00  0.00     0.091 A 
ATOM     97  F   UNL     1     -10.166   5.818  -8.444  1.00  0.00    -0.205 F 
ATOM     98  C   UNL     1     -13.019   3.851  -7.269  1.00  0.00     0.022 A 
BRANCH  96  99
ATOM     99  S   UNL     1     -13.202   5.997  -8.959  1.00  0.00     0.127 S 
ATOM    100  O   UNL     1     -13.602   5.155 -10.086  1.00  0.00    -0.237 OA
ATOM    101  O   UNL     1     -14.296   6.386  -8.069  1.00  0.00    -0.237 OA
ATOM    102  O   UNL     1     -12.275   7.073  -9.284  1.00  0.00    -0.744 OA
ENDBRANCH  96  99
ENDBRANCH  69  92
ENDBRANCH  43  44
ENDBRANCH  35  38
ENDBRANCH  33  34
ENDBRANCH  32  33
ENDBRANCH   1  32
TORSDOF 19
