REMARK SMILES CC1(C)[C@@]2(C(=O)NCCCCNC(=O)c3ccc(-c4c5nc(c(-c6cccc(S(=O)(=O)[O-])c6F)c6ccc([nH]6)c(-c6cccc(S(=O)(=O)[O-])c6F)c6nc(c(-c7cccc(S(=O)(=O)[O-])c7F)c7ccc4[nH]7)C=C6)C=C5)cc3)CC[C@]1(C)/C(=N/NC(=O)c1ccc(Cl)cc1)C2
REMARK SMILES IDX 10 1 9 2 8 3 7 4 5 5 6 6 4 8 1 9 2 10 3 11 80 12 78 13 94 14
REMARK SMILES IDX 79 15 81 16 82 17 83 18 84 19 85 20 86 22 87 23 88 24 93 25
REMARK SMILES IDX 89 26 92 27 90 28 91 29 11 30 12 31 13 32 14 34 15 35 16 36
REMARK SMILES IDX 77 37 17 38 76 39 18 40 19 41 20 42 70 43 21 44 75 45 69 46
REMARK SMILES IDX 71 47 22 48 74 49 68 50 67 51 23 53 55 54 35 55 54 56 36 57
REMARK SMILES IDX 39 58 53 59 72 60 37 61 38 62 52 64 73 65 40 66 24 67 25 68
REMARK SMILES IDX 33 69 26 70 28 71 34 72 27 73 29 74 30 75 31 76 32 77 56 78
REMARK SMILES IDX 57 79 65 80 58 81 60 82 66 83 59 84 61 85 62 86 63 87 64 88
REMARK SMILES IDX 41 89 42 90 50 91 43 92 45 93 51 94 44 95 46 96 47 97 48 98
REMARK SMILES IDX 49 99
REMARK H PARENT 7 7 84 21 12 33 71 52 39 63
REMARK Flexibility Score: inf
ROOT
ATOM      1  C   UNL     1      -5.087   0.066  -2.987  1.00  0.00     0.023 C 
ENDROOT
BRANCH   1   2
ATOM      2  C   UNL     1      -3.681   0.292  -3.567  1.00  0.00     0.023 C 
BRANCH   2   3
ATOM      3  C   UNL     1      -2.662   0.935  -2.616  1.00  0.00     0.116 C 
BRANCH   3   4
ATOM      4  N   UNL     1      -2.516   0.306  -1.305  1.00  0.00    -0.356 N 
ATOM      5  C   UNL     1      -1.406  -0.074  -0.598  1.00  0.00     0.227 C 
ATOM      6  O   UNL     1      -1.442   0.121   0.620  1.00  0.00    -0.274 OA
ATOM      7  H   UNL     1      -3.368   0.122  -0.848  1.00  0.00     0.163 HD
BRANCH   5   8
ATOM      8  C   UNL     1      -0.273  -0.896  -1.217  1.00  0.00     0.060 C 
ATOM      9  C   UNL     1       1.785   0.330  -0.226  1.00  0.00     0.013 C 
ATOM     10  C   UNL     1       1.072  -1.028  -0.421  1.00  0.00    -0.010 C 
ATOM     11  C   UNL     1       1.038  -1.709   0.965  1.00  0.00     0.013 C 
ATOM     12  C   UNL     1       1.696  -1.968  -1.507  1.00  0.00     0.014 C 
ATOM     13  C   UNL     1       0.217  -0.454  -2.630  1.00  0.00     0.019 C 
ATOM     14  C   UNL     1      -0.727  -2.373  -1.331  1.00  0.00     0.071 C 
ATOM     15  C   UNL     1       1.592  -1.131  -2.792  1.00  0.00     0.014 C 
ATOM     16  C   UNL     1       3.074  -2.536  -1.243  1.00  0.00     0.018 C 
ATOM     17  C   UNL     1       0.565  -3.019  -1.710  1.00  0.00     0.046 C 
ATOM     18  N   UNL     1       0.846  -4.144  -2.280  1.00  0.00    -0.181 NA
BRANCH  18  19
ATOM     19  N   UNL     1       0.114  -5.195  -2.727  1.00  0.00    -0.243 N 
ATOM     20  C   UNL     1      -1.173  -5.682  -2.783  1.00  0.00     0.271 C 
ATOM     21  H   UNL     1       0.716  -5.838  -3.168  1.00  0.00     0.194 HD
ATOM     22  O   UNL     1      -1.367  -6.784  -3.304  1.00  0.00    -0.267 OA
BRANCH  20  23
ATOM     23  C   UNL     1      -2.352  -5.010  -2.254  1.00  0.00     0.041 A 
ATOM     24  C   UNL     1      -3.029  -5.560  -1.158  1.00  0.00     0.015 A 
ATOM     25  C   UNL     1      -2.868  -3.901  -2.902  1.00  0.00     0.015 A 
ATOM     26  C   UNL     1      -4.090  -4.866  -0.571  1.00  0.00     0.021 A 
ATOM     27  C   UNL     1      -3.876  -3.181  -2.265  1.00  0.00     0.021 A 
ATOM     28  C   UNL     1      -4.460  -3.634  -1.088  1.00  0.00     0.041 A 
ATOM     29  Cl  UNL     1      -5.590  -2.640  -0.261  1.00  0.00    -0.084 Cl
ENDBRANCH  20  23
ENDBRANCH  18  19
ENDBRANCH   5   8
ENDBRANCH   3   4
ENDBRANCH   2   3
ENDBRANCH   1   2
BRANCH   1  30
ATOM     30  C   UNL     1      -6.147   1.037  -3.471  1.00  0.00     0.116 C 
BRANCH  30  31
ATOM     31  N   UNL     1      -6.459   0.862  -4.882  1.00  0.00    -0.352 N 
ATOM     32  C   UNL     1      -7.647   1.097  -5.544  1.00  0.00     0.251 C 
ATOM     33  H   UNL     1      -5.720   0.531  -5.442  1.00  0.00     0.163 HD
ATOM     34  O   UNL     1      -7.754   0.788  -6.720  1.00  0.00    -0.269 OA
BRANCH  32  35
ATOM     35  C   UNL     1      -8.799   1.683  -4.813  1.00  0.00     0.039 A 
ATOM     36  C   UNL     1     -10.086   1.214  -5.095  1.00  0.00     0.014 A 
ATOM     37  C   UNL     1      -8.621   2.683  -3.856  1.00  0.00     0.014 A 
ATOM     38  C   UNL     1     -11.180   1.715  -4.383  1.00  0.00     0.010 A 
ATOM     39  C   UNL     1      -9.692   3.106  -3.080  1.00  0.00     0.010 A 
ATOM     40  C   UNL     1     -10.987   2.649  -3.354  1.00  0.00    -0.014 A 
BRANCH  40  41
ATOM     41  C   UNL     1     -12.125   3.196  -2.575  1.00  0.00     0.031 A 
ATOM     42  C   UNL     1     -12.422   4.673  -2.626  1.00  0.00     0.074 A 
ATOM     43  C   UNL     1     -12.821   2.386  -1.754  1.00  0.00     0.049 A 
ATOM     44  N   UNL     1     -13.340   5.351  -1.989  1.00  0.00    -0.248 NA
ATOM     45  C   UNL     1     -11.548   5.507  -3.471  1.00  0.00     0.031 C 
ATOM     46  C   UNL     1     -12.548   0.963  -1.537  1.00  0.00     0.029 A 
ATOM     47  N   UNL     1     -13.885   2.647  -0.929  1.00  0.00    -0.354 N 
ATOM     48  C   UNL     1     -13.119   6.686  -2.311  1.00  0.00     0.074 A 
ATOM     49  C   UNL     1     -11.960   6.729  -3.172  1.00  0.00     0.031 C 
ATOM     50  C   UNL     1     -13.427   0.476  -0.645  1.00  0.00     0.029 A 
ATOM     51  C   UNL     1     -14.315   1.551  -0.217  1.00  0.00     0.049 A 
ATOM     52  H   UNL     1     -14.302   3.536  -0.853  1.00  0.00     0.167 HD
ATOM     53  C   UNL     1     -13.839   7.774  -1.951  1.00  0.00     0.034 A 
ATOM     54  C   UNL     1     -15.319   1.430   0.674  1.00  0.00     0.034 A 
ATOM     55  C   UNL     1     -15.043   7.705  -1.171  1.00  0.00     0.049 A 
ATOM     56  C   UNL     1     -16.177   2.635   0.958  1.00  0.00     0.074 A 
ATOM     57  C   UNL     1     -15.932   8.719  -0.869  1.00  0.00     0.029 A 
ATOM     58  N   UNL     1     -15.528   6.552  -0.575  1.00  0.00    -0.354 N 
ATOM     59  N   UNL     1     -16.073   3.852   0.481  1.00  0.00    -0.248 NA
ATOM     60  C   UNL     1     -17.317   2.441   1.865  1.00  0.00     0.031 C 
ATOM     61  C   UNL     1     -16.951   8.181  -0.076  1.00  0.00     0.029 A 
ATOM     62  C   UNL     1     -16.702   6.829   0.101  1.00  0.00     0.049 A 
ATOM     63  H   UNL     1     -15.101   5.666  -0.625  1.00  0.00     0.167 HD
ATOM     64  C   UNL     1     -17.149   4.559   1.002  1.00  0.00     0.074 A 
ATOM     65  C   UNL     1     -17.909   3.626   1.809  1.00  0.00     0.031 C 
ATOM     66  C   UNL     1     -17.472   5.867   0.847  1.00  0.00     0.034 A 
BRANCH  53  67
ATOM     67  C   UNL     1     -13.389   9.120  -2.455  1.00  0.00     0.023 A 
ATOM     68  C   UNL     1     -13.551   9.443  -3.817  1.00  0.00     0.012 A 
ATOM     69  C   UNL     1     -12.868  10.086  -1.573  1.00  0.00     0.148 A 
ATOM     70  C   UNL     1     -13.172  10.695  -4.301  1.00  0.00     0.002 A 
ATOM     71  C   UNL     1     -12.533  11.347  -2.054  1.00  0.00     0.091 A 
ATOM     72  F   UNL     1     -12.701   9.754  -0.285  1.00  0.00    -0.205 F 
ATOM     73  C   UNL     1     -12.674  11.649  -3.419  1.00  0.00     0.022 A 
BRANCH  71  74
ATOM     74  S   UNL     1     -11.954  12.673  -0.989  1.00  0.00     0.127 S 
ATOM     75  O   UNL     1     -10.559  12.802  -1.410  1.00  0.00    -0.237 OA
ATOM     76  O   UNL     1     -12.816  13.786  -1.387  1.00  0.00    -0.237 OA
ATOM     77  O   UNL     1     -12.151  12.208   0.377  1.00  0.00    -0.744 OA
ENDBRANCH  71  74
ENDBRANCH  53  67
BRANCH  54  78
ATOM     78  C   UNL     1     -15.627   0.104   1.282  1.00  0.00     0.023 A 
ATOM     79  C   UNL     1     -16.802  -0.573   0.901  1.00  0.00     0.012 A 
ATOM     80  C   UNL     1     -14.760  -0.502   2.211  1.00  0.00     0.148 A 
ATOM     81  C   UNL     1     -17.127  -1.810   1.459  1.00  0.00     0.002 A 
ATOM     82  C   UNL     1     -15.063  -1.760   2.724  1.00  0.00     0.091 A 
ATOM     83  F   UNL     1     -13.653   0.160   2.576  1.00  0.00    -0.205 F 
ATOM     84  C   UNL     1     -16.254  -2.408   2.363  1.00  0.00     0.022 A 
BRANCH  82  85
ATOM     85  S   UNL     1     -13.922  -2.652   3.787  1.00  0.00     0.127 S 
ATOM     86  O   UNL     1     -14.497  -2.418   5.109  1.00  0.00    -0.237 OA
ATOM     87  O   UNL     1     -14.049  -4.025   3.296  1.00  0.00    -0.237 OA
ATOM     88  O   UNL     1     -12.618  -2.051   3.538  1.00  0.00    -0.744 OA
ENDBRANCH  82  85
ENDBRANCH  54  78
BRANCH  66  89
ATOM     89  C   UNL     1     -18.710   6.364   1.541  1.00  0.00     0.023 A 
ATOM     90  C   UNL     1     -18.697   6.550   2.937  1.00  0.00     0.012 A 
ATOM     91  C   UNL     1     -19.853   6.724   0.802  1.00  0.00     0.148 A 
ATOM     92  C   UNL     1     -19.817   7.057   3.592  1.00  0.00     0.002 A 
ATOM     93  C   UNL     1     -20.948   7.275   1.456  1.00  0.00     0.091 A 
ATOM     94  F   UNL     1     -19.851   6.521  -0.524  1.00  0.00    -0.205 F 
ATOM     95  C   UNL     1     -20.937   7.431   2.852  1.00  0.00     0.022 A 
BRANCH  93  96
ATOM     96  S   UNL     1     -22.388   7.876   0.566  1.00  0.00     0.127 S 
ATOM     97  O   UNL     1     -23.351   6.801   0.795  1.00  0.00    -0.237 OA
ATOM     98  O   UNL     1     -22.690   9.126   1.265  1.00  0.00    -0.237 OA
ATOM     99  O   UNL     1     -21.955   8.051  -0.814  1.00  0.00    -0.744 OA
ENDBRANCH  93  96
ENDBRANCH  66  89
ENDBRANCH  40  41
ENDBRANCH  32  35
ENDBRANCH  30  31
ENDBRANCH   1  30
TORSDOF 16
