REMARK SMILES COCC[C@]1(C(=O)NCCCCNC(=O)c2ccc(-c3c4nc(c(-c5cccc(S(=O)(=O)[O-])c5F)c5ccc([nH]5)c(-c5cccc(S(=O)(=O)[O-])c5F)c5nc(c(-c6cccc(S(=O)(=O)[O-])c6F)c6ccc3[nH]6)C=C5)C=C4)cc2)CCCN(C(=O)c2ccc(=O)[nH]c2)C1
REMARK SMILES IDX 10 1 9 2 8 3 6 4 7 5 5 7 79 8 92 9 80 10 82 11 81 12 4 13
REMARK SMILES IDX 3 14 2 15 1 16 83 17 84 18 85 19 86 20 91 21 87 22 90 23
REMARK SMILES IDX 88 24 89 26 11 27 12 28 13 29 14 30 15 32 16 33 17 34 78 35
REMARK SMILES IDX 18 36 77 37 19 38 20 39 21 40 71 41 22 42 76 43 70 44 72 45
REMARK SMILES IDX 23 46 75 47 69 48 68 49 24 51 56 52 36 53 55 54 37 55 40 56
REMARK SMILES IDX 54 57 73 58 38 59 39 60 53 62 74 63 41 64 25 65 26 66 34 67
REMARK SMILES IDX 27 68 29 69 35 70 28 71 30 72 31 73 32 74 33 75 57 76 58 77
REMARK SMILES IDX 66 78 59 79 61 80 67 81 60 82 62 83 63 84 64 85 65 86 42 87
REMARK SMILES IDX 43 88 51 89 44 90 46 91 52 92 45 93 47 94 48 95 49 96 50 97
REMARK H PARENT 8 6 90 25 13 31 72 50 40 61
REMARK Flexibility Score: inf
ROOT
ATOM      1  C   UNL     1       1.339   4.790  -1.834  1.00  0.00     0.023 C 
ENDROOT
BRANCH   1   2
ATOM      2  C   UNL     1       2.215   3.547  -1.667  1.00  0.00     0.116 C 
BRANCH   2   3
ATOM      3  N   UNL     1       1.558   2.515  -0.889  1.00  0.00    -0.356 N 
ATOM      4  C   UNL     1       0.760   1.472  -1.232  1.00  0.00     0.228 C 
ATOM      5  O   UNL     1      -0.041   1.151  -0.349  1.00  0.00    -0.274 OA
ATOM      6  H   UNL     1       1.723   2.585   0.079  1.00  0.00     0.163 HD
BRANCH   4   7
ATOM      7  C   UNL     1       0.716   0.822  -2.637  1.00  0.00     0.069 C 
ATOM      8  C   UNL     1      -0.172   1.808  -3.477  1.00  0.00     0.021 C 
ATOM      9  C   UNL     1       2.105   0.567  -3.295  1.00  0.00     0.136 C 
ATOM     10  C   UNL     1       0.009   1.811  -4.992  1.00  0.00     0.023 C 
ATOM     11  N   UNL     1       1.995   0.502  -4.761  1.00  0.00    -0.338 N 
ATOM     12  C   UNL     1       1.478   1.725  -5.355  1.00  0.00     0.120 C 
BRANCH   7  13
ATOM     13  C   UNL     1      -0.038  -0.556  -2.540  1.00  0.00     0.047 C 
BRANCH  13  14
ATOM     14  C   UNL     1       0.631  -1.698  -1.738  1.00  0.00     0.161 C 
BRANCH  14  15
ATOM     15  O   UNL     1       0.463  -1.539  -0.335  1.00  0.00    -0.385 OA
ATOM     16  C   UNL     1       1.649  -1.197   0.368  1.00  0.00     0.194 C 
ENDBRANCH  14  15
ENDBRANCH  13  14
ENDBRANCH   7  13
BRANCH  11  17
ATOM     17  C   UNL     1       2.006  -0.732  -5.410  1.00  0.00     0.255 C 
ATOM     18  O   UNL     1       2.238  -1.797  -4.844  1.00  0.00    -0.269 OA
BRANCH  17  19
ATOM     19  C   UNL     1       1.616  -0.734  -6.854  1.00  0.00     0.056 A 
ATOM     20  C   UNL     1       2.464  -0.174  -7.889  1.00  0.00     0.021 A 
ATOM     21  C   UNL     1       0.404  -1.214  -7.178  1.00  0.00     0.099 A 
ATOM     22  C   UNL     1       2.020  -0.065  -9.151  1.00  0.00     0.072 A 
ATOM     23  N   UNL     1      -0.053  -1.126  -8.474  1.00  0.00    -0.328 N 
ATOM     24  C   UNL     1       0.660  -0.555  -9.502  1.00  0.00     0.247 A 
ATOM     25  H   UNL     1      -0.944  -1.493  -8.677  1.00  0.00     0.169 HD
ATOM     26  O   UNL     1       0.220  -0.447 -10.641  1.00  0.00    -0.270 OA
ENDBRANCH  17  19
ENDBRANCH  11  17
ENDBRANCH   4   7
ENDBRANCH   2   3
ENDBRANCH   1   2
BRANCH   1  27
ATOM     27  C   UNL     1       1.004   5.537  -0.547  1.00  0.00     0.023 C 
BRANCH  27  28
ATOM     28  C   UNL     1       2.206   6.022   0.244  1.00  0.00     0.116 C 
BRANCH  28  29
ATOM     29  N   UNL     1       3.141   6.789  -0.565  1.00  0.00    -0.352 N 
ATOM     30  C   UNL     1       3.785   7.964  -0.269  1.00  0.00     0.251 C 
ATOM     31  H   UNL     1       3.340   6.411  -1.452  1.00  0.00     0.163 HD
ATOM     32  O   UNL     1       4.432   8.538  -1.139  1.00  0.00    -0.269 OA
BRANCH  30  33
ATOM     33  C   UNL     1       3.673   8.539   1.087  1.00  0.00     0.039 A 
ATOM     34  C   UNL     1       3.460   9.912   1.220  1.00  0.00     0.014 A 
ATOM     35  C   UNL     1       3.767   7.726   2.220  1.00  0.00     0.014 A 
ATOM     36  C   UNL     1       3.294  10.461   2.491  1.00  0.00     0.010 A 
ATOM     37  C   UNL     1       3.509   8.259   3.477  1.00  0.00     0.010 A 
ATOM     38  C   UNL     1       3.291   9.635   3.628  1.00  0.00    -0.014 A 
BRANCH  38  39
ATOM     39  C   UNL     1       3.072  10.201   4.981  1.00  0.00     0.031 A 
ATOM     40  C   UNL     1       4.149  10.101   6.028  1.00  0.00     0.074 A 
ATOM     41  C   UNL     1       1.879  10.751   5.285  1.00  0.00     0.049 A 
ATOM     42  N   UNL     1       4.142  10.539   7.260  1.00  0.00    -0.248 NA
ATOM     43  C   UNL     1       5.383   9.389   5.655  1.00  0.00     0.031 C 
ATOM     44  C   UNL     1       0.726  10.821   4.384  1.00  0.00     0.029 A 
ATOM     45  N   UNL     1       1.434  11.340   6.440  1.00  0.00    -0.354 N 
ATOM     46  C   UNL     1       5.350  10.133   7.815  1.00  0.00     0.074 A 
ATOM     47  C   UNL     1       6.046   9.372   6.802  1.00  0.00     0.031 C 
ATOM     48  C   UNL     1      -0.287  11.436   5.014  1.00  0.00     0.029 A 
ATOM     49  C   UNL     1       0.133  11.781   6.369  1.00  0.00     0.049 A 
ATOM     50  H   UNL     1       1.992  11.438   7.245  1.00  0.00     0.167 HD
ATOM     51  C   UNL     1       5.851  10.398   9.044  1.00  0.00     0.034 A 
ATOM     52  C   UNL     1      -0.631  12.399   7.290  1.00  0.00     0.034 A 
ATOM     53  C   UNL     1       5.171  11.190  10.032  1.00  0.00     0.049 A 
ATOM     54  C   UNL     1      -0.029  12.733   8.627  1.00  0.00     0.074 A 
ATOM     55  C   UNL     1       5.625  11.590  11.276  1.00  0.00     0.029 A 
ATOM     56  N   UNL     1       3.889  11.698   9.891  1.00  0.00    -0.354 N 
ATOM     57  N   UNL     1       1.177  12.483   9.075  1.00  0.00    -0.248 NA
ATOM     58  C   UNL     1      -0.879  13.474   9.570  1.00  0.00     0.031 C 
ATOM     59  C   UNL     1       4.606  12.320  11.897  1.00  0.00     0.029 A 
ATOM     60  C   UNL     1       3.532  12.405  11.026  1.00  0.00     0.049 A 
ATOM     61  H   UNL     1       3.316  11.574   9.100  1.00  0.00     0.167 HD
ATOM     62  C   UNL     1       1.247  13.072  10.333  1.00  0.00     0.074 A 
ATOM     63  C   UNL     1      -0.034  13.707  10.566  1.00  0.00     0.031 C 
ATOM     64  C   UNL     1       2.272  13.077  11.220  1.00  0.00     0.034 A 
BRANCH  51  65
ATOM     65  C   UNL     1       7.226   9.871   9.367  1.00  0.00     0.023 A 
ATOM     66  C   UNL     1       8.353  10.425   8.725  1.00  0.00     0.012 A 
ATOM     67  C   UNL     1       7.410   8.868  10.338  1.00  0.00     0.148 A 
ATOM     68  C   UNL     1       9.636   9.964   9.015  1.00  0.00     0.002 A 
ATOM     69  C   UNL     1       8.696   8.447  10.657  1.00  0.00     0.091 A 
ATOM     70  F   UNL     1       6.327   8.337  10.923  1.00  0.00    -0.205 F 
ATOM     71  C   UNL     1       9.808   8.984   9.988  1.00  0.00     0.022 A 
BRANCH  69  72
ATOM     72  S   UNL     1       9.031   7.249  11.953  1.00  0.00     0.127 S 
ATOM     73  O   UNL     1       9.467   6.090  11.177  1.00  0.00    -0.237 OA
ATOM     74  O   UNL     1      10.093   7.908  12.714  1.00  0.00    -0.237 OA
ATOM     75  O   UNL     1       7.779   7.081  12.678  1.00  0.00    -0.744 OA
ENDBRANCH  69  72
ENDBRANCH  51  65
BRANCH  52  76
ATOM     76  C   UNL     1      -2.020  12.816   6.946  1.00  0.00     0.023 A 
ATOM     77  C   UNL     1      -2.317  14.185   6.800  1.00  0.00     0.012 A 
ATOM     78  C   UNL     1      -3.039  11.867   6.738  1.00  0.00     0.148 A 
ATOM     79  C   UNL     1      -3.611  14.604   6.488  1.00  0.00     0.002 A 
ATOM     80  C   UNL     1      -4.312  12.288   6.372  1.00  0.00     0.091 A 
ATOM     81  F   UNL     1      -2.739  10.569   6.890  1.00  0.00    -0.205 F 
ATOM     82  C   UNL     1      -4.605  13.656   6.265  1.00  0.00     0.022 A 
BRANCH  80  83
ATOM     83  S   UNL     1      -5.619  11.135   5.935  1.00  0.00     0.127 S 
ATOM     84  O   UNL     1      -6.535  11.281   7.063  1.00  0.00    -0.237 OA
ATOM     85  O   UNL     1      -6.102  11.693   4.671  1.00  0.00    -0.237 OA
ATOM     86  O   UNL     1      -4.971   9.837   5.808  1.00  0.00    -0.744 OA
ENDBRANCH  80  83
ENDBRANCH  52  76
BRANCH  64  87
ATOM     87  C   UNL     1       2.077  13.834  12.507  1.00  0.00     0.023 A 
ATOM     88  C   UNL     1       1.204  13.335  13.494  1.00  0.00     0.012 A 
ATOM     89  C   UNL     1       2.809  15.010  12.761  1.00  0.00     0.148 A 
ATOM     90  C   UNL     1       1.033  14.018  14.698  1.00  0.00     0.002 A 
ATOM     91  C   UNL     1       2.673  15.656  13.983  1.00  0.00     0.091 A 
ATOM     92  F   UNL     1       3.620  15.480  11.801  1.00  0.00    -0.205 F 
ATOM     93  C   UNL     1       1.775  15.170  14.947  1.00  0.00     0.022 A 
BRANCH  91  94
ATOM     94  S   UNL     1       3.665  17.087  14.427  1.00  0.00     0.127 S 
ATOM     95  O   UNL     1       2.690  18.171  14.315  1.00  0.00    -0.237 OA
ATOM     96  O   UNL     1       4.072  16.771  15.796  1.00  0.00    -0.237 OA
ATOM     97  O   UNL     1       4.760  17.127  13.467  1.00  0.00    -0.744 OA
ENDBRANCH  91  94
ENDBRANCH  64  87
ENDBRANCH  38  39
ENDBRANCH  30  33
ENDBRANCH  28  29
ENDBRANCH  27  28
ENDBRANCH   1  27
TORSDOF 19
