REMARK SMILES COc1cc(/C=C/C(=O)NCCCCNC(=O)c2ccc(-c3c4nc(c(-c5cccc(S(=O)(=O)[O-])c5F)c5ccc([nH]5)c(-c5cccc(S(=O)(=O)[O-])c5F)c5nc(c(-c6cccc(S(=O)(=O)[O-])c6F)c6ccc3[nH]6)C=C5)C=C4)cc2)cc(OC)c1O
REMARK SMILES IDX 13 1 12 2 11 3 10 4 8 5 9 6 7 8 6 9 5 10 3 11 4 12 85 13
REMARK SMILES IDX 82 14 81 15 2 16 1 17 86 18 83 20 84 21 14 22 15 23 16 24
REMARK SMILES IDX 17 26 18 27 19 28 80 29 20 30 79 31 21 32 22 33 23 34 73 35
REMARK SMILES IDX 24 36 78 37 72 38 74 39 25 40 77 41 71 42 70 43 26 45 58 46
REMARK SMILES IDX 38 47 57 48 39 49 42 50 56 51 75 52 40 53 41 54 55 56 76 57
REMARK SMILES IDX 43 58 27 59 28 60 36 61 29 62 31 63 37 64 30 65 32 66 33 67
REMARK SMILES IDX 34 68 35 69 59 70 60 71 68 72 61 73 63 74 69 75 62 76 64 77
REMARK SMILES IDX 65 78 66 79 67 80 44 81 45 82 53 83 46 84 48 85 54 86 47 87
REMARK SMILES IDX 49 88 50 89 51 90 52 91
REMARK H PARENT 10 7 86 19 15 25 74 44 42 55
REMARK Flexibility Score: inf
ROOT
ATOM      1  C   UNL     1      -6.269   7.627  -2.990  1.00  0.00     0.023 C 
ENDROOT
BRANCH   1   2
ATOM      2  C   UNL     1      -5.383   6.380  -2.899  1.00  0.00     0.023 C 
BRANCH   2   3
ATOM      3  C   UNL     1      -4.018   6.519  -3.572  1.00  0.00     0.116 C 
BRANCH   3   4
ATOM      4  N   UNL     1      -3.100   7.283  -2.747  1.00  0.00    -0.353 N 
ATOM      5  C   UNL     1      -2.007   6.890  -2.041  1.00  0.00     0.243 C 
ATOM      6  O   UNL     1      -1.299   7.731  -1.490  1.00  0.00    -0.270 OA
ATOM      7  H   UNL     1      -3.304   8.244  -2.688  1.00  0.00     0.163 HD
BRANCH   5   8
ATOM      8  C   UNL     1      -1.595   5.468  -1.983  1.00  0.00     0.072 C 
ATOM      9  C   UNL     1      -2.423   4.445  -1.731  1.00  0.00     0.014 C 
BRANCH   9  10
ATOM     10  C   UNL     1      -1.989   3.048  -1.606  1.00  0.00    -0.018 A 
ATOM     11  C   UNL     1      -0.570   1.332  -0.632  1.00  0.00     0.165 A 
ATOM     12  C   UNL     1      -0.884   2.680  -0.833  1.00  0.00     0.058 A 
ATOM     13  C   UNL     1      -1.392   0.335  -1.184  1.00  0.00     0.200 A 
ATOM     14  C   UNL     1      -2.475   0.684  -2.001  1.00  0.00     0.165 A 
ATOM     15  C   UNL     1      -2.765   2.042  -2.194  1.00  0.00     0.058 A 
BRANCH  11  16
ATOM     16  O   UNL     1       0.490   1.112   0.210  1.00  0.00    -0.493 OA
ATOM     17  C   UNL     1       1.361   0.036  -0.131  1.00  0.00     0.278 C 
ENDBRANCH  11  16
BRANCH  13  18
ATOM     18  O   UNL     1      -1.188  -0.971  -0.829  1.00  0.00    -0.502 OA
ATOM     19  H   UNL     1      -0.462  -1.200  -0.282  1.00  0.00     0.293 HD
ENDBRANCH  13  18
BRANCH  14  20
ATOM     20  O   UNL     1      -3.377  -0.140  -2.620  1.00  0.00    -0.493 OA
ATOM     21  C   UNL     1      -3.178  -1.543  -2.547  1.00  0.00     0.278 C 
ENDBRANCH  14  20
ENDBRANCH   9  10
ENDBRANCH   5   8
ENDBRANCH   3   4
ENDBRANCH   2   3
ENDBRANCH   1   2
BRANCH   1  22
ATOM     22  C   UNL     1      -6.639   8.066  -4.405  1.00  0.00     0.116 C 
BRANCH  22  23
ATOM     23  N   UNL     1      -7.288   7.021  -5.184  1.00  0.00    -0.352 N 
ATOM     24  C   UNL     1      -8.252   7.149  -6.159  1.00  0.00     0.251 C 
ATOM     25  H   UNL     1      -7.000   6.101  -4.987  1.00  0.00     0.163 HD
ATOM     26  O   UNL     1      -8.765   6.155  -6.652  1.00  0.00    -0.269 OA
BRANCH  24  27
ATOM     27  C   UNL     1      -8.687   8.501  -6.573  1.00  0.00     0.039 A 
ATOM     28  C   UNL     1     -10.054   8.788  -6.595  1.00  0.00     0.014 A 
ATOM     29  C   UNL     1      -7.751   9.485  -6.899  1.00  0.00     0.014 A 
ATOM     30  C   UNL     1     -10.481  10.089  -6.871  1.00  0.00     0.010 A 
ATOM     31  C   UNL     1      -8.175  10.794  -7.113  1.00  0.00     0.010 A 
ATOM     32  C   UNL     1      -9.542  11.110  -7.092  1.00  0.00    -0.014 A 
BRANCH  32  33
ATOM     33  C   UNL     1      -9.967  12.523  -7.257  1.00  0.00     0.031 A 
ATOM     34  C   UNL     1      -9.719  13.249  -8.549  1.00  0.00     0.074 A 
ATOM     35  C   UNL     1     -10.483  13.182  -6.200  1.00  0.00     0.049 A 
ATOM     36  N   UNL     1      -9.966  14.496  -8.853  1.00  0.00    -0.248 NA
ATOM     37  C   UNL     1      -9.085  12.481  -9.634  1.00  0.00     0.031 C 
ATOM     38  C   UNL     1     -10.688  12.612  -4.866  1.00  0.00     0.029 A 
ATOM     39  N   UNL     1     -10.899  14.484  -6.071  1.00  0.00    -0.354 N 
ATOM     40  C   UNL     1      -9.490  14.675 -10.146  1.00  0.00     0.074 A 
ATOM     41  C   UNL     1      -8.912  13.414 -10.560  1.00  0.00     0.031 C 
ATOM     42  C   UNL     1     -11.190  13.557  -4.056  1.00  0.00     0.029 A 
ATOM     43  C   UNL     1     -11.321  14.805  -4.802  1.00  0.00     0.049 A 
ATOM     44  H   UNL     1     -10.896  15.127  -6.817  1.00  0.00     0.167 HD
ATOM     45  C   UNL     1      -9.556  15.777 -10.929  1.00  0.00     0.034 A 
ATOM     46  C   UNL     1     -11.761  15.973  -4.294  1.00  0.00     0.034 A 
ATOM     47  C   UNL     1     -10.175  17.013 -10.531  1.00  0.00     0.049 A 
ATOM     48  C   UNL     1     -11.875  17.167  -5.202  1.00  0.00     0.074 A 
ATOM     49  C   UNL     1     -10.381  18.154 -11.286  1.00  0.00     0.029 A 
ATOM     50  N   UNL     1     -10.685  17.272  -9.268  1.00  0.00    -0.354 N 
ATOM     51  N   UNL     1     -11.581  17.264  -6.476  1.00  0.00    -0.248 NA
ATOM     52  C   UNL     1     -12.415  18.401  -4.614  1.00  0.00     0.031 C 
ATOM     53  C   UNL     1     -11.004  19.109 -10.474  1.00  0.00     0.029 A 
ATOM     54  C   UNL     1     -11.199  18.556  -9.218  1.00  0.00     0.049 A 
ATOM     55  H   UNL     1     -10.681  16.636  -8.517  1.00  0.00     0.167 HD
ATOM     56  C   UNL     1     -11.931  18.557  -6.851  1.00  0.00     0.074 A 
ATOM     57  C   UNL     1     -12.480  19.198  -5.673  1.00  0.00     0.031 C 
ATOM     58  C   UNL     1     -11.793  19.163  -8.055  1.00  0.00     0.034 A 
BRANCH  45  59
ATOM     59  C   UNL     1      -9.001  15.677 -12.325  1.00  0.00     0.023 A 
ATOM     60  C   UNL     1      -9.701  14.929 -13.294  1.00  0.00     0.012 A 
ATOM     61  C   UNL     1      -7.829  16.364 -12.697  1.00  0.00     0.148 A 
ATOM     62  C   UNL     1      -9.228  14.839 -14.602  1.00  0.00     0.002 A 
ATOM     63  C   UNL     1      -7.386  16.304 -14.014  1.00  0.00     0.091 A 
ATOM     64  F   UNL     1      -7.164  17.052 -11.758  1.00  0.00    -0.205 F 
ATOM     65  C   UNL     1      -8.078  15.534 -14.964  1.00  0.00     0.022 A 
BRANCH  63  66
ATOM     66  S   UNL     1      -5.957  17.224 -14.597  1.00  0.00     0.127 S 
ATOM     67  O   UNL     1      -4.967  16.160 -14.758  1.00  0.00    -0.237 OA
ATOM     68  O   UNL     1      -6.447  17.794 -15.852  1.00  0.00    -0.237 OA
ATOM     69  O   UNL     1      -5.663  18.203 -13.561  1.00  0.00    -0.744 OA
ENDBRANCH  63  66
ENDBRANCH  45  59
BRANCH  46  70
ATOM     70  C   UNL     1     -12.204  16.045  -2.873  1.00  0.00     0.023 A 
ATOM     71  C   UNL     1     -13.576  16.176  -2.587  1.00  0.00     0.012 A 
ATOM     72  C   UNL     1     -11.287  15.947  -1.810  1.00  0.00     0.148 A 
ATOM     73  C   UNL     1     -14.026  16.237  -1.268  1.00  0.00     0.002 A 
ATOM     74  C   UNL     1     -11.746  15.954  -0.497  1.00  0.00     0.091 A 
ATOM     75  F   UNL     1      -9.983  15.837  -2.102  1.00  0.00    -0.205 F 
ATOM     76  C   UNL     1     -13.113  16.115  -0.224  1.00  0.00     0.022 A 
BRANCH  74  77
ATOM     77  S   UNL     1     -10.656  15.668   0.902  1.00  0.00     0.127 S 
ATOM     78  O   UNL     1     -10.544  17.008   1.473  1.00  0.00    -0.237 OA
ATOM     79  O   UNL     1     -11.431  14.719   1.703  1.00  0.00    -0.237 OA
ATOM     80  O   UNL     1      -9.435  15.112   0.336  1.00  0.00    -0.744 OA
ENDBRANCH  74  77
ENDBRANCH  46  70
BRANCH  58  81
ATOM     81  C   UNL     1     -12.265  20.588  -8.177  1.00  0.00     0.023 A 
ATOM     82  C   UNL     1     -11.510  21.623  -7.592  1.00  0.00     0.012 A 
ATOM     83  C   UNL     1     -13.410  20.907  -8.933  1.00  0.00     0.148 A 
ATOM     84  C   UNL     1     -11.902  22.954  -7.734  1.00  0.00     0.002 A 
ATOM     85  C   UNL     1     -13.770  22.239  -9.108  1.00  0.00     0.091 A 
ATOM     86  F   UNL     1     -14.127  19.907  -9.463  1.00  0.00    -0.205 F 
ATOM     87  C   UNL     1     -13.024  23.262  -8.501  1.00  0.00     0.022 A 
BRANCH  85  88
ATOM     88  S   UNL     1     -15.145  22.731 -10.155  1.00  0.00     0.127 S 
ATOM     89  O   UNL     1     -16.160  23.087  -9.166  1.00  0.00    -0.237 OA
ATOM     90  O   UNL     1     -14.586  23.866 -10.892  1.00  0.00    -0.237 OA
ATOM     91  O   UNL     1     -15.451  21.571 -10.981  1.00  0.00    -0.744 OA
ENDBRANCH  85  88
ENDBRANCH  58  81
ENDBRANCH  32  33
ENDBRANCH  24  27
ENDBRANCH  22  23
ENDBRANCH   1  22
TORSDOF 18
