REMARK SMILES CS(=O)(=O)c1ccc(-c2cc(Cl)cc3c2O[C@H](C(F)(F)F)C(C(=O)NCCCCNC(=O)c2ccc(-c4c5nc(c(-c6cccc(S(=O)(=O)[O-])c6F)c6ccc([nH]6)c(-c6cccc(S(=O)(=O)[O-])c6F)c6nc(c(-c7cccc(S(=O)(=O)[O-])c7F)c7ccc4[nH]7)C=C6)C=C5)cc2)=C3)cc1
REMARK SMILES IDX 28 1 27 2 26 3 25 4 23 5 24 6 22 8 9 9 10 10 15 11 11 12
REMARK SMILES IDX 14 13 16 14 12 15 13 16 96 17 17 18 8 19 5 20 6 21 98 22
REMARK SMILES IDX 7 23 97 24 2 25 1 26 3 27 4 28 18 29 19 30 20 31 21 32 29 33
REMARK SMILES IDX 30 34 31 35 32 37 33 38 34 39 95 40 35 41 94 42 36 43 37 44
REMARK SMILES IDX 38 45 88 46 39 47 93 48 87 49 89 50 40 51 92 52 86 53 85 54
REMARK SMILES IDX 41 56 73 57 53 58 72 59 54 60 57 61 71 62 90 63 55 64 56 65
REMARK SMILES IDX 70 67 91 68 58 69 42 70 43 71 51 72 44 73 46 74 52 75 45 76
REMARK SMILES IDX 47 77 48 78 49 79 50 80 74 81 75 82 83 83 76 84 78 85 84 86
REMARK SMILES IDX 77 87 79 88 80 89 81 90 82 91 59 92 60 93 68 94 61 95 63 96
REMARK SMILES IDX 69 97 62 98 64 99 65 100 66 101 67 102
REMARK H PARENT 25 7 30 36 89 55 57 66
REMARK Flexibility Score: inf
ROOT
ATOM      1  C   UNL     1      -0.287 -10.435  11.921  1.00  0.00     0.023 C 
ENDROOT
BRANCH   1   2
ATOM      2  C   UNL     1      -0.980  -9.064  11.915  1.00  0.00     0.023 C 
BRANCH   2   3
ATOM      3  C   UNL     1      -0.040  -7.854  11.816  1.00  0.00     0.116 C 
BRANCH   3   4
ATOM      4  N   UNL     1       0.717  -7.923  10.583  1.00  0.00    -0.352 N 
ATOM      5  C   UNL     1       0.929  -6.973   9.644  1.00  0.00     0.251 C 
ATOM      6  O   UNL     1       1.093  -7.324   8.480  1.00  0.00    -0.270 OA
ATOM      7  H   UNL     1       1.141  -8.793  10.401  1.00  0.00     0.163 HD
BRANCH   5   8
ATOM      8  C   UNL     1       1.054  -5.547  10.076  1.00  0.00     0.067 C 
ATOM      9  C   UNL     1       1.417  -3.862   6.375  1.00  0.00     0.026 A 
ATOM     10  C   UNL     1       2.397  -4.613   5.672  1.00  0.00     0.033 A 
ATOM     11  C   UNL     1       1.346  -4.082   7.766  1.00  0.00     0.135 A 
ATOM     12  C   UNL     1       3.342  -5.411   6.314  1.00  0.00     0.042 A 
ATOM     13  C   UNL     1       2.389  -4.803   8.407  1.00  0.00     0.019 A 
ATOM     14  O   UNL     1       0.272  -3.678   8.549  1.00  0.00    -0.475 OA
ATOM     15  Cl  UNL     1       4.462  -6.319   5.380  1.00  0.00    -0.084 Cl
ATOM     16  C   UNL     1       3.389  -5.454   7.691  1.00  0.00     0.032 A 
ATOM     17  C   UNL     1       2.284  -5.038   9.864  1.00  0.00     0.025 C 
ATOM     18  C   UNL     1      -0.093  -4.646   9.634  1.00  0.00     0.314 C 
BRANCH   9  19
ATOM     19  C   UNL     1       0.737  -2.821   5.551  1.00  0.00    -0.015 A 
ATOM     20  C   UNL     1       0.396  -0.853   3.526  1.00  0.00     0.067 A 
ATOM     21  C   UNL     1       0.044  -2.177   3.271  1.00  0.00     0.021 A 
ATOM     22  C   UNL     1       0.822  -0.486   4.807  1.00  0.00     0.021 A 
ATOM     23  C   UNL     1       0.201  -3.143   4.281  1.00  0.00     0.010 A 
ATOM     24  C   UNL     1       0.979  -1.460   5.811  1.00  0.00     0.010 A 
BRANCH  20  25
ATOM     25  S   UNL     1       0.317   0.376   2.235  1.00  0.00     0.175 S 
ATOM     26  C   UNL     1       1.128  -0.305   0.810  1.00  0.00     0.163 C 
ATOM     27  O   UNL     1       1.116   1.509   2.661  1.00  0.00    -0.224 OA
ATOM     28  O   UNL     1      -1.089   0.541   1.908  1.00  0.00    -0.224 OA
ENDBRANCH  20  25
ENDBRANCH   9  19
BRANCH  18  29
ATOM     29  C   UNL     1      -0.643  -3.925  10.886  1.00  0.00     0.429 C 
ATOM     30  F   UNL     1      -0.315  -2.613  10.920  1.00  0.00    -0.167 F 
ATOM     31  F   UNL     1      -1.993  -4.011  10.953  1.00  0.00    -0.167 F 
ATOM     32  F   UNL     1      -0.176  -4.464  12.045  1.00  0.00    -0.167 F 
ENDBRANCH  18  29
ENDBRANCH   5   8
ENDBRANCH   3   4
ENDBRANCH   2   3
ENDBRANCH   1   2
BRANCH   1  33
ATOM     33  C   UNL     1       0.765 -10.622  13.008  1.00  0.00     0.116 C 
BRANCH  33  34
ATOM     34  N   UNL     1       0.186 -10.565  14.341  1.00  0.00    -0.352 N 
ATOM     35  C   UNL     1       0.228 -11.501  15.346  1.00  0.00     0.251 C 
ATOM     36  H   UNL     1      -0.305  -9.738  14.553  1.00  0.00     0.163 HD
ATOM     37  O   UNL     1      -0.484 -11.363  16.337  1.00  0.00    -0.269 OA
BRANCH  35  38
ATOM     38  C   UNL     1       1.112 -12.681  15.223  1.00  0.00     0.039 A 
ATOM     39  C   UNL     1       0.604 -13.943  15.542  1.00  0.00     0.014 A 
ATOM     40  C   UNL     1       2.433 -12.546  14.788  1.00  0.00     0.014 A 
ATOM     41  C   UNL     1       1.401 -15.076  15.360  1.00  0.00     0.010 A 
ATOM     42  C   UNL     1       3.198 -13.682  14.535  1.00  0.00     0.010 A 
ATOM     43  C   UNL     1       2.692 -14.959  14.818  1.00  0.00    -0.014 A 
BRANCH  43  44
ATOM     44  C   UNL     1       3.510 -16.163  14.512  1.00  0.00     0.031 A 
ATOM     45  C   UNL     1       4.832 -16.385  15.195  1.00  0.00     0.074 A 
ATOM     46  C   UNL     1       3.103 -17.013  13.548  1.00  0.00     0.049 A 
ATOM     47  N   UNL     1       5.698 -17.351  15.020  1.00  0.00    -0.248 NA
ATOM     48  C   UNL     1       5.251 -15.379  16.185  1.00  0.00     0.031 C 
ATOM     49  C   UNL     1       1.883 -16.864  12.751  1.00  0.00     0.029 A 
ATOM     50  N   UNL     1       3.683 -18.155  13.054  1.00  0.00    -0.354 N 
ATOM     51  C   UNL     1       6.775 -17.051  15.845  1.00  0.00     0.074 A 
ATOM     52  C   UNL     1       6.469 -15.796  16.497  1.00  0.00     0.031 C 
ATOM     53  C   UNL     1       1.804 -17.877  11.873  1.00  0.00     0.029 A 
ATOM     54  C   UNL     1       2.981 -18.728  12.019  1.00  0.00     0.049 A 
ATOM     55  H   UNL     1       4.523 -18.529  13.407  1.00  0.00     0.167 HD
ATOM     56  C   UNL     1       7.905 -17.767  16.062  1.00  0.00     0.034 A 
ATOM     57  C   UNL     1       3.256 -19.809  11.263  1.00  0.00     0.034 A 
ATOM     58  C   UNL     1       8.192 -19.031  15.438  1.00  0.00     0.049 A 
ATOM     59  C   UNL     1       4.500 -20.605  11.547  1.00  0.00     0.074 A 
ATOM     60  C   UNL     1       9.261 -19.879  15.666  1.00  0.00     0.029 A 
ATOM     61  N   UNL     1       7.418 -19.621  14.451  1.00  0.00    -0.354 N 
ATOM     62  N   UNL     1       5.423 -20.396  12.453  1.00  0.00    -0.248 NA
ATOM     63  C   UNL     1       4.722 -21.806  10.729  1.00  0.00     0.031 C 
ATOM     64  C   UNL     1       9.152 -20.965  14.790  1.00  0.00     0.029 A 
ATOM     65  C   UNL     1       7.994 -20.813  14.045  1.00  0.00     0.049 A 
ATOM     66  H   UNL     1       6.581 -19.248  14.091  1.00  0.00     0.167 HD
ATOM     67  C   UNL     1       6.318 -21.454  12.337  1.00  0.00     0.074 A 
ATOM     68  C   UNL     1       5.812 -22.315  11.288  1.00  0.00     0.031 C 
ATOM     69  C   UNL     1       7.462 -21.684  13.028  1.00  0.00     0.034 A 
BRANCH  56  70
ATOM     70  C   UNL     1       8.903 -17.216  17.049  1.00  0.00     0.023 A 
ATOM     71  C   UNL     1       8.589 -17.195  18.424  1.00  0.00     0.012 A 
ATOM     72  C   UNL     1      10.171 -16.770  16.626  1.00  0.00     0.148 A 
ATOM     73  C   UNL     1       9.501 -16.701  19.356  1.00  0.00     0.002 A 
ATOM     74  C   UNL     1      11.093 -16.323  17.566  1.00  0.00     0.091 A 
ATOM     75  F   UNL     1      10.447 -16.778  15.314  1.00  0.00    -0.205 F 
ATOM     76  C   UNL     1      10.755 -16.275  18.928  1.00  0.00     0.022 A 
BRANCH  74  77
ATOM     77  S   UNL     1      12.764 -15.831  17.126  1.00  0.00     0.127 S 
ATOM     78  O   UNL     1      12.707 -14.384  17.329  1.00  0.00    -0.237 OA
ATOM     79  O   UNL     1      13.567 -16.554  18.112  1.00  0.00    -0.237 OA
ATOM     80  O   UNL     1      12.960 -16.262  15.749  1.00  0.00    -0.744 OA
ENDBRANCH  74  77
ENDBRANCH  56  70
BRANCH  57  81
ATOM     81  C   UNL     1       2.301 -20.231  10.198  1.00  0.00     0.023 A 
ATOM     82  C   UNL     1       1.549 -21.410  10.368  1.00  0.00     0.012 A 
ATOM     83  C   UNL     1       2.109 -19.454   9.040  1.00  0.00     0.148 A 
ATOM     84  C   UNL     1       0.645 -21.823   9.390  1.00  0.00     0.002 A 
ATOM     85  C   UNL     1       1.165 -19.841   8.096  1.00  0.00     0.091 A 
ATOM     86  F   UNL     1       2.841 -18.340   8.894  1.00  0.00    -0.205 F 
ATOM     87  C   UNL     1       0.445 -21.034   8.260  1.00  0.00     0.022 A 
BRANCH  85  88
ATOM     88  S   UNL     1       0.743 -18.821   6.679  1.00  0.00     0.127 S 
ATOM     89  O   UNL     1       1.247 -19.626   5.570  1.00  0.00    -0.237 OA
ATOM     90  O   UNL     1      -0.715 -18.756   6.781  1.00  0.00    -0.237 OA
ATOM     91  O   UNL     1       1.418 -17.548   6.894  1.00  0.00    -0.744 OA
ENDBRANCH  85  88
ENDBRANCH  57  81
BRANCH  69  92
ATOM     92  C   UNL     1       8.238 -22.934  12.700  1.00  0.00     0.023 A 
ATOM     93  C   UNL     1       8.938 -23.028  11.481  1.00  0.00     0.012 A 
ATOM     94  C   UNL     1       8.330 -23.987  13.632  1.00  0.00     0.148 A 
ATOM     95  C   UNL     1       9.689 -24.165  11.180  1.00  0.00     0.002 A 
ATOM     96  C   UNL     1       9.122 -25.093  13.348  1.00  0.00     0.091 A 
ATOM     97  F   UNL     1       7.643 -23.887  14.779  1.00  0.00    -0.205 F 
ATOM     98  C   UNL     1       9.791 -25.190  12.117  1.00  0.00     0.022 A 
BRANCH  96  99
ATOM     99  S   UNL     1       9.391 -26.416  14.533  1.00  0.00     0.127 S 
ATOM    100  O   UNL     1       8.642 -27.516  13.927  1.00  0.00    -0.237 OA
ATOM    101  O   UNL     1      10.845 -26.575  14.494  1.00  0.00    -0.237 OA
ATOM    102  O   UNL     1       8.870 -25.932  15.803  1.00  0.00    -0.744 OA
ENDBRANCH  96  99
ENDBRANCH  69  92
ENDBRANCH  43  44
ENDBRANCH  35  38
ENDBRANCH  33  34
ENDBRANCH   1  33
TORSDOF 17
