REMARK SMILES Cc1c(C(=O)NC(=S)Nc2ccccc2C(=O)NCCCCNC(=O)c2ccc(-c3c4nc(c(-c5cccc(S(=O)(=O)[O-])c5F)c5ccc([nH]5)c(-c5cccc(S(=O)(=O)[O-])c5F)c5nc(c(-c6cccc(S(=O)(=O)[O-])c6F)c6ccc3[nH]6)C=C5)C=C4)cc2)cccc1[N+](=O)[O-]
REMARK SMILES IDX 19 1 18 2 16 3 17 4 15 6 10 7 11 8 12 9 14 10 13 11 9 12
REMARK SMILES IDX 7 14 8 15 6 16 4 17 5 18 3 20 1 21 2 22 92 23 89 24 91 25
REMARK SMILES IDX 90 26 93 27 94 28 95 29 20 30 21 31 22 32 23 33 24 34 25 36
REMARK SMILES IDX 26 37 27 38 88 39 28 40 87 41 29 42 30 43 31 44 81 45 32 46
REMARK SMILES IDX 86 47 80 48 82 49 33 50 85 51 79 52 78 53 34 55 66 56 46 57
REMARK SMILES IDX 65 58 47 59 50 60 64 61 83 62 48 63 49 64 63 66 84 67 51 68
REMARK SMILES IDX 35 69 36 70 44 71 37 72 39 73 45 74 38 75 40 76 41 77 42 78
REMARK SMILES IDX 43 79 67 80 68 81 76 82 69 83 71 84 77 85 70 86 72 87 73 88
REMARK SMILES IDX 74 89 75 90 52 91 53 92 61 93 54 94 56 95 62 96 55 97 57 98
REMARK SMILES IDX 58 99 59 100 60 101
REMARK H PARENT 18 5 9 13 6 19 23 35 82 54 50 65
REMARK Flexibility Score: inf
ROOT
ATOM      1  C   UNL     1      -0.734  -2.755   2.518  1.00  0.00     0.116 C 
ENDROOT
BRANCH   1   2
ATOM      2  N   UNL     1       0.679  -2.398   2.848  1.00  0.00    -0.352 N 
ATOM      3  C   UNL     1       1.433  -1.175   2.826  1.00  0.00     0.253 C 
ATOM      4  O   UNL     1       2.517  -1.153   3.404  1.00  0.00    -0.269 OA
ATOM      5  H   UNL     1       1.210  -3.171   3.146  1.00  0.00     0.163 HD
BRANCH   3   6
ATOM      6  C   UNL     1       1.004   0.075   2.025  1.00  0.00     0.063 A 
ATOM      7  C   UNL     1       2.053   0.805   0.762  1.00  0.00     0.053 A 
ATOM      8  C   UNL     1       1.384   1.441  -0.831  1.00  0.00     0.027 A 
ATOM      9  C   UNL     1      -0.315   0.806  -1.281  1.00  0.00     0.002 A 
ATOM     10  C   UNL     1      -0.585  -0.104   1.854  1.00  0.00     0.016 A 
ATOM     11  C   UNL     1      -1.277  -0.017   0.285  1.00  0.00     0.001 A 
BRANCH   7  12
ATOM     12  N   UNL     1       3.164  -0.121   0.517  1.00  0.00    -0.332 N 
ATOM     13  H   UNL     1       4.022   0.308   0.296  1.00  0.00     0.169 HD
BRANCH  12  14
ATOM     14  C   UNL     1       3.192  -1.520   0.550  1.00  0.00     0.177 C 
ATOM     15  S   UNL     1       4.694  -2.240   0.808  1.00  0.00    -0.040 S 
BRANCH  14  16
ATOM     16  N   UNL     1       2.085  -2.428   0.202  1.00  0.00    -0.299 N 
ATOM     17  C   UNL     1       0.705  -2.695  -0.480  1.00  0.00     0.257 C 
ATOM     18  O   UNL     1       0.442  -3.831  -0.863  1.00  0.00    -0.269 OA
ATOM     19  H   UNL     1       2.342  -3.294   0.592  1.00  0.00     0.172 HD
BRANCH  17  20
ATOM     20  C   UNL     1      -0.224  -1.532  -0.825  1.00  0.00     0.049 A 
ATOM     21  C   UNL     1       1.659  -0.589  -1.695  1.00  0.00     0.053 C 
ATOM     22  C   UNL     1       0.577  -0.279  -0.103  1.00  0.00     0.039 A 
ATOM     23  C   UNL     1      -0.235   1.513   0.408  1.00  0.00     0.273 A 
ATOM     24  C   UNL     1      -1.740  -1.106  -1.553  1.00  0.00     0.014 A 
ATOM     25  C   UNL     1      -1.880   1.837  -0.361  1.00  0.00     0.086 A 
ATOM     26  C   UNL     1      -2.551   0.503  -1.373  1.00  0.00     0.008 A 
BRANCH  23  27
ATOM     27  N   UNL     1       0.256   2.860   0.983  1.00  0.00     0.063 N 
ATOM     28  O   UNL     1      -0.239   3.874   0.464  1.00  0.00    -0.258 OA
ATOM     29  O   UNL     1       1.064   2.893   1.917  1.00  0.00    -0.258 OA
ENDBRANCH  23  27
ENDBRANCH  17  20
ENDBRANCH  14  16
ENDBRANCH  12  14
ENDBRANCH   7  12
ENDBRANCH   3   6
ENDBRANCH   1   2
BRANCH   1  30
ATOM     30  C   UNL     1      -1.159  -4.122   1.962  1.00  0.00     0.023 C 
BRANCH  30  31
ATOM     31  C   UNL     1      -0.801  -5.357   2.740  1.00  0.00     0.023 C 
BRANCH  31  32
ATOM     32  C   UNL     1      -1.356  -5.285   4.127  1.00  0.00     0.116 C 
BRANCH  32  33
ATOM     33  N   UNL     1      -2.756  -5.598   4.215  1.00  0.00    -0.352 N 
ATOM     34  C   UNL     1      -3.393  -6.137   5.309  1.00  0.00     0.251 C 
ATOM     35  H   UNL     1      -3.308  -5.410   3.422  1.00  0.00     0.163 HD
ATOM     36  O   UNL     1      -4.461  -6.710   5.114  1.00  0.00    -0.269 OA
BRANCH  34  37
ATOM     37  C   UNL     1      -2.889  -5.840   6.686  1.00  0.00     0.039 A 
ATOM     38  C   UNL     1      -3.789  -6.064   7.727  1.00  0.00     0.014 A 
ATOM     39  C   UNL     1      -1.862  -4.920   6.877  1.00  0.00     0.014 A 
ATOM     40  C   UNL     1      -3.901  -5.115   8.726  1.00  0.00     0.010 A 
ATOM     41  C   UNL     1      -2.056  -3.903   7.749  1.00  0.00     0.010 A 
ATOM     42  C   UNL     1      -3.152  -3.962   8.597  1.00  0.00    -0.014 A 
BRANCH  42  43
ATOM     43  C   UNL     1      -3.180  -2.826   9.473  1.00  0.00     0.031 A 
ATOM     44  C   UNL     1      -2.362  -3.013  10.678  1.00  0.00     0.074 A 
ATOM     45  C   UNL     1      -3.506  -1.677   8.833  1.00  0.00     0.049 A 
ATOM     46  N   UNL     1      -2.227  -2.132  11.587  1.00  0.00    -0.248 NA
ATOM     47  C   UNL     1      -1.608  -4.242  10.964  1.00  0.00     0.031 C 
ATOM     48  C   UNL     1      -3.023  -0.317   9.014  1.00  0.00     0.029 A 
ATOM     49  N   UNL     1      -4.482  -1.536   7.844  1.00  0.00    -0.354 N 
ATOM     50  C   UNL     1      -1.133  -2.502  12.345  1.00  0.00     0.074 A 
ATOM     51  C   UNL     1      -0.895  -3.882  12.034  1.00  0.00     0.031 C 
ATOM     52  C   UNL     1      -3.882   0.539   8.421  1.00  0.00     0.029 A 
ATOM     53  C   UNL     1      -5.019  -0.243   7.962  1.00  0.00     0.049 A 
ATOM     54  H   UNL     1      -4.746  -2.218   7.184  1.00  0.00     0.167 HD
ATOM     55  C   UNL     1      -0.472  -1.508  12.992  1.00  0.00     0.034 A 
ATOM     56  C   UNL     1      -6.296  -0.124   8.448  1.00  0.00     0.034 A 
ATOM     57  C   UNL     1      -1.201  -0.246  12.761  1.00  0.00     0.049 A 
ATOM     58  C   UNL     1      -6.291   0.386   9.882  1.00  0.00     0.074 A 
ATOM     59  C   UNL     1      -1.040   0.778  11.842  1.00  0.00     0.029 A 
ATOM     60  N   UNL     1      -2.508  -0.154  13.226  1.00  0.00    -0.354 N 
ATOM     61  N   UNL     1      -5.244   0.375  10.665  1.00  0.00    -0.248 NA
ATOM     62  C   UNL     1      -7.431   1.049  10.503  1.00  0.00     0.031 C 
ATOM     63  C   UNL     1      -2.301   1.437  11.707  1.00  0.00     0.029 A 
ATOM     64  C   UNL     1      -3.216   0.825  12.549  1.00  0.00     0.049 A 
ATOM     65  H   UNL     1      -2.882  -0.713  13.946  1.00  0.00     0.167 HD
ATOM     66  C   UNL     1      -5.528   0.978  11.860  1.00  0.00     0.074 A 
ATOM     67  C   UNL     1      -6.906   1.418  11.686  1.00  0.00     0.031 C 
ATOM     68  C   UNL     1      -4.619   1.065  12.886  1.00  0.00     0.034 A 
BRANCH  55  69
ATOM     69  C   UNL     1       0.903  -1.552  13.633  1.00  0.00     0.023 A 
ATOM     70  C   UNL     1       1.414  -0.302  14.053  1.00  0.00     0.012 A 
ATOM     71  C   UNL     1       1.753  -2.667  13.840  1.00  0.00     0.148 A 
ATOM     72  C   UNL     1       2.686  -0.148  14.608  1.00  0.00     0.002 A 
ATOM     73  C   UNL     1       3.026  -2.517  14.412  1.00  0.00     0.091 A 
ATOM     74  F   UNL     1       1.358  -3.891  13.489  1.00  0.00    -0.205 F 
ATOM     75  C   UNL     1       3.494  -1.256  14.788  1.00  0.00     0.022 A 
BRANCH  73  76
ATOM     76  S   UNL     1       4.154  -3.895  14.711  1.00  0.00     0.127 S 
ATOM     77  O   UNL     1       5.317  -3.519  13.904  1.00  0.00    -0.237 OA
ATOM     78  O   UNL     1       4.371  -3.814  16.155  1.00  0.00    -0.237 OA
ATOM     79  O   UNL     1       3.469  -5.100  14.261  1.00  0.00    -0.744 OA
ENDBRANCH  73  76
ENDBRANCH  55  69
BRANCH  56  80
ATOM     80  C   UNL     1      -7.181  -1.200   7.864  1.00  0.00     0.023 A 
ATOM     81  C   UNL     1      -7.253  -1.219   6.444  1.00  0.00     0.012 A 
ATOM     82  C   UNL     1      -7.391  -2.403   8.559  1.00  0.00     0.148 A 
ATOM     83  C   UNL     1      -7.213  -2.431   5.749  1.00  0.00     0.002 A 
ATOM     84  C   UNL     1      -7.402  -3.608   7.853  1.00  0.00     0.091 A 
ATOM     85  F   UNL     1      -7.500  -2.363   9.893  1.00  0.00    -0.205 F 
ATOM     86  C   UNL     1      -7.221  -3.627   6.460  1.00  0.00     0.022 A 
BRANCH  84  87
ATOM     87  S   UNL     1      -7.564  -5.174   8.720  1.00  0.00     0.127 S 
ATOM     88  O   UNL     1      -9.014  -5.327   8.786  1.00  0.00    -0.237 OA
ATOM     89  O   UNL     1      -6.901  -6.124   7.829  1.00  0.00    -0.237 OA
ATOM     90  O   UNL     1      -6.887  -4.971   9.993  1.00  0.00    -0.744 OA
ENDBRANCH  84  87
ENDBRANCH  56  80
BRANCH  68  91
ATOM     91  C   UNL     1      -4.957   1.406  14.335  1.00  0.00     0.023 A 
ATOM     92  C   UNL     1      -6.281   1.466  14.802  1.00  0.00     0.012 A 
ATOM     93  C   UNL     1      -3.943   1.548  15.326  1.00  0.00     0.148 A 
ATOM     94  C   UNL     1      -6.591   1.748  16.135  1.00  0.00     0.002 A 
ATOM     95  C   UNL     1      -4.257   1.668  16.674  1.00  0.00     0.091 A 
ATOM     96  F   UNL     1      -2.651   1.605  14.978  1.00  0.00    -0.205 F 
ATOM     97  C   UNL     1      -5.580   1.822  17.078  1.00  0.00     0.022 A 
BRANCH  95  98
ATOM     98  S   UNL     1      -3.010   1.493  17.959  1.00  0.00     0.127 S 
ATOM     99  O   UNL     1      -2.843   2.876  18.399  1.00  0.00    -0.237 OA
ATOM    100  O   UNL     1      -3.689   0.622  18.921  1.00  0.00    -0.237 OA
ATOM    101  O   UNL     1      -1.855   0.886  17.312  1.00  0.00    -0.744 OA
ENDBRANCH  95  98
ENDBRANCH  68  91
ENDBRANCH  42  43
ENDBRANCH  34  37
ENDBRANCH  32  33
ENDBRANCH  31  32
ENDBRANCH  30  31
ENDBRANCH   1  30
TORSDOF 19
