REMARK SMILES C[C@@H](C(=O)NCCCCNC(=O)c1ccc(-c2c3nc(c(-c4cccc(S(=O)(=O)[O-])c4F)c4ccc([nH]4)c(-c4cccc(S(=O)(=O)[O-])c4F)c4nc(c(-c5cccc(S(=O)(=O)[O-])c5F)c5ccc2[nH]5)C=C4)C=C3)cc1)c1ccc2c3cc(Cl)ccc3n(C(=O)c3cocn3)c2c1
REMARK SMILES IDX 7 1 6 2 5 3 3 4 4 5 2 7 1 8 76 9 77 10 96 11 78 12 95 13
REMARK SMILES IDX 79 14 87 15 80 16 86 17 81 18 85 19 82 20 84 21 83 22 88 23
REMARK SMILES IDX 89 24 90 25 91 26 94 27 92 28 93 29 8 30 9 31 10 32 11 33
REMARK SMILES IDX 12 35 13 36 14 37 75 38 15 39 74 40 16 41 17 42 18 43 68 44
REMARK SMILES IDX 19 45 73 46 67 47 69 48 20 49 72 50 66 51 65 52 21 54 53 55
REMARK SMILES IDX 33 56 52 57 34 58 37 59 51 60 70 61 35 62 36 63 50 65 71 66
REMARK SMILES IDX 38 67 22 68 23 69 31 70 24 71 26 72 32 73 25 74 27 75 28 76
REMARK SMILES IDX 29 77 30 78 54 79 55 80 63 81 56 82 58 83 64 84 57 85 59 86
REMARK SMILES IDX 60 87 61 88 62 89 39 90 40 91 48 92 41 93 43 94 49 95 42 96
REMARK SMILES IDX 44 97 45 98 46 99 47 100
REMARK H PARENT 5 6 10 34 69 53 37 64
REMARK Flexibility Score: inf
ROOT
ATOM      1  C   UNL     1       4.217  -0.254   1.169  1.00  0.00     0.023 C 
ENDROOT
BRANCH   1   2
ATOM      2  C   UNL     1       3.398  -1.546   1.226  1.00  0.00     0.116 C 
BRANCH   2   3
ATOM      3  N   UNL     1       2.310  -1.425   2.172  1.00  0.00    -0.356 N 
ATOM      4  C   UNL     1       1.012  -1.054   1.967  1.00  0.00     0.227 C 
ATOM      5  O   UNL     1       0.325  -0.845   2.968  1.00  0.00    -0.274 OA
ATOM      6  H   UNL     1       2.541  -1.642   3.104  1.00  0.00     0.163 HD
BRANCH   4   7
ATOM      7  C   UNL     1       0.456  -0.953   0.534  1.00  0.00     0.105 C 
ATOM      8  C   UNL     1       1.032   0.255  -0.215  1.00  0.00     0.023 C 
BRANCH   7   9
ATOM      9  C   UNL     1      -1.076  -0.976   0.525  1.00  0.00    -0.034 A 
ATOM     10  C   UNL     1      -1.841   0.170   0.302  1.00  0.00     0.005 A 
ATOM     11  C   UNL     1      -1.731  -2.195   0.791  1.00  0.00     0.032 A 
ATOM     12  C   UNL     1      -3.235   0.108   0.262  1.00  0.00     0.011 A 
ATOM     13  C   UNL     1      -3.142  -2.242   0.821  1.00  0.00     0.058 A 
ATOM     14  C   UNL     1      -3.892  -1.112   0.512  1.00  0.00     0.008 A 
ATOM     15  N   UNL     1      -4.030  -3.294   1.110  1.00  0.00    -0.274 N 
ATOM     16  C   UNL     1      -5.262  -1.477   0.544  1.00  0.00     0.009 A 
ATOM     17  C   UNL     1      -5.344  -2.801   0.991  1.00  0.00     0.057 A 
ATOM     18  C   UNL     1      -6.441  -0.749   0.273  1.00  0.00     0.031 A 
ATOM     19  C   UNL     1      -6.603  -3.364   1.289  1.00  0.00     0.029 A 
ATOM     20  C   UNL     1      -7.680  -1.342   0.491  1.00  0.00     0.041 A 
ATOM     21  C   UNL     1      -7.762  -2.625   1.012  1.00  0.00     0.023 A 
ATOM     22  Cl  UNL     1      -9.116  -0.460   0.144  1.00  0.00    -0.084 Cl
BRANCH  15  23
ATOM     23  C   UNL     1      -3.623  -4.610   1.479  1.00  0.00     0.284 C 
ATOM     24  O   UNL     1      -2.481  -4.722   1.931  1.00  0.00    -0.266 OA
BRANCH  23  25
ATOM     25  C   UNL     1      -4.431  -5.814   1.319  1.00  0.00     0.167 A 
ATOM     26  C   UNL     1      -5.334  -6.121   0.323  1.00  0.00     0.231 A 
ATOM     27  N   UNL     1      -4.285  -6.928   2.133  1.00  0.00    -0.211 NA
ATOM     28  O   UNL     1      -5.778  -7.396   0.517  1.00  0.00    -0.451 OA
ATOM     29  C   UNL     1      -5.091  -7.820   1.612  1.00  0.00     0.308 A 
ENDBRANCH  23  25
ENDBRANCH  15  23
ENDBRANCH   7   9
ENDBRANCH   4   7
ENDBRANCH   2   3
ENDBRANCH   1   2
BRANCH   1  30
ATOM     30  C   UNL     1       5.011   0.057   2.440  1.00  0.00     0.023 C 
BRANCH  30  31
ATOM     31  C   UNL     1       6.022  -1.007   2.846  1.00  0.00     0.116 C 
BRANCH  31  32
ATOM     32  N   UNL     1       6.991  -1.294   1.799  1.00  0.00    -0.352 N 
ATOM     33  C   UNL     1       8.334  -1.559   1.923  1.00  0.00     0.251 C 
ATOM     34  H   UNL     1       6.638  -1.301   0.880  1.00  0.00     0.163 HD
ATOM     35  O   UNL     1       9.035  -1.660   0.921  1.00  0.00    -0.269 OA
BRANCH  33  36
ATOM     36  C   UNL     1       8.928  -1.686   3.269  1.00  0.00     0.039 A 
ATOM     37  C   UNL     1      10.099  -0.980   3.558  1.00  0.00     0.014 A 
ATOM     38  C   UNL     1       8.319  -2.475   4.248  1.00  0.00     0.014 A 
ATOM     39  C   UNL     1      10.625  -1.017   4.851  1.00  0.00     0.010 A 
ATOM     40  C   UNL     1       8.807  -2.459   5.550  1.00  0.00     0.010 A 
ATOM     41  C   UNL     1       9.966  -1.732   5.864  1.00  0.00    -0.014 A 
BRANCH  41  42
ATOM     42  C   UNL     1      10.460  -1.722   7.263  1.00  0.00     0.031 A 
ATOM     43  C   UNL     1      10.941  -2.994   7.904  1.00  0.00     0.074 A 
ATOM     44  C   UNL     1      10.380  -0.588   7.986  1.00  0.00     0.049 A 
ATOM     45  N   UNL     1      11.349  -3.195   9.129  1.00  0.00    -0.248 NA
ATOM     46  C   UNL     1      10.937  -4.206   7.066  1.00  0.00     0.031 C 
ATOM     47  C   UNL     1       9.847   0.688   7.503  1.00  0.00     0.029 A 
ATOM     48  N   UNL     1      10.718  -0.333   9.291  1.00  0.00    -0.354 N 
ATOM     49  C   UNL     1      11.611  -4.556   9.223  1.00  0.00     0.074 A 
ATOM     50  C   UNL     1      11.289  -5.139   7.939  1.00  0.00     0.031 C 
ATOM     51  C   UNL     1       9.893   1.589   8.497  1.00  0.00     0.029 A 
ATOM     52  C   UNL     1      10.438   0.952   9.693  1.00  0.00     0.049 A 
ATOM     53  H   UNL     1      11.122  -1.006   9.884  1.00  0.00     0.167 HD
ATOM     54  C   UNL     1      12.105  -5.254  10.273  1.00  0.00     0.034 A 
ATOM     55  C   UNL     1      10.601   1.550  10.889  1.00  0.00     0.034 A 
ATOM     56  C   UNL     1      12.481  -4.661  11.528  1.00  0.00     0.049 A 
ATOM     57  C   UNL     1      11.216   0.769  12.018  1.00  0.00     0.074 A 
ATOM     58  C   UNL     1      13.087  -5.262  12.616  1.00  0.00     0.029 A 
ATOM     59  N   UNL     1      12.285  -3.330  11.863  1.00  0.00    -0.354 N 
ATOM     60  N   UNL     1      11.623  -0.477  12.032  1.00  0.00    -0.248 NA
ATOM     61  C   UNL     1      11.432   1.485  13.284  1.00  0.00     0.031 C 
ATOM     62  C   UNL     1      13.252  -4.295  13.614  1.00  0.00     0.029 A 
ATOM     63  C   UNL     1      12.756  -3.090  13.142  1.00  0.00     0.049 A 
ATOM     64  H   UNL     1      11.872  -2.655  11.277  1.00  0.00     0.167 HD
ATOM     65  C   UNL     1      12.171  -0.686  13.292  1.00  0.00     0.074 A 
ATOM     66  C   UNL     1      12.065   0.571  14.007  1.00  0.00     0.031 C 
ATOM     67  C   UNL     1      12.698  -1.819  13.817  1.00  0.00     0.034 A 
BRANCH  54  68
ATOM     68  C   UNL     1      12.338  -6.729  10.084  1.00  0.00     0.023 A 
ATOM     69  C   UNL     1      13.415  -7.159   9.282  1.00  0.00     0.012 A 
ATOM     70  C   UNL     1      11.538  -7.685  10.737  1.00  0.00     0.148 A 
ATOM     71  C   UNL     1      13.673  -8.517   9.106  1.00  0.00     0.002 A 
ATOM     72  C   UNL     1      11.825  -9.038  10.589  1.00  0.00     0.091 A 
ATOM     73  F   UNL     1      10.503  -7.259  11.476  1.00  0.00    -0.205 F 
ATOM     74  C   UNL     1      12.885  -9.455   9.768  1.00  0.00     0.022 A 
BRANCH  72  75
ATOM     75  S   UNL     1      10.914 -10.319  11.459  1.00  0.00     0.127 S 
ATOM     76  O   UNL     1      10.097 -10.881  10.385  1.00  0.00    -0.237 OA
ATOM     77  O   UNL     1      11.986 -11.197  11.930  1.00  0.00    -0.237 OA
ATOM     78  O   UNL     1      10.182  -9.639  12.518  1.00  0.00    -0.744 OA
ENDBRANCH  72  75
ENDBRANCH  54  68
BRANCH  55  79
ATOM     79  C   UNL     1      10.257   2.991  11.050  1.00  0.00     0.023 A 
ATOM     80  C   UNL     1      11.295   3.934  11.175  1.00  0.00     0.012 A 
ATOM     81  C   UNL     1       8.921   3.437  11.039  1.00  0.00     0.148 A 
ATOM     82  C   UNL     1      11.009   5.293  11.313  1.00  0.00     0.002 A 
ATOM     83  C   UNL     1       8.645   4.797  11.125  1.00  0.00     0.091 A 
ATOM     84  F   UNL     1       7.946   2.522  10.933  1.00  0.00    -0.205 F 
ATOM     85  C   UNL     1       9.687   5.725  11.277  1.00  0.00     0.022 A 
BRANCH  83  86
ATOM     86  S   UNL     1       6.980   5.450  10.953  1.00  0.00     0.127 S 
ATOM     87  O   UNL     1       6.654   5.803  12.332  1.00  0.00    -0.237 OA
ATOM     88  O   UNL     1       7.190   6.590  10.059  1.00  0.00    -0.237 OA
ATOM     89  O   UNL     1       6.198   4.370  10.368  1.00  0.00    -0.744 OA
ENDBRANCH  83  86
ENDBRANCH  55  79
BRANCH  67  90
ATOM     90  C   UNL     1      13.227  -1.757  15.225  1.00  0.00     0.023 A 
ATOM     91  C   UNL     1      12.324  -1.718  16.305  1.00  0.00     0.012 A 
ATOM     92  C   UNL     1      14.611  -1.821  15.480  1.00  0.00     0.148 A 
ATOM     93  C   UNL     1      12.791  -1.718  17.619  1.00  0.00     0.002 A 
ATOM     94  C   UNL     1      15.068  -1.865  16.793  1.00  0.00     0.091 A 
ATOM     95  F   UNL     1      15.456  -1.835  14.439  1.00  0.00    -0.205 F 
ATOM     96  C   UNL     1      14.160  -1.805  17.863  1.00  0.00     0.022 A 
BRANCH  94  97
ATOM     97  S   UNL     1      16.807  -2.069  17.194  1.00  0.00     0.127 S 
ATOM     98  O   UNL     1      17.185  -0.711  17.584  1.00  0.00    -0.237 OA
ATOM     99  O   UNL     1      16.765  -3.030  18.297  1.00  0.00    -0.237 OA
ATOM    100  O   UNL     1      17.437  -2.575  15.982  1.00  0.00    -0.744 OA
ENDBRANCH  94  97
ENDBRANCH  67  90
ENDBRANCH  41  42
ENDBRANCH  33  36
ENDBRANCH  31  32
ENDBRANCH  30  31
ENDBRANCH   1  30
TORSDOF 17
