REMARK SMILES CCc1ccc(S(=O)(=O)N[C@H](C(=O)NCCCCNC(=O)c2ccc(-c3c4nc(c(-c5cccc(S(=O)(=O)[O-])c5F)c5ccc([nH]5)c(-c5cccc(S(=O)(=O)[O-])c5F)c5nc(c(-c6cccc(S(=O)(=O)[O-])c6F)c6ccc3[nH]6)C=C5)C=C4)cc2)C(C)C)cc1
REMARK SMILES IDX 16 1 15 2 14 3 12 4 13 5 11 7 10 8 7 10 8 11 9 12 6 13 3 14
REMARK SMILES IDX 4 15 89 16 5 17 88 18 2 19 1 20 85 21 86 22 87 23 17 24
REMARK SMILES IDX 18 25 19 26 20 27 21 29 22 30 23 31 84 32 24 33 83 34 25 35
REMARK SMILES IDX 26 36 27 37 77 38 28 39 82 40 76 41 78 42 29 43 81 44 75 45
REMARK SMILES IDX 74 46 30 48 62 49 42 50 61 51 43 52 46 53 60 54 79 55 44 56
REMARK SMILES IDX 45 57 59 59 80 60 47 61 31 62 32 63 40 64 33 65 35 66 41 67
REMARK SMILES IDX 34 68 36 69 37 70 38 71 39 72 63 73 64 74 72 75 65 76 67 77
REMARK SMILES IDX 73 78 66 79 68 80 69 81 70 82 71 83 48 84 49 85 57 86 50 87
REMARK SMILES IDX 52 88 58 89 51 90 53 91 54 92 55 93 56 94
REMARK H PARENT 14 6 10 9 19 28 78 47 46 58
REMARK Flexibility Score: inf
ROOT
ATOM      1  C   UNL     1       4.891   6.695  -1.833  1.00  0.00     0.023 C 
ENDROOT
BRANCH   1   2
ATOM      2  C   UNL     1       3.830   7.490  -1.078  1.00  0.00     0.116 C 
BRANCH   2   3
ATOM      3  N   UNL     1       2.507   7.423  -1.661  1.00  0.00    -0.355 N 
ATOM      4  C   UNL     1       1.298   7.830  -1.159  1.00  0.00     0.238 C 
ATOM      5  O   UNL     1       0.360   7.828  -1.959  1.00  0.00    -0.273 OA
ATOM      6  H   UNL     1       2.469   7.023  -2.560  1.00  0.00     0.163 HD
BRANCH   4   7
ATOM      7  C   UNL     1       1.109   8.089   0.357  1.00  0.00     0.161 C 
BRANCH   7   8
ATOM      8  N   UNL     1       2.149   8.925   1.020  1.00  0.00    -0.198 NA
ATOM      9  H   UNL     1       1.804   9.112   1.962  1.00  0.00     0.142 HD
BRANCH   8  10
ATOM     10  S   UNL     1       2.644  10.406   0.400  1.00  0.00     0.241 S 
ATOM     11  O   UNL     1       2.253  10.485  -0.986  1.00  0.00    -0.207 OA
ATOM     12  O   UNL     1       4.024  10.531   0.816  1.00  0.00    -0.207 OA
BRANCH  10  13
ATOM     13  C   UNL     1       1.739  11.636   1.290  1.00  0.00     0.082 A 
ATOM     14  C   UNL     1       0.194  13.586   2.576  1.00  0.00    -0.048 A 
ATOM     15  C   UNL     1       0.736  13.832   1.307  1.00  0.00     0.005 A 
ATOM     16  C   UNL     1       0.457  12.356   3.200  1.00  0.00     0.005 A 
ATOM     17  C   UNL     1       1.502  12.861   0.662  1.00  0.00     0.022 A 
ATOM     18  C   UNL     1       1.242  11.388   2.569  1.00  0.00     0.022 A 
BRANCH  14  19
ATOM     19  C   UNL     1      -0.714  14.592   3.241  1.00  0.00     0.032 C 
ATOM     20  C   UNL     1      -0.106  15.981   3.375  1.00  0.00     0.009 C 
ENDBRANCH  14  19
ENDBRANCH  10  13
ENDBRANCH   8  10
ENDBRANCH   7   8
BRANCH   7  21
ATOM     21  C   UNL     1      -0.290   8.586   0.842  1.00  0.00     0.010 C 
ATOM     22  C   UNL     1      -1.510   8.047   0.087  1.00  0.00     0.009 C 
ATOM     23  C   UNL     1      -0.489   8.223   2.328  1.00  0.00     0.009 C 
ENDBRANCH   7  21
ENDBRANCH   4   7
ENDBRANCH   2   3
ENDBRANCH   1   2
BRANCH   1  24
ATOM     24  C   UNL     1       5.051   7.019  -3.321  1.00  0.00     0.023 C 
BRANCH  24  25
ATOM     25  C   UNL     1       5.115   8.497  -3.699  1.00  0.00     0.116 C 
BRANCH  25  26
ATOM     26  N   UNL     1       6.252   9.198  -3.119  1.00  0.00    -0.352 N 
ATOM     27  C   UNL     1       7.337   9.789  -3.724  1.00  0.00     0.251 C 
ATOM     28  H   UNL     1       6.243   9.258  -2.136  1.00  0.00     0.163 HD
ATOM     29  O   UNL     1       8.249  10.237  -3.034  1.00  0.00    -0.269 OA
BRANCH  27  30
ATOM     30  C   UNL     1       7.435   9.858  -5.200  1.00  0.00     0.039 A 
ATOM     31  C   UNL     1       8.642   9.504  -5.811  1.00  0.00     0.014 A 
ATOM     32  C   UNL     1       6.354  10.267  -5.984  1.00  0.00     0.014 A 
ATOM     33  C   UNL     1       8.732   9.463  -7.207  1.00  0.00     0.010 A 
ATOM     34  C   UNL     1       6.421  10.154  -7.372  1.00  0.00     0.010 A 
ATOM     35  C   UNL     1       7.606   9.740  -7.999  1.00  0.00    -0.014 A 
BRANCH  35  36
ATOM     36  C   UNL     1       7.631   9.557  -9.475  1.00  0.00     0.031 A 
ATOM     37  C   UNL     1       7.397  10.724 -10.395  1.00  0.00     0.074 A 
ATOM     38  C   UNL     1       7.752   8.315  -9.986  1.00  0.00     0.049 A 
ATOM     39  N   UNL     1       7.294  10.738 -11.699  1.00  0.00    -0.248 NA
ATOM     40  C   UNL     1       7.225  12.044  -9.767  1.00  0.00     0.031 C 
ATOM     41  C   UNL     1       7.889   7.086  -9.201  1.00  0.00     0.029 A 
ATOM     42  N   UNL     1       7.744   7.875 -11.288  1.00  0.00    -0.354 N 
ATOM     43  C   UNL     1       7.006  12.052 -12.045  1.00  0.00     0.074 A 
ATOM     44  C   UNL     1       6.922  12.803 -10.810  1.00  0.00     0.031 C 
ATOM     45  C   UNL     1       7.950   6.035 -10.034  1.00  0.00     0.029 A 
ATOM     46  C   UNL     1       7.835   6.508 -11.409  1.00  0.00     0.049 A 
ATOM     47  H   UNL     1       7.679   8.482 -12.060  1.00  0.00     0.167 HD
ATOM     48  C   UNL     1       6.858  12.595 -13.277  1.00  0.00     0.034 A 
ATOM     49  C   UNL     1       7.825   5.721 -12.504  1.00  0.00     0.034 A 
ATOM     50  C   UNL     1       7.002  11.862 -14.506  1.00  0.00     0.049 A 
ATOM     51  C   UNL     1       7.739   6.358 -13.864  1.00  0.00     0.074 A 
ATOM     52  C   UNL     1       6.961  12.341 -15.804  1.00  0.00     0.029 A 
ATOM     53  N   UNL     1       7.221  10.496 -14.591  1.00  0.00    -0.354 N 
ATOM     54  N   UNL     1       7.634   7.627 -14.174  1.00  0.00    -0.248 NA
ATOM     55  C   UNL     1       7.811   5.460 -15.027  1.00  0.00     0.031 C 
ATOM     56  C   UNL     1       7.158  11.262 -16.675  1.00  0.00     0.029 A 
ATOM     57  C   UNL     1       7.324  10.114 -15.918  1.00  0.00     0.049 A 
ATOM     58  H   UNL     1       7.294   9.887 -13.821  1.00  0.00     0.167 HD
ATOM     59  C   UNL     1       7.657   7.684 -15.562  1.00  0.00     0.074 A 
ATOM     60  C   UNL     1       7.810   6.323 -16.034  1.00  0.00     0.031 C 
ATOM     61  C   UNL     1       7.541   8.765 -16.373  1.00  0.00     0.034 A 
BRANCH  48  62
ATOM     62  C   UNL     1       6.601  14.076 -13.358  1.00  0.00     0.023 A 
ATOM     63  C   UNL     1       7.658  14.970 -13.088  1.00  0.00     0.012 A 
ATOM     64  C   UNL     1       5.346  14.586 -13.743  1.00  0.00     0.148 A 
ATOM     65  C   UNL     1       7.462  16.348 -13.166  1.00  0.00     0.002 A 
ATOM     66  C   UNL     1       5.169  15.962 -13.856  1.00  0.00     0.091 A 
ATOM     67  F   UNL     1       4.345  13.724 -13.972  1.00  0.00    -0.205 F 
ATOM     68  C   UNL     1       6.222  16.843 -13.559  1.00  0.00     0.022 A 
BRANCH  66  69
ATOM     69  S   UNL     1       3.627  16.689 -14.424  1.00  0.00     0.127 S 
ATOM     70  O   UNL     1       3.037  17.152 -13.169  1.00  0.00    -0.237 OA
ATOM     71  O   UNL     1       4.093  17.759 -15.308  1.00  0.00    -0.237 OA
ATOM     72  O   UNL     1       2.911  15.618 -15.103  1.00  0.00    -0.744 OA
ENDBRANCH  66  69
ENDBRANCH  48  62
BRANCH  49  73
ATOM     73  C   UNL     1       7.992   4.248 -12.355  1.00  0.00     0.023 A 
ATOM     74  C   UNL     1       9.215   3.657 -12.728  1.00  0.00     0.012 A 
ATOM     75  C   UNL     1       6.978   3.439 -11.808  1.00  0.00     0.148 A 
ATOM     76  C   UNL     1       9.417   2.284 -12.582  1.00  0.00     0.002 A 
ATOM     77  C   UNL     1       7.203   2.080 -11.618  1.00  0.00     0.091 A 
ATOM     78  F   UNL     1       5.814   4.016 -11.474  1.00  0.00    -0.205 F 
ATOM     79  C   UNL     1       8.417   1.498 -12.017  1.00  0.00     0.022 A 
BRANCH  77  80
ATOM     80  S   UNL     1       6.019   1.023 -10.776  1.00  0.00     0.127 S 
ATOM     81  O   UNL     1       5.412   0.303 -11.892  1.00  0.00    -0.237 OA
ATOM     82  O   UNL     1       6.885   0.212  -9.918  1.00  0.00    -0.237 OA
ATOM     83  O   UNL     1       5.142   1.930 -10.047  1.00  0.00    -0.744 OA
ENDBRANCH  77  80
ENDBRANCH  49  73
BRANCH  61  84
ATOM     84  C   UNL     1       7.596   8.533 -17.859  1.00  0.00     0.023 A 
ATOM     85  C   UNL     1       6.477   7.983 -18.516  1.00  0.00     0.012 A 
ATOM     86  C   UNL     1       8.715   8.932 -18.614  1.00  0.00     0.148 A 
ATOM     87  C   UNL     1       6.480   7.814 -19.899  1.00  0.00     0.002 A 
ATOM     88  C   UNL     1       8.696   8.797 -19.998  1.00  0.00     0.091 A 
ATOM     89  F   UNL     1       9.780   9.431 -17.969  1.00  0.00    -0.205 F 
ATOM     90  C   UNL     1       7.583   8.232 -20.641  1.00  0.00     0.022 A 
BRANCH  88  91
ATOM     91  S   UNL     1      10.040   9.390 -21.033  1.00  0.00     0.127 S 
ATOM     92  O   UNL     1      10.758   8.153 -21.329  1.00  0.00    -0.237 OA
ATOM     93  O   UNL     1       9.329   9.970 -22.174  1.00  0.00    -0.237 OA
ATOM     94  O   UNL     1      10.762  10.362 -20.223  1.00  0.00    -0.744 OA
ENDBRANCH  88  91
ENDBRANCH  61  84
ENDBRANCH  35  36
ENDBRANCH  27  30
ENDBRANCH  25  26
ENDBRANCH  24  25
ENDBRANCH   1  24
TORSDOF 19
