REMARK SMILES COc1ccc(CCc2nnc(NC(=O)[C@@H]3[C@@H](C(=O)NCCCCNC(=O)c4ccc(-c5c6nc(c(-c7cccc(S(=O)(=O)[O-])c7F)c7ccc([nH]7)c(-c7cccc(S(=O)(=O)[O-])c7F)c7nc(c(-c8cccc(S(=O)(=O)[O-])c8F)c8ccc5[nH]8)C=C7)C=C6)cc4)C3(C)C)s2)cc1
REMARK SMILES IDX 21 1 20 2 18 3 19 4 17 6 16 7 91 8 92 9 93 10 14 11 13 12
REMARK SMILES IDX 15 14 12 15 9 16 10 17 94 18 11 19 8 20 7 21 6 22 3 23 4 24
REMARK SMILES IDX 96 25 5 26 95 27 2 28 1 29 22 30 23 31 24 32 25 33 26 34
REMARK SMILES IDX 27 36 28 37 29 38 90 39 30 40 89 41 31 42 32 43 33 44 83 45
REMARK SMILES IDX 34 46 88 47 82 48 84 49 35 50 87 51 81 52 80 53 36 55 68 56
REMARK SMILES IDX 48 57 67 58 49 59 52 60 66 61 85 62 50 63 51 64 65 66 86 67
REMARK SMILES IDX 53 68 37 69 38 70 46 71 39 72 41 73 47 74 40 75 42 76 43 77
REMARK SMILES IDX 44 78 45 79 69 80 70 81 78 82 71 83 73 84 79 85 72 86 74 87
REMARK SMILES IDX 75 88 76 89 77 90 54 91 55 92 63 93 56 94 58 95 64 96 57 97
REMARK SMILES IDX 59 98 60 99 61 100 62 101
REMARK H PARENT 20 5 13 13 25 35 84 54 52 65
REMARK Flexibility Score: inf
ROOT
ATOM      1  C   UNL     1      -5.580  -1.588   6.659  1.00  0.00     0.116 C 
ENDROOT
BRANCH   1   2
ATOM      2  N   UNL     1      -6.380  -2.414   7.530  1.00  0.00    -0.356 N 
ATOM      3  C   UNL     1      -6.581  -3.754   7.681  1.00  0.00     0.224 C 
ATOM      4  O   UNL     1      -7.446  -4.066   8.501  1.00  0.00    -0.275 OA
ATOM      5  H   UNL     1      -6.909  -1.883   8.168  1.00  0.00     0.163 HD
BRANCH   3   6
ATOM      6  C   UNL     1      -5.851  -4.872   7.023  1.00  0.00     0.098 C 
ATOM      7  C   UNL     1      -4.416  -4.892   6.645  1.00  0.00     0.098 C 
ATOM      8  C   UNL     1      -5.478  -5.072   5.542  1.00  0.00    -0.011 C 
ATOM      9  C   UNL     1      -5.541  -3.999   4.486  1.00  0.00     0.013 C 
ATOM     10  C   UNL     1      -5.934  -6.384   4.956  1.00  0.00     0.013 C 
BRANCH   7  11
ATOM     11  C   UNL     1      -3.365  -5.832   7.141  1.00  0.00     0.230 C 
ATOM     12  N   UNL     1      -3.372  -7.196   7.195  1.00  0.00    -0.300 N 
ATOM     13  H   UNL     1      -2.480  -7.603   7.286  1.00  0.00     0.172 HD
ATOM     14  O   UNL     1      -2.280  -5.313   7.429  1.00  0.00    -0.274 OA
BRANCH  12  15
ATOM     15  C   UNL     1      -4.389  -8.089   7.146  1.00  0.00     0.212 A 
ATOM     16  C   UNL     1      -5.597  -9.892   6.253  1.00  0.00     0.119 A 
ATOM     17  N   UNL     1      -6.385  -9.019   6.845  1.00  0.00    -0.142 NA
ATOM     18  S   UNL     1      -3.929  -9.652   6.619  1.00  0.00    -0.080 S 
ATOM     19  N   UNL     1      -5.668  -7.962   7.373  1.00  0.00    -0.120 NA
BRANCH  16  20
ATOM     20  C   UNL     1      -6.073 -10.943   5.301  1.00  0.00     0.074 C 
BRANCH  20  21
ATOM     21  C   UNL     1      -6.050 -10.454   3.837  1.00  0.00     0.043 C 
BRANCH  21  22
ATOM     22  C   UNL     1      -4.681 -10.562   3.199  1.00  0.00    -0.047 A 
ATOM     23  C   UNL     1      -2.040 -10.850   2.274  1.00  0.00     0.118 A 
ATOM     24  C   UNL     1      -2.486  -9.623   2.759  1.00  0.00     0.046 A 
ATOM     25  C   UNL     1      -2.923 -11.928   2.215  1.00  0.00     0.046 A 
ATOM     26  C   UNL     1      -3.804  -9.472   3.188  1.00  0.00     0.007 A 
ATOM     27  C   UNL     1      -4.236 -11.784   2.679  1.00  0.00     0.007 A 
BRANCH  23  28
ATOM     28  O   UNL     1      -0.711 -10.910   1.963  1.00  0.00    -0.497 OA
ATOM     29  C   UNL     1      -0.389 -11.712   0.835  1.00  0.00     0.278 C 
ENDBRANCH  23  28
ENDBRANCH  21  22
ENDBRANCH  20  21
ENDBRANCH  16  20
ENDBRANCH  12  15
ENDBRANCH   7  11
ENDBRANCH   3   6
ENDBRANCH   1   2
BRANCH   1  30
ATOM     30  C   UNL     1      -6.429  -0.995   5.533  1.00  0.00     0.023 C 
BRANCH  30  31
ATOM     31  C   UNL     1      -7.261   0.221   5.929  1.00  0.00     0.023 C 
BRANCH  31  32
ATOM     32  C   UNL     1      -6.468   1.392   6.488  1.00  0.00     0.116 C 
BRANCH  32  33
ATOM     33  N   UNL     1      -5.356   1.796   5.637  1.00  0.00    -0.352 N 
ATOM     34  C   UNL     1      -4.955   3.062   5.285  1.00  0.00     0.251 C 
ATOM     35  H   UNL     1      -4.819   1.061   5.262  1.00  0.00     0.163 HD
ATOM     36  O   UNL     1      -4.058   3.216   4.460  1.00  0.00    -0.269 OA
BRANCH  34  37
ATOM     37  C   UNL     1      -5.635   4.230   5.879  1.00  0.00     0.039 A 
ATOM     38  C   UNL     1      -6.046   5.269   5.042  1.00  0.00     0.014 A 
ATOM     39  C   UNL     1      -5.915   4.271   7.247  1.00  0.00     0.014 A 
ATOM     40  C   UNL     1      -6.803   6.315   5.569  1.00  0.00     0.010 A 
ATOM     41  C   UNL     1      -6.748   5.263   7.750  1.00  0.00     0.010 A 
ATOM     42  C   UNL     1      -7.197   6.299   6.918  1.00  0.00    -0.014 A 
BRANCH  42  43
ATOM     43  C   UNL     1      -8.098   7.344   7.463  1.00  0.00     0.031 A 
ATOM     44  C   UNL     1      -7.641   8.243   8.578  1.00  0.00     0.074 A 
ATOM     45  C   UNL     1      -9.364   7.426   7.005  1.00  0.00     0.049 A 
ATOM     46  N   UNL     1      -8.288   9.214   9.169  1.00  0.00    -0.248 NA
ATOM     47  C   UNL     1      -6.295   8.002   9.126  1.00  0.00     0.031 C 
ATOM     48  C   UNL     1      -9.962   6.535   6.007  1.00  0.00     0.029 A 
ATOM     49  N   UNL     1     -10.380   8.288   7.330  1.00  0.00    -0.354 N 
ATOM     50  C   UNL     1      -7.447   9.675  10.174  1.00  0.00     0.074 A 
ATOM     51  C   UNL     1      -6.260   8.849  10.144  1.00  0.00     0.031 C 
ATOM     52  C   UNL     1     -11.233   6.908   5.789  1.00  0.00     0.029 A 
ATOM     53  C   UNL     1     -11.547   8.049   6.643  1.00  0.00     0.049 A 
ATOM     54  H   UNL     1     -10.284   9.010   7.993  1.00  0.00     0.167 HD
ATOM     55  C   UNL     1      -7.628  10.716  11.021  1.00  0.00     0.034 A 
ATOM     56  C   UNL     1     -12.735   8.683   6.689  1.00  0.00     0.034 A 
ATOM     57  C   UNL     1      -8.789  11.564  11.013  1.00  0.00     0.049 A 
ATOM     58  C   UNL     1     -12.884   9.883   7.583  1.00  0.00     0.074 A 
ATOM     59  C   UNL     1      -9.022  12.711  11.749  1.00  0.00     0.029 A 
ATOM     60  N   UNL     1      -9.916  11.352  10.234  1.00  0.00    -0.354 N 
ATOM     61  N   UNL     1     -12.003  10.427   8.388  1.00  0.00    -0.248 NA
ATOM     62  C   UNL     1     -14.176  10.582   7.546  1.00  0.00     0.031 C 
ATOM     63  C   UNL     1     -10.301  13.181  11.431  1.00  0.00     0.029 A 
ATOM     64  C   UNL     1     -10.855  12.339  10.480  1.00  0.00     0.049 A 
ATOM     65  H   UNL     1     -10.032  10.609   9.599  1.00  0.00     0.167 HD
ATOM     66  C   UNL     1     -12.623  11.544   8.933  1.00  0.00     0.074 A 
ATOM     67  C   UNL     1     -13.944  11.617   8.342  1.00  0.00     0.031 C 
ATOM     68  C   UNL     1     -12.150  12.421   9.854  1.00  0.00     0.034 A 
BRANCH  55  69
ATOM     69  C   UNL     1      -6.514  11.032  11.985  1.00  0.00     0.023 A 
ATOM     70  C   UNL     1      -5.307  11.575  11.496  1.00  0.00     0.012 A 
ATOM     71  C   UNL     1      -6.672  10.839  13.371  1.00  0.00     0.148 A 
ATOM     72  C   UNL     1      -4.261  11.884  12.365  1.00  0.00     0.002 A 
ATOM     73  C   UNL     1      -5.642  11.193  14.236  1.00  0.00     0.091 A 
ATOM     74  F   UNL     1      -7.816  10.300  13.816  1.00  0.00    -0.205 F 
ATOM     75  C   UNL     1      -4.433  11.703  13.735  1.00  0.00     0.022 A 
BRANCH  73  76
ATOM     76  S   UNL     1      -5.794  11.073  16.022  1.00  0.00     0.127 S 
ATOM     77  O   UNL     1      -4.929   9.932  16.316  1.00  0.00    -0.237 OA
ATOM     78  O   UNL     1      -5.269  12.366  16.463  1.00  0.00    -0.237 OA
ATOM     79  O   UNL     1      -7.211  10.872  16.290  1.00  0.00    -0.744 OA
ENDBRANCH  73  76
ENDBRANCH  55  69
BRANCH  56  80
ATOM     80  C   UNL     1     -13.844   8.245   5.795  1.00  0.00     0.023 A 
ATOM     81  C   UNL     1     -14.214   9.057   4.705  1.00  0.00     0.012 A 
ATOM     82  C   UNL     1     -14.499   7.013   5.988  1.00  0.00     0.148 A 
ATOM     83  C   UNL     1     -15.236   8.664   3.840  1.00  0.00     0.002 A 
ATOM     84  C   UNL     1     -15.479   6.603   5.090  1.00  0.00     0.091 A 
ATOM     85  F   UNL     1     -14.139   6.260   7.037  1.00  0.00    -0.205 F 
ATOM     86  C   UNL     1     -15.860   7.434   4.026  1.00  0.00     0.022 A 
BRANCH  84  87
ATOM     87  S   UNL     1     -16.237   4.977   5.171  1.00  0.00     0.127 S 
ATOM     88  O   UNL     1     -17.591   5.300   5.615  1.00  0.00    -0.237 OA
ATOM     89  O   UNL     1     -16.135   4.526   3.783  1.00  0.00    -0.237 OA
ATOM     90  O   UNL     1     -15.427   4.212   6.110  1.00  0.00    -0.744 OA
ENDBRANCH  84  87
ENDBRANCH  56  80
BRANCH  68  91
ATOM     91  C   UNL     1     -13.062  13.544  10.275  1.00  0.00     0.023 A 
ATOM     92  C   UNL     1     -14.179  13.267  11.088  1.00  0.00     0.012 A 
ATOM     93  C   UNL     1     -12.780  14.877   9.917  1.00  0.00     0.148 A 
ATOM     94  C   UNL     1     -15.023  14.294  11.507  1.00  0.00     0.002 A 
ATOM     95  C   UNL     1     -13.598  15.901  10.380  1.00  0.00     0.091 A 
ATOM     96  F   UNL     1     -11.724  15.119   9.127  1.00  0.00    -0.205 F 
ATOM     97  C   UNL     1     -14.726  15.611  11.164  1.00  0.00     0.022 A 
BRANCH  95  98
ATOM     98  S   UNL     1     -13.237  17.632  10.065  1.00  0.00     0.127 S 
ATOM     99  O   UNL     1     -14.220  17.959   9.034  1.00  0.00    -0.237 OA
ATOM    100  O   UNL     1     -13.492  18.247  11.368  1.00  0.00    -0.237 OA
ATOM    101  O   UNL     1     -11.844  17.678   9.641  1.00  0.00    -0.744 OA
ENDBRANCH  95  98
ENDBRANCH  68  91
ENDBRANCH  42  43
ENDBRANCH  34  37
ENDBRANCH  32  33
ENDBRANCH  31  32
ENDBRANCH  30  31
ENDBRANCH   1  30
TORSDOF 20
