REMARK SMILES CCCc1cc2c(cc1Cl)C=C(C(=O)NCCCCNC(=O)c1ccc(-c3c4nc(c(-c5cccc(S(=O)(=O)[O-])c5F)c5ccc([nH]5)c(-c5cccc(S(=O)(=O)[O-])c5F)c5nc(c(-c6cccc(S(=O)(=O)[O-])c6F)c6ccc3[nH]6)C=C5)C=C4)cc1)[C@@H](C(F)(F)F)O2
REMARK SMILES IDX 18 1 17 2 16 3 15 4 13 5 14 6 12 8 4 9 5 10 9 11 6 12 8 13
REMARK SMILES IDX 10 14 7 15 91 16 11 17 86 18 3 19 2 20 1 21 87 22 88 23
REMARK SMILES IDX 89 24 90 25 19 26 20 27 21 28 22 30 23 31 24 32 85 33 25 34
REMARK SMILES IDX 84 35 26 36 27 37 28 38 78 39 29 40 83 41 77 42 79 43 30 44
REMARK SMILES IDX 82 45 76 46 75 47 31 49 63 50 43 51 62 52 44 53 47 54 61 55
REMARK SMILES IDX 80 56 45 57 46 58 60 60 81 61 48 62 32 63 33 64 41 65 34 66
REMARK SMILES IDX 36 67 42 68 35 69 37 70 38 71 39 72 40 73 64 74 65 75 73 76
REMARK SMILES IDX 66 77 68 78 74 79 67 80 69 81 70 82 71 83 72 84 49 85 50 86
REMARK SMILES IDX 58 87 51 88 53 89 59 90 52 91 54 92 55 93 56 94 57 95
REMARK H PARENT 15 7 20 29 79 48 47 59
REMARK Flexibility Score: inf
ROOT
ATOM      1  C   UNL     1       1.501  -9.966   6.956  1.00  0.00     0.023 C 
ENDROOT
BRANCH   1   2
ATOM      2  C   UNL     1       1.345  -9.184   5.648  1.00  0.00     0.023 C 
BRANCH   2   3
ATOM      3  C   UNL     1      -0.087  -8.765   5.327  1.00  0.00     0.116 C 
BRANCH   3   4
ATOM      4  N   UNL     1      -0.462  -7.540   6.012  1.00  0.00    -0.352 N 
ATOM      5  C   UNL     1      -0.588  -6.231   5.694  1.00  0.00     0.251 C 
ATOM      6  O   UNL     1      -0.954  -5.497   6.618  1.00  0.00    -0.270 OA
ATOM      7  H   UNL     1      -0.684  -7.707   6.956  1.00  0.00     0.163 HD
BRANCH   5   8
ATOM      8  C   UNL     1      -0.319  -5.637   4.351  1.00  0.00     0.067 C 
ATOM      9  C   UNL     1       0.315  -2.432   0.470  1.00  0.00    -0.026 A 
ATOM     10  C   UNL     1       0.759  -3.739   0.776  1.00  0.00     0.052 A 
ATOM     11  C   UNL     1      -0.468  -1.779   1.440  1.00  0.00     0.045 A 
ATOM     12  C   UNL     1       0.452  -4.350   1.991  1.00  0.00     0.128 A 
ATOM     13  C   UNL     1      -0.717  -2.377   2.688  1.00  0.00     0.032 A 
ATOM     14  Cl  UNL     1      -1.233  -0.251   1.197  1.00  0.00    -0.084 Cl
ATOM     15  C   UNL     1      -0.258  -3.663   2.967  1.00  0.00     0.019 A 
ATOM     16  O   UNL     1       0.883  -5.634   2.177  1.00  0.00    -0.475 OA
ATOM     17  C   UNL     1      -0.495  -4.304   4.255  1.00  0.00     0.025 C 
ATOM     18  C   UNL     1       0.095  -6.411   3.131  1.00  0.00     0.314 C 
BRANCH   9  19
ATOM     19  C   UNL     1       0.663  -1.945  -0.925  1.00  0.00     0.037 C 
BRANCH  19  20
ATOM     20  C   UNL     1       0.763  -0.458  -1.277  1.00  0.00     0.001 C 
ATOM     21  C   UNL     1       1.812   0.300  -0.479  1.00  0.00     0.004 C 
ENDBRANCH  19  20
ENDBRANCH   9  19
BRANCH  18  22
ATOM     22  C   UNL     1      -1.108  -7.061   2.414  1.00  0.00     0.429 C 
ATOM     23  F   UNL     1      -0.683  -7.998   1.530  1.00  0.00    -0.167 F 
ATOM     24  F   UNL     1      -1.945  -7.689   3.272  1.00  0.00    -0.167 F 
ATOM     25  F   UNL     1      -1.854  -6.168   1.725  1.00  0.00    -0.167 F 
ENDBRANCH  18  22
ENDBRANCH   5   8
ENDBRANCH   3   4
ENDBRANCH   2   3
ENDBRANCH   1   2
BRANCH   1  26
ATOM     26  C   UNL     1       0.637 -11.219   7.079  1.00  0.00     0.116 C 
BRANCH  26  27
ATOM     27  N   UNL     1       0.755 -12.142   5.958  1.00  0.00    -0.352 N 
ATOM     28  C   UNL     1       0.466 -13.491   5.946  1.00  0.00     0.251 C 
ATOM     29  H   UNL     1       1.079 -11.758   5.111  1.00  0.00     0.163 HD
ATOM     30  O   UNL     1       0.682 -14.166   4.949  1.00  0.00    -0.269 OA
BRANCH  28  31
ATOM     31  C   UNL     1      -0.050 -14.107   7.187  1.00  0.00     0.039 A 
ATOM     32  C   UNL     1      -1.150 -13.549   7.838  1.00  0.00     0.014 A 
ATOM     33  C   UNL     1       0.646 -15.177   7.755  1.00  0.00     0.014 A 
ATOM     34  C   UNL     1      -1.441 -13.939   9.139  1.00  0.00     0.010 A 
ATOM     35  C   UNL     1       0.299 -15.621   9.034  1.00  0.00     0.010 A 
ATOM     36  C   UNL     1      -0.705 -14.963   9.760  1.00  0.00    -0.014 A 
BRANCH  36  37
ATOM     37  C   UNL     1      -0.995 -15.300  11.177  1.00  0.00     0.031 A 
ATOM     38  C   UNL     1       0.024 -15.050  12.258  1.00  0.00     0.074 A 
ATOM     39  C   UNL     1      -2.217 -15.767  11.500  1.00  0.00     0.049 A 
ATOM     40  N   UNL     1      -0.098 -15.212  13.551  1.00  0.00    -0.248 NA
ATOM     41  C   UNL     1       1.349 -14.559  11.843  1.00  0.00     0.031 C 
ATOM     42  C   UNL     1      -3.281 -16.066  10.539  1.00  0.00     0.029 A 
ATOM     43  N   UNL     1      -2.781 -16.041  12.719  1.00  0.00    -0.354 N 
ATOM     44  C   UNL     1       1.138 -14.887  14.097  1.00  0.00     0.074 A 
ATOM     45  C   UNL     1       2.001 -14.516  12.998  1.00  0.00     0.031 C 
ATOM     46  C   UNL     1      -4.387 -16.424  11.207  1.00  0.00     0.029 A 
ATOM     47  C   UNL     1      -4.100 -16.423  12.639  1.00  0.00     0.049 A 
ATOM     48  H   UNL     1      -2.290 -15.972  13.569  1.00  0.00     0.167 HD
ATOM     49  C   UNL     1       1.512 -14.875  15.397  1.00  0.00     0.034 A 
ATOM     50  C   UNL     1      -4.985 -16.730  13.606  1.00  0.00     0.034 A 
ATOM     51  C   UNL     1       0.635 -15.175  16.496  1.00  0.00     0.049 A 
ATOM     52  C   UNL     1      -4.554 -16.673  15.042  1.00  0.00     0.074 A 
ATOM     53  C   UNL     1       0.917 -15.139  17.851  1.00  0.00     0.029 A 
ATOM     54  N   UNL     1      -0.691 -15.554  16.371  1.00  0.00    -0.354 N 
ATOM     55  N   UNL     1      -3.404 -16.289  15.537  1.00  0.00    -0.248 NA
ATOM     56  C   UNL     1      -5.541 -17.082  16.052  1.00  0.00     0.031 C 
ATOM     57  C   UNL     1      -0.243 -15.492  18.547  1.00  0.00     0.029 A 
ATOM     58  C   UNL     1      -1.243 -15.753  17.624  1.00  0.00     0.049 A 
ATOM     59  H   UNL     1      -1.169 -15.665  15.518  1.00  0.00     0.167 HD
ATOM     60  C   UNL     1      -3.526 -16.407  16.916  1.00  0.00     0.074 A 
ATOM     61  C   UNL     1      -4.872 -16.872  17.180  1.00  0.00     0.031 C 
ATOM     62  C   UNL     1      -2.596 -16.174  17.872  1.00  0.00     0.034 A 
BRANCH  49  63
ATOM     63  C   UNL     1       2.920 -14.464  15.726  1.00  0.00     0.023 A 
ATOM     64  C   UNL     1       3.235 -13.093  15.793  1.00  0.00     0.012 A 
ATOM     65  C   UNL     1       3.894 -15.421  16.072  1.00  0.00     0.148 A 
ATOM     66  C   UNL     1       4.503 -12.678  16.195  1.00  0.00     0.002 A 
ATOM     67  C   UNL     1       5.149 -14.998  16.495  1.00  0.00     0.091 A 
ATOM     68  F   UNL     1       3.573 -16.719  15.986  1.00  0.00    -0.205 F 
ATOM     69  C   UNL     1       5.455 -13.628  16.555  1.00  0.00     0.022 A 
BRANCH  67  70
ATOM     70  S   UNL     1       6.432 -16.137  17.029  1.00  0.00     0.127 S 
ATOM     71  O   UNL     1       7.430 -15.971  15.972  1.00  0.00    -0.237 OA
ATOM     72  O   UNL     1       6.818 -15.579  18.325  1.00  0.00    -0.237 OA
ATOM     73  O   UNL     1       5.806 -17.450  17.090  1.00  0.00    -0.744 OA
ENDBRANCH  67  70
ENDBRANCH  49  63
BRANCH  50  74
ATOM     74  C   UNL     1      -6.386 -17.051  13.227  1.00  0.00     0.023 A 
ATOM     75  C   UNL     1      -7.392 -16.091  13.446  1.00  0.00     0.012 A 
ATOM     76  C   UNL     1      -6.707 -18.252  12.566  1.00  0.00     0.148 A 
ATOM     77  C   UNL     1      -8.697 -16.322  13.009  1.00  0.00     0.002 A 
ATOM     78  C   UNL     1      -7.997 -18.455  12.093  1.00  0.00     0.091 A 
ATOM     79  F   UNL     1      -5.732 -19.153  12.382  1.00  0.00    -0.205 F 
ATOM     80  C   UNL     1      -8.996 -17.496  12.322  1.00  0.00     0.022 A 
BRANCH  78  81
ATOM     81  S   UNL     1      -8.442 -19.875  11.086  1.00  0.00     0.127 S 
ATOM     82  O   UNL     1      -9.320 -20.616  11.988  1.00  0.00    -0.237 OA
ATOM     83  O   UNL     1      -9.115 -19.241   9.952  1.00  0.00    -0.237 OA
ATOM     84  O   UNL     1      -7.185 -20.529  10.751  1.00  0.00    -0.744 OA
ENDBRANCH  78  81
ENDBRANCH  50  74
BRANCH  62  85
ATOM     85  C   UNL     1      -2.979 -16.427  19.302  1.00  0.00     0.023 A 
ATOM     86  C   UNL     1      -2.932 -17.744  19.796  1.00  0.00     0.012 A 
ATOM     87  C   UNL     1      -3.256 -15.361  20.179  1.00  0.00     0.148 A 
ATOM     88  C   UNL     1      -3.159 -18.000  21.146  1.00  0.00     0.002 A 
ATOM     89  C   UNL     1      -3.453 -15.620  21.530  1.00  0.00     0.091 A 
ATOM     90  F   UNL     1      -3.301 -14.118  19.678  1.00  0.00    -0.205 F 
ATOM     91  C   UNL     1      -3.408 -16.939  22.014  1.00  0.00     0.022 A 
BRANCH  89  92
ATOM     92  S   UNL     1      -3.711 -14.318  22.740  1.00  0.00     0.127 S 
ATOM     93  O   UNL     1      -5.088 -14.573  23.161  1.00  0.00    -0.237 OA
ATOM     94  O   UNL     1      -2.696 -14.627  23.747  1.00  0.00    -0.237 OA
ATOM     95  O   UNL     1      -3.503 -13.062  22.032  1.00  0.00    -0.744 OA
ENDBRANCH  89  92
ENDBRANCH  62  85
ENDBRANCH  36  37
ENDBRANCH  28  31
ENDBRANCH  26  27
ENDBRANCH   1  26
TORSDOF 17
