REMARK SMILES C[C@@H](C(=O)NCCCCNC(=O)c1ccc(-c2c3nc(c(-c4cccc(S(=O)(=O)[O-])c4F)c4ccc([nH]4)c(-c4cccc(S(=O)(=O)[O-])c4F)c4nc(c(-c5cccc(S(=O)(=O)[O-])c5F)c5ccc2[nH]5)C=C4)C=C3)cc1)c1ccc(=O)n(C(F)F)c1
REMARK SMILES IDX 8 1 7 2 6 3 5 4 3 5 4 6 2 8 1 9 76 10 77 11 85 12 78 13
REMARK SMILES IDX 81 14 79 15 80 16 82 17 83 18 84 19 9 20 10 21 11 22 12 24
REMARK SMILES IDX 13 25 14 26 75 27 15 28 74 29 16 30 17 31 18 32 68 33 19 34
REMARK SMILES IDX 73 35 67 36 69 37 20 38 72 39 66 40 65 41 21 43 53 44 33 45
REMARK SMILES IDX 52 46 34 47 37 48 51 49 70 50 35 51 36 52 50 54 71 55 38 56
REMARK SMILES IDX 22 57 23 58 31 59 24 60 26 61 32 62 25 63 27 64 28 65 29 66
REMARK SMILES IDX 30 67 54 68 55 69 63 70 56 71 58 72 64 73 57 74 59 75 60 76
REMARK SMILES IDX 61 77 62 78 39 79 40 80 48 81 41 82 43 83 49 84 42 85 44 86
REMARK SMILES IDX 45 87 46 88 47 89
REMARK H PARENT 5 7 10 23 69 42 37 53
REMARK Flexibility Score: inf
ROOT
ATOM      1  C   UNL     1       4.951   1.443   1.963  1.00  0.00     0.023 C 
ENDROOT
BRANCH   1   2
ATOM      2  C   UNL     1       4.151   0.518   1.042  1.00  0.00     0.023 C 
BRANCH   2   3
ATOM      3  C   UNL     1       3.376  -0.586   1.764  1.00  0.00     0.116 C 
BRANCH   3   4
ATOM      4  N   UNL     1       2.314  -0.028   2.575  1.00  0.00    -0.356 N 
ATOM      5  C   UNL     1       0.977   0.076   2.321  1.00  0.00     0.227 C 
ATOM      6  O   UNL     1       0.301   0.711   3.133  1.00  0.00    -0.274 OA
ATOM      7  H   UNL     1       2.600   0.334   3.445  1.00  0.00     0.163 HD
BRANCH   5   8
ATOM      8  C   UNL     1       0.370  -0.614   1.081  1.00  0.00     0.107 C 
ATOM      9  C   UNL     1       0.817   0.025  -0.238  1.00  0.00     0.023 C 
BRANCH   8  10
ATOM     10  C   UNL     1      -1.153  -0.606   1.133  1.00  0.00    -0.019 A 
ATOM     11  C   UNL     1      -1.856  -1.873   1.160  1.00  0.00     0.012 A 
ATOM     12  C   UNL     1      -1.878   0.526   1.086  1.00  0.00     0.099 A 
ATOM     13  C   UNL     1      -3.192  -1.917   1.080  1.00  0.00     0.072 A 
ATOM     14  N   UNL     1      -3.259   0.512   1.017  1.00  0.00    -0.258 N 
ATOM     15  C   UNL     1      -3.988  -0.663   0.963  1.00  0.00     0.254 A 
ATOM     16  O   UNL     1      -5.204  -0.751   0.822  1.00  0.00    -0.269 OA
BRANCH  14  17
ATOM     17  C   UNL     1      -3.982   1.751   0.896  1.00  0.00     0.451 C 
ATOM     18  F   UNL     1      -4.500   1.877  -0.352  1.00  0.00    -0.185 F 
ATOM     19  F   UNL     1      -5.005   1.825   1.780  1.00  0.00    -0.185 F 
ENDBRANCH  14  17
ENDBRANCH   8  10
ENDBRANCH   5   8
ENDBRANCH   3   4
ENDBRANCH   2   3
ENDBRANCH   1   2
BRANCH   1  20
ATOM     20  C   UNL     1       5.966   0.742   2.857  1.00  0.00     0.116 C 
BRANCH  20  21
ATOM     21  N   UNL     1       6.942  -0.028   2.101  1.00  0.00    -0.352 N 
ATOM     22  C   UNL     1       8.293  -0.143   2.304  1.00  0.00     0.251 C 
ATOM     23  H   UNL     1       6.582  -0.536   1.338  1.00  0.00     0.163 HD
ATOM     24  O   UNL     1       8.984  -0.724   1.467  1.00  0.00    -0.269 OA
BRANCH  22  25
ATOM     25  C   UNL     1       8.919   0.444   3.509  1.00  0.00     0.039 A 
ATOM     26  C   UNL     1      10.142   1.107   3.377  1.00  0.00     0.014 A 
ATOM     27  C   UNL     1       8.316   0.332   4.765  1.00  0.00     0.014 A 
ATOM     28  C   UNL     1      10.742   1.683   4.498  1.00  0.00     0.010 A 
ATOM     29  C   UNL     1       8.871   0.983   5.863  1.00  0.00     0.010 A 
ATOM     30  C   UNL     1      10.104   1.641   5.749  1.00  0.00    -0.014 A 
BRANCH  30  31
ATOM     31  C   UNL     1      10.732   2.252   6.948  1.00  0.00     0.031 A 
ATOM     32  C   UNL     1      11.118   1.392   8.123  1.00  0.00     0.074 A 
ATOM     33  C   UNL     1      10.908   3.587   7.004  1.00  0.00     0.049 A 
ATOM     34  N   UNL     1      11.687   1.741   9.248  1.00  0.00    -0.248 NA
ATOM     35  C   UNL     1      10.800  -0.044   8.038  1.00  0.00     0.031 C 
ATOM     36  C   UNL     1      10.504   4.538   5.966  1.00  0.00     0.029 A 
ATOM     37  N   UNL     1      11.461   4.377   7.980  1.00  0.00    -0.354 N 
ATOM     38  C   UNL     1      11.758   0.584  10.015  1.00  0.00     0.074 A 
ATOM     39  C   UNL     1      11.139  -0.471   9.245  1.00  0.00     0.031 C 
ATOM     40  C   UNL     1      10.844   5.779   6.351  1.00  0.00     0.029 A 
ATOM     41  C   UNL     1      11.463   5.717   7.671  1.00  0.00     0.049 A 
ATOM     42  H   UNL     1      11.824   4.018   8.822  1.00  0.00     0.167 HD
ATOM     43  C   UNL     1      12.313   0.405  11.238  1.00  0.00     0.034 A 
ATOM     44  C   UNL     1      11.916   6.776   8.371  1.00  0.00     0.034 A 
ATOM     45  C   UNL     1      12.967   1.447  11.982  1.00  0.00     0.049 A 
ATOM     46  C   UNL     1      12.571   6.542   9.706  1.00  0.00     0.074 A 
ATOM     47  C   UNL     1      13.647   1.350  13.183  1.00  0.00     0.029 A 
ATOM     48  N   UNL     1      13.011   2.780  11.604  1.00  0.00    -0.354 N 
ATOM     49  N   UNL     1      12.778   5.413  10.339  1.00  0.00    -0.248 NA
ATOM     50  C   UNL     1      13.093   7.726  10.403  1.00  0.00     0.031 C 
ATOM     51  C   UNL     1      14.070   2.631  13.549  1.00  0.00     0.029 A 
ATOM     52  C   UNL     1      13.694   3.519  12.554  1.00  0.00     0.049 A 
ATOM     53  H   UNL     1      12.616   3.147  10.780  1.00  0.00     0.167 HD
ATOM     54  C   UNL     1      13.495   5.744  11.484  1.00  0.00     0.074 A 
ATOM     55  C   UNL     1      13.700   7.178  11.446  1.00  0.00     0.031 C 
ATOM     56  C   UNL     1      13.937   4.937  12.480  1.00  0.00     0.034 A 
BRANCH  43  57
ATOM     57  C   UNL     1      12.268  -0.979  11.833  1.00  0.00     0.023 A 
ATOM     58  C   UNL     1      13.043  -2.014  11.268  1.00  0.00     0.012 A 
ATOM     59  C   UNL     1      11.499  -1.244  12.983  1.00  0.00     0.148 A 
ATOM     60  C   UNL     1      13.019  -3.298  11.811  1.00  0.00     0.002 A 
ATOM     61  C   UNL     1      11.521  -2.514  13.549  1.00  0.00     0.091 A 
ATOM     62  F   UNL     1      10.753  -0.255  13.495  1.00  0.00    -0.205 F 
ATOM     63  C   UNL     1      12.267  -3.545  12.956  1.00  0.00     0.022 A 
BRANCH  61  64
ATOM     64  S   UNL     1      10.655  -2.910  15.072  1.00  0.00     0.127 S 
ATOM     65  O   UNL     1       9.585  -3.779  14.584  1.00  0.00    -0.237 OA
ATOM     66  O   UNL     1      11.692  -3.595  15.845  1.00  0.00    -0.237 OA
ATOM     67  O   UNL     1      10.221  -1.637  15.630  1.00  0.00    -0.744 OA
ENDBRANCH  61  64
ENDBRANCH  43  57
BRANCH  44  68
ATOM     68  C   UNL     1      11.841   8.146   7.788  1.00  0.00     0.023 A 
ATOM     69  C   UNL     1      13.029   8.798   7.401  1.00  0.00     0.012 A 
ATOM     70  C   UNL     1      10.608   8.799   7.603  1.00  0.00     0.148 A 
ATOM     71  C   UNL     1      12.993  10.091   6.878  1.00  0.00     0.002 A 
ATOM     72  C   UNL     1      10.575  10.064   7.029  1.00  0.00     0.091 A 
ATOM     73  F   UNL     1       9.491   8.163   7.983  1.00  0.00    -0.205 F 
ATOM     74  C   UNL     1      11.767  10.720   6.684  1.00  0.00     0.022 A 
BRANCH  72  75
ATOM     75  S   UNL     1       9.038  10.899   6.623  1.00  0.00     0.127 S 
ATOM     76  O   UNL     1       9.044  12.013   7.569  1.00  0.00    -0.237 OA
ATOM     77  O   UNL     1       9.260  11.274   5.226  1.00  0.00    -0.237 OA
ATOM     78  O   UNL     1       7.987   9.910   6.819  1.00  0.00    -0.744 OA
ENDBRANCH  72  75
ENDBRANCH  44  68
BRANCH  56  79
ATOM     79  C   UNL     1      14.739   5.569  13.588  1.00  0.00     0.023 A 
ATOM     80  C   UNL     1      14.116   6.425  14.517  1.00  0.00     0.012 A 
ATOM     81  C   UNL     1      16.107   5.265  13.738  1.00  0.00     0.148 A 
ATOM     82  C   UNL     1      14.851   7.004  15.552  1.00  0.00     0.002 A 
ATOM     83  C   UNL     1      16.820   5.800  14.804  1.00  0.00     0.091 A 
ATOM     84  F   UNL     1      16.688   4.463  12.834  1.00  0.00    -0.205 F 
ATOM     85  C   UNL     1      16.199   6.682  15.702  1.00  0.00     0.022 A 
BRANCH  83  86
ATOM     86  S   UNL     1      18.529   5.357  15.133  1.00  0.00     0.127 S 
ATOM     87  O   UNL     1      19.235   6.570  14.725  1.00  0.00    -0.237 OA
ATOM     88  O   UNL     1      18.515   5.116  16.577  1.00  0.00    -0.237 OA
ATOM     89  O   UNL     1      18.799   4.173  14.328  1.00  0.00    -0.744 OA
ENDBRANCH  83  86
ENDBRANCH  56  79
ENDBRANCH  30  31
ENDBRANCH  22  25
ENDBRANCH  20  21
ENDBRANCH   1  20
TORSDOF 16
