REMARK SMILES COc1cccc(-c2cc(OCC(=O)NCCCCNC(=O)c3ccc(-c4c5nc(c(-c6cccc(S(=O)(=O)[O-])c6F)c6ccc([nH]6)c(-c6cccc(S(=O)(=O)[O-])c6F)c6nc(c(-c7cccc(S(=O)(=O)[O-])c7F)c7ccc4[nH]7)C=C6)C=C5)cc3)nc(Nc3ccccc3Br)n2)c1
REMARK SMILES IDX 17 1 16 2 15 3 13 4 14 5 12 7 11 8 10 9 8 10 9 11 96 12
REMARK SMILES IDX 87 13 86 14 7 15 3 16 4 17 97 18 5 19 6 20 2 21 1 22 88 23
REMARK SMILES IDX 89 25 90 26 94 27 91 28 93 29 95 30 92 31 18 32 19 33 20 34
REMARK SMILES IDX 21 35 22 37 23 38 24 39 85 40 25 41 84 42 26 43 27 44 28 45
REMARK SMILES IDX 78 46 29 47 83 48 77 49 79 50 30 51 82 52 76 53 75 54 31 56
REMARK SMILES IDX 63 57 43 58 62 59 44 60 47 61 61 62 80 63 45 64 46 65 60 67
REMARK SMILES IDX 81 68 48 69 32 70 33 71 41 72 34 73 36 74 42 75 35 76 37 77
REMARK SMILES IDX 38 78 39 79 40 80 64 81 65 82 73 83 66 84 68 85 74 86 67 87
REMARK SMILES IDX 69 88 70 89 71 90 72 91 49 92 50 93 58 94 51 95 53 96 59 97
REMARK SMILES IDX 52 98 54 99 55 100 56 101 57 102
REMARK H PARENT 15 6 88 24 20 36 79 55 47 66
REMARK Flexibility Score: inf
ROOT
ATOM      1  C   UNL     1       8.183   1.045  -0.109  1.00  0.00     0.023 C 
ENDROOT
BRANCH   1   2
ATOM      2  C   UNL     1       8.278   0.294  -1.435  1.00  0.00     0.116 C 
BRANCH   2   3
ATOM      3  N   UNL     1       6.981  -0.141  -1.913  1.00  0.00    -0.353 N 
ATOM      4  C   UNL     1       6.270   0.343  -2.970  1.00  0.00     0.258 C 
ATOM      5  O   UNL     1       5.179  -0.162  -3.240  1.00  0.00    -0.271 OA
ATOM      6  H   UNL     1       6.561  -0.877  -1.413  1.00  0.00     0.163 HD
BRANCH   4   7
ATOM      7  C   UNL     1       6.845   1.490  -3.813  1.00  0.00     0.331 C 
BRANCH   7   8
ATOM      8  O   UNL     1       7.139   2.703  -3.138  1.00  0.00    -0.467 OA
BRANCH   8   9
ATOM      9  C   UNL     1       6.099   3.390  -2.576  1.00  0.00     0.219 A 
ATOM     10  C   UNL     1       3.878   3.835  -2.019  1.00  0.00     0.080 A 
ATOM     11  C   UNL     1       4.776   3.063  -2.718  1.00  0.00     0.097 A 
ATOM     12  N   UNL     1       4.256   4.892  -1.288  1.00  0.00    -0.212 NA
ATOM     13  C   UNL     1       5.569   5.141  -1.190  1.00  0.00     0.231 A 
ATOM     14  N   UNL     1       6.508   4.433  -1.833  1.00  0.00    -0.177 NA
BRANCH  10  15
ATOM     15  C   UNL     1       2.451   3.509  -2.013  1.00  0.00     0.004 A 
ATOM     16  C   UNL     1       0.671   1.894  -1.604  1.00  0.00     0.119 A 
ATOM     17  C   UNL     1      -0.251   2.781  -2.159  1.00  0.00     0.046 A 
ATOM     18  C   UNL     1       2.016   2.253  -1.544  1.00  0.00     0.056 A 
ATOM     19  C   UNL     1       0.156   4.041  -2.598  1.00  0.00     0.005 A 
ATOM     20  C   UNL     1       1.500   4.407  -2.515  1.00  0.00     0.010 A 
BRANCH  16  21
ATOM     21  O   UNL     1       0.170   0.683  -1.213  1.00  0.00    -0.497 OA
ATOM     22  C   UNL     1       0.817   0.092  -0.087  1.00  0.00     0.278 C 
ENDBRANCH  16  21
ENDBRANCH  10  15
BRANCH  13  23
ATOM     23  N   UNL     1       6.013   6.212  -0.420  1.00  0.00    -0.323 N 
ATOM     24  H   UNL     1       6.976   6.406  -0.472  1.00  0.00     0.170 HD
BRANCH  23  25
ATOM     25  C   UNL     1       5.268   7.051   0.420  1.00  0.00     0.055 A 
ATOM     26  C   UNL     1       5.305   8.433   0.168  1.00  0.00     0.027 A 
ATOM     27  C   UNL     1       4.424   6.591   1.450  1.00  0.00     0.041 A 
ATOM     28  C   UNL     1       4.503   9.323   0.888  1.00  0.00     0.002 A 
ATOM     29  C   UNL     1       3.622   7.485   2.171  1.00  0.00     0.018 A 
ATOM     30  Br  UNL     1       4.410   4.777   2.032  1.00  0.00    -0.049 Br
ATOM     31  C   UNL     1       3.654   8.848   1.883  1.00  0.00     0.001 A 
ENDBRANCH  23  25
ENDBRANCH  13  23
ENDBRANCH   8   9
ENDBRANCH   7   8
ENDBRANCH   4   7
ENDBRANCH   2   3
ENDBRANCH   1   2
BRANCH   1  32
ATOM     32  C   UNL     1       7.630   0.226   1.061  1.00  0.00     0.023 C 
BRANCH  32  33
ATOM     33  C   UNL     1       8.321  -1.109   1.314  1.00  0.00     0.116 C 
BRANCH  33  34
ATOM     34  N   UNL     1       9.745  -0.975   1.573  1.00  0.00    -0.352 N 
ATOM     35  C   UNL     1      10.514  -1.594   2.527  1.00  0.00     0.251 C 
ATOM     36  H   UNL     1      10.226  -0.352   0.982  1.00  0.00     0.163 HD
ATOM     37  O   UNL     1      11.687  -1.252   2.677  1.00  0.00    -0.269 OA
BRANCH  35  38
ATOM     38  C   UNL     1       9.934  -2.651   3.387  1.00  0.00     0.039 A 
ATOM     39  C   UNL     1      10.246  -2.658   4.750  1.00  0.00     0.014 A 
ATOM     40  C   UNL     1       9.104  -3.642   2.858  1.00  0.00     0.014 A 
ATOM     41  C   UNL     1       9.697  -3.635   5.584  1.00  0.00     0.010 A 
ATOM     42  C   UNL     1       8.491  -4.563   3.705  1.00  0.00     0.010 A 
ATOM     43  C   UNL     1       8.800  -4.588   5.073  1.00  0.00    -0.014 A 
BRANCH  43  44
ATOM     44  C   UNL     1       8.219  -5.644   5.943  1.00  0.00     0.031 A 
ATOM     45  C   UNL     1       8.517  -7.097   5.664  1.00  0.00     0.074 A 
ATOM     46  C   UNL     1       7.393  -5.309   6.955  1.00  0.00     0.049 A 
ATOM     47  N   UNL     1       8.082  -8.164   6.284  1.00  0.00    -0.248 NA
ATOM     48  C   UNL     1       9.401  -7.391   4.522  1.00  0.00     0.031 C 
ATOM     49  C   UNL     1       6.973  -3.947   7.293  1.00  0.00     0.029 A 
ATOM     50  N   UNL     1       6.745  -6.092   7.878  1.00  0.00    -0.354 N 
ATOM     51  C   UNL     1       8.618  -9.249   5.599  1.00  0.00     0.074 A 
ATOM     52  C   UNL     1       9.365  -8.715   4.482  1.00  0.00     0.031 C 
ATOM     53  C   UNL     1       6.151  -3.989   8.354  1.00  0.00     0.029 A 
ATOM     54  C   UNL     1       5.961  -5.379   8.756  1.00  0.00     0.049 A 
ATOM     55  H   UNL     1       6.833  -7.072   7.909  1.00  0.00     0.167 HD
ATOM     56  C   UNL     1       8.537 -10.569   5.892  1.00  0.00     0.034 A 
ATOM     57  C   UNL     1       5.179  -5.801   9.770  1.00  0.00     0.034 A 
ATOM     58  C   UNL     1       7.826 -11.099   7.023  1.00  0.00     0.049 A 
ATOM     59  C   UNL     1       5.122  -7.274  10.082  1.00  0.00     0.074 A 
ATOM     60  C   UNL     1       7.714 -12.416   7.431  1.00  0.00     0.029 A 
ATOM     61  N   UNL     1       7.111 -10.337   7.934  1.00  0.00    -0.354 N 
ATOM     62  N   UNL     1       5.737  -8.271   9.493  1.00  0.00    -0.248 NA
ATOM     63  C   UNL     1       4.298  -7.675  11.232  1.00  0.00     0.031 C 
ATOM     64  C   UNL     1       6.918 -12.453   8.581  1.00  0.00     0.029 A 
ATOM     65  C   UNL     1       6.565 -11.154   8.909  1.00  0.00     0.049 A 
ATOM     66  H   UNL     1       7.006  -9.359   7.893  1.00  0.00     0.167 HD
ATOM     67  C   UNL     1       5.423  -9.404  10.236  1.00  0.00     0.074 A 
ATOM     68  C   UNL     1       4.578  -8.966  11.327  1.00  0.00     0.031 C 
ATOM     69  C   UNL     1       5.789 -10.694  10.030  1.00  0.00     0.034 A 
BRANCH  56  70
ATOM     70  C   UNL     1       9.295 -11.530   5.011  1.00  0.00     0.023 A 
ATOM     71  C   UNL     1      10.705 -11.547   5.061  1.00  0.00     0.012 A 
ATOM     72  C   UNL     1       8.623 -12.452   4.186  1.00  0.00     0.148 A 
ATOM     73  C   UNL     1      11.434 -12.442   4.279  1.00  0.00     0.002 A 
ATOM     74  C   UNL     1       9.355 -13.374   3.446  1.00  0.00     0.091 A 
ATOM     75  F   UNL     1       7.284 -12.411   4.139  1.00  0.00    -0.205 F 
ATOM     76  C   UNL     1      10.760 -13.361   3.481  1.00  0.00     0.022 A 
BRANCH  74  77
ATOM     77  S   UNL     1       8.586 -14.654   2.448  1.00  0.00     0.127 S 
ATOM     78  O   UNL     1       8.977 -14.249   1.098  1.00  0.00    -0.237 OA
ATOM     79  O   UNL     1       9.249 -15.863   2.938  1.00  0.00    -0.237 OA
ATOM     80  O   UNL     1       7.159 -14.582   2.728  1.00  0.00    -0.744 OA
ENDBRANCH  74  77
ENDBRANCH  56  70
BRANCH  57  81
ATOM     81  C   UNL     1       4.434  -4.824  10.617  1.00  0.00     0.023 A 
ATOM     82  C   UNL     1       4.794  -4.666  11.971  1.00  0.00     0.012 A 
ATOM     83  C   UNL     1       3.355  -4.081  10.105  1.00  0.00     0.148 A 
ATOM     84  C   UNL     1       4.056  -3.834  12.813  1.00  0.00     0.002 A 
ATOM     85  C   UNL     1       2.660  -3.208  10.935  1.00  0.00     0.091 A 
ATOM     86  F   UNL     1       3.020  -4.249   8.818  1.00  0.00    -0.205 F 
ATOM     87  C   UNL     1       2.993  -3.101  12.294  1.00  0.00     0.022 A 
BRANCH  85  88
ATOM     88  S   UNL     1       1.357  -2.135  10.323  1.00  0.00     0.127 S 
ATOM     89  O   UNL     1       0.162  -2.772  10.870  1.00  0.00    -0.237 OA
ATOM     90  O   UNL     1       1.708  -0.852  10.934  1.00  0.00    -0.237 OA
ATOM     91  O   UNL     1       1.482  -2.159   8.871  1.00  0.00    -0.744 OA
ENDBRANCH  85  88
ENDBRANCH  57  81
BRANCH  69  92
ATOM     92  C   UNL     1       5.351 -11.714  11.049  1.00  0.00     0.023 A 
ATOM     93  C   UNL     1       3.994 -12.077  11.158  1.00  0.00     0.012 A 
ATOM     94  C   UNL     1       6.303 -12.344  11.876  1.00  0.00     0.148 A 
ATOM     95  C   UNL     1       3.584 -13.009  12.111  1.00  0.00     0.002 A 
ATOM     96  C   UNL     1       5.895 -13.314  12.783  1.00  0.00     0.091 A 
ATOM     97  F   UNL     1       7.588 -11.975  11.771  1.00  0.00    -0.205 F 
ATOM     98  C   UNL     1       4.535 -13.634  12.915  1.00  0.00     0.022 A 
BRANCH  96  99
ATOM     99  S   UNL     1       7.063 -14.243  13.782  1.00  0.00     0.127 S 
ATOM    100  O   UNL     1       6.882 -13.631  15.097  1.00  0.00    -0.237 OA
ATOM    101  O   UNL     1       6.551 -15.609  13.669  1.00  0.00    -0.237 OA
ATOM    102  O   UNL     1       8.367 -14.037  13.167  1.00  0.00    -0.744 OA
ENDBRANCH  96  99
ENDBRANCH  69  92
ENDBRANCH  43  44
ENDBRANCH  35  38
ENDBRANCH  33  34
ENDBRANCH  32  33
ENDBRANCH   1  32
TORSDOF 20
