REMARK SMILES NS(=O)(=O)c1ccc(/N=N/c2ccc(O)c(C(=O)NCCCCNC(=O)c3ccc(-c4c5nc(c(-c6cccc(S(=O)(=O)[O-])c6F)c6ccc([nH]6)c(-c6cccc(S(=O)(=O)[O-])c6F)c6nc(c(-c7cccc(S(=O)(=O)[O-])c7F)c7ccc4[nH]7)C=C6)C=C5)cc3)c2)cc1
REMARK SMILES IDX 21 1 20 2 19 3 17 4 18 5 16 7 11 8 12 9 90 10 13 11 14 12
REMARK SMILES IDX 10 13 9 14 8 15 5 16 6 17 92 18 7 19 91 20 2 21 3 22 4 23
REMARK SMILES IDX 1 24 15 27 22 29 23 30 24 31 25 32 26 34 27 35 28 36 89 37
REMARK SMILES IDX 29 38 88 39 30 40 31 41 32 42 82 43 33 44 87 45 81 46 83 47
REMARK SMILES IDX 34 48 86 49 80 50 79 51 35 53 67 54 47 55 66 56 48 57 51 58
REMARK SMILES IDX 65 59 84 60 49 61 50 62 64 64 85 65 52 66 36 67 37 68 45 69
REMARK SMILES IDX 38 70 40 71 46 72 39 73 41 74 42 75 43 76 44 77 68 78 69 79
REMARK SMILES IDX 77 80 70 81 72 82 78 83 71 84 73 85 74 86 75 87 76 88 53 89
REMARK SMILES IDX 54 90 62 91 55 92 57 93 63 94 56 95 58 96 59 97 60 98 61 99
REMARK H PARENT 19 6 1 25 1 26 15 28 24 33 83 52 51 63
REMARK Flexibility Score: inf
ROOT
ATOM      1  C   UNL     1       6.476   7.283   2.311  1.00  0.00     0.023 C 
ENDROOT
BRANCH   1   2
ATOM      2  C   UNL     1       5.289   7.696   3.172  1.00  0.00     0.116 C 
BRANCH   2   3
ATOM      3  N   UNL     1       5.434   8.980   3.843  1.00  0.00    -0.352 N 
ATOM      4  C   UNL     1       4.564  10.044   3.947  1.00  0.00     0.255 C 
ATOM      5  O   UNL     1       4.927  11.075   4.514  1.00  0.00    -0.269 OA
ATOM      6  H   UNL     1       6.297   9.109   4.299  1.00  0.00     0.163 HD
BRANCH   4   7
ATOM      7  C   UNL     1       3.220  10.041   3.316  1.00  0.00     0.083 A 
ATOM      8  C   UNL     1       1.365   8.800   2.343  1.00  0.00     0.087 A 
ATOM      9  C   UNL     1       0.894   9.981   1.761  1.00  0.00     0.034 A 
ATOM     10  C   UNL     1       2.462   8.874   3.213  1.00  0.00     0.048 A 
ATOM     11  C   UNL     1       1.543  11.197   2.000  1.00  0.00     0.049 A 
ATOM     12  C   UNL     1       2.712  11.221   2.759  1.00  0.00     0.128 A 
BRANCH   8  13
ATOM     13  N   UNL     1       0.792   7.558   1.970  1.00  0.00    -0.151 NA
ATOM     14  N   UNL     1       1.706   6.711   1.828  1.00  0.00    -0.151 NA
BRANCH  14  15
ATOM     15  C   UNL     1       1.274   5.505   1.261  1.00  0.00     0.086 A 
ATOM     16  C   UNL     1       0.744   3.036   0.045  1.00  0.00     0.082 A 
ATOM     17  C   UNL     1       1.246   3.071   1.347  1.00  0.00     0.024 A 
ATOM     18  C   UNL     1       0.503   4.223  -0.654  1.00  0.00     0.024 A 
ATOM     19  C   UNL     1       1.513   4.306   1.947  1.00  0.00     0.031 A 
ATOM     20  C   UNL     1       0.768   5.451  -0.044  1.00  0.00     0.031 A 
BRANCH  16  21
ATOM     21  S   UNL     1       0.456   1.505  -0.792  1.00  0.00     0.238 S 
ATOM     22  O   UNL     1       1.155   1.536  -2.054  1.00  0.00    -0.207 OA
ATOM     23  O   UNL     1      -0.951   1.192  -0.688  1.00  0.00    -0.207 OA
BRANCH  21  24
ATOM     24  N   UNL     1       1.254   0.353   0.132  1.00  0.00    -0.225 NA
ATOM     25  H   UNL     1       1.132  -0.567  -0.292  1.00  0.00     0.137 HD
ATOM     26  H   UNL     1       0.867   0.346   1.075  1.00  0.00     0.137 HD
ENDBRANCH  21  24
ENDBRANCH  16  21
ENDBRANCH  14  15
ENDBRANCH   8  13
BRANCH  12  27
ATOM     27  O   UNL     1       3.321  12.438   2.905  1.00  0.00    -0.507 OA
ATOM     28  H   UNL     1       2.943  13.201   2.514  1.00  0.00     0.293 HD
ENDBRANCH  12  27
ENDBRANCH   4   7
ENDBRANCH   2   3
ENDBRANCH   1   2
BRANCH   1  29
ATOM     29  C   UNL     1       7.791   7.031   3.037  1.00  0.00     0.023 C 
BRANCH  29  30
ATOM     30  C   UNL     1       7.726   6.112   4.250  1.00  0.00     0.116 C 
BRANCH  30  31
ATOM     31  N   UNL     1       7.140   4.805   3.977  1.00  0.00    -0.352 N 
ATOM     32  C   UNL     1       7.611   3.552   4.296  1.00  0.00     0.251 C 
ATOM     33  H   UNL     1       6.282   4.822   3.493  1.00  0.00     0.163 HD
ATOM     34  O   UNL     1       6.998   2.554   3.927  1.00  0.00    -0.269 OA
BRANCH  32  35
ATOM     35  C   UNL     1       8.879   3.411   5.046  1.00  0.00     0.039 A 
ATOM     36  C   UNL     1       9.854   2.532   4.568  1.00  0.00     0.014 A 
ATOM     37  C   UNL     1       9.125   4.180   6.186  1.00  0.00     0.014 A 
ATOM     38  C   UNL     1      11.110   2.493   5.179  1.00  0.00     0.010 A 
ATOM     39  C   UNL     1      10.402   4.203   6.737  1.00  0.00     0.010 A 
ATOM     40  C   UNL     1      11.411   3.363   6.239  1.00  0.00    -0.014 A 
BRANCH  40  41
ATOM     41  C   UNL     1      12.775   3.434   6.824  1.00  0.00     0.031 A 
ATOM     42  C   UNL     1      12.996   3.119   8.278  1.00  0.00     0.074 A 
ATOM     43  C   UNL     1      13.799   3.891   6.075  1.00  0.00     0.049 A 
ATOM     44  N   UNL     1      14.097   3.193   8.980  1.00  0.00    -0.248 NA
ATOM     45  C   UNL     1      11.818   2.699   9.055  1.00  0.00     0.031 C 
ATOM     46  C   UNL     1      13.699   4.325   4.679  1.00  0.00     0.029 A 
ATOM     47  N   UNL     1      15.119   4.099   6.391  1.00  0.00    -0.354 N 
ATOM     48  C   UNL     1      13.738   2.875  10.284  1.00  0.00     0.074 A 
ATOM     49  C   UNL     1      12.310   2.643  10.283  1.00  0.00     0.031 C 
ATOM     50  C   UNL     1      14.903   4.745   4.261  1.00  0.00     0.029 A 
ATOM     51  C   UNL     1      15.856   4.637   5.361  1.00  0.00     0.049 A 
ATOM     52  H   UNL     1      15.502   3.883   7.272  1.00  0.00     0.167 HD
ATOM     53  C   UNL     1      14.527   2.754  11.379  1.00  0.00     0.034 A 
ATOM     54  C   UNL     1      17.151   5.009   5.308  1.00  0.00     0.034 A 
ATOM     55  C   UNL     1      15.953   2.936  11.366  1.00  0.00     0.049 A 
ATOM     56  C   UNL     1      18.021   4.806   6.518  1.00  0.00     0.074 A 
ATOM     57  C   UNL     1      16.856   2.727  12.393  1.00  0.00     0.029 A 
ATOM     58  N   UNL     1      16.684   3.381  10.276  1.00  0.00    -0.354 N 
ATOM     59  N   UNL     1      17.698   4.328   7.695  1.00  0.00    -0.248 NA
ATOM     60  C   UNL     1      19.443   5.156   6.382  1.00  0.00     0.031 C 
ATOM     61  C   UNL     1      18.131   3.068  11.930  1.00  0.00     0.029 A 
ATOM     62  C   UNL     1      18.026   3.465  10.606  1.00  0.00     0.049 A 
ATOM     63  H   UNL     1      16.305   3.604   9.395  1.00  0.00     0.167 HD
ATOM     64  C   UNL     1      18.878   4.290   8.430  1.00  0.00     0.074 A 
ATOM     65  C   UNL     1      19.928   4.774   7.556  1.00  0.00     0.031 C 
ATOM     66  C   UNL     1      19.070   3.903   9.715  1.00  0.00     0.034 A 
BRANCH  53  67
ATOM     67  C   UNL     1      13.864   2.356  12.672  1.00  0.00     0.023 A 
ATOM     68  C   UNL     1      13.357   1.048  12.821  1.00  0.00     0.012 A 
ATOM     69  C   UNL     1      13.771   3.258  13.750  1.00  0.00     0.148 A 
ATOM     70  C   UNL     1      12.727   0.658  14.002  1.00  0.00     0.002 A 
ATOM     71  C   UNL     1      13.183   2.847  14.941  1.00  0.00     0.091 A 
ATOM     72  F   UNL     1      14.236   4.504  13.585  1.00  0.00    -0.205 F 
ATOM     73  C   UNL     1      12.649   1.554  15.064  1.00  0.00     0.022 A 
BRANCH  71  74
ATOM     74  S   UNL     1      13.108   3.903  16.393  1.00  0.00     0.127 S 
ATOM     75  O   UNL     1      11.700   4.297  16.398  1.00  0.00    -0.237 OA
ATOM     76  O   UNL     1      13.486   2.982  17.466  1.00  0.00    -0.237 OA
ATOM     77  O   UNL     1      14.062   4.976  16.154  1.00  0.00    -0.744 OA
ENDBRANCH  71  74
ENDBRANCH  53  67
BRANCH  54  78
ATOM     78  C   UNL     1      17.713   5.540   4.034  1.00  0.00     0.023 A 
ATOM     79  C   UNL     1      18.596   4.740   3.283  1.00  0.00     0.012 A 
ATOM     80  C   UNL     1      17.337   6.803   3.538  1.00  0.00     0.148 A 
ATOM     81  C   UNL     1      19.113   5.198   2.071  1.00  0.00     0.002 A 
ATOM     82  C   UNL     1      17.814   7.230   2.303  1.00  0.00     0.091 A 
ATOM     83  F   UNL     1      16.502   7.551   4.272  1.00  0.00    -0.205 F 
ATOM     84  C   UNL     1      18.714   6.436   1.576  1.00  0.00     0.022 A 
BRANCH  82  85
ATOM     85  S   UNL     1      17.251   8.747   1.522  1.00  0.00     0.127 S 
ATOM     86  O   UNL     1      18.459   9.566   1.554  1.00  0.00    -0.237 OA
ATOM     87  O   UNL     1      16.861   8.273   0.194  1.00  0.00    -0.237 OA
ATOM     88  O   UNL     1      16.143   9.224   2.338  1.00  0.00    -0.744 OA
ENDBRANCH  82  85
ENDBRANCH  54  78
BRANCH  66  89
ATOM     89  C   UNL     1      20.474   3.955  10.259  1.00  0.00     0.023 A 
ATOM     90  C   UNL     1      21.066   5.199  10.554  1.00  0.00     0.012 A 
ATOM     91  C   UNL     1      21.175   2.768  10.554  1.00  0.00     0.148 A 
ATOM     92  C   UNL     1      22.345   5.262  11.107  1.00  0.00     0.002 A 
ATOM     93  C   UNL     1      22.429   2.838  11.149  1.00  0.00     0.091 A 
ATOM     94  F   UNL     1      20.604   1.595  10.248  1.00  0.00    -0.205 F 
ATOM     95  C   UNL     1      23.020   4.084  11.416  1.00  0.00     0.022 A 
BRANCH  93  96
ATOM     96  S   UNL     1      23.329   1.373  11.671  1.00  0.00     0.127 S 
ATOM     97  O   UNL     1      24.391   1.303  10.668  1.00  0.00    -0.237 OA
ATOM     98  O   UNL     1      23.781   1.746  13.012  1.00  0.00    -0.237 OA
ATOM     99  O   UNL     1      22.367   0.280  11.641  1.00  0.00    -0.744 OA
ENDBRANCH  93  96
ENDBRANCH  66  89
ENDBRANCH  40  41
ENDBRANCH  32  35
ENDBRANCH  30  31
ENDBRANCH  29  30
ENDBRANCH   1  29
TORSDOF 19
