REMARK SMILES C[C@@H]([NH2+][C@H]1CCOC2(CCOCC2)C1)C(=O)NCCCCNC(=O)c1ccc(-c2c3nc(c(-c4cccc(S(=O)(=O)[O-])c4F)c4ccc([nH]4)c(-c4cccc(S(=O)(=O)[O-])c4F)c4nc(c(-c5cccc(S(=O)(=O)[O-])c5F)c5ccc2[nH]5)C=C4)C=C3)cc1
REMARK SMILES IDX 20 1 19 2 18 3 17 4 15 5 16 6 2 8 1 9 3 10 4 13 5 14 14 15
REMARK SMILES IDX 6 16 8 17 7 18 9 19 13 20 10 21 12 22 11 23 21 24 22 25
REMARK SMILES IDX 23 26 24 28 25 29 26 30 87 31 27 32 86 33 28 34 29 35 30 36
REMARK SMILES IDX 80 37 31 38 85 39 79 40 81 41 32 42 84 43 78 44 77 45 33 47
REMARK SMILES IDX 65 48 45 49 64 50 46 51 49 52 63 53 82 54 47 55 48 56 62 58
REMARK SMILES IDX 83 59 50 60 34 61 35 62 43 63 36 64 38 65 44 66 37 67 39 68
REMARK SMILES IDX 40 69 41 70 42 71 66 72 67 73 75 74 68 75 70 76 76 77 69 78
REMARK SMILES IDX 71 79 72 80 73 81 74 82 51 83 52 84 60 85 53 86 55 87 61 88
REMARK SMILES IDX 54 89 56 90 57 91 58 92 59 93
REMARK H PARENT 17 7 3 11 3 12 22 27 81 46 49 57
REMARK Flexibility Score: inf
ROOT
ATOM      1  C   UNL     1       5.402   4.811  -2.232  1.00  0.00     0.023 C 
ENDROOT
BRANCH   1   2
ATOM      2  C   UNL     1       4.035   5.442  -1.939  1.00  0.00     0.023 C 
BRANCH   2   3
ATOM      3  C   UNL     1       3.076   4.530  -1.172  1.00  0.00     0.116 C 
BRANCH   3   4
ATOM      4  N   UNL     1       3.596   4.269   0.152  1.00  0.00    -0.351 N 
ATOM      5  C   UNL     1       3.241   4.814   1.345  1.00  0.00     0.277 C 
ATOM      6  O   UNL     1       3.993   4.611   2.305  1.00  0.00    -0.268 OA
ATOM      7  H   UNL     1       4.313   3.596   0.195  1.00  0.00     0.163 HD
BRANCH   5   8
ATOM      8  C   UNL     1       1.947   5.630   1.532  1.00  0.00     0.269 C 
ATOM      9  C   UNL     1       2.027   7.001   0.864  1.00  0.00     0.086 C 
BRANCH   8  10
ATOM     10  N   UNL     1       0.722   4.902   1.112  1.00  0.00    -0.334 N 
ATOM     11  H   UNL     1       0.747   4.805   0.097  1.00  0.00     0.347 HD
ATOM     12  H   UNL     1      -0.064   5.456   1.453  1.00  0.00     0.347 HD
BRANCH  10  13
ATOM     13  C   UNL     1       0.549   3.551   1.695  1.00  0.00     0.188 C 
ATOM     14  C   UNL     1       0.939   3.414   3.172  1.00  0.00     0.093 C 
ATOM     15  C   UNL     1      -0.929   3.127   1.539  1.00  0.00     0.100 C 
ATOM     16  C   UNL     1       0.654   2.009   3.662  1.00  0.00     0.167 C 
ATOM     17  C   UNL     1      -1.235   1.753   2.180  1.00  0.00     0.078 C 
ATOM     18  O   UNL     1      -0.727   1.710   3.524  1.00  0.00    -0.374 OA
ATOM     19  C   UNL     1      -0.699   0.583   1.333  1.00  0.00     0.064 C 
ATOM     20  C   UNL     1      -2.759   1.569   2.325  1.00  0.00     0.064 C 
ATOM     21  C   UNL     1      -1.128  -0.755   1.928  1.00  0.00     0.163 C 
ATOM     22  C   UNL     1      -3.079   0.183   2.878  1.00  0.00     0.163 C 
ATOM     23  O   UNL     1      -2.551  -0.829   2.021  1.00  0.00    -0.381 OA
ENDBRANCH  10  13
ENDBRANCH   8  10
ENDBRANCH   5   8
ENDBRANCH   3   4
ENDBRANCH   2   3
ENDBRANCH   1   2
BRANCH   1  24
ATOM     24  C   UNL     1       5.356   3.519  -3.043  1.00  0.00     0.116 C 
BRANCH  24  25
ATOM     25  N   UNL     1       4.720   3.699  -4.339  1.00  0.00    -0.352 N 
ATOM     26  C   UNL     1       5.116   3.220  -5.564  1.00  0.00     0.251 C 
ATOM     27  H   UNL     1       3.895   4.236  -4.338  1.00  0.00     0.163 HD
ATOM     28  O   UNL     1       4.546   3.597  -6.585  1.00  0.00    -0.269 OA
BRANCH  26  29
ATOM     29  C   UNL     1       6.245   2.272  -5.646  1.00  0.00     0.039 A 
ATOM     30  C   UNL     1       7.256   2.504  -6.582  1.00  0.00     0.014 A 
ATOM     31  C   UNL     1       6.313   1.167  -4.793  1.00  0.00     0.014 A 
ATOM     32  C   UNL     1       8.367   1.658  -6.622  1.00  0.00     0.010 A 
ATOM     33  C   UNL     1       7.451   0.366  -4.789  1.00  0.00     0.010 A 
ATOM     34  C   UNL     1       8.488   0.601  -5.705  1.00  0.00    -0.014 A 
BRANCH  34  35
ATOM     35  C   UNL     1       9.696  -0.262  -5.677  1.00  0.00     0.031 A 
ATOM     36  C   UNL     1       9.586  -1.731  -5.984  1.00  0.00     0.074 A 
ATOM     37  C   UNL     1      10.875   0.259  -5.284  1.00  0.00     0.049 A 
ATOM     38  N   UNL     1      10.515  -2.650  -5.952  1.00  0.00    -0.248 NA
ATOM     39  C   UNL     1       8.252  -2.239  -6.346  1.00  0.00     0.031 C 
ATOM     40  C   UNL     1      11.092   1.650  -4.880  1.00  0.00     0.029 A 
ATOM     41  N   UNL     1      12.107  -0.326  -5.131  1.00  0.00    -0.354 N 
ATOM     42  C   UNL     1       9.876  -3.847  -6.251  1.00  0.00     0.074 A 
ATOM     43  C   UNL     1       8.473  -3.543  -6.431  1.00  0.00     0.031 C 
ATOM     44  C   UNL     1      12.378   1.811  -4.530  1.00  0.00     0.029 A 
ATOM     45  C   UNL     1      13.071   0.533  -4.657  1.00  0.00     0.049 A 
ATOM     46  H   UNL     1      12.284  -1.272  -5.341  1.00  0.00     0.167 HD
ATOM     47  C   UNL     1      10.411  -5.083  -6.393  1.00  0.00     0.034 A 
ATOM     48  C   UNL     1      14.366   0.314  -4.356  1.00  0.00     0.034 A 
ATOM     49  C   UNL     1      11.813  -5.372  -6.265  1.00  0.00     0.049 A 
ATOM     50  C   UNL     1      14.946  -1.057  -4.573  1.00  0.00     0.074 A 
ATOM     51  C   UNL     1      12.468  -6.571  -6.486  1.00  0.00     0.029 A 
ATOM     52  N   UNL     1      12.778  -4.456  -5.877  1.00  0.00    -0.354 N 
ATOM     53  N   UNL     1      14.358  -2.140  -5.020  1.00  0.00    -0.248 NA
ATOM     54  C   UNL     1      16.377  -1.228  -4.280  1.00  0.00     0.031 C 
ATOM     55  C   UNL     1      13.827  -6.383  -6.215  1.00  0.00     0.029 A 
ATOM     56  C   UNL     1      14.022  -5.062  -5.844  1.00  0.00     0.049 A 
ATOM     57  H   UNL     1      12.604  -3.512  -5.656  1.00  0.00     0.167 HD
ATOM     58  C   UNL     1      15.352  -3.110  -5.097  1.00  0.00     0.074 A 
ATOM     59  C   UNL     1      16.584  -2.479  -4.670  1.00  0.00     0.031 C 
ATOM     60  C   UNL     1      15.250  -4.408  -5.473  1.00  0.00     0.034 A 
BRANCH  47  61
ATOM     61  C   UNL     1       9.482  -6.209  -6.766  1.00  0.00     0.023 A 
ATOM     62  C   UNL     1       8.948  -6.264  -8.069  1.00  0.00     0.012 A 
ATOM     63  C   UNL     1       9.186  -7.241  -5.853  1.00  0.00     0.148 A 
ATOM     64  C   UNL     1       8.106  -7.309  -8.449  1.00  0.00     0.002 A 
ATOM     65  C   UNL     1       8.381  -8.302  -6.253  1.00  0.00     0.091 A 
ATOM     66  F   UNL     1       9.685  -7.160  -4.612  1.00  0.00    -0.205 F 
ATOM     67  C   UNL     1       7.832  -8.331  -7.546  1.00  0.00     0.022 A 
BRANCH  65  68
ATOM     68  S   UNL     1       8.031  -9.706  -5.189  1.00  0.00     0.127 S 
ATOM     69  O   UNL     1       6.629  -9.474  -4.846  1.00  0.00    -0.237 OA
ATOM     70  O   UNL     1       8.260 -10.839  -6.088  1.00  0.00    -0.237 OA
ATOM     71  O   UNL     1       8.972  -9.613  -4.081  1.00  0.00    -0.744 OA
ENDBRANCH  65  68
ENDBRANCH  47  61
BRANCH  48  72
ATOM     72  C   UNL     1      15.222   1.442  -3.891  1.00  0.00     0.023 A 
ATOM     73  C   UNL     1      16.216   1.951  -4.751  1.00  0.00     0.012 A 
ATOM     74  C   UNL     1      15.041   2.033  -2.626  1.00  0.00     0.148 A 
ATOM     75  C   UNL     1      17.034   3.006  -4.347  1.00  0.00     0.002 A 
ATOM     76  C   UNL     1      15.824   3.119  -2.251  1.00  0.00     0.091 A 
ATOM     77  F   UNL     1      14.099   1.527  -1.818  1.00  0.00    -0.205 F 
ATOM     78  C   UNL     1      16.832   3.596  -3.103  1.00  0.00     0.022 A 
BRANCH  76  79
ATOM     79  S   UNL     1      15.546   4.023  -0.724  1.00  0.00     0.127 S 
ATOM     80  O   UNL     1      16.698   3.618   0.078  1.00  0.00    -0.237 OA
ATOM     81  O   UNL     1      15.573   5.412  -1.184  1.00  0.00    -0.237 OA
ATOM     82  O   UNL     1      14.246   3.580  -0.238  1.00  0.00    -0.744 OA
ENDBRANCH  76  79
ENDBRANCH  48  72
BRANCH  60  83
ATOM     83  C   UNL     1      16.508  -5.237  -5.474  1.00  0.00     0.023 A 
ATOM     84  C   UNL     1      17.074  -5.650  -4.252  1.00  0.00     0.012 A 
ATOM     85  C   UNL     1      17.081  -5.672  -6.685  1.00  0.00     0.148 A 
ATOM     86  C   UNL     1      18.210  -6.459  -4.235  1.00  0.00     0.002 A 
ATOM     87  C   UNL     1      18.184  -6.517  -6.660  1.00  0.00     0.091 A 
ATOM     88  F   UNL     1      16.539  -5.252  -7.838  1.00  0.00    -0.205 F 
ATOM     89  C   UNL     1      18.757  -6.902  -5.437  1.00  0.00     0.022 A 
BRANCH  87  90
ATOM     90  S   UNL     1      18.895  -7.213  -8.157  1.00  0.00     0.127 S 
ATOM     91  O   UNL     1      20.128  -6.440  -8.289  1.00  0.00    -0.237 OA
ATOM     92  O   UNL     1      19.091  -8.615  -7.786  1.00  0.00    -0.237 OA
ATOM     93  O   UNL     1      17.906  -7.000  -9.205  1.00  0.00    -0.744 OA
ENDBRANCH  87  90
ENDBRANCH  60  83
ENDBRANCH  34  35
ENDBRANCH  26  29
ENDBRANCH  24  25
ENDBRANCH   1  24
TORSDOF 16
