REMARK SMILES CCc1nc(C(=O)N2CC[NH+]([C@H](C)C(=O)NCCCCNC(=O)c3ccc(-c4c5nc(c(-c6cccc(S(=O)(=O)[O-])c6F)c6ccc([nH]6)c(-c6cccc(S(=O)(=O)[O-])c6F)c6nc(c(-c7cccc(S(=O)(=O)[O-])c7F)c7ccc4[nH]7)C=C6)C=C5)cc3)CC2)n[nH]1
REMARK SMILES IDX 18 1 17 2 16 3 14 4 15 5 12 7 13 8 11 9 6 10 7 11 8 12 9 13
REMARK SMILES IDX 88 14 10 15 87 16 5 18 3 19 4 20 90 21 89 22 2 24 1 25 19 26
REMARK SMILES IDX 20 27 21 28 22 29 23 31 24 32 25 33 86 34 26 35 85 36 27 37
REMARK SMILES IDX 28 38 29 39 79 40 30 41 84 42 78 43 80 44 31 45 83 46 77 47
REMARK SMILES IDX 76 48 32 50 64 51 44 52 63 53 45 54 48 55 62 56 81 57 46 58
REMARK SMILES IDX 47 59 61 61 82 62 49 63 33 64 34 65 42 66 35 67 37 68 43 69
REMARK SMILES IDX 36 70 38 71 39 72 40 73 41 74 65 75 66 76 74 77 67 78 69 79
REMARK SMILES IDX 75 80 68 81 70 82 71 83 72 84 73 85 50 86 51 87 59 88 52 89
REMARK SMILES IDX 54 90 60 91 53 92 55 93 56 94 57 95 58 96
REMARK H PARENT 16 6 11 17 90 23 21 30 80 49 48 60
REMARK Flexibility Score: inf
ROOT
ATOM      1  C   UNL     1       8.040   3.268  -1.449  1.00  0.00     0.023 C 
ENDROOT
BRANCH   1   2
ATOM      2  C   UNL     1       7.218   3.543  -2.700  1.00  0.00     0.116 C 
BRANCH   2   3
ATOM      3  N   UNL     1       7.696   2.862  -3.886  1.00  0.00    -0.351 N 
ATOM      4  C   UNL     1       6.989   2.321  -4.925  1.00  0.00     0.278 C 
ATOM      5  O   UNL     1       7.624   1.996  -5.934  1.00  0.00    -0.268 OA
ATOM      6  H   UNL     1       8.675   2.777  -3.956  1.00  0.00     0.163 HD
BRANCH   4   7
ATOM      7  C   UNL     1       5.458   2.093  -4.846  1.00  0.00     0.271 C 
ATOM      8  C   UNL     1       5.050   1.329  -3.576  1.00  0.00     0.086 C 
BRANCH   7   9
ATOM      9  N   UNL     1       4.641   3.265  -5.287  1.00  0.00    -0.322 N 
ATOM     10  C   UNL     1       2.311   6.223  -3.841  1.00  0.00     0.293 C 
ATOM     11  O   UNL     1       2.700   7.371  -3.613  1.00  0.00    -0.265 OA
ATOM     12  N   UNL     1       2.836   5.501  -4.919  1.00  0.00    -0.325 N 
ATOM     13  C   UNL     1       4.214   5.756  -5.309  1.00  0.00     0.181 C 
ATOM     14  C   UNL     1       2.311   4.262  -5.484  1.00  0.00     0.181 C 
ATOM     15  C   UNL     1       5.079   4.585  -4.791  1.00  0.00     0.284 C 
ATOM     16  C   UNL     1       3.187   3.054  -5.085  1.00  0.00     0.284 C 
ATOM     17  H   UNL     1       4.821   3.308  -6.290  1.00  0.00     0.348 HD
BRANCH  10  18
ATOM     18  C   UNL     1       1.367   5.538  -2.919  1.00  0.00     0.239 A 
ATOM     19  C   UNL     1       0.532   3.985  -1.712  1.00  0.00     0.124 A 
ATOM     20  N   UNL     1       1.308   4.160  -2.758  1.00  0.00    -0.208 NA
ATOM     21  N   UNL     1       0.103   5.205  -1.281  1.00  0.00    -0.263 N 
ATOM     22  N   UNL     1       0.598   6.197  -2.029  1.00  0.00    -0.148 NA
ATOM     23  H   UNL     1      -0.498   5.339  -0.513  1.00  0.00     0.192 HD
BRANCH  19  24
ATOM     24  C   UNL     1       0.177   2.716  -1.022  1.00  0.00     0.073 C 
ATOM     25  C   UNL     1       0.722   1.490  -1.739  1.00  0.00     0.012 C 
ENDBRANCH  19  24
ENDBRANCH  10  18
ENDBRANCH   7   9
ENDBRANCH   4   7
ENDBRANCH   2   3
ENDBRANCH   1   2
BRANCH   1  26
ATOM     26  C   UNL     1       9.479   3.779  -1.487  1.00  0.00     0.023 C 
BRANCH  26  27
ATOM     27  C   UNL     1       9.666   5.217  -1.960  1.00  0.00     0.116 C 
BRANCH  27  28
ATOM     28  N   UNL     1       8.902   6.191  -1.192  1.00  0.00    -0.352 N 
ATOM     29  C   UNL     1       9.332   7.331  -0.548  1.00  0.00     0.251 C 
ATOM     30  H   UNL     1       7.937   6.008  -1.122  1.00  0.00     0.163 HD
ATOM     31  O   UNL     1       8.554   7.983   0.134  1.00  0.00    -0.269 OA
BRANCH  29  32
ATOM     32  C   UNL     1      10.752   7.732  -0.650  1.00  0.00     0.039 A 
ATOM     33  C   UNL     1      11.453   8.022   0.523  1.00  0.00     0.014 A 
ATOM     34  C   UNL     1      11.399   7.768  -1.887  1.00  0.00     0.014 A 
ATOM     35  C   UNL     1      12.830   8.253   0.464  1.00  0.00     0.010 A 
ATOM     36  C   UNL     1      12.782   7.916  -1.934  1.00  0.00     0.010 A 
ATOM     37  C   UNL     1      13.514   8.151  -0.759  1.00  0.00    -0.014 A 
BRANCH  37  38
ATOM     38  C   UNL     1      14.994   8.254  -0.830  1.00  0.00     0.031 A 
ATOM     39  C   UNL     1      15.639   9.344  -1.642  1.00  0.00     0.074 A 
ATOM     40  C   UNL     1      15.757   7.304  -0.250  1.00  0.00     0.049 A 
ATOM     41  N   UNL     1      16.906   9.541  -1.898  1.00  0.00    -0.248 NA
ATOM     42  C   UNL     1      14.740  10.322  -2.277  1.00  0.00     0.031 C 
ATOM     43  C   UNL     1      15.251   6.143   0.486  1.00  0.00     0.029 A 
ATOM     44  N   UNL     1      17.120   7.146  -0.217  1.00  0.00    -0.354 N 
ATOM     45  C   UNL     1      16.956  10.641  -2.745  1.00  0.00     0.074 A 
ATOM     46  C   UNL     1      15.589  11.044  -2.994  1.00  0.00     0.031 C 
ATOM     47  C   UNL     1      16.287   5.391   0.891  1.00  0.00     0.029 A 
ATOM     48  C   UNL     1      17.529   6.000   0.426  1.00  0.00     0.049 A 
ATOM     49  H   UNL     1      17.747   7.791  -0.616  1.00  0.00     0.167 HD
ATOM     50  C   UNL     1      18.040  11.284  -3.240  1.00  0.00     0.034 A 
ATOM     51  C   UNL     1      18.763   5.492   0.614  1.00  0.00     0.034 A 
ATOM     52  C   UNL     1      19.398  10.913  -2.952  1.00  0.00     0.049 A 
ATOM     53  C   UNL     1      19.953   6.259   0.105  1.00  0.00     0.074 A 
ATOM     54  C   UNL     1      20.565  11.543  -3.347  1.00  0.00     0.029 A 
ATOM     55  N   UNL     1      19.774   9.816  -2.193  1.00  0.00    -0.354 N 
ATOM     56  N   UNL     1      19.983   7.387  -0.563  1.00  0.00    -0.248 NA
ATOM     57  C   UNL     1      21.282   5.709   0.410  1.00  0.00     0.031 C 
ATOM     58  C   UNL     1      21.647  10.823  -2.829  1.00  0.00     0.029 A 
ATOM     59  C   UNL     1      21.153   9.754  -2.101  1.00  0.00     0.049 A 
ATOM     60  H   UNL     1      19.151   9.175  -1.780  1.00  0.00     0.167 HD
ATOM     61  C   UNL     1      21.327   7.698  -0.729  1.00  0.00     0.074 A 
ATOM     62  C   UNL     1      22.082   6.652  -0.069  1.00  0.00     0.031 C 
ATOM     63  C   UNL     1      21.888   8.742  -1.386  1.00  0.00     0.034 A 
BRANCH  50  64
ATOM     64  C   UNL     1      17.798  12.510  -4.082  1.00  0.00     0.023 A 
ATOM     65  C   UNL     1      17.341  13.690  -3.459  1.00  0.00     0.012 A 
ATOM     66  C   UNL     1      18.071  12.519  -5.463  1.00  0.00     0.148 A 
ATOM     67  C   UNL     1      17.128  14.850  -4.201  1.00  0.00     0.002 A 
ATOM     68  C   UNL     1      17.897  13.692  -6.189  1.00  0.00     0.091 A 
ATOM     69  F   UNL     1      18.485  11.383  -6.041  1.00  0.00    -0.205 F 
ATOM     70  C   UNL     1      17.415  14.854  -5.562  1.00  0.00     0.022 A 
BRANCH  68  71
ATOM     71  S   UNL     1      18.311  13.826  -7.932  1.00  0.00     0.127 S 
ATOM     72  O   UNL     1      16.985  13.920  -8.543  1.00  0.00    -0.237 OA
ATOM     73  O   UNL     1      19.089  15.064  -7.970  1.00  0.00    -0.237 OA
ATOM     74  O   UNL     1      19.066  12.624  -8.259  1.00  0.00    -0.744 OA
ENDBRANCH  68  71
ENDBRANCH  50  64
BRANCH  51  75
ATOM     75  C   UNL     1      18.939   4.223   1.377  1.00  0.00     0.023 A 
ATOM     76  C   UNL     1      19.513   4.263   2.663  1.00  0.00     0.012 A 
ATOM     77  C   UNL     1      18.523   2.985   0.851  1.00  0.00     0.148 A 
ATOM     78  C   UNL     1      19.703   3.091   3.396  1.00  0.00     0.002 A 
ATOM     79  C   UNL     1      18.663   1.827   1.609  1.00  0.00     0.091 A 
ATOM     80  F   UNL     1      17.993   2.961  -0.380  1.00  0.00    -0.205 F 
ATOM     81  C   UNL     1      19.269   1.875   2.874  1.00  0.00     0.022 A 
BRANCH  79  82
ATOM     82  S   UNL     1      18.006   0.246   1.067  1.00  0.00     0.127 S 
ATOM     83  O   UNL     1      19.212  -0.445   0.621  1.00  0.00    -0.237 OA
ATOM     84  O   UNL     1      17.414  -0.280   2.299  1.00  0.00    -0.237 OA
ATOM     85  O   UNL     1      17.032   0.568   0.032  1.00  0.00    -0.744 OA
ENDBRANCH  79  82
ENDBRANCH  51  75
BRANCH  63  86
ATOM     86  C   UNL     1      23.391   8.834  -1.401  1.00  0.00     0.023 A 
ATOM     87  C   UNL     1      24.135   7.954  -2.212  1.00  0.00     0.012 A 
ATOM     88  C   UNL     1      24.058   9.840  -0.675  1.00  0.00     0.148 A 
ATOM     89  C   UNL     1      25.523   8.056  -2.278  1.00  0.00     0.002 A 
ATOM     90  C   UNL     1      25.439   9.964  -0.781  1.00  0.00     0.091 A 
ATOM     91  F   UNL     1      23.334  10.654   0.107  1.00  0.00    -0.205 F 
ATOM     92  C   UNL     1      26.173   9.067  -1.574  1.00  0.00     0.022 A 
BRANCH  90  93
ATOM     93  S   UNL     1      26.348  11.292   0.018  1.00  0.00     0.127 S 
ATOM     94  O   UNL     1      26.995  10.587   1.123  1.00  0.00    -0.237 OA
ATOM     95  O   UNL     1      27.257  11.730  -1.042  1.00  0.00    -0.237 OA
ATOM     96  O   UNL     1      25.352  12.282   0.404  1.00  0.00    -0.744 OA
ENDBRANCH  90  93
ENDBRANCH  63  86
ENDBRANCH  37  38
ENDBRANCH  29  32
ENDBRANCH  27  28
ENDBRANCH  26  27
ENDBRANCH   1  26
TORSDOF 17
