REMARK SMILES CC(C)(CC(=O)NCCCCNC(=O)c1ccc(-c2c3nc(c(-c4cccc(S(=O)(=O)[O-])c4F)c4ccc([nH]4)c(-c4cccc(S(=O)(=O)[O-])c4F)c4nc(c(-c5cccc(S(=O)(=O)[O-])c5F)c5ccc2[nH]5)C=C4)C=C3)cc1)Cc1nc([C@@]2(C)CCCO2)no1
REMARK SMILES IDX 9 1 8 2 7 3 5 4 6 5 4 7 2 8 1 9 3 10 78 11 79 12 80 13 89 14
REMARK SMILES IDX 81 15 88 16 82 17 83 18 84 19 87 20 85 21 86 22 10 23 11 24
REMARK SMILES IDX 12 25 13 26 14 28 15 29 16 30 77 31 17 32 76 33 18 34 19 35
REMARK SMILES IDX 20 36 70 37 21 38 75 39 69 40 71 41 22 42 74 43 68 44 67 45
REMARK SMILES IDX 23 47 55 48 35 49 54 50 36 51 39 52 53 53 72 54 37 55 38 56
REMARK SMILES IDX 52 58 73 59 40 60 24 61 25 62 33 63 26 64 28 65 34 66 27 67
REMARK SMILES IDX 29 68 30 69 31 70 32 71 56 72 57 73 65 74 58 75 60 76 66 77
REMARK SMILES IDX 59 78 61 79 62 80 63 81 64 82 41 83 42 84 50 85 43 86 45 87
REMARK SMILES IDX 51 88 44 89 46 90 47 91 48 92 49 93
REMARK H PARENT 7 6 12 27 71 46 39 57
REMARK Flexibility Score: inf
ROOT
ATOM      1  C   UNL     1       0.816   1.413  -2.027  1.00  0.00     0.023 C 
ENDROOT
BRANCH   1   2
ATOM      2  C   UNL     1      -0.447   1.303  -1.177  1.00  0.00     0.116 C 
BRANCH   2   3
ATOM      3  N   UNL     1      -1.203   0.102  -1.459  1.00  0.00    -0.356 N 
ATOM      4  C   UNL     1      -1.445  -0.985  -0.682  1.00  0.00     0.220 C 
ATOM      5  O   UNL     1      -2.249  -1.828  -1.083  1.00  0.00    -0.275 OA
ATOM      6  H   UNL     1      -1.606   0.067  -2.356  1.00  0.00     0.163 HD
BRANCH   4   7
ATOM      7  C   UNL     1      -0.773  -1.152   0.666  1.00  0.00     0.107 C 
BRANCH   7   8
ATOM      8  C   UNL     1       0.648  -1.783   0.745  1.00  0.00    -0.018 C 
ATOM      9  C   UNL     1       1.772  -0.748   0.552  1.00  0.00     0.012 C 
ATOM     10  C   UNL     1       0.810  -2.253   2.222  1.00  0.00     0.012 C 
BRANCH   8  11
ATOM     11  C   UNL     1       0.870  -3.041  -0.147  1.00  0.00     0.107 C 
BRANCH  11  12
ATOM     12  C   UNL     1       0.626  -2.938  -1.614  1.00  0.00     0.227 A 
ATOM     13  N   UNL     1      -0.077  -3.734  -2.386  1.00  0.00    -0.193 NA
ATOM     14  O   UNL     1       1.246  -1.942  -2.303  1.00  0.00    -0.339 OA
ATOM     15  C   UNL     1       0.081  -3.162  -3.634  1.00  0.00     0.203 A 
ATOM     16  N   UNL     1       0.855  -2.064  -3.634  1.00  0.00    -0.059 NA
BRANCH  15  17
ATOM     17  C   UNL     1      -0.552  -3.729  -4.883  1.00  0.00     0.128 C 
ATOM     18  C   UNL     1      -0.672  -5.259  -4.778  1.00  0.00     0.051 C 
ATOM     19  C   UNL     1      -1.913  -3.087  -5.178  1.00  0.00     0.046 C 
ATOM     20  O   UNL     1       0.250  -3.486  -6.071  1.00  0.00    -0.367 OA
ATOM     21  C   UNL     1      -2.021  -3.188  -6.682  1.00  0.00     0.032 C 
ATOM     22  C   UNL     1      -0.589  -2.971  -7.117  1.00  0.00     0.161 C 
ENDBRANCH  15  17
ENDBRANCH  11  12
ENDBRANCH   8  11
ENDBRANCH   7   8
ENDBRANCH   4   7
ENDBRANCH   2   3
ENDBRANCH   1   2
BRANCH   1  23
ATOM     23  C   UNL     1       0.583   1.588  -3.520  1.00  0.00     0.023 C 
BRANCH  23  24
ATOM     24  C   UNL     1      -0.153   2.860  -3.890  1.00  0.00     0.116 C 
BRANCH  24  25
ATOM     25  N   UNL     1       0.518   4.062  -3.408  1.00  0.00    -0.352 N 
ATOM     26  C   UNL     1       0.866   5.190  -4.112  1.00  0.00     0.251 C 
ATOM     27  H   UNL     1       0.752   4.067  -2.452  1.00  0.00     0.163 HD
ATOM     28  O   UNL     1       1.564   6.057  -3.595  1.00  0.00    -0.269 OA
BRANCH  26  29
ATOM     29  C   UNL     1       0.406   5.323  -5.507  1.00  0.00     0.039 A 
ATOM     30  C   UNL     1       1.320   5.676  -6.501  1.00  0.00     0.014 A 
ATOM     31  C   UNL     1      -0.918   5.020  -5.831  1.00  0.00     0.014 A 
ATOM     32  C   UNL     1       0.916   5.656  -7.837  1.00  0.00     0.010 A 
ATOM     33  C   UNL     1      -1.283   4.892  -7.161  1.00  0.00     0.010 A 
ATOM     34  C   UNL     1      -0.377   5.228  -8.178  1.00  0.00    -0.014 A 
BRANCH  34  35
ATOM     35  C   UNL     1      -0.828   5.145  -9.588  1.00  0.00     0.031 A 
ATOM     36  C   UNL     1      -2.008   5.965 -10.038  1.00  0.00     0.074 A 
ATOM     37  C   UNL     1      -0.251   4.262 -10.428  1.00  0.00     0.049 A 
ATOM     38  N   UNL     1      -2.619   5.967 -11.192  1.00  0.00    -0.248 NA
ATOM     39  C   UNL     1      -2.610   6.869  -9.042  1.00  0.00     0.031 C 
ATOM     40  C   UNL     1       0.835   3.342 -10.080  1.00  0.00     0.029 A 
ATOM     41  N   UNL     1      -0.518   3.976 -11.742  1.00  0.00    -0.354 N 
ATOM     42  C   UNL     1      -3.700   6.827 -11.045  1.00  0.00     0.074 A 
ATOM     43  C   UNL     1      -3.692   7.291  -9.677  1.00  0.00     0.031 C 
ATOM     44  C   UNL     1       1.151   2.605 -11.158  1.00  0.00     0.029 A 
ATOM     45  C   UNL     1       0.276   2.980 -12.263  1.00  0.00     0.049 A 
ATOM     46  H   UNL     1      -1.212   4.439 -12.264  1.00  0.00     0.167 HD
ATOM     47  C   UNL     1      -4.595   7.233 -11.976  1.00  0.00     0.034 A 
ATOM     48  C   UNL     1       0.295   2.436 -13.496  1.00  0.00     0.034 A 
ATOM     49  C   UNL     1      -4.549   6.829 -13.352  1.00  0.00     0.049 A 
ATOM     50  C   UNL     1      -0.657   2.964 -14.536  1.00  0.00     0.074 A 
ATOM     51  C   UNL     1      -5.339   7.258 -14.403  1.00  0.00     0.029 A 
ATOM     52  N   UNL     1      -3.655   5.906 -13.872  1.00  0.00    -0.354 N 
ATOM     53  N   UNL     1      -1.569   3.899 -14.421  1.00  0.00    -0.248 NA
ATOM     54  C   UNL     1      -0.551   2.391 -15.885  1.00  0.00     0.031 C 
ATOM     55  C   UNL     1      -4.926   6.588 -15.559  1.00  0.00     0.029 A 
ATOM     56  C   UNL     1      -3.870   5.752 -15.229  1.00  0.00     0.049 A 
ATOM     57  H   UNL     1      -2.968   5.430 -13.352  1.00  0.00     0.167 HD
ATOM     58  C   UNL     1      -2.121   4.052 -15.687  1.00  0.00     0.074 A 
ATOM     59  C   UNL     1      -1.426   3.127 -16.559  1.00  0.00     0.031 C 
ATOM     60  C   UNL     1      -3.125   4.870 -16.090  1.00  0.00     0.034 A 
BRANCH  47  61
ATOM     61  C   UNL     1      -5.649   8.219 -11.545  1.00  0.00     0.023 A 
ATOM     62  C   UNL     1      -5.275   9.547 -11.252  1.00  0.00     0.012 A 
ATOM     63  C   UNL     1      -7.005   7.850 -11.464  1.00  0.00     0.148 A 
ATOM     64  C   UNL     1      -6.225  10.481 -10.844  1.00  0.00     0.002 A 
ATOM     65  C   UNL     1      -7.954   8.800 -11.101  1.00  0.00     0.091 A 
ATOM     66  F   UNL     1      -7.340   6.578 -11.722  1.00  0.00    -0.205 F 
ATOM     67  C   UNL     1      -7.565  10.111 -10.778  1.00  0.00     0.022 A 
BRANCH  65  68
ATOM     68  S   UNL     1      -9.714   8.442 -11.063  1.00  0.00     0.127 S 
ATOM     69  O   UNL     1      -9.976   8.403  -9.625  1.00  0.00    -0.237 OA
ATOM     70  O   UNL     1     -10.280   9.602 -11.754  1.00  0.00    -0.237 OA
ATOM     71  O   UNL     1      -9.881   7.178 -11.766  1.00  0.00    -0.744 OA
ENDBRANCH  65  68
ENDBRANCH  47  61
BRANCH  48  72
ATOM     72  C   UNL     1       1.308   1.399 -13.838  1.00  0.00     0.023 A 
ATOM     73  C   UNL     1       2.374   1.736 -14.695  1.00  0.00     0.012 A 
ATOM     74  C   UNL     1       1.245   0.099 -13.300  1.00  0.00     0.148 A 
ATOM     75  C   UNL     1       3.341   0.791 -15.035  1.00  0.00     0.002 A 
ATOM     76  C   UNL     1       2.240  -0.824 -13.603  1.00  0.00     0.091 A 
ATOM     77  F   UNL     1       0.218  -0.206 -12.495  1.00  0.00    -0.205 F 
ATOM     78  C   UNL     1       3.281  -0.485 -14.483  1.00  0.00     0.022 A 
BRANCH  76  79
ATOM     79  S   UNL     1       2.308  -2.450 -12.843  1.00  0.00     0.127 S 
ATOM     80  O   UNL     1       1.921  -3.315 -13.954  1.00  0.00    -0.237 OA
ATOM     81  O   UNL     1       3.714  -2.543 -12.450  1.00  0.00    -0.237 OA
ATOM     82  O   UNL     1       1.374  -2.397 -11.726  1.00  0.00    -0.744 OA
ENDBRANCH  76  79
ENDBRANCH  48  72
BRANCH  60  83
ATOM     83  C   UNL     1      -3.515   4.831 -17.542  1.00  0.00     0.023 A 
ATOM     84  C   UNL     1      -4.246   3.734 -18.039  1.00  0.00     0.012 A 
ATOM     85  C   UNL     1      -3.234   5.920 -18.390  1.00  0.00     0.148 A 
ATOM     86  C   UNL     1      -4.668   3.709 -19.366  1.00  0.00     0.002 A 
ATOM     87  C   UNL     1      -3.699   5.909 -19.699  1.00  0.00     0.091 A 
ATOM     88  F   UNL     1      -2.520   6.945 -17.902  1.00  0.00    -0.205 F 
ATOM     89  C   UNL     1      -4.407   4.801 -20.192  1.00  0.00     0.022 A 
BRANCH  87  90
ATOM     90  S   UNL     1      -3.493   7.313 -20.801  1.00  0.00     0.127 S 
ATOM     91  O   UNL     1      -2.439   6.837 -21.695  1.00  0.00    -0.237 OA
ATOM     92  O   UNL     1      -4.815   7.421 -21.420  1.00  0.00    -0.237 OA
ATOM     93  O   UNL     1      -3.134   8.439 -19.950  1.00  0.00    -0.744 OA
ENDBRANCH  87  90
ENDBRANCH  60  83
ENDBRANCH  34  35
ENDBRANCH  26  29
ENDBRANCH  24  25
ENDBRANCH  23  24
ENDBRANCH   1  23
TORSDOF 18
