REMARK SMILES CC(C)[NH2+][C@]1(C(=O)NCCCCNC(=O)c2ccc(-c3c4nc(c(-c5cccc(S(=O)(=O)[O-])c5F)c5ccc([nH]5)c(-c5cccc(S(=O)(=O)[O-])c5F)c5nc(c(-c6cccc(S(=O)(=O)[O-])c6F)c6ccc3[nH]6)C=C5)C=C4)cc2)CC[C@@H](Oc2cc(F)ccc2F)C1
REMARK SMILES IDX 11 1 10 2 9 3 8 4 6 5 7 6 5 8 79 9 91 10 80 11 81 12 4 13
REMARK SMILES IDX 2 16 1 17 3 18 82 19 83 20 84 21 89 22 85 23 88 24 90 25
REMARK SMILES IDX 86 26 87 27 12 28 13 29 14 30 15 32 16 33 17 34 78 35 18 36
REMARK SMILES IDX 77 37 19 38 20 39 21 40 71 41 22 42 76 43 70 44 72 45 23 46
REMARK SMILES IDX 75 47 69 48 68 49 24 51 56 52 36 53 55 54 37 55 40 56 54 57
REMARK SMILES IDX 73 58 38 59 39 60 53 62 74 63 41 64 25 65 26 66 34 67 27 68
REMARK SMILES IDX 29 69 35 70 28 71 30 72 31 73 32 74 33 75 57 76 58 77 66 78
REMARK SMILES IDX 59 79 61 80 67 81 60 82 62 83 63 84 64 85 65 86 42 87 43 88
REMARK SMILES IDX 51 89 44 90 46 91 52 92 45 93 47 94 48 95 49 96 50 97
REMARK H PARENT 8 7 4 14 4 15 13 31 72 50 40 61
REMARK Flexibility Score: inf
ROOT
ATOM      1  C   UNL     1       2.568  -2.426   0.238  1.00  0.00     0.023 C 
ENDROOT
BRANCH   1   2
ATOM      2  C   UNL     1       1.814  -2.570   1.560  1.00  0.00     0.023 C 
BRANCH   2   3
ATOM      3  C   UNL     1       1.232  -1.272   2.110  1.00  0.00     0.116 C 
BRANCH   3   4
ATOM      4  N   UNL     1       0.199  -0.731   1.246  1.00  0.00    -0.351 N 
ATOM      5  C   UNL     1      -1.070  -0.324   1.553  1.00  0.00     0.281 C 
ATOM      6  O   UNL     1      -1.720   0.222   0.657  1.00  0.00    -0.268 OA
ATOM      7  H   UNL     1       0.449  -0.643   0.298  1.00  0.00     0.163 HD
BRANCH   5   8
ATOM      8  C   UNL     1      -1.635  -0.496   3.007  1.00  0.00     0.179 C 
ATOM      9  C   UNL     1      -3.104  -0.026   3.035  1.00  0.00     0.083 C 
ATOM     10  C   UNL     1      -1.755  -2.001   3.341  1.00  0.00     0.124 C 
ATOM     11  C   UNL     1      -3.789  -0.843   4.120  1.00  0.00     0.052 C 
ATOM     12  C   UNL     1      -3.079  -2.199   4.093  1.00  0.00     0.180 C 
BRANCH   8  13
ATOM     13  N   UNL     1      -0.736   0.290   3.885  1.00  0.00    -0.332 N 
ATOM     14  H   UNL     1       0.204  -0.078   3.737  1.00  0.00     0.347 HD
ATOM     15  H   UNL     1      -0.938   1.248   3.601  1.00  0.00     0.347 HD
BRANCH  13  16
ATOM     16  C   UNL     1      -0.932   0.344   5.325  1.00  0.00     0.176 C 
ATOM     17  C   UNL     1       0.461   0.386   5.965  1.00  0.00     0.075 C 
ATOM     18  C   UNL     1      -1.695   1.604   5.741  1.00  0.00     0.075 C 
ENDBRANCH  13  16
ENDBRANCH   8  13
BRANCH  12  19
ATOM     19  O   UNL     1      -3.811  -3.351   3.643  1.00  0.00    -0.487 OA
BRANCH  19  20
ATOM     20  C   UNL     1      -4.725  -3.155   2.648  1.00  0.00     0.158 A 
ATOM     21  C   UNL     1      -6.063  -2.970   2.999  1.00  0.00     0.088 A 
ATOM     22  C   UNL     1      -4.376  -3.262   1.302  1.00  0.00     0.165 A 
ATOM     23  C   UNL     1      -7.015  -2.802   1.999  1.00  0.00     0.127 A 
ATOM     24  C   UNL     1      -5.335  -3.100   0.303  1.00  0.00     0.046 A 
ATOM     25  F   UNL     1      -3.118  -3.546   0.943  1.00  0.00    -0.203 F 
ATOM     26  F   UNL     1      -8.293  -2.586   2.337  1.00  0.00    -0.207 F 
ATOM     27  C   UNL     1      -6.662  -2.856   0.653  1.00  0.00     0.042 A 
ENDBRANCH  19  20
ENDBRANCH  12  19
ENDBRANCH   5   8
ENDBRANCH   3   4
ENDBRANCH   2   3
ENDBRANCH   1   2
BRANCH   1  28
ATOM     28  C   UNL     1       3.702  -1.407   0.244  1.00  0.00     0.116 C 
BRANCH  28  29
ATOM     29  N   UNL     1       4.732  -1.710   1.227  1.00  0.00    -0.352 N 
ATOM     30  C   UNL     1       6.094  -1.807   1.060  1.00  0.00     0.251 C 
ATOM     31  H   UNL     1       4.407  -1.868   2.143  1.00  0.00     0.163 HD
ATOM     32  O   UNL     1       6.795  -2.215   1.978  1.00  0.00    -0.269 OA
BRANCH  30  33
ATOM     33  C   UNL     1       6.705  -1.441  -0.238  1.00  0.00     0.039 A 
ATOM     34  C   UNL     1       7.670  -2.285  -0.792  1.00  0.00     0.014 A 
ATOM     35  C   UNL     1       6.321  -0.279  -0.911  1.00  0.00     0.014 A 
ATOM     36  C   UNL     1       8.203  -1.996  -2.051  1.00  0.00     0.010 A 
ATOM     37  C   UNL     1       6.788  -0.039  -2.200  1.00  0.00     0.010 A 
ATOM     38  C   UNL     1       7.740  -0.888  -2.782  1.00  0.00    -0.014 A 
BRANCH  38  39
ATOM     39  C   UNL     1       8.240  -0.605  -4.154  1.00  0.00     0.031 A 
ATOM     40  C   UNL     1       8.964   0.682  -4.448  1.00  0.00     0.074 A 
ATOM     41  C   UNL     1       7.977  -1.471  -5.153  1.00  0.00     0.049 A 
ATOM     42  N   UNL     1       9.434   1.123  -5.586  1.00  0.00    -0.248 NA
ATOM     43  C   UNL     1       9.163   1.609  -3.321  1.00  0.00     0.031 C 
ATOM     44  C   UNL     1       7.218  -2.716  -5.018  1.00  0.00     0.029 A 
ATOM     45  N   UNL     1       8.298  -1.424  -6.487  1.00  0.00    -0.354 N 
ATOM     46  C   UNL     1       9.951   2.386  -5.322  1.00  0.00     0.074 A 
ATOM     47  C   UNL     1       9.700   2.660  -3.924  1.00  0.00     0.031 C 
ATOM     48  C   UNL     1       7.143  -3.319  -6.215  1.00  0.00     0.029 A 
ATOM     49  C   UNL     1       7.816  -2.491  -7.210  1.00  0.00     0.049 A 
ATOM     50  H   UNL     1       8.824  -0.695  -6.889  1.00  0.00     0.167 HD
ATOM     51  C   UNL     1      10.603   3.231  -6.155  1.00  0.00     0.034 A 
ATOM     52  C   UNL     1       7.900  -2.769  -8.526  1.00  0.00     0.034 A 
ATOM     53  C   UNL     1      10.882   2.943  -7.537  1.00  0.00     0.049 A 
ATOM     54  C   UNL     1       8.654  -1.827  -9.426  1.00  0.00     0.074 A 
ATOM     55  C   UNL     1      11.604   3.698  -8.444  1.00  0.00     0.029 A 
ATOM     56  N   UNL     1      10.443   1.816  -8.215  1.00  0.00    -0.354 N 
ATOM     57  N   UNL     1       9.268  -0.708  -9.123  1.00  0.00    -0.248 NA
ATOM     58  C   UNL     1       8.761  -2.205 -10.842  1.00  0.00     0.031 C 
ATOM     59  C   UNL     1      11.575   3.043  -9.679  1.00  0.00     0.029 A 
ATOM     60  C   UNL     1      10.870   1.859  -9.531  1.00  0.00     0.049 A 
ATOM     61  H   UNL     1       9.907   1.092  -7.818  1.00  0.00     0.167 HD
ATOM     62  C   UNL     1       9.869  -0.273 -10.299  1.00  0.00     0.074 A 
ATOM     63  C   UNL     1       9.561  -1.258 -11.314  1.00  0.00     0.031 C 
ATOM     64  C   UNL     1      10.602   0.847 -10.520  1.00  0.00     0.034 A 
BRANCH  51  65
ATOM     65  C   UNL     1      11.102   4.533  -5.582  1.00  0.00     0.023 A 
ATOM     66  C   UNL     1      12.166   4.526  -4.655  1.00  0.00     0.012 A 
ATOM     67  C   UNL     1      10.557   5.765  -5.994  1.00  0.00     0.148 A 
ATOM     68  C   UNL     1      12.650   5.717  -4.116  1.00  0.00     0.002 A 
ATOM     69  C   UNL     1      11.078   6.951  -5.490  1.00  0.00     0.091 A 
ATOM     70  F   UNL     1       9.534   5.754  -6.861  1.00  0.00    -0.205 F 
ATOM     71  C   UNL     1      12.114   6.929  -4.542  1.00  0.00     0.022 A 
BRANCH  69  72
ATOM     72  S   UNL     1      10.515   8.567  -6.036  1.00  0.00     0.127 S 
ATOM     73  O   UNL     1       9.823   9.056  -4.844  1.00  0.00    -0.237 OA
ATOM     74  O   UNL     1      11.776   9.248  -6.330  1.00  0.00    -0.237 OA
ATOM     75  O   UNL     1       9.667   8.328  -7.196  1.00  0.00    -0.744 OA
ENDBRANCH  69  72
ENDBRANCH  51  65
BRANCH  52  76
ATOM     76  C   UNL     1       7.309  -4.027  -9.065  1.00  0.00     0.023 A 
ATOM     77  C   UNL     1       8.161  -5.050  -9.526  1.00  0.00     0.012 A 
ATOM     78  C   UNL     1       5.915  -4.221  -9.111  1.00  0.00     0.148 A 
ATOM     79  C   UNL     1       7.635  -6.228 -10.059  1.00  0.00     0.002 A 
ATOM     80  C   UNL     1       5.399  -5.420  -9.590  1.00  0.00     0.091 A 
ATOM     81  F   UNL     1       5.122  -3.233  -8.674  1.00  0.00    -0.205 F 
ATOM     82  C   UNL     1       6.256  -6.416 -10.082  1.00  0.00     0.022 A 
BRANCH  80  83
ATOM     83  S   UNL     1       3.645  -5.803  -9.542  1.00  0.00     0.127 S 
ATOM     84  O   UNL     1       3.301  -5.805 -10.961  1.00  0.00    -0.237 OA
ATOM     85  O   UNL     1       3.643  -7.120  -8.904  1.00  0.00    -0.237 OA
ATOM     86  O   UNL     1       3.033  -4.749  -8.745  1.00  0.00    -0.744 OA
ENDBRANCH  80  83
ENDBRANCH  52  76
BRANCH  64  87
ATOM     87  C   UNL     1      11.174   1.048 -11.900  1.00  0.00     0.023 A 
ATOM     88  C   UNL     1      10.326   1.367 -12.979  1.00  0.00     0.012 A 
ATOM     89  C   UNL     1      12.566   0.983 -12.111  1.00  0.00     0.148 A 
ATOM     90  C   UNL     1      10.851   1.579 -14.254  1.00  0.00     0.002 A 
ATOM     91  C   UNL     1      13.086   1.249 -13.371  1.00  0.00     0.091 A 
ATOM     92  F   UNL     1      13.355   0.660 -11.076  1.00  0.00    -0.205 F 
ATOM     93  C   UNL     1      12.230   1.532 -14.447  1.00  0.00     0.022 A 
BRANCH  91  94
ATOM     94  S   UNL     1      14.853   1.311 -13.690  1.00  0.00     0.127 S 
ATOM     95  O   UNL     1      15.057   0.094 -14.473  1.00  0.00    -0.237 OA
ATOM     96  O   UNL     1      14.987   2.555 -14.449  1.00  0.00    -0.237 OA
ATOM     97  O   UNL     1      15.497   1.329 -12.383  1.00  0.00    -0.744 OA
ENDBRANCH  91  94
ENDBRANCH  64  87
ENDBRANCH  38  39
ENDBRANCH  30  33
ENDBRANCH  28  29
ENDBRANCH   1  28
TORSDOF 18
