REMARK SMILES O=C(NCCCCNC(=O)[C@H](c1c[nH]c2cc(F)ccc12)[NH+]1CCN(c2ccccc2)CC1)c1ccc(-c2c3nc(c(-c4cccc(S(=O)(=O)[O-])c4F)c4ccc([nH]4)c(-c4cccc(S(=O)(=O)[O-])c4F)c4nc(c(-c5cccc(S(=O)(=O)[O-])c5F)c5ccc2[nH]5)C=C4)C=C3)cc1
REMARK SMILES IDX 5 1 4 2 3 3 1 4 2 5 34 7 35 8 96 9 36 10 95 11 37 12 38 13
REMARK SMILES IDX 39 14 89 15 40 16 94 17 88 18 90 19 41 20 93 21 87 22 86 23
REMARK SMILES IDX 42 25 74 26 54 27 73 28 55 29 58 30 72 31 91 32 56 33 57 34
REMARK SMILES IDX 71 36 92 37 59 38 43 39 44 40 52 41 45 42 47 43 53 44 46 45
REMARK SMILES IDX 48 46 49 47 50 48 51 49 75 50 76 51 84 52 77 53 79 54 85 55
REMARK SMILES IDX 78 56 80 57 81 58 82 59 83 60 60 61 61 62 69 63 62 64 64 65
REMARK SMILES IDX 70 66 63 67 65 68 66 69 67 70 68 71 6 72 7 73 8 74 9 75
REMARK SMILES IDX 10 77 11 78 22 79 23 80 33 81 24 83 32 84 25 85 26 86 27 87
REMARK SMILES IDX 31 88 28 89 30 90 29 91 12 92 13 93 21 94 14 95 15 96 20 97
REMARK SMILES IDX 16 99 19 100 17 101 18 102
REMARK H PARENT 3 6 90 24 58 35 8 76 22 82 14 98
REMARK Flexibility Score: inf
ROOT
ATOM      1  C   UNL     1       3.719  -2.948  10.142  1.00  0.00     0.023 C 
ENDROOT
BRANCH   1   2
ATOM      2  C   UNL     1       2.669  -4.028   9.304  1.00  0.00     0.116 C 
BRANCH   2   3
ATOM      3  N   UNL     1       1.806  -5.871   9.811  1.00  0.00    -0.352 N 
ATOM      4  O   UNL     1       1.031  -7.919  10.529  1.00  0.00    -0.269 OA
ATOM      5  C   UNL     1       0.903  -6.693  10.629  1.00  0.00     0.251 C 
ATOM      6  H   UNL     1       2.213  -6.510   9.182  1.00  0.00     0.163 HD
BRANCH   5   7
ATOM      7  C   UNL     1      -0.183  -6.210  11.546  1.00  0.00     0.039 A 
ATOM      8  C   UNL     1      -1.280  -5.619  10.943  1.00  0.00     0.014 A 
ATOM      9  C   UNL     1      -0.045  -6.123  12.941  1.00  0.00     0.014 A 
ATOM     10  C   UNL     1      -1.970  -4.636  11.640  1.00  0.00     0.010 A 
ATOM     11  C   UNL     1      -0.927  -5.304  13.688  1.00  0.00     0.010 A 
ATOM     12  C   UNL     1      -1.871  -4.490  13.038  1.00  0.00    -0.014 A 
BRANCH  12  13
ATOM     13  C   UNL     1      -2.826  -3.546  13.725  1.00  0.00     0.031 A 
ATOM     14  C   UNL     1      -2.403  -2.513  14.750  1.00  0.00     0.074 A 
ATOM     15  C   UNL     1      -4.132  -3.581  13.366  1.00  0.00     0.049 A 
ATOM     16  N   UNL     1      -3.156  -1.710  15.467  1.00  0.00    -0.248 NA
ATOM     17  C   UNL     1      -0.965  -2.352  15.013  1.00  0.00     0.031 C 
ATOM     18  C   UNL     1      -4.708  -4.518  12.396  1.00  0.00     0.029 A 
ATOM     19  N   UNL     1      -5.209  -2.811  13.739  1.00  0.00    -0.354 N 
ATOM     20  C   UNL     1      -2.302  -1.014  16.319  1.00  0.00     0.074 A 
ATOM     21  C   UNL     1      -0.961  -1.461  16.000  1.00  0.00     0.031 C 
ATOM     22  C   UNL     1      -5.982  -4.201  12.163  1.00  0.00     0.029 A 
ATOM     23  C   UNL     1      -6.383  -3.193  13.129  1.00  0.00     0.049 A 
ATOM     24  H   UNL     1      -5.147  -2.063  14.377  1.00  0.00     0.167 HD
ATOM     25  C   UNL     1      -2.606  -0.105  17.283  1.00  0.00     0.034 A 
ATOM     26  C   UNL     1      -7.670  -2.879  13.368  1.00  0.00     0.034 A 
ATOM     27  C   UNL     1      -3.941   0.371  17.563  1.00  0.00     0.049 A 
ATOM     28  C   UNL     1      -7.987  -1.913  14.458  1.00  0.00     0.074 A 
ATOM     29  C   UNL     1      -4.340   1.318  18.494  1.00  0.00     0.029 A 
ATOM     30  N   UNL     1      -5.096  -0.065  16.929  1.00  0.00    -0.354 N 
ATOM     31  N   UNL     1      -7.159  -1.261  15.235  1.00  0.00    -0.248 NA
ATOM     32  C   UNL     1      -9.405  -1.636  14.708  1.00  0.00     0.031 C 
ATOM     33  C   UNL     1      -5.735   1.418  18.455  1.00  0.00     0.029 A 
ATOM     34  C   UNL     1      -6.206   0.572  17.465  1.00  0.00     0.049 A 
ATOM     35  H   UNL     1      -5.123  -0.730  16.204  1.00  0.00     0.167 HD
ATOM     36  C   UNL     1      -7.954  -0.482  16.060  1.00  0.00     0.074 A 
ATOM     37  C   UNL     1      -9.330  -0.730  15.674  1.00  0.00     0.031 C 
ATOM     38  C   UNL     1      -7.571   0.354  17.053  1.00  0.00     0.034 A 
BRANCH  25  39
ATOM     39  C   UNL     1      -1.482   0.426  18.147  1.00  0.00     0.023 A 
ATOM     40  C   UNL     1      -0.542   1.336  17.625  1.00  0.00     0.012 A 
ATOM     41  C   UNL     1      -1.398   0.065  19.511  1.00  0.00     0.148 A 
ATOM     42  C   UNL     1       0.488   1.837  18.427  1.00  0.00     0.002 A 
ATOM     43  C   UNL     1      -0.394   0.599  20.313  1.00  0.00     0.091 A 
ATOM     44  F   UNL     1      -2.296  -0.802  19.999  1.00  0.00    -0.205 F 
ATOM     45  C   UNL     1       0.558   1.474  19.769  1.00  0.00     0.022 A 
BRANCH  43  46
ATOM     46  S   UNL     1      -0.273   0.246  22.072  1.00  0.00     0.127 S 
ATOM     47  O   UNL     1       0.840  -0.702  22.105  1.00  0.00    -0.237 OA
ATOM     48  O   UNL     1       0.033   1.562  22.635  1.00  0.00    -0.237 OA
ATOM     49  O   UNL     1      -1.569  -0.290  22.462  1.00  0.00    -0.744 OA
ENDBRANCH  43  46
ENDBRANCH  25  39
BRANCH  26  50
ATOM     50  C   UNL     1      -8.732  -3.581  12.592  1.00  0.00     0.023 A 
ATOM     51  C   UNL     1      -9.479  -2.883  11.627  1.00  0.00     0.012 A 
ATOM     52  C   UNL     1      -8.900  -4.978  12.718  1.00  0.00     0.148 A 
ATOM     53  C   UNL     1     -10.369  -3.566  10.797  1.00  0.00     0.002 A 
ATOM     54  C   UNL     1      -9.725  -5.660  11.836  1.00  0.00     0.091 A 
ATOM     55  F   UNL     1      -8.186  -5.620  13.654  1.00  0.00    -0.205 F 
ATOM     56  C   UNL     1     -10.475  -4.953  10.885  1.00  0.00     0.022 A 
BRANCH  54  57
ATOM     57  S   UNL     1      -9.766  -7.454  11.753  1.00  0.00     0.127 S 
ATOM     58  O   UNL     1     -11.111  -7.743  12.244  1.00  0.00    -0.237 OA
ATOM     59  O   UNL     1      -9.566  -7.693  10.323  1.00  0.00    -0.237 OA
ATOM     60  O   UNL     1      -8.672  -7.915  12.597  1.00  0.00    -0.744 OA
ENDBRANCH  54  57
ENDBRANCH  26  50
BRANCH  38  61
ATOM     61  C   UNL     1      -8.650   1.117  17.770  1.00  0.00     0.023 A 
ATOM     62  C   UNL     1      -9.481   0.463  18.701  1.00  0.00     0.012 A 
ATOM     63  C   UNL     1      -8.786   2.504  17.570  1.00  0.00     0.148 A 
ATOM     64  C   UNL     1     -10.444   1.179  19.411  1.00  0.00     0.002 A 
ATOM     65  C   UNL     1      -9.712   3.219  18.318  1.00  0.00     0.091 A 
ATOM     66  F   UNL     1      -8.002   3.096  16.658  1.00  0.00    -0.205 F 
ATOM     67  C   UNL     1     -10.550   2.557  19.231  1.00  0.00     0.022 A 
BRANCH  65  68
ATOM     68  S   UNL     1      -9.852   5.006  18.224  1.00  0.00     0.127 S 
ATOM     69  O   UNL     1     -11.182   5.171  17.640  1.00  0.00    -0.237 OA
ATOM     70  O   UNL     1      -9.750   5.396  19.631  1.00  0.00    -0.237 OA
ATOM     71  O   UNL     1      -8.748   5.456  17.387  1.00  0.00    -0.744 OA
ENDBRANCH  65  68
ENDBRANCH  38  61
ENDBRANCH  12  13
ENDBRANCH   5   7
ENDBRANCH   2   3
ENDBRANCH   1   2
BRANCH   1  72
ATOM     72  C   UNL     1       5.247  -3.102  10.016  1.00  0.00     0.023 C 
BRANCH  72  73
ATOM     73  C   UNL     1       5.791  -3.277   8.604  1.00  0.00     0.116 C 
BRANCH  73  74
ATOM     74  N   UNL     1       5.509  -2.209   7.686  1.00  0.00    -0.351 N 
ATOM     75  C   UNL     1       5.641  -2.279   6.318  1.00  0.00     0.283 C 
ATOM     76  H   UNL     1       5.196  -1.357   8.067  1.00  0.00     0.163 HD
ATOM     77  O   UNL     1       5.038  -1.417   5.670  1.00  0.00    -0.268 OA
BRANCH  75  78
ATOM     78  C   UNL     1       6.558  -3.385   5.669  1.00  0.00     0.307 C 
BRANCH  78  79
ATOM     79  N   UNL     1       5.885  -4.600   5.158  1.00  0.00    -0.318 N 
ATOM     80  C   UNL     1       6.175  -5.887   5.793  1.00  0.00     0.284 C 
ATOM     81  C   UNL     1       4.483  -4.542   4.784  1.00  0.00     0.284 C 
ATOM     82  H   UNL     1       6.410  -4.569   4.284  1.00  0.00     0.349 HD
ATOM     83  C   UNL     1       5.288  -6.334   6.988  1.00  0.00     0.178 C 
ATOM     84  C   UNL     1       3.484  -4.861   5.904  1.00  0.00     0.178 C 
ATOM     85  N   UNL     1       3.893  -5.869   6.923  1.00  0.00    -0.360 N 
BRANCH  85  86
ATOM     86  C   UNL     1       3.089  -5.806   8.108  1.00  0.00     0.037 A 
ATOM     87  C   UNL     1       3.853  -5.769   9.755  1.00  0.00     0.026 A 
ATOM     88  C   UNL     1       1.415  -5.141   7.913  1.00  0.00     0.026 A 
ATOM     89  C   UNL     1       2.992  -5.008  11.169  1.00  0.00     0.002 A 
ATOM     90  C   UNL     1       0.554  -4.341   9.275  1.00  0.00     0.002 A 
ATOM     91  C   UNL     1       1.376  -4.199  10.904  1.00  0.00     0.000 A 
ENDBRANCH  85  86
ENDBRANCH  78  79
BRANCH  78  92
ATOM     92  C   UNL     1       7.324  -2.767   4.493  1.00  0.00     0.044 A 
ATOM     93  C   UNL     1       6.777  -2.201   3.350  1.00  0.00     0.094 A 
ATOM     94  C   UNL     1       8.751  -2.612   4.362  1.00  0.00     0.009 A 
ATOM     95  N   UNL     1       7.779  -1.690   2.577  1.00  0.00    -0.361 N 
ATOM     96  C   UNL     1       8.996  -1.930   3.164  1.00  0.00     0.049 A 
ATOM     97  C   UNL     1       9.860  -2.972   5.158  1.00  0.00     0.014 A 
ATOM     98  H   UNL     1       7.647  -1.219   1.723  1.00  0.00     0.166 HD
ATOM     99  C   UNL     1      10.282  -1.587   2.729  1.00  0.00     0.065 A 
ATOM    100  C   UNL     1      11.155  -2.644   4.734  1.00  0.00     0.040 A 
ATOM    101  C   UNL     1      11.349  -1.962   3.540  1.00  0.00     0.125 A 
ATOM    102  F   UNL     1      12.597  -1.656   3.157  1.00  0.00    -0.207 F 
ENDBRANCH  78  92
ENDBRANCH  75  78
ENDBRANCH  73  74
ENDBRANCH  72  73
ENDBRANCH   1  72
TORSDOF 17
