REMARK SMILES O=C(NCCCCNC(=O)[C@H]1[C@H]2CC[C@H](CC2)[C@H]1C(=O)Nc1ccc(C(=O)N2CCCC2)cc1)c1ccc(-c2c3nc(c(-c4cccc(S(=O)(=O)[O-])c4F)c4ccc([nH]4)c(-c4cccc(S(=O)(=O)[O-])c4F)c4nc(c(-c5cccc(S(=O)(=O)[O-])c5F)c5ccc2[nH]5)C=C4)C=C3)cc1
REMARK SMILES IDX 5 1 4 2 3 3 1 4 2 5 35 7 36 8 97 9 37 10 96 11 38 12 39 13
REMARK SMILES IDX 40 14 90 15 41 16 95 17 89 18 91 19 42 20 94 21 88 22 87 23
REMARK SMILES IDX 43 25 75 26 55 27 74 28 56 29 59 30 73 31 92 32 57 33 58 34
REMARK SMILES IDX 72 36 93 37 60 38 44 39 45 40 53 41 46 42 48 43 54 44 47 45
REMARK SMILES IDX 49 46 50 47 51 48 52 49 76 50 77 51 85 52 78 53 80 54 86 55
REMARK SMILES IDX 79 56 81 57 82 58 83 59 84 60 61 61 62 62 70 63 63 64 65 65
REMARK SMILES IDX 71 66 64 67 66 68 67 69 68 70 69 71 6 72 7 73 8 74 9 75
REMARK SMILES IDX 10 77 11 78 12 79 18 80 17 81 13 82 15 83 16 84 14 85 19 86
REMARK SMILES IDX 20 87 21 88 22 90 23 91 34 92 24 93 33 94 25 95 26 96 27 97
REMARK SMILES IDX 28 98 29 99 32 100 30 101 31 102
REMARK H PARENT 3 6 91 24 59 35 8 76 21 89
REMARK Flexibility Score: inf
ROOT
ATOM      1  C   UNL     1       4.691   2.784   0.297  1.00  0.00     0.023 C 
ENDROOT
BRANCH   1   2
ATOM      2  C   UNL     1       4.347   1.340   0.628  1.00  0.00     0.116 C 
BRANCH   2   3
ATOM      3  N   UNL     1       2.921   1.073   0.596  1.00  0.00    -0.352 N 
ATOM      4  O   UNL     1       1.021   0.059  -0.050  1.00  0.00    -0.269 OA
ATOM      5  C   UNL     1       2.244   0.050  -0.028  1.00  0.00     0.251 C 
ATOM      6  H   UNL     1       2.358   1.714   1.088  1.00  0.00     0.163 HD
BRANCH   5   7
ATOM      7  C   UNL     1       3.005  -1.036  -0.687  1.00  0.00     0.039 A 
ATOM      8  C   UNL     1       4.096  -1.632  -0.049  1.00  0.00     0.014 A 
ATOM      9  C   UNL     1       2.609  -1.473  -1.954  1.00  0.00     0.014 A 
ATOM     10  C   UNL     1       4.859  -2.580  -0.721  1.00  0.00     0.010 A 
ATOM     11  C   UNL     1       3.325  -2.490  -2.593  1.00  0.00     0.010 A 
ATOM     12  C   UNL     1       4.463  -3.044  -1.986  1.00  0.00    -0.014 A 
BRANCH  12  13
ATOM     13  C   UNL     1       5.163  -4.211  -2.580  1.00  0.00     0.031 A 
ATOM     14  C   UNL     1       5.918  -4.110  -3.875  1.00  0.00     0.074 A 
ATOM     15  C   UNL     1       5.080  -5.391  -1.931  1.00  0.00     0.049 A 
ATOM     16  N   UNL     1       6.570  -5.046  -4.514  1.00  0.00    -0.248 NA
ATOM     17  C   UNL     1       5.944  -2.799  -4.544  1.00  0.00     0.031 C 
ATOM     18  C   UNL     1       4.327  -5.616  -0.692  1.00  0.00     0.029 A 
ATOM     19  N   UNL     1       5.610  -6.621  -2.221  1.00  0.00    -0.354 N 
ATOM     20  C   UNL     1       7.047  -4.458  -5.678  1.00  0.00     0.074 A 
ATOM     21  C   UNL     1       6.618  -3.075  -5.655  1.00  0.00     0.031 C 
ATOM     22  C   UNL     1       4.451  -6.898  -0.325  1.00  0.00     0.029 A 
ATOM     23  C   UNL     1       5.232  -7.602  -1.333  1.00  0.00     0.049 A 
ATOM     24  H   UNL     1       6.203  -6.787  -2.989  1.00  0.00     0.167 HD
ATOM     25  C   UNL     1       7.778  -5.022  -6.669  1.00  0.00     0.034 A 
ATOM     26  C   UNL     1       5.451  -8.930  -1.347  1.00  0.00     0.034 A 
ATOM     27  C   UNL     1       8.223  -6.393  -6.667  1.00  0.00     0.049 A 
ATOM     28  C   UNL     1       6.269  -9.516  -2.460  1.00  0.00     0.074 A 
ATOM     29  C   UNL     1       9.050  -7.027  -7.579  1.00  0.00     0.029 A 
ATOM     30  N   UNL     1       7.860  -7.346  -5.729  1.00  0.00    -0.354 N 
ATOM     31  N   UNL     1       6.854  -8.906  -3.461  1.00  0.00    -0.248 NA
ATOM     32  C   UNL     1       6.478 -10.970  -2.434  1.00  0.00     0.031 C 
ATOM     33  C   UNL     1       9.148  -8.374  -7.219  1.00  0.00     0.029 A 
ATOM     34  C   UNL     1       8.417  -8.571  -6.060  1.00  0.00     0.049 A 
ATOM     35  H   UNL     1       7.291  -7.178  -4.944  1.00  0.00     0.167 HD
ATOM     36  C   UNL     1       7.514  -9.898  -4.174  1.00  0.00     0.074 A 
ATOM     37  C   UNL     1       7.292 -11.141  -3.465  1.00  0.00     0.031 C 
ATOM     38  C   UNL     1       8.221  -9.793  -5.325  1.00  0.00     0.034 A 
BRANCH  25  39
ATOM     39  C   UNL     1       8.175  -4.172  -7.848  1.00  0.00     0.023 A 
ATOM     40  C   UNL     1       9.206  -3.222  -7.713  1.00  0.00     0.012 A 
ATOM     41  C   UNL     1       7.620  -4.415  -9.122  1.00  0.00     0.148 A 
ATOM     42  C   UNL     1       9.671  -2.518  -8.825  1.00  0.00     0.002 A 
ATOM     43  C   UNL     1       8.117  -3.741 -10.230  1.00  0.00     0.091 A 
ATOM     44  F   UNL     1       6.631  -5.315  -9.224  1.00  0.00    -0.205 F 
ATOM     45  C   UNL     1       9.137  -2.787 -10.083  1.00  0.00     0.022 A 
BRANCH  43  46
ATOM     46  S   UNL     1       7.557  -4.075 -11.905  1.00  0.00     0.127 S 
ATOM     47  O   UNL     1       6.925  -2.805 -12.263  1.00  0.00    -0.237 OA
ATOM     48  O   UNL     1       8.815  -4.347 -12.599  1.00  0.00    -0.237 OA
ATOM     49  O   UNL     1       6.651  -5.211 -11.810  1.00  0.00    -0.744 OA
ENDBRANCH  43  46
ENDBRANCH  25  39
BRANCH  26  50
ATOM     50  C   UNL     1       4.877  -9.794  -0.277  1.00  0.00     0.023 A 
ATOM     51  C   UNL     1       5.733 -10.457   0.622  1.00  0.00     0.012 A 
ATOM     52  C   UNL     1       3.483  -9.957  -0.146  1.00  0.00     0.148 A 
ATOM     53  C   UNL     1       5.213 -11.301   1.604  1.00  0.00     0.002 A 
ATOM     54  C   UNL     1       2.971 -10.746   0.875  1.00  0.00     0.091 A 
ATOM     55  F   UNL     1       2.684  -9.330  -1.021  1.00  0.00    -0.205 F 
ATOM     56  C   UNL     1       3.834 -11.438   1.737  1.00  0.00     0.022 A 
BRANCH  54  57
ATOM     57  S   UNL     1       1.209 -10.855   1.202  1.00  0.00     0.127 S 
ATOM     58  O   UNL     1       0.890 -12.183   0.686  1.00  0.00    -0.237 OA
ATOM     59  O   UNL     1       1.162 -10.732   2.660  1.00  0.00    -0.237 OA
ATOM     60  O   UNL     1       0.611  -9.733   0.491  1.00  0.00    -0.744 OA
ENDBRANCH  54  57
ENDBRANCH  26  50
BRANCH  38  61
ATOM     61  C   UNL     1       8.824 -11.056  -5.882  1.00  0.00     0.023 A 
ATOM     62  C   UNL     1       7.989 -12.038  -6.451  1.00  0.00     0.012 A 
ATOM     63  C   UNL     1      10.220 -11.245  -5.890  1.00  0.00     0.148 A 
ATOM     64  C   UNL     1       8.530 -13.206  -6.985  1.00  0.00     0.002 A 
ATOM     65  C   UNL     1      10.756 -12.386  -6.472  1.00  0.00     0.091 A 
ATOM     66  F   UNL     1      10.995 -10.306  -5.328  1.00  0.00    -0.205 F 
ATOM     67  C   UNL     1       9.912 -13.374  -7.006  1.00  0.00     0.022 A 
BRANCH  65  68
ATOM     68  S   UNL     1      12.525 -12.650  -6.630  1.00  0.00     0.127 S 
ATOM     69  O   UNL     1      12.744 -13.763  -5.707  1.00  0.00    -0.237 OA
ATOM     70  O   UNL     1      12.659 -12.996  -8.046  1.00  0.00    -0.237 OA
ATOM     71  O   UNL     1      13.157 -11.394  -6.250  1.00  0.00    -0.744 OA
ENDBRANCH  65  68
ENDBRANCH  38  61
ENDBRANCH  12  13
ENDBRANCH   5   7
ENDBRANCH   2   3
ENDBRANCH   1   2
BRANCH   1  72
ATOM     72  C   UNL     1       4.046   3.853   1.187  1.00  0.00     0.023 C 
BRANCH  72  73
ATOM     73  C   UNL     1       4.107   3.610   2.704  1.00  0.00     0.116 C 
BRANCH  73  74
ATOM     74  N   UNL     1       5.459   3.375   3.186  1.00  0.00    -0.356 N 
ATOM     75  C   UNL     1       6.457   4.303   3.085  1.00  0.00     0.224 C 
ATOM     76  H   UNL     1       5.664   2.508   3.603  1.00  0.00     0.163 HD
ATOM     77  O   UNL     1       7.394   3.974   2.365  1.00  0.00    -0.275 OA
BRANCH  75  78
ATOM     78  C   UNL     1       6.276   5.683   3.734  1.00  0.00     0.094 C 
ATOM     79  C   UNL     1       6.637   6.048   5.224  1.00  0.00     0.002 C 
ATOM     80  C   UNL     1       6.614   6.856   2.833  1.00  0.00     0.094 C 
ATOM     81  C   UNL     1       7.827   7.032   5.471  1.00  0.00     0.005 C 
ATOM     82  C   UNL     1       5.452   6.934   5.688  1.00  0.00     0.005 C 
ATOM     83  C   UNL     1       6.544   8.160   3.689  1.00  0.00     0.002 C 
ATOM     84  C   UNL     1       7.786   8.259   4.558  1.00  0.00     0.005 C 
ATOM     85  C   UNL     1       5.329   8.117   4.686  1.00  0.00     0.005 C 
BRANCH  80  86
ATOM     86  C   UNL     1       7.756   6.749   1.785  1.00  0.00     0.228 C 
ATOM     87  O   UNL     1       7.454   7.068   0.620  1.00  0.00    -0.274 OA
ATOM     88  N   UNL     1       9.089   6.518   1.973  1.00  0.00    -0.326 N 
ATOM     89  H   UNL     1       9.606   6.700   1.155  1.00  0.00     0.169 HD
BRANCH  88  90
ATOM     90  C   UNL     1       9.917   6.089   3.023  1.00  0.00     0.041 A 
ATOM     91  C   UNL     1      11.077   6.819   3.278  1.00  0.00     0.027 A 
ATOM     92  C   UNL     1       9.678   4.990   3.832  1.00  0.00     0.027 A 
ATOM     93  C   UNL     1      11.777   6.635   4.485  1.00  0.00     0.016 A 
ATOM     94  C   UNL     1      10.378   4.783   5.026  1.00  0.00     0.016 A 
ATOM     95  C   UNL     1      11.360   5.677   5.427  1.00  0.00     0.040 A 
BRANCH  95  96
ATOM     96  C   UNL     1      11.736   5.900   6.867  1.00  0.00     0.253 C 
ATOM     97  O   UNL     1      12.468   6.856   7.130  1.00  0.00    -0.269 OA
ATOM     98  N   UNL     1      11.042   5.252   7.877  1.00  0.00    -0.339 N 
ATOM     99  C   UNL     1      10.730   3.847   8.066  1.00  0.00     0.120 C 
ATOM    100  C   UNL     1      10.490   6.029   8.974  1.00  0.00     0.120 C 
ATOM    101  C   UNL     1       9.352   3.912   8.704  1.00  0.00     0.023 C 
ATOM    102  C   UNL     1       9.505   5.086   9.672  1.00  0.00     0.023 C 
ENDBRANCH  95  96
ENDBRANCH  88  90
ENDBRANCH  80  86
ENDBRANCH  75  78
ENDBRANCH  73  74
ENDBRANCH  72  73
ENDBRANCH   1  72
TORSDOF 17
