REMARK SMILES CCOc1cc(OCC)cc(-c2ccc([C@@H](C)C(=O)NCCCCNC(=O)c3ccc(-c4c5nc(c(-c6cccc(S(=O)(=O)[O-])c6F)c6ccc([nH]6)c(-c6cccc(S(=O)(=O)[O-])c6F)c6nc(c(-c7cccc(S(=O)(=O)[O-])c7F)c7ccc4[nH]7)C=C6)C=C5)cc3)cc2)c1
REMARK SMILES IDX 22 1 21 2 20 3 18 4 19 5 16 7 17 8 15 9 12 10 13 11 92 12
REMARK SMILES IDX 14 13 91 14 11 15 4 16 5 17 93 18 6 19 10 20 3 21 2 22 1 23
REMARK SMILES IDX 7 24 8 25 9 26 23 27 24 28 25 29 26 30 27 32 28 33 29 34
REMARK SMILES IDX 90 35 30 36 89 37 31 38 32 39 33 40 83 41 34 42 88 43 82 44
REMARK SMILES IDX 84 45 35 46 87 47 81 48 80 49 36 51 68 52 48 53 67 54 49 55
REMARK SMILES IDX 52 56 66 57 85 58 50 59 51 60 65 62 86 63 53 64 37 65 38 66
REMARK SMILES IDX 46 67 39 68 41 69 47 70 40 71 42 72 43 73 44 74 45 75 69 76
REMARK SMILES IDX 70 77 78 78 71 79 73 80 79 81 72 82 74 83 75 84 76 85 77 86
REMARK SMILES IDX 54 87 55 88 63 89 56 90 58 91 64 92 57 93 59 94 60 95 61 96
REMARK SMILES IDX 62 97
REMARK H PARENT 20 6 25 31 84 50 52 61
REMARK Flexibility Score: inf
ROOT
ATOM      1  C   UNL     1       8.231  -2.001  -0.351  1.00  0.00     0.023 C 
ENDROOT
BRANCH   1   2
ATOM      2  C   UNL     1       9.125  -1.986  -1.592  1.00  0.00     0.116 C 
BRANCH   2   3
ATOM      3  N   UNL     1       8.393  -2.279  -2.808  1.00  0.00    -0.356 N 
ATOM      4  C   UNL     1       7.858  -1.469  -3.763  1.00  0.00     0.227 C 
ATOM      5  O   UNL     1       7.246  -2.025  -4.683  1.00  0.00    -0.274 OA
ATOM      6  H   UNL     1       8.257  -3.240  -2.973  1.00  0.00     0.163 HD
BRANCH   4   7
ATOM      7  C   UNL     1       7.984   0.063  -3.757  1.00  0.00     0.105 C 
ATOM      8  C   UNL     1       9.419   0.576  -3.866  1.00  0.00     0.023 C 
BRANCH   7   9
ATOM      9  C   UNL     1       7.116   0.727  -2.701  1.00  0.00    -0.036 A 
ATOM     10  C   UNL     1       5.355   1.728  -0.689  1.00  0.00    -0.018 A 
ATOM     11  C   UNL     1       6.717   1.497  -0.434  1.00  0.00     0.009 A 
ATOM     12  C   UNL     1       4.907   1.493  -1.997  1.00  0.00     0.009 A 
ATOM     13  C   UNL     1       7.589   1.045  -1.428  1.00  0.00     0.005 A 
ATOM     14  C   UNL     1       5.765   0.980  -2.979  1.00  0.00     0.005 A 
BRANCH  10  15
ATOM     15  C   UNL     1       4.444   2.154   0.399  1.00  0.00    -0.011 A 
ATOM     16  C   UNL     1       2.278   2.090   1.514  1.00  0.00     0.123 A 
ATOM     17  C   UNL     1       2.778   2.846   2.571  1.00  0.00     0.092 A 
ATOM     18  C   UNL     1       3.098   1.760   0.434  1.00  0.00     0.055 A 
ATOM     19  C   UNL     1       4.105   3.275   2.557  1.00  0.00     0.123 A 
ATOM     20  C   UNL     1       4.913   2.942   1.467  1.00  0.00     0.055 A 
BRANCH  16  21
ATOM     21  O   UNL     1       0.944   1.787   1.507  1.00  0.00    -0.494 OA
BRANCH  21  22
ATOM     22  C   UNL     1       0.671   0.385   1.640  1.00  0.00     0.226 C 
ATOM     23  C   UNL     1       0.493  -0.289   0.288  1.00  0.00     0.049 C 
ENDBRANCH  21  22
ENDBRANCH  16  21
BRANCH  19  24
ATOM     24  O   UNL     1       4.512   3.985   3.655  1.00  0.00    -0.494 OA
BRANCH  24  25
ATOM     25  C   UNL     1       5.789   4.628   3.610  1.00  0.00     0.226 C 
ATOM     26  C   UNL     1       6.912   3.697   4.044  1.00  0.00     0.049 C 
ENDBRANCH  24  25
ENDBRANCH  19  24
ENDBRANCH  10  15
ENDBRANCH   7   9
ENDBRANCH   4   7
ENDBRANCH   2   3
ENDBRANCH   1   2
BRANCH   1  27
ATOM     27  C   UNL     1       8.059  -3.368   0.311  1.00  0.00     0.023 C 
BRANCH  27  28
ATOM     28  C   UNL     1       9.339  -4.011   0.835  1.00  0.00     0.116 C 
BRANCH  28  29
ATOM     29  N   UNL     1      10.069  -3.192   1.794  1.00  0.00    -0.352 N 
ATOM     30  C   UNL     1      10.870  -3.614   2.834  1.00  0.00     0.251 C 
ATOM     31  H   UNL     1       9.979  -2.218   1.686  1.00  0.00     0.163 HD
ATOM     32  O   UNL     1      11.364  -2.803   3.606  1.00  0.00    -0.269 OA
BRANCH  30  33
ATOM     33  C   UNL     1      11.081  -5.066   3.030  1.00  0.00     0.039 A 
ATOM     34  C   UNL     1      10.833  -5.621   4.288  1.00  0.00     0.014 A 
ATOM     35  C   UNL     1      11.452  -5.880   1.958  1.00  0.00     0.014 A 
ATOM     36  C   UNL     1      10.876  -7.008   4.449  1.00  0.00     0.010 A 
ATOM     37  C   UNL     1      11.419  -7.263   2.102  1.00  0.00     0.010 A 
ATOM     38  C   UNL     1      11.127  -7.842   3.347  1.00  0.00    -0.014 A 
BRANCH  38  39
ATOM     39  C   UNL     1      11.065  -9.322   3.460  1.00  0.00     0.031 A 
ATOM     40  C   UNL     1      12.290 -10.151   3.190  1.00  0.00     0.074 A 
ATOM     41  C   UNL     1       9.881  -9.923   3.695  1.00  0.00     0.049 A 
ATOM     42  N   UNL     1      12.414 -11.452   3.159  1.00  0.00    -0.248 NA
ATOM     43  C   UNL     1      13.532  -9.423   2.879  1.00  0.00     0.031 C 
ATOM     44  C   UNL     1       8.602  -9.233   3.879  1.00  0.00     0.029 A 
ATOM     45  N   UNL     1       9.555 -11.253   3.789  1.00  0.00    -0.354 N 
ATOM     46  C   UNL     1      13.729 -11.699   2.785  1.00  0.00     0.074 A 
ATOM     47  C   UNL     1      14.356 -10.414   2.567  1.00  0.00     0.031 C 
ATOM     48  C   UNL     1       7.633 -10.143   4.066  1.00  0.00     0.029 A 
ATOM     49  C   UNL     1       8.214 -11.480   3.994  1.00  0.00     0.049 A 
ATOM     50  H   UNL     1      10.219 -11.976   3.716  1.00  0.00     0.167 HD
ATOM     51  C   UNL     1      14.370 -12.886   2.668  1.00  0.00     0.034 A 
ATOM     52  C   UNL     1       7.529 -12.635   4.112  1.00  0.00     0.034 A 
ATOM     53  C   UNL     1      13.763 -14.158   2.950  1.00  0.00     0.049 A 
ATOM     54  C   UNL     1       8.280 -13.938   4.053  1.00  0.00     0.074 A 
ATOM     55  C   UNL     1      14.353 -15.409   2.963  1.00  0.00     0.029 A 
ATOM     56  N   UNL     1      12.427 -14.342   3.270  1.00  0.00    -0.354 N 
ATOM     57  N   UNL     1       9.562 -14.143   3.870  1.00  0.00    -0.248 NA
ATOM     58  C   UNL     1       7.499 -15.167   4.255  1.00  0.00     0.031 C 
ATOM     59  C   UNL     1      13.371 -16.352   3.286  1.00  0.00     0.029 A 
ATOM     60  C   UNL     1      12.172 -15.686   3.483  1.00  0.00     0.049 A 
ATOM     61  H   UNL     1      11.758 -13.623   3.337  1.00  0.00     0.167 HD
ATOM     62  C   UNL     1       9.747 -15.517   3.970  1.00  0.00     0.074 A 
ATOM     63  C   UNL     1       8.449 -16.094   4.250  1.00  0.00     0.031 C 
ATOM     64  C   UNL     1      10.886 -16.238   3.824  1.00  0.00     0.034 A 
BRANCH  51  65
ATOM     65  C   UNL     1      15.827 -12.858   2.289  1.00  0.00     0.023 A 
ATOM     66  C   UNL     1      16.776 -12.414   3.232  1.00  0.00     0.012 A 
ATOM     67  C   UNL     1      16.263 -13.312   1.030  1.00  0.00     0.148 A 
ATOM     68  C   UNL     1      18.134 -12.390   2.917  1.00  0.00     0.002 A 
ATOM     69  C   UNL     1      17.623 -13.324   0.738  1.00  0.00     0.091 A 
ATOM     70  F   UNL     1      15.345 -13.708   0.137  1.00  0.00    -0.205 F 
ATOM     71  C   UNL     1      18.558 -12.853   1.675  1.00  0.00     0.022 A 
BRANCH  69  72
ATOM     72  S   UNL     1      18.274 -13.971  -0.807  1.00  0.00     0.127 S 
ATOM     73  O   UNL     1      18.644 -12.742  -1.508  1.00  0.00    -0.237 OA
ATOM     74  O   UNL     1      19.407 -14.778  -0.352  1.00  0.00    -0.237 OA
ATOM     75  O   UNL     1      17.190 -14.735  -1.407  1.00  0.00    -0.744 OA
ENDBRANCH  69  72
ENDBRANCH  51  65
BRANCH  52  76
ATOM     76  C   UNL     1       6.065 -12.607   4.390  1.00  0.00     0.023 A 
ATOM     77  C   UNL     1       5.603 -12.974   5.669  1.00  0.00     0.012 A 
ATOM     78  C   UNL     1       5.136 -12.190   3.418  1.00  0.00     0.148 A 
ATOM     79  C   UNL     1       4.240 -12.955   5.967  1.00  0.00     0.002 A 
ATOM     80  C   UNL     1       3.784 -12.123   3.738  1.00  0.00     0.091 A 
ATOM     81  F   UNL     1       5.592 -11.857   2.203  1.00  0.00    -0.205 F 
ATOM     82  C   UNL     1       3.332 -12.519   5.006  1.00  0.00     0.022 A 
BRANCH  80  83
ATOM     83  S   UNL     1       2.563 -11.450   2.605  1.00  0.00     0.127 S 
ATOM     84  O   UNL     1       1.883 -12.657   2.144  1.00  0.00    -0.237 OA
ATOM     85  O   UNL     1       1.768 -10.592   3.485  1.00  0.00    -0.237 OA
ATOM     86  O   UNL     1       3.326 -10.724   1.598  1.00  0.00    -0.744 OA
ENDBRANCH  80  83
ENDBRANCH  52  76
BRANCH  64  87
ATOM     87  C   UNL     1      10.796 -17.731   3.993  1.00  0.00     0.023 A 
ATOM     88  C   UNL     1      10.211 -18.512   2.976  1.00  0.00     0.012 A 
ATOM     89  C   UNL     1      11.364 -18.365   5.114  1.00  0.00     0.148 A 
ATOM     90  C   UNL     1      10.171 -19.901   3.086  1.00  0.00     0.002 A 
ATOM     91  C   UNL     1      11.361 -19.753   5.195  1.00  0.00     0.091 A 
ATOM     92  F   UNL     1      11.897 -17.603   6.080  1.00  0.00    -0.205 F 
ATOM     93  C   UNL     1      10.756 -20.522   4.187  1.00  0.00     0.022 A 
BRANCH  91  94
ATOM     94  S   UNL     1      12.174 -20.636   6.532  1.00  0.00     0.127 S 
ATOM     95  O   UNL     1      11.037 -21.049   7.352  1.00  0.00    -0.237 OA
ATOM     96  O   UNL     1      12.844 -21.728   5.824  1.00  0.00    -0.237 OA
ATOM     97  O   UNL     1      13.079 -19.676   7.150  1.00  0.00    -0.744 OA
ENDBRANCH  91  94
ENDBRANCH  64  87
ENDBRANCH  38  39
ENDBRANCH  30  33
ENDBRANCH  28  29
ENDBRANCH  27  28
ENDBRANCH   1  27
TORSDOF 20
