REMARK SMILES Cc1ccccc1C(=O)Nc1ccc(N2CCC(n3c(C)nc4cccnc43)CC2)c(C(=O)NCCCCNC(=O)c2ccc(-c3c4nc(c(-c5cccc(S(=O)(=O)[O-])c5F)c5ccc([nH]5)c(-c5cccc(S(=O)(=O)[O-])c5F)c5nc(c(-c6cccc(S(=O)(=O)[O-])c6F)c6ccc3[nH]6)C=C5)C=C4)cc2)c1
REMARK SMILES IDX 37 1 36 2 35 3 34 4 32 5 33 6 31 8 11 9 12 10 105 11 13 12
REMARK SMILES IDX 14 13 10 14 8 15 9 16 7 18 1 19 2 20 3 21 4 22 6 23 5 24
REMARK SMILES IDX 15 25 16 26 30 27 17 28 29 29 18 30 19 31 20 32 28 33 21 34
REMARK SMILES IDX 22 35 23 36 27 37 24 38 26 39 25 40 38 41 39 42 40 43 41 45
REMARK SMILES IDX 42 46 43 47 104 48 44 49 103 50 45 51 46 52 47 53 97 54
REMARK SMILES IDX 48 55 102 56 96 57 98 58 49 59 101 60 95 61 94 62 50 64
REMARK SMILES IDX 82 65 62 66 81 67 63 68 66 69 80 70 99 71 64 72 65 73 79 75
REMARK SMILES IDX 100 76 67 77 51 78 52 79 60 80 53 81 55 82 61 83 54 84 56 85
REMARK SMILES IDX 57 86 58 87 59 88 83 89 84 90 92 91 85 92 87 93 93 94 86 95
REMARK SMILES IDX 88 96 89 97 90 98 91 99 68 100 69 101 77 102 70 103 72 104
REMARK SMILES IDX 78 105 71 106 73 107 74 108 75 109 76 110
REMARK H PARENT 34 7 10 17 39 44 98 63 66 74
REMARK Flexibility Score: inf
ROOT
ATOM      1  C   UNL     1      10.402  -2.626   0.743  1.00  0.00     0.023 C 
ENDROOT
BRANCH   1   2
ATOM      2  C   UNL     1       9.417  -1.873  -0.154  1.00  0.00     0.023 C 
BRANCH   2   3
ATOM      3  C   UNL     1       7.971  -1.683   0.294  1.00  0.00     0.116 C 
BRANCH   3   4
ATOM      4  N   UNL     1       7.626  -0.776   1.360  1.00  0.00    -0.352 N 
ATOM      5  C   UNL     1       6.458  -0.033   1.514  1.00  0.00     0.253 C 
ATOM      6  O   UNL     1       6.345   0.593   2.573  1.00  0.00    -0.269 OA
ATOM      7  H   UNL     1       8.301  -0.668   2.068  1.00  0.00     0.163 HD
BRANCH   5   8
ATOM      8  C   UNL     1       5.354   0.129   0.479  1.00  0.00     0.065 A 
ATOM      9  C   UNL     1       3.443   1.544  -0.163  1.00  0.00     0.042 A 
ATOM     10  C   UNL     1       3.191   0.757  -1.267  1.00  0.00     0.028 A 
ATOM     11  C   UNL     1       4.599   1.325   0.605  1.00  0.00     0.042 A 
ATOM     12  C   UNL     1       3.933  -0.401  -1.430  1.00  0.00     0.029 A 
ATOM     13  C   UNL     1       4.913  -0.808  -0.485  1.00  0.00     0.050 A 
BRANCH   9  14
ATOM     14  N   UNL     1       2.506   2.478   0.288  1.00  0.00    -0.322 N 
ATOM     15  C   UNL     1       1.121   2.430   0.299  1.00  0.00     0.255 C 
ATOM     16  O   UNL     1       0.532   3.499   0.497  1.00  0.00    -0.269 OA
ATOM     17  H   UNL     1       2.892   3.304   0.657  1.00  0.00     0.170 HD
BRANCH  15  18
ATOM     18  C   UNL     1       0.278   1.179   0.159  1.00  0.00     0.043 A 
ATOM     19  C   UNL     1       1.781  -0.551   1.379  1.00  0.00     0.045 C 
ATOM     20  C   UNL     1       0.574  -0.130   0.597  1.00  0.00    -0.038 A 
ATOM     21  C   UNL     1      -0.352  -1.175   0.362  1.00  0.00     0.004 A 
ATOM     22  C   UNL     1      -1.617  -0.923  -0.152  1.00  0.00     0.000 A 
ATOM     23  C   UNL     1      -1.026   1.407  -0.337  1.00  0.00     0.014 A 
ATOM     24  C   UNL     1      -1.969   0.379  -0.467  1.00  0.00     0.001 A 
ENDBRANCH  15  18
ENDBRANCH   9  14
BRANCH  13  25
ATOM     25  N   UNL     1       5.184  -2.179  -0.466  1.00  0.00    -0.371 N 
ATOM     26  C   UNL     1       5.670  -2.789  -1.692  1.00  0.00     0.118 C 
ATOM     27  C   UNL     1       4.923  -2.901   0.774  1.00  0.00     0.118 C 
ATOM     28  C   UNL     1       5.546  -4.281  -1.776  1.00  0.00     0.047 C 
ATOM     29  C   UNL     1       4.419  -4.300   0.503  1.00  0.00     0.047 C 
ATOM     30  C   UNL     1       5.267  -5.074  -0.497  1.00  0.00     0.094 C 
BRANCH  30  31
ATOM     31  N   UNL     1       4.708  -6.362  -0.935  1.00  0.00    -0.310 N 
ATOM     32  C   UNL     1       3.451  -6.919  -0.786  1.00  0.00     0.108 A 
ATOM     33  C   UNL     1       5.413  -7.200  -1.772  1.00  0.00     0.160 A 
ATOM     34  C   UNL     1       2.471  -6.599   0.286  1.00  0.00     0.088 C 
ATOM     35  N   UNL     1       3.261  -7.890  -1.668  1.00  0.00    -0.232 NA
ATOM     36  C   UNL     1       4.488  -8.127  -2.225  1.00  0.00     0.108 A 
ATOM     37  N   UNL     1       6.737  -7.165  -2.020  1.00  0.00    -0.237 NA
ATOM     38  C   UNL     1       4.962  -9.193  -3.003  1.00  0.00     0.034 A 
ATOM     39  C   UNL     1       7.166  -8.257  -2.696  1.00  0.00     0.113 A 
ATOM     40  C   UNL     1       6.349  -9.270  -3.193  1.00  0.00     0.022 A 
ENDBRANCH  30  31
ENDBRANCH  13  25
ENDBRANCH   5   8
ENDBRANCH   3   4
ENDBRANCH   2   3
ENDBRANCH   1   2
BRANCH   1  41
ATOM     41  C   UNL     1       9.965  -4.004   1.224  1.00  0.00     0.116 C 
BRANCH  41  42
ATOM     42  N   UNL     1       9.859  -5.013   0.167  1.00  0.00    -0.352 N 
ATOM     43  C   UNL     1       9.749  -6.392   0.313  1.00  0.00     0.251 C 
ATOM     44  H   UNL     1       9.866  -4.674  -0.758  1.00  0.00     0.163 HD
ATOM     45  O   UNL     1      10.047  -7.131  -0.618  1.00  0.00    -0.269 OA
BRANCH  43  46
ATOM     46  C   UNL     1       9.216  -6.946   1.576  1.00  0.00     0.039 A 
ATOM     47  C   UNL     1       9.537  -8.227   2.054  1.00  0.00     0.014 A 
ATOM     48  C   UNL     1       8.268  -6.178   2.238  1.00  0.00     0.014 A 
ATOM     49  C   UNL     1       8.871  -8.733   3.175  1.00  0.00     0.010 A 
ATOM     50  C   UNL     1       7.768  -6.582   3.433  1.00  0.00     0.010 A 
ATOM     51  C   UNL     1       7.957  -7.909   3.819  1.00  0.00    -0.014 A 
BRANCH  51  52
ATOM     52  C   UNL     1       6.995  -8.292   4.833  1.00  0.00     0.031 A 
ATOM     53  C   UNL     1       7.394  -8.356   6.239  1.00  0.00     0.074 A 
ATOM     54  C   UNL     1       5.718  -8.093   4.429  1.00  0.00     0.049 A 
ATOM     55  N   UNL     1       6.573  -8.572   7.203  1.00  0.00    -0.248 NA
ATOM     56  C   UNL     1       8.774  -8.182   6.674  1.00  0.00     0.031 C 
ATOM     57  C   UNL     1       4.572  -7.591   5.176  1.00  0.00     0.029 A 
ATOM     58  N   UNL     1       5.179  -8.217   3.158  1.00  0.00    -0.354 N 
ATOM     59  C   UNL     1       7.231  -8.247   8.370  1.00  0.00     0.074 A 
ATOM     60  C   UNL     1       8.622  -8.181   8.001  1.00  0.00     0.031 C 
ATOM     61  C   UNL     1       3.461  -7.776   4.431  1.00  0.00     0.029 A 
ATOM     62  C   UNL     1       3.861  -8.616   3.312  1.00  0.00     0.049 A 
ATOM     63  H   UNL     1       5.645  -8.053   2.307  1.00  0.00     0.167 HD
ATOM     64  C   UNL     1       6.476  -7.888   9.447  1.00  0.00     0.034 A 
ATOM     65  C   UNL     1       3.480  -9.930   3.155  1.00  0.00     0.034 A 
ATOM     66  C   UNL     1       5.044  -8.087   9.143  1.00  0.00     0.049 A 
ATOM     67  C   UNL     1       2.875 -10.495   4.408  1.00  0.00     0.074 A 
ATOM     68  C   UNL     1       4.044  -7.217   8.739  1.00  0.00     0.029 A 
ATOM     69  N   UNL     1       4.566  -9.373   8.904  1.00  0.00    -0.354 N 
ATOM     70  N   UNL     1       3.170 -10.066   5.602  1.00  0.00    -0.248 NA
ATOM     71  C   UNL     1       1.834 -11.512   4.413  1.00  0.00     0.031 C 
ATOM     72  C   UNL     1       2.994  -7.995   8.171  1.00  0.00     0.029 A 
ATOM     73  C   UNL     1       3.337  -9.336   8.263  1.00  0.00     0.049 A 
ATOM     74  H   UNL     1       5.039 -10.199   9.156  1.00  0.00     0.167 HD
ATOM     75  C   UNL     1       2.438 -10.741   6.530  1.00  0.00     0.074 A 
ATOM     76  C   UNL     1       1.574 -11.597   5.729  1.00  0.00     0.031 C 
ATOM     77  C   UNL     1       2.657 -10.572   7.869  1.00  0.00     0.034 A 
BRANCH  64  78
ATOM     78  C   UNL     1       6.949  -7.105  10.668  1.00  0.00     0.023 A 
ATOM     79  C   UNL     1       5.942  -6.588  11.518  1.00  0.00     0.012 A 
ATOM     80  C   UNL     1       8.278  -6.774  11.034  1.00  0.00     0.148 A 
ATOM     81  C   UNL     1       6.221  -5.766  12.617  1.00  0.00     0.002 A 
ATOM     82  C   UNL     1       8.562  -5.953  12.132  1.00  0.00     0.091 A 
ATOM     83  F   UNL     1       9.307  -7.251  10.340  1.00  0.00    -0.205 F 
ATOM     84  C   UNL     1       7.532  -5.441  12.922  1.00  0.00     0.022 A 
BRANCH  82  85
ATOM     85  S   UNL     1      10.243  -5.482  12.593  1.00  0.00     0.127 S 
ATOM     86  O   UNL     1      10.177  -4.021  12.543  1.00  0.00    -0.237 OA
ATOM     87  O   UNL     1      10.364  -6.039  13.940  1.00  0.00    -0.237 OA
ATOM     88  O   UNL     1      11.131  -6.077  11.601  1.00  0.00    -0.744 OA
ENDBRANCH  82  85
ENDBRANCH  64  78
BRANCH  65  89
ATOM     89  C   UNL     1       4.342 -10.695   2.191  1.00  0.00     0.023 A 
ATOM     90  C   UNL     1       4.385 -10.111   0.918  1.00  0.00     0.012 A 
ATOM     91  C   UNL     1       5.428 -11.506   2.596  1.00  0.00     0.148 A 
ATOM     92  C   UNL     1       5.611 -10.015   0.278  1.00  0.00     0.002 A 
ATOM     93  C   UNL     1       6.607 -11.511   1.839  1.00  0.00     0.091 A 
ATOM     94  F   UNL     1       5.324 -12.210   3.730  1.00  0.00    -0.205 F 
ATOM     95  C   UNL     1       6.728 -10.678   0.734  1.00  0.00     0.022 A 
BRANCH  93  96
ATOM     96  S   UNL     1       8.059 -12.473   2.262  1.00  0.00     0.127 S 
ATOM     97  O   UNL     1       7.748 -13.760   1.655  1.00  0.00    -0.237 OA
ATOM     98  O   UNL     1       9.150 -11.745   1.613  1.00  0.00    -0.237 OA
ATOM     99  O   UNL     1       8.110 -12.427   3.722  1.00  0.00    -0.744 OA
ENDBRANCH  93  96
ENDBRANCH  65  89
BRANCH  77 100
ATOM    100  C   UNL     1       2.254 -11.594   8.912  1.00  0.00     0.023 A 
ATOM    101  C   UNL     1       1.840 -12.895   8.560  1.00  0.00     0.012 A 
ATOM    102  C   UNL     1       2.442 -11.347  10.293  1.00  0.00     0.148 A 
ATOM    103  C   UNL     1       1.544 -13.872   9.511  1.00  0.00     0.002 A 
ATOM    104  C   UNL     1       2.277 -12.364  11.228  1.00  0.00     0.091 A 
ATOM    105  F   UNL     1       2.772 -10.121  10.720  1.00  0.00    -0.205 F 
ATOM    106  C   UNL     1       1.788 -13.614  10.847  1.00  0.00     0.022 A 
BRANCH 104 107
ATOM    107  S   UNL     1       2.841 -12.176  12.923  1.00  0.00     0.127 S 
ATOM    108  O   UNL     1       1.591 -11.887  13.622  1.00  0.00    -0.237 OA
ATOM    109  O   UNL     1       3.409 -13.495  13.207  1.00  0.00    -0.237 OA
ATOM    110  O   UNL     1       3.821 -11.099  12.889  1.00  0.00    -0.744 OA
ENDBRANCH 104 107
ENDBRANCH  77 100
ENDBRANCH  51  52
ENDBRANCH  43  46
ENDBRANCH  41  42
ENDBRANCH   1  41
TORSDOF 18
