REMARK SMILES CC(=O)NS(=O)(=O)c1cc(-c2ccn(C(F)F)c(=O)c2)ccc1C(=O)NCCCCNC(=O)c1ccc(-c2c3nc(c(-c4cccc(S(=O)(=O)[O-])c4F)c4ccc([nH]4)c(-c4cccc(S(=O)(=O)[O-])c4F)c4nc(c(-c5cccc(S(=O)(=O)[O-])c5F)c5ccc2[nH]5)C=C4)C=C3)cc1
REMARK SMILES IDX 29 1 28 2 27 3 26 4 24 5 25 6 23 8 8 9 9 10 10 11 22 12
REMARK SMILES IDX 21 13 5 14 6 15 7 16 4 17 1 18 2 19 3 20 11 22 12 23 20 24
REMARK SMILES IDX 13 25 18 26 14 27 19 28 15 29 16 30 17 31 30 32 31 33 32 34
REMARK SMILES IDX 33 36 34 37 35 38 96 39 36 40 95 41 37 42 38 43 39 44 89 45
REMARK SMILES IDX 40 46 94 47 88 48 90 49 41 50 93 51 87 52 86 53 42 55 74 56
REMARK SMILES IDX 54 57 73 58 55 59 58 60 72 61 91 62 56 63 57 64 71 66 92 67
REMARK SMILES IDX 59 68 43 69 44 70 52 71 45 72 47 73 53 74 46 75 48 76 49 77
REMARK SMILES IDX 50 78 51 79 75 80 76 81 84 82 77 83 79 84 85 85 78 86 80 87
REMARK SMILES IDX 81 88 82 89 83 90 60 91 61 92 69 93 62 94 64 95 70 96 63 97
REMARK SMILES IDX 65 98 66 99 67 100 68 101
REMARK H PARENT 26 7 4 21 31 35 90 54 58 65
REMARK Flexibility Score: inf
ROOT
ATOM      1  C   UNL     1       1.157   6.673   0.088  1.00  0.00     0.023 C 
ENDROOT
BRANCH   1   2
ATOM      2  C   UNL     1       1.287   5.155   0.164  1.00  0.00     0.023 C 
BRANCH   2   3
ATOM      3  C   UNL     1       2.299   4.640   1.196  1.00  0.00     0.116 C 
BRANCH   3   4
ATOM      4  N   UNL     1       1.574   4.094   2.328  1.00  0.00    -0.352 N 
ATOM      5  C   UNL     1       1.340   2.824   2.759  1.00  0.00     0.252 C 
ATOM      6  O   UNL     1       0.534   2.651   3.676  1.00  0.00    -0.269 OA
ATOM      7  H   UNL     1       1.167   4.783   2.902  1.00  0.00     0.163 HD
BRANCH   5   8
ATOM      8  C   UNL     1       2.072   1.621   2.301  1.00  0.00     0.060 A 
ATOM      9  C   UNL     1       1.917   0.970   1.073  1.00  0.00     0.101 A 
ATOM     10  C   UNL     1       2.326  -0.368   0.934  1.00  0.00     0.031 A 
ATOM     11  C   UNL     1       2.806  -1.089   2.032  1.00  0.00    -0.017 A 
ATOM     12  C   UNL     1       2.699   0.922   3.357  1.00  0.00     0.016 A 
ATOM     13  C   UNL     1       3.050  -0.426   3.232  1.00  0.00     0.009 A 
BRANCH   9  14
ATOM     14  S   UNL     1       1.080   1.711  -0.288  1.00  0.00     0.264 S 
ATOM     15  O   UNL     1       2.084   2.421  -1.040  1.00  0.00    -0.201 OA
ATOM     16  O   UNL     1      -0.139   2.326   0.182  1.00  0.00    -0.201 OA
BRANCH  14  17
ATOM     17  N   UNL     1       0.643   0.453  -1.286  1.00  0.00    -0.249 N 
ATOM     18  C   UNL     1      -1.214  -0.582   0.030  1.00  0.00     0.115 C 
ATOM     19  C   UNL     1      -0.578  -0.235  -1.286  1.00  0.00     0.230 C 
ATOM     20  O   UNL     1      -0.991  -0.693  -2.343  1.00  0.00    -0.274 OA
ATOM     21  H   UNL     1       1.312   0.161  -1.945  1.00  0.00     0.183 HD
ENDBRANCH  14  17
ENDBRANCH   9  14
BRANCH  11  22
ATOM     22  C   UNL     1       2.733  -2.561   1.973  1.00  0.00    -0.011 A 
ATOM     23  C   UNL     1       1.588  -3.250   2.544  1.00  0.00     0.027 A 
ATOM     24  C   UNL     1       3.629  -3.260   1.257  1.00  0.00     0.080 A 
ATOM     25  C   UNL     1       1.378  -4.545   2.296  1.00  0.00     0.095 A 
ATOM     26  C   UNL     1       3.433  -4.721   1.016  1.00  0.00     0.255 A 
ATOM     27  N   UNL     1       2.266  -5.271   1.528  1.00  0.00    -0.258 N 
ATOM     28  O   UNL     1       4.277  -5.326   0.364  1.00  0.00    -0.269 OA
BRANCH  27  29
ATOM     29  C   UNL     1       1.997  -6.653   1.223  1.00  0.00     0.451 C 
ATOM     30  F   UNL     1       1.935  -6.853  -0.116  1.00  0.00    -0.185 F 
ATOM     31  F   UNL     1       2.958  -7.463   1.726  1.00  0.00    -0.185 F 
ENDBRANCH  27  29
ENDBRANCH  11  22
ENDBRANCH   5   8
ENDBRANCH   3   4
ENDBRANCH   2   3
ENDBRANCH   1   2
BRANCH   1  32
ATOM     32  C   UNL     1       2.341   7.369  -0.573  1.00  0.00     0.116 C 
BRANCH  32  33
ATOM     33  N   UNL     1       2.567   6.933  -1.948  1.00  0.00    -0.352 N 
ATOM     34  C   UNL     1       2.817   7.683  -3.071  1.00  0.00     0.251 C 
ATOM     35  H   UNL     1       2.535   5.960  -2.090  1.00  0.00     0.163 HD
ATOM     36  O   UNL     1       2.871   7.146  -4.174  1.00  0.00    -0.269 OA
BRANCH  34  37
ATOM     37  C   UNL     1       2.988   9.145  -2.950  1.00  0.00     0.039 A 
ATOM     38  C   UNL     1       2.283   9.979  -3.822  1.00  0.00     0.014 A 
ATOM     39  C   UNL     1       3.811   9.687  -1.960  1.00  0.00     0.014 A 
ATOM     40  C   UNL     1       2.333  11.362  -3.641  1.00  0.00     0.010 A 
ATOM     41  C   UNL     1       3.812  11.060  -1.743  1.00  0.00     0.010 A 
ATOM     42  C   UNL     1       3.063  11.906  -2.573  1.00  0.00    -0.014 A 
BRANCH  42  43
ATOM     43  C   UNL     1       3.029  13.357  -2.274  1.00  0.00     0.031 A 
ATOM     44  C   UNL     1       4.276  14.181  -2.397  1.00  0.00     0.074 A 
ATOM     45  C   UNL     1       1.899  13.902  -1.784  1.00  0.00     0.049 A 
ATOM     46  N   UNL     1       4.470  15.430  -2.065  1.00  0.00    -0.248 NA
ATOM     47  C   UNL     1       5.469  13.506  -2.934  1.00  0.00     0.031 C 
ATOM     48  C   UNL     1       0.646  13.182  -1.541  1.00  0.00     0.029 A 
ATOM     49  N   UNL     1       1.628  15.184  -1.381  1.00  0.00    -0.354 N 
ATOM     50  C   UNL     1       5.818  15.672  -2.287  1.00  0.00     0.074 A 
ATOM     51  C   UNL     1       6.394  14.446  -2.797  1.00  0.00     0.031 C 
ATOM     52  C   UNL     1      -0.265  14.037  -1.049  1.00  0.00     0.029 A 
ATOM     53  C   UNL     1       0.343  15.359  -0.926  1.00  0.00     0.049 A 
ATOM     54  H   UNL     1       2.291  15.911  -1.416  1.00  0.00     0.167 HD
ATOM     55  C   UNL     1       6.511  16.818  -2.100  1.00  0.00     0.034 A 
ATOM     56  C   UNL     1      -0.279  16.464  -0.472  1.00  0.00     0.034 A 
ATOM     57  C   UNL     1       5.923  18.061  -1.688  1.00  0.00     0.049 A 
ATOM     58  C   UNL     1       0.476  17.761  -0.422  1.00  0.00     0.074 A 
ATOM     59  C   UNL     1       6.528  19.296  -1.540  1.00  0.00     0.029 A 
ATOM     60  N   UNL     1       4.582  18.232  -1.383  1.00  0.00    -0.354 N 
ATOM     61  N   UNL     1       1.725  17.995  -0.742  1.00  0.00    -0.248 NA
ATOM     62  C   UNL     1      -0.267  18.948   0.023  1.00  0.00     0.031 C 
ATOM     63  C   UNL     1       5.543  20.224  -1.179  1.00  0.00     0.029 A 
ATOM     64  C   UNL     1       4.332  19.557  -1.075  1.00  0.00     0.049 A 
ATOM     65  H   UNL     1       3.906  17.515  -1.385  1.00  0.00     0.167 HD
ATOM     66  C   UNL     1       1.915  19.358  -0.555  1.00  0.00     0.074 A 
ATOM     67  C   UNL     1       0.647  19.901  -0.111  1.00  0.00     0.031 C 
ATOM     68  C   UNL     1       3.046  20.088  -0.709  1.00  0.00     0.034 A 
BRANCH  55  69
ATOM     69  C   UNL     1       7.975  16.788  -2.421  1.00  0.00     0.023 A 
ATOM     70  C   UNL     1       8.388  17.035  -3.744  1.00  0.00     0.012 A 
ATOM     71  C   UNL     1       8.938  16.526  -1.431  1.00  0.00     0.148 A 
ATOM     72  C   UNL     1       9.741  17.009  -4.079  1.00  0.00     0.002 A 
ATOM     73  C   UNL     1      10.288  16.515  -1.772  1.00  0.00     0.091 A 
ATOM     74  F   UNL     1       8.533  16.266  -0.179  1.00  0.00    -0.205 F 
ATOM     75  C   UNL     1      10.693  16.754  -3.093  1.00  0.00     0.022 A 
BRANCH  73  76
ATOM     76  S   UNL     1      11.524  16.195  -0.510  1.00  0.00     0.127 S 
ATOM     77  O   UNL     1      11.325  14.776  -0.229  1.00  0.00    -0.237 OA
ATOM     78  O   UNL     1      12.784  16.504  -1.188  1.00  0.00    -0.237 OA
ATOM     79  O   UNL     1      11.178  17.126   0.558  1.00  0.00    -0.744 OA
ENDBRANCH  73  76
ENDBRANCH  55  69
BRANCH  56  80
ATOM     80  C   UNL     1      -1.728  16.402  -0.147  1.00  0.00     0.023 A 
ATOM     81  C   UNL     1      -2.653  16.889  -1.089  1.00  0.00     0.012 A 
ATOM     82  C   UNL     1      -2.201  15.808   1.035  1.00  0.00     0.148 A 
ATOM     83  C   UNL     1      -4.025  16.795  -0.854  1.00  0.00     0.002 A 
ATOM     84  C   UNL     1      -3.571  15.688   1.249  1.00  0.00     0.091 A 
ATOM     85  F   UNL     1      -1.313  15.345   1.928  1.00  0.00    -0.205 F 
ATOM     86  C   UNL     1      -4.487  16.187   0.312  1.00  0.00     0.022 A 
BRANCH  84  87
ATOM     87  S   UNL     1      -4.170  14.815   2.698  1.00  0.00     0.127 S 
ATOM     88  O   UNL     1      -3.831  15.730   3.783  1.00  0.00    -0.237 OA
ATOM     89  O   UNL     1      -5.605  14.682   2.441  1.00  0.00    -0.237 OA
ATOM     90  O   UNL     1      -3.438  13.553   2.651  1.00  0.00    -0.744 OA
ENDBRANCH  84  87
ENDBRANCH  56  80
BRANCH  68  91
ATOM     91  C   UNL     1       2.965  21.555  -0.409  1.00  0.00     0.023 A 
ATOM     92  C   UNL     1       3.160  21.990   0.915  1.00  0.00     0.012 A 
ATOM     93  C   UNL     1       2.778  22.500  -1.431  1.00  0.00     0.148 A 
ATOM     94  C   UNL     1       3.165  23.351   1.218  1.00  0.00     0.002 A 
ATOM     95  C   UNL     1       2.799  23.857  -1.123  1.00  0.00     0.091 A 
ATOM     96  F   UNL     1       2.579  22.073  -2.687  1.00  0.00    -0.205 F 
ATOM     97  C   UNL     1       2.991  24.286   0.199  1.00  0.00     0.022 A 
BRANCH  95  98
ATOM     98  S   UNL     1       2.615  25.070  -2.433  1.00  0.00     0.127 S 
ATOM     99  O   UNL     1       1.206  24.938  -2.791  1.00  0.00    -0.237 OA
ATOM    100  O   UNL     1       2.954  26.333  -1.773  1.00  0.00    -0.237 OA
ATOM    101  O   UNL     1       3.584  24.647  -3.438  1.00  0.00    -0.744 OA
ENDBRANCH  95  98
ENDBRANCH  68  91
ENDBRANCH  42  43
ENDBRANCH  34  37
ENDBRANCH  32  33
ENDBRANCH   1  32
TORSDOF 18
