REMARK SMILES COc1c(F)cc(F)c(C(=O)NCCCCNC(=O)c2ccc(-c3c4nc(c(-c5cccc(S(=O)(=O)[O-])c5F)c5ccc([nH]5)c(-c5cccc(S(=O)(=O)[O-])c5F)c5nc(c(-c6cccc(S(=O)(=O)[O-])c6F)c6ccc3[nH]6)C=C5)C=C4)cc2)c1F
REMARK SMILES IDX 15 1 14 2 13 3 12 4 10 5 11 6 9 8 3 9 4 10 83 11 5 12 6 13
REMARK SMILES IDX 84 14 7 15 8 16 2 17 1 18 16 19 17 20 18 21 19 23 20 24
REMARK SMILES IDX 21 25 82 26 22 27 81 28 23 29 24 30 25 31 75 32 26 33 80 34
REMARK SMILES IDX 74 35 76 36 27 37 79 38 73 39 72 40 28 42 60 43 40 44 59 45
REMARK SMILES IDX 41 46 44 47 58 48 77 49 42 50 43 51 57 53 78 54 45 55 29 56
REMARK SMILES IDX 30 57 38 58 31 59 33 60 39 61 32 62 34 63 35 64 36 65 37 66
REMARK SMILES IDX 61 67 62 68 70 69 63 70 65 71 71 72 64 73 66 74 67 75 68 76
REMARK SMILES IDX 69 77 46 78 47 79 55 80 48 81 50 82 56 83 49 84 51 85 52 86
REMARK SMILES IDX 53 87 54 88
REMARK H PARENT 12 7 17 22 76 41 44 52
REMARK Flexibility Score: inf
ROOT
ATOM      1  C   UNL     1      -4.699   3.999  -1.670  1.00  0.00     0.023 C 
ENDROOT
BRANCH   1   2
ATOM      2  C   UNL     1      -3.374   3.236  -1.738  1.00  0.00     0.023 C 
BRANCH   2   3
ATOM      3  C   UNL     1      -2.487   3.595  -2.935  1.00  0.00     0.116 C 
BRANCH   3   4
ATOM      4  N   UNL     1      -1.740   4.807  -2.659  1.00  0.00    -0.352 N 
ATOM      5  C   UNL     1      -0.495   5.043  -2.136  1.00  0.00     0.257 C 
ATOM      6  O   UNL     1      -0.209   6.220  -1.913  1.00  0.00    -0.269 OA
ATOM      7  H   UNL     1      -2.227   5.630  -2.896  1.00  0.00     0.163 HD
BRANCH   5   8
ATOM      8  C   UNL     1       0.530   4.002  -1.864  1.00  0.00     0.115 A 
ATOM      9  C   UNL     1       1.314   1.778  -1.232  1.00  0.00     0.191 A 
ATOM     10  C   UNL     1       2.634   2.195  -1.343  1.00  0.00     0.171 A 
ATOM     11  C   UNL     1       0.276   2.690  -1.464  1.00  0.00     0.183 A 
ATOM     12  F   UNL     1       3.644   1.339  -1.133  1.00  0.00    -0.203 F 
ATOM     13  C   UNL     1       2.923   3.504  -1.689  1.00  0.00     0.083 A 
ATOM     14  F   UNL     1      -0.962   2.250  -1.222  1.00  0.00    -0.202 F 
ATOM     15  C   UNL     1       1.878   4.387  -1.961  1.00  0.00     0.142 A 
ATOM     16  F   UNL     1       2.226   5.625  -2.344  1.00  0.00    -0.206 F 
BRANCH   9  17
ATOM     17  O   UNL     1       0.973   0.470  -1.008  1.00  0.00    -0.491 OA
ATOM     18  C   UNL     1       1.334   0.031   0.297  1.00  0.00     0.278 C 
ENDBRANCH   9  17
ENDBRANCH   5   8
ENDBRANCH   3   4
ENDBRANCH   2   3
ENDBRANCH   1   2
BRANCH   1  19
ATOM     19  C   UNL     1      -5.683   3.683  -2.791  1.00  0.00     0.116 C 
BRANCH  19  20
ATOM     20  N   UNL     1      -6.026   2.271  -2.875  1.00  0.00    -0.352 N 
ATOM     21  C   UNL     1      -7.203   1.695  -3.298  1.00  0.00     0.251 C 
ATOM     22  H   UNL     1      -5.322   1.643  -2.591  1.00  0.00     0.163 HD
ATOM     23  O   UNL     1      -7.364   0.489  -3.220  1.00  0.00    -0.269 OA
BRANCH  21  24
ATOM     24  C   UNL     1      -8.287   2.566  -3.804  1.00  0.00     0.039 A 
ATOM     25  C   UNL     1      -9.570   2.413  -3.275  1.00  0.00     0.014 A 
ATOM     26  C   UNL     1      -8.028   3.550  -4.762  1.00  0.00     0.014 A 
ATOM     27  C   UNL     1     -10.581   3.299  -3.652  1.00  0.00     0.010 A 
ATOM     28  C   UNL     1      -9.020   4.469  -5.090  1.00  0.00     0.010 A 
ATOM     29  C   UNL     1     -10.303   4.357  -4.533  1.00  0.00    -0.014 A 
BRANCH  29  30
ATOM     30  C   UNL     1     -11.327   5.382  -4.852  1.00  0.00     0.031 A 
ATOM     31  C   UNL     1     -11.845   5.529  -6.255  1.00  0.00     0.074 A 
ATOM     32  C   UNL     1     -11.711   6.249  -3.894  1.00  0.00     0.049 A 
ATOM     33  N   UNL     1     -12.698   6.400  -6.729  1.00  0.00    -0.248 NA
ATOM     34  C   UNL     1     -11.318   4.595  -7.263  1.00  0.00     0.031 C 
ATOM     35  C   UNL     1     -11.210   6.265  -2.517  1.00  0.00     0.029 A 
ATOM     36  N   UNL     1     -12.589   7.303  -3.938  1.00  0.00    -0.354 N 
ATOM     37  C   UNL     1     -12.782   6.145  -8.092  1.00  0.00     0.074 A 
ATOM     38  C   UNL     1     -11.874   5.055  -8.375  1.00  0.00     0.031 C 
ATOM     39  C   UNL     1     -11.790   7.275  -1.849  1.00  0.00     0.029 A 
ATOM     40  C   UNL     1     -12.685   7.992  -2.751  1.00  0.00     0.049 A 
ATOM     41  H   UNL     1     -13.101   7.543  -4.744  1.00  0.00     0.167 HD
ATOM     42  C   UNL     1     -13.567   6.744  -9.018  1.00  0.00     0.034 A 
ATOM     43  C   UNL     1     -13.413   9.078  -2.427  1.00  0.00     0.034 A 
ATOM     44  C   UNL     1     -14.511   7.788  -8.721  1.00  0.00     0.049 A 
ATOM     45  C   UNL     1     -14.320   9.686  -3.462  1.00  0.00     0.074 A 
ATOM     46  C   UNL     1     -15.431   8.381  -9.567  1.00  0.00     0.029 A 
ATOM     47  N   UNL     1     -14.653   8.397  -7.485  1.00  0.00    -0.354 N 
ATOM     48  N   UNL     1     -14.523   9.311  -4.702  1.00  0.00    -0.248 NA
ATOM     49  C   UNL     1     -15.126  10.842  -3.044  1.00  0.00     0.031 C 
ATOM     50  C   UNL     1     -16.122   9.359  -8.844  1.00  0.00     0.029 A 
ATOM     51  C   UNL     1     -15.639   9.367  -7.545  1.00  0.00     0.049 A 
ATOM     52  H   UNL     1     -14.130   8.174  -6.681  1.00  0.00     0.167 HD
ATOM     53  C   UNL     1     -15.500  10.163  -5.202  1.00  0.00     0.074 A 
ATOM     54  C   UNL     1     -15.866  11.059  -4.124  1.00  0.00     0.031 C 
ATOM     55  C   UNL     1     -16.033  10.212  -6.448  1.00  0.00     0.034 A 
BRANCH  42  56
ATOM     56  C   UNL     1     -13.492   6.237 -10.433  1.00  0.00     0.023 A 
ATOM     57  C   UNL     1     -14.071   4.991 -10.751  1.00  0.00     0.012 A 
ATOM     58  C   UNL     1     -12.911   7.010 -11.456  1.00  0.00     0.148 A 
ATOM     59  C   UNL     1     -14.049   4.510 -12.058  1.00  0.00     0.002 A 
ATOM     60  C   UNL     1     -12.927   6.541 -12.765  1.00  0.00     0.091 A 
ATOM     61  F   UNL     1     -12.344   8.181 -11.131  1.00  0.00    -0.205 F 
ATOM     62  C   UNL     1     -13.487   5.288 -13.066  1.00  0.00     0.022 A 
BRANCH  60  63
ATOM     63  S   UNL     1     -12.292   7.502 -14.144  1.00  0.00     0.127 S 
ATOM     64  O   UNL     1     -11.048   6.795 -14.448  1.00  0.00    -0.237 OA
ATOM     65  O   UNL     1     -13.345   7.338 -15.147  1.00  0.00    -0.237 OA
ATOM     66  O   UNL     1     -12.136   8.861 -13.646  1.00  0.00    -0.744 OA
ENDBRANCH  60  63
ENDBRANCH  42  56
BRANCH  43  67
ATOM     67  C   UNL     1     -13.379   9.607  -1.034  1.00  0.00     0.023 A 
ATOM     68  C   UNL     1     -14.505   9.431  -0.207  1.00  0.00     0.012 A 
ATOM     69  C   UNL     1     -12.238  10.247  -0.514  1.00  0.00     0.148 A 
ATOM     70  C   UNL     1     -14.507   9.907   1.104  1.00  0.00     0.002 A 
ATOM     71  C   UNL     1     -12.227  10.673   0.810  1.00  0.00     0.091 A 
ATOM     72  F   UNL     1     -11.181  10.420  -1.321  1.00  0.00    -0.205 F 
ATOM     73  C   UNL     1     -13.366  10.518   1.616  1.00  0.00     0.022 A 
BRANCH  71  74
ATOM     74  S   UNL     1     -10.755  11.350   1.585  1.00  0.00     0.127 S 
ATOM     75  O   UNL     1     -11.066  12.777   1.625  1.00  0.00    -0.237 OA
ATOM     76  O   UNL     1     -10.759  10.682   2.888  1.00  0.00    -0.237 OA
ATOM     77  O   UNL     1      -9.649  10.961   0.720  1.00  0.00    -0.744 OA
ENDBRANCH  71  74
ENDBRANCH  43  67
BRANCH  55  78
ATOM     78  C   UNL     1     -17.086  11.254  -6.715  1.00  0.00     0.023 A 
ATOM     79  C   UNL     1     -16.707  12.603  -6.856  1.00  0.00     0.012 A 
ATOM     80  C   UNL     1     -18.433  10.889  -6.906  1.00  0.00     0.148 A 
ATOM     81  C   UNL     1     -17.657  13.579  -7.156  1.00  0.00     0.002 A 
ATOM     82  C   UNL     1     -19.367  11.860  -7.249  1.00  0.00     0.091 A 
ATOM     83  F   UNL     1     -18.778   9.603  -6.747  1.00  0.00    -0.205 F 
ATOM     84  C   UNL     1     -18.983  13.206  -7.365  1.00  0.00     0.022 A 
BRANCH  82  85
ATOM     85  S   UNL     1     -21.076  11.454  -7.625  1.00  0.00     0.127 S 
ATOM     86  O   UNL     1     -21.760  11.881  -6.406  1.00  0.00    -0.237 OA
ATOM     87  O   UNL     1     -21.346  12.286  -8.799  1.00  0.00    -0.237 OA
ATOM     88  O   UNL     1     -21.095  10.021  -7.888  1.00  0.00    -0.744 OA
ENDBRANCH  82  85
ENDBRANCH  55  78
ENDBRANCH  29  30
ENDBRANCH  21  24
ENDBRANCH  19  20
ENDBRANCH   1  19
TORSDOF 15
