REMARK SMILES O=C(C[C@H](C(=O)Nc1ccc([N+](=O)[O-])cc1)[C@H]1CCCO1)NCCCCNC(=O)c1ccc(-c2c3nc(c(-c4cccc(S(=O)(=O)[O-])c4F)c4ccc([nH]4)c(-c4cccc(S(=O)(=O)[O-])c4F)c4nc(c(-c5cccc(S(=O)(=O)[O-])c5F)c5ccc2[nH]5)C=C4)C=C3)cc1
REMARK SMILES IDX 24 1 23 2 22 3 1 4 2 5 3 7 4 8 5 9 6 10 7 11 8 13 9 14 16 15
REMARK SMILES IDX 10 16 15 17 11 18 12 19 13 20 14 21 17 22 18 23 21 24 19 25
REMARK SMILES IDX 20 26 25 27 26 28 27 29 28 30 29 32 30 33 31 34 92 35 32 36
REMARK SMILES IDX 91 37 33 38 34 39 35 40 85 41 36 42 90 43 84 44 86 45 37 46
REMARK SMILES IDX 89 47 83 48 82 49 38 51 70 52 50 53 69 54 51 55 54 56 68 57
REMARK SMILES IDX 87 58 52 59 53 60 67 62 88 63 55 64 39 65 40 66 48 67 41 68
REMARK SMILES IDX 43 69 49 70 42 71 44 72 45 73 46 74 47 75 71 76 72 77 80 78
REMARK SMILES IDX 73 79 75 80 81 81 74 82 76 83 77 84 78 85 79 86 56 87 57 88
REMARK SMILES IDX 65 89 58 90 60 91 66 92 59 93 61 94 62 95 63 96 64 97
REMARK H PARENT 22 6 7 12 27 31 86 50 54 61
REMARK Flexibility Score: inf
ROOT
ATOM      1  C   UNL     1       4.200  -2.445   8.337  1.00  0.00     0.023 C 
ENDROOT
BRANCH   1   2
ATOM      2  C   UNL     1       3.815  -1.053   7.832  1.00  0.00     0.116 C 
BRANCH   2   3
ATOM      3  N   UNL     1       3.934  -0.890   6.389  1.00  0.00    -0.356 N 
ATOM      4  O   UNL     1       1.792  -0.119   6.091  1.00  0.00    -0.275 OA
ATOM      5  C   UNL     1       2.896  -0.392   5.626  1.00  0.00     0.220 C 
ATOM      6  H   UNL     1       4.777  -1.140   5.946  1.00  0.00     0.163 HD
BRANCH   5   7
ATOM      7  C   UNL     1       3.219  -0.146   4.156  1.00  0.00     0.116 C 
BRANCH   7   8
ATOM      8  C   UNL     1       4.042   1.143   3.950  1.00  0.00     0.117 C 
BRANCH   8   9
ATOM      9  C   UNL     1       3.307   2.296   4.622  1.00  0.00     0.230 C 
ATOM     10  O   UNL     1       2.239   2.719   4.171  1.00  0.00    -0.274 OA
ATOM     11  N   UNL     1       3.727   2.779   5.831  1.00  0.00    -0.326 N 
ATOM     12  H   UNL     1       3.081   3.372   6.278  1.00  0.00     0.169 HD
BRANCH  11  13
ATOM     13  C   UNL     1       4.916   2.577   6.545  1.00  0.00     0.041 A 
ATOM     14  C   UNL     1       4.837   2.615   7.941  1.00  0.00     0.033 A 
ATOM     15  C   UNL     1       6.155   2.360   5.937  1.00  0.00     0.033 A 
ATOM     16  C   UNL     1       5.965   2.347   8.721  1.00  0.00     0.088 A 
ATOM     17  C   UNL     1       7.289   2.084   6.700  1.00  0.00     0.088 A 
ATOM     18  C   UNL     1       7.185   2.078   8.090  1.00  0.00     0.269 A 
BRANCH  18  19
ATOM     19  N   UNL     1       8.367   1.779   8.891  1.00  0.00     0.062 N 
ATOM     20  O   UNL     1       8.324   2.046  10.099  1.00  0.00    -0.258 OA
ATOM     21  O   UNL     1       9.318   1.229   8.319  1.00  0.00    -0.258 OA
ENDBRANCH  18  19
ENDBRANCH  11  13
ENDBRANCH   8   9
BRANCH   8  22
ATOM     22  C   UNL     1       4.366   1.391   2.456  1.00  0.00     0.131 C 
ATOM     23  C   UNL     1       4.187   2.786   1.856  1.00  0.00     0.035 C 
ATOM     24  O   UNL     1       5.788   1.120   2.303  1.00  0.00    -0.377 OA
ATOM     25  C   UNL     1       5.503   3.463   2.131  1.00  0.00     0.031 C 
ATOM     26  C   UNL     1       6.471   2.324   1.913  1.00  0.00     0.160 C 
ENDBRANCH   8  22
ENDBRANCH   7   8
ENDBRANCH   5   7
ENDBRANCH   2   3
ENDBRANCH   1   2
BRANCH   1  27
ATOM     27  C   UNL     1       5.688  -2.799   8.247  1.00  0.00     0.023 C 
BRANCH  27  28
ATOM     28  C   UNL     1       6.639  -1.972   9.116  1.00  0.00     0.116 C 
BRANCH  28  29
ATOM     29  N   UNL     1       6.471  -2.193  10.548  1.00  0.00    -0.352 N 
ATOM     30  C   UNL     1       7.419  -2.445  11.522  1.00  0.00     0.251 C 
ATOM     31  H   UNL     1       5.541  -2.157  10.870  1.00  0.00     0.163 HD
ATOM     32  O   UNL     1       7.056  -2.711  12.665  1.00  0.00    -0.269 OA
BRANCH  30  33
ATOM     33  C   UNL     1       8.868  -2.412  11.199  1.00  0.00     0.039 A 
ATOM     34  C   UNL     1       9.720  -3.414  11.665  1.00  0.00     0.014 A 
ATOM     35  C   UNL     1       9.397  -1.377  10.434  1.00  0.00     0.014 A 
ATOM     36  C   UNL     1      11.071  -3.416  11.283  1.00  0.00     0.010 A 
ATOM     37  C   UNL     1      10.716  -1.423   9.982  1.00  0.00     0.010 A 
ATOM     38  C   UNL     1      11.575  -2.450  10.389  1.00  0.00    -0.014 A 
BRANCH  38  39
ATOM     39  C   UNL     1      12.949  -2.555   9.807  1.00  0.00     0.031 A 
ATOM     40  C   UNL     1      13.957  -1.433   9.921  1.00  0.00     0.074 A 
ATOM     41  C   UNL     1      13.259  -3.634   9.056  1.00  0.00     0.049 A 
ATOM     42  N   UNL     1      15.183  -1.376   9.459  1.00  0.00    -0.248 NA
ATOM     43  C   UNL     1      13.528  -0.204  10.608  1.00  0.00     0.031 C 
ATOM     44  C   UNL     1      12.341  -4.732   8.737  1.00  0.00     0.029 A 
ATOM     45  N   UNL     1      14.418  -3.979   8.403  1.00  0.00    -0.354 N 
ATOM     46  C   UNL     1      15.653  -0.101   9.759  1.00  0.00     0.074 A 
ATOM     47  C   UNL     1      14.567   0.597  10.413  1.00  0.00     0.031 C 
ATOM     48  C   UNL     1      12.979  -5.638   7.980  1.00  0.00     0.029 A 
ATOM     49  C   UNL     1      14.339  -5.177   7.728  1.00  0.00     0.049 A 
ATOM     50  H   UNL     1      15.230  -3.422   8.416  1.00  0.00     0.167 HD
ATOM     51  C   UNL     1      16.881   0.434   9.540  1.00  0.00     0.034 A 
ATOM     52  C   UNL     1      15.253  -5.839   6.990  1.00  0.00     0.034 A 
ATOM     53  C   UNL     1      17.977  -0.278   8.936  1.00  0.00     0.049 A 
ATOM     54  C   UNL     1      16.634  -5.265   6.840  1.00  0.00     0.074 A 
ATOM     55  C   UNL     1      19.294   0.129   8.795  1.00  0.00     0.029 A 
ATOM     56  N   UNL     1      17.887  -1.535   8.360  1.00  0.00    -0.354 N 
ATOM     57  N   UNL     1      17.117  -4.143   7.314  1.00  0.00    -0.248 NA
ATOM     58  C   UNL     1      17.610  -6.067   6.088  1.00  0.00     0.031 C 
ATOM     59  C   UNL     1      19.991  -0.868   8.104  1.00  0.00     0.029 A 
ATOM     60  C   UNL     1      19.119  -1.913   7.849  1.00  0.00     0.049 A 
ATOM     61  H   UNL     1      17.068  -2.079   8.319  1.00  0.00     0.167 HD
ATOM     62  C   UNL     1      18.458  -4.121   6.951  1.00  0.00     0.074 A 
ATOM     63  C   UNL     1      18.718  -5.354   6.237  1.00  0.00     0.031 C 
ATOM     64  C   UNL     1      19.387  -3.160   7.180  1.00  0.00     0.034 A 
BRANCH  51  65
ATOM     65  C   UNL     1      17.139   1.845  10.017  1.00  0.00     0.023 A 
ATOM     66  C   UNL     1      17.199   2.112  11.401  1.00  0.00     0.012 A 
ATOM     67  C   UNL     1      17.411   2.887   9.105  1.00  0.00     0.148 A 
ATOM     68  C   UNL     1      17.483   3.395  11.869  1.00  0.00     0.002 A 
ATOM     69  C   UNL     1      17.741   4.152   9.581  1.00  0.00     0.091 A 
ATOM     70  F   UNL     1      17.344   2.623   7.793  1.00  0.00    -0.205 F 
ATOM     71  C   UNL     1      17.764   4.411  10.961  1.00  0.00     0.022 A 
BRANCH  69  72
ATOM     72  S   UNL     1      18.207   5.510   8.499  1.00  0.00     0.127 S 
ATOM     73  O   UNL     1      17.058   6.403   8.633  1.00  0.00    -0.237 OA
ATOM     74  O   UNL     1      19.435   5.997   9.127  1.00  0.00    -0.237 OA
ATOM     75  O   UNL     1      18.392   4.926   7.176  1.00  0.00    -0.744 OA
ENDBRANCH  69  72
ENDBRANCH  51  65
BRANCH  52  76
ATOM     76  C   UNL     1      14.914  -7.170   6.409  1.00  0.00     0.023 A 
ATOM     77  C   UNL     1      15.511  -8.328   6.946  1.00  0.00     0.012 A 
ATOM     78  C   UNL     1      13.982  -7.300   5.362  1.00  0.00     0.148 A 
ATOM     79  C   UNL     1      15.213  -9.588   6.427  1.00  0.00     0.002 A 
ATOM     80  C   UNL     1      13.646  -8.563   4.889  1.00  0.00     0.091 A 
ATOM     81  F   UNL     1      13.431  -6.186   4.860  1.00  0.00    -0.205 F 
ATOM     82  C   UNL     1      14.273  -9.707   5.407  1.00  0.00     0.022 A 
BRANCH  80  83
ATOM     83  S   UNL     1      12.348  -8.823   3.675  1.00  0.00     0.127 S 
ATOM     84  O   UNL     1      13.112  -9.249   2.505  1.00  0.00    -0.237 OA
ATOM     85  O   UNL     1      11.550  -9.875   4.307  1.00  0.00    -0.237 OA
ATOM     86  O   UNL     1      11.662  -7.544   3.551  1.00  0.00    -0.744 OA
ENDBRANCH  80  83
ENDBRANCH  52  76
BRANCH  64  87
ATOM     87  C   UNL     1      20.790  -3.410   6.690  1.00  0.00     0.023 A 
ATOM     88  C   UNL     1      21.072  -3.377   5.310  1.00  0.00     0.012 A 
ATOM     89  C   UNL     1      21.842  -3.614   7.605  1.00  0.00     0.148 A 
ATOM     90  C   UNL     1      22.372  -3.580   4.847  1.00  0.00     0.002 A 
ATOM     91  C   UNL     1      23.143  -3.762   7.139  1.00  0.00     0.091 A 
ATOM     92  F   UNL     1      21.552  -3.660   8.914  1.00  0.00    -0.205 F 
ATOM     93  C   UNL     1      23.408  -3.760   5.760  1.00  0.00     0.022 A 
BRANCH  91  94
ATOM     94  S   UNL     1      24.553  -3.903   8.243  1.00  0.00     0.127 S 
ATOM     95  O   UNL     1      24.936  -5.302   8.060  1.00  0.00    -0.237 OA
ATOM     96  O   UNL     1      25.490  -2.935   7.673  1.00  0.00    -0.237 OA
ATOM     97  O   UNL     1      24.062  -3.559   9.571  1.00  0.00    -0.744 OA
ENDBRANCH  91  94
ENDBRANCH  64  87
ENDBRANCH  38  39
ENDBRANCH  30  33
ENDBRANCH  28  29
ENDBRANCH  27  28
ENDBRANCH   1  27
TORSDOF 19
