REMARK SMILES CC[C@](C)(C(=O)NCCCCNC(=O)c1ccc(-c2c3nc(c(-c4cccc(S(=O)(=O)[O-])c4F)c4ccc([nH]4)c(-c4cccc(S(=O)(=O)[O-])c4F)c4nc(c(-c5cccc(S(=O)(=O)[O-])c5F)c5ccc2[nH]5)C=C4)C=C3)cc1)[C@H]1CCC[C@H](OC)C1
REMARK SMILES IDX 10 1 9 2 8 3 7 4 5 5 6 6 3 8 4 9 2 10 1 11 78 12 79 13 85 14
REMARK SMILES IDX 80 15 82 16 81 17 83 18 84 19 11 20 12 21 13 22 14 24 15 25
REMARK SMILES IDX 16 26 77 27 17 28 76 29 18 30 19 31 20 32 70 33 21 34 75 35
REMARK SMILES IDX 69 36 71 37 22 38 74 39 68 40 67 41 23 43 55 44 35 45 54 46
REMARK SMILES IDX 36 47 39 48 53 49 72 50 37 51 38 52 52 54 73 55 40 56 24 57
REMARK SMILES IDX 25 58 33 59 26 60 28 61 34 62 27 63 29 64 30 65 31 66 32 67
REMARK SMILES IDX 56 68 57 69 65 70 58 71 60 72 66 73 59 74 61 75 62 76 63 77
REMARK SMILES IDX 64 78 41 79 42 80 50 81 43 82 45 83 51 84 44 85 46 86 47 87
REMARK SMILES IDX 48 88 49 89
REMARK H PARENT 7 7 12 23 71 42 39 53
REMARK Flexibility Score: inf
ROOT
ATOM      1  C   UNL     1       2.137  -2.896  -8.130  1.00  0.00     0.023 C 
ENDROOT
BRANCH   1   2
ATOM      2  C   UNL     1       2.993  -3.321  -6.944  1.00  0.00     0.023 C 
BRANCH   2   3
ATOM      3  C   UNL     1       3.424  -2.182  -6.028  1.00  0.00     0.116 C 
BRANCH   3   4
ATOM      4  N   UNL     1       2.364  -1.727  -5.146  1.00  0.00    -0.356 N 
ATOM      5  C   UNL     1       2.273  -1.647  -3.784  1.00  0.00     0.226 C 
ATOM      6  O   UNL     1       1.255  -1.107  -3.342  1.00  0.00    -0.274 OA
ATOM      7  H   UNL     1       1.557  -1.417  -5.618  1.00  0.00     0.163 HD
BRANCH   5   8
ATOM      8  C   UNL     1       3.412  -2.156  -2.834  1.00  0.00     0.049 C 
ATOM      9  C   UNL     1       3.725  -3.625  -3.272  1.00  0.00     0.022 C 
BRANCH   8  10
ATOM     10  C   UNL     1       4.678  -1.273  -3.109  1.00  0.00     0.013 C 
ATOM     11  C   UNL     1       4.506   0.247  -3.167  1.00  0.00     0.005 C 
ENDBRANCH   8  10
BRANCH   8  12
ATOM     12  C   UNL     1       2.857  -2.123  -1.305  1.00  0.00     0.007 C 
ATOM     13  C   UNL     1       3.152  -3.344  -0.397  1.00  0.00     0.005 C 
ATOM     14  C   UNL     1       3.178  -0.876  -0.440  1.00  0.00     0.036 C 
ATOM     15  C   UNL     1       4.613  -3.402   0.032  1.00  0.00     0.003 C 
ATOM     16  C   UNL     1       4.603  -0.868   0.157  1.00  0.00     0.118 C 
ATOM     17  C   UNL     1       4.967  -2.177   0.869  1.00  0.00     0.032 C 
BRANCH  16  18
ATOM     18  O   UNL     1       4.901   0.286   0.946  1.00  0.00    -0.381 OA
ATOM     19  C   UNL     1       4.105   0.503   2.096  1.00  0.00     0.195 C 
ENDBRANCH  16  18
ENDBRANCH   8  12
ENDBRANCH   5   8
ENDBRANCH   3   4
ENDBRANCH   2   3
ENDBRANCH   1   2
BRANCH   1  20
ATOM     20  C   UNL     1       2.724  -1.782  -8.989  1.00  0.00     0.116 C 
BRANCH  20  21
ATOM     21  N   UNL     1       4.074  -2.061  -9.472  1.00  0.00    -0.352 N 
ATOM     22  C   UNL     1       4.587  -1.840 -10.730  1.00  0.00     0.251 C 
ATOM     23  H   UNL     1       4.694  -2.456  -8.817  1.00  0.00     0.163 HD
ATOM     24  O   UNL     1       5.724  -2.198 -11.021  1.00  0.00    -0.269 OA
BRANCH  22  25
ATOM     25  C   UNL     1       3.719  -1.196 -11.735  1.00  0.00     0.039 A 
ATOM     26  C   UNL     1       3.454  -1.864 -12.932  1.00  0.00     0.014 A 
ATOM     27  C   UNL     1       3.076   0.004 -11.424  1.00  0.00     0.014 A 
ATOM     28  C   UNL     1       2.466  -1.370 -13.785  1.00  0.00     0.010 A 
ATOM     29  C   UNL     1       2.040   0.446 -12.234  1.00  0.00     0.010 A 
ATOM     30  C   UNL     1       1.718  -0.239 -13.417  1.00  0.00    -0.014 A 
BRANCH  30  31
ATOM     31  C   UNL     1       0.572   0.245 -14.226  1.00  0.00     0.031 A 
ATOM     32  C   UNL     1       0.603   1.633 -14.798  1.00  0.00     0.074 A 
ATOM     33  C   UNL     1      -0.549  -0.499 -14.311  1.00  0.00     0.049 A 
ATOM     34  N   UNL     1      -0.351   2.303 -15.389  1.00  0.00    -0.248 NA
ATOM     35  C   UNL     1       1.860   2.384 -14.645  1.00  0.00     0.031 C 
ATOM     36  C   UNL     1      -0.734  -1.823 -13.712  1.00  0.00     0.029 A 
ATOM     37  N   UNL     1      -1.762  -0.225 -14.891  1.00  0.00    -0.354 N 
ATOM     38  C   UNL     1       0.169   3.569 -15.624  1.00  0.00     0.074 A 
ATOM     39  C   UNL     1       1.513   3.583 -15.090  1.00  0.00     0.031 C 
ATOM     40  C   UNL     1      -1.992  -2.236 -13.939  1.00  0.00     0.029 A 
ATOM     41  C   UNL     1      -2.710  -1.198 -14.671  1.00  0.00     0.049 A 
ATOM     42  H   UNL     1      -1.938   0.590 -15.415  1.00  0.00     0.167 HD
ATOM     43  C   UNL     1      -0.410   4.618 -16.253  1.00  0.00     0.034 A 
ATOM     44  C   UNL     1      -4.016  -1.242 -15.004  1.00  0.00     0.034 A 
ATOM     45  C   UNL     1      -1.718   4.575 -16.845  1.00  0.00     0.049 A 
ATOM     46  C   UNL     1      -4.612  -0.098 -15.778  1.00  0.00     0.074 A 
ATOM     47  C   UNL     1      -2.344   5.535 -17.618  1.00  0.00     0.029 A 
ATOM     48  N   UNL     1      -2.603   3.515 -16.724  1.00  0.00    -0.354 N 
ATOM     49  N   UNL     1      -4.046   1.022 -16.156  1.00  0.00    -0.248 NA
ATOM     50  C   UNL     1      -6.013  -0.235 -16.204  1.00  0.00     0.031 C 
ATOM     51  C   UNL     1      -3.615   5.061 -17.956  1.00  0.00     0.029 A 
ATOM     52  C   UNL     1      -3.775   3.799 -17.403  1.00  0.00     0.049 A 
ATOM     53  H   UNL     1      -2.425   2.683 -16.229  1.00  0.00     0.167 HD
ATOM     54  C   UNL     1      -5.006   1.709 -16.889  1.00  0.00     0.074 A 
ATOM     55  C   UNL     1      -6.188   0.871 -16.916  1.00  0.00     0.031 C 
ATOM     56  C   UNL     1      -4.921   2.929 -17.474  1.00  0.00     0.034 A 
BRANCH  43  57
ATOM     57  C   UNL     1       0.398   5.881 -16.386  1.00  0.00     0.023 A 
ATOM     58  C   UNL     1       1.497   5.914 -17.268  1.00  0.00     0.012 A 
ATOM     59  C   UNL     1       0.054   7.042 -15.668  1.00  0.00     0.148 A 
ATOM     60  C   UNL     1       2.266   7.068 -17.403  1.00  0.00     0.002 A 
ATOM     61  C   UNL     1       0.799   8.203 -15.841  1.00  0.00     0.091 A 
ATOM     62  F   UNL     1      -0.977   6.987 -14.812  1.00  0.00    -0.205 F 
ATOM     63  C   UNL     1       1.912   8.215 -16.698  1.00  0.00     0.022 A 
BRANCH  61  64
ATOM     64  S   UNL     1       0.366   9.748 -15.033  1.00  0.00     0.127 S 
ATOM     65  O   UNL     1       1.329   9.787 -13.934  1.00  0.00    -0.237 OA
ATOM     66  O   UNL     1       0.608  10.732 -16.089  1.00  0.00    -0.237 OA
ATOM     67  O   UNL     1      -1.031   9.613 -14.647  1.00  0.00    -0.744 OA
ENDBRANCH  61  64
ENDBRANCH  43  57
BRANCH  44  68
ATOM     68  C   UNL     1      -4.822  -2.447 -14.658  1.00  0.00     0.023 A 
ATOM     69  C   UNL     1      -5.192  -3.345 -15.677  1.00  0.00     0.012 A 
ATOM     70  C   UNL     1      -5.165  -2.741 -13.324  1.00  0.00     0.148 A 
ATOM     71  C   UNL     1      -5.907  -4.505 -15.377  1.00  0.00     0.002 A 
ATOM     72  C   UNL     1      -5.831  -3.925 -13.025  1.00  0.00     0.091 A 
ATOM     73  F   UNL     1      -4.812  -1.867 -12.370  1.00  0.00    -0.205 F 
ATOM     74  C   UNL     1      -6.216  -4.801 -14.052  1.00  0.00     0.022 A 
BRANCH  72  75
ATOM     75  S   UNL     1      -6.146  -4.455 -11.338  1.00  0.00     0.127 S 
ATOM     76  O   UNL     1      -7.595  -4.301 -11.242  1.00  0.00    -0.237 OA
ATOM     77  O   UNL     1      -5.673  -5.839 -11.363  1.00  0.00    -0.237 OA
ATOM     78  O   UNL     1      -5.357  -3.568 -10.494  1.00  0.00    -0.744 OA
ENDBRANCH  72  75
ENDBRANCH  44  68
BRANCH  56  79
ATOM     79  C   UNL     1      -6.121   3.437 -18.227  1.00  0.00     0.023 A 
ATOM     80  C   UNL     1      -7.232   3.929 -17.517  1.00  0.00     0.012 A 
ATOM     81  C   UNL     1      -6.096   3.535 -19.633  1.00  0.00     0.148 A 
ATOM     82  C   UNL     1      -8.309   4.499 -18.195  1.00  0.00     0.002 A 
ATOM     83  C   UNL     1      -7.152   4.144 -20.299  1.00  0.00     0.091 A 
ATOM     84  F   UNL     1      -5.034   3.044 -20.289  1.00  0.00    -0.205 F 
ATOM     85  C   UNL     1      -8.263   4.619 -19.582  1.00  0.00     0.022 A 
BRANCH  83  86
ATOM     86  S   UNL     1      -7.137   4.430 -22.072  1.00  0.00     0.127 S 
ATOM     87  O   UNL     1      -8.138   3.471 -22.537  1.00  0.00    -0.237 OA
ATOM     88  O   UNL     1      -7.546   5.832 -22.165  1.00  0.00    -0.237 OA
ATOM     89  O   UNL     1      -5.772   4.168 -22.510  1.00  0.00    -0.744 OA
ENDBRANCH  83  86
ENDBRANCH  56  79
ENDBRANCH  30  31
ENDBRANCH  22  25
ENDBRANCH  20  21
ENDBRANCH   1  20
TORSDOF 17
