REMARK SMILES CC(C)[N@@H+](Cc1cccs1)[C@@H](C)c1ccc(C(=O)NCCCCNC(=O)c2ccc(-c3c4nc(c(-c5cccc(S(=O)(=O)[O-])c5F)c5ccc([nH]5)c(-c5cccc(S(=O)(=O)[O-])c5F)c5nc(c(-c6cccc(S(=O)(=O)[O-])c6F)c6ccc3[nH]6)C=C5)C=C4)cc2)o1
REMARK SMILES IDX 21 1 20 2 19 3 17 4 18 5 16 7 13 8 14 9 90 10 15 11 11 12
REMARK SMILES IDX 12 13 4 14 2 16 1 17 3 18 5 19 6 20 7 21 10 22 8 23 9 24
REMARK SMILES IDX 22 25 23 26 24 27 25 28 26 30 27 31 28 32 89 33 29 34 88 35
REMARK SMILES IDX 30 36 31 37 32 38 82 39 33 40 87 41 81 42 83 43 34 44 86 45
REMARK SMILES IDX 80 46 79 47 35 49 67 50 47 51 66 52 48 53 51 54 65 55 84 56
REMARK SMILES IDX 49 57 50 58 64 60 85 61 52 62 36 63 37 64 45 65 38 66 40 67
REMARK SMILES IDX 46 68 39 69 41 70 42 71 43 72 44 73 68 74 69 75 77 76 70 77
REMARK SMILES IDX 72 78 78 79 71 80 73 81 74 82 75 83 76 84 53 85 54 86 62 87
REMARK SMILES IDX 55 88 57 89 63 90 56 91 58 92 59 93 60 94 61 95
REMARK H PARENT 19 6 4 15 24 29 83 48 51 59
REMARK Flexibility Score: inf
ROOT
ATOM      1  C   UNL     1       0.348   6.495   1.784  1.00  0.00     0.023 C 
ENDROOT
BRANCH   1   2
ATOM      2  C   UNL     1       0.089   5.925   0.392  1.00  0.00     0.116 C 
BRANCH   2   3
ATOM      3  N   UNL     1       1.052   4.902   0.080  1.00  0.00    -0.349 N 
ATOM      4  C   UNL     1       0.985   3.541   0.213  1.00  0.00     0.287 C 
ATOM      5  O   UNL     1       2.009   2.933  -0.119  1.00  0.00    -0.266 OA
ATOM      6  H   UNL     1       1.901   5.237  -0.291  1.00  0.00     0.163 HD
BRANCH   4   7
ATOM      7  C   UNL     1      -0.212   2.871   0.692  1.00  0.00     0.191 A 
ATOM      8  C   UNL     1      -1.327   0.996   1.112  1.00  0.00     0.162 A 
ATOM      9  C   UNL     1      -2.184   2.042   1.403  1.00  0.00     0.053 A 
ATOM     10  O   UNL     1      -0.161   1.504   0.678  1.00  0.00    -0.450 OA
ATOM     11  C   UNL     1      -1.437   3.232   1.223  1.00  0.00     0.057 A 
BRANCH   8  12
ATOM     12  C   UNL     1      -1.443  -0.472   1.433  1.00  0.00     0.248 C 
ATOM     13  C   UNL     1      -1.477  -0.555   2.969  1.00  0.00     0.084 C 
BRANCH  12  14
ATOM     14  N   UNL     1      -0.655  -1.526   0.751  1.00  0.00    -0.320 N 
ATOM     15  H   UNL     1      -0.699  -0.796   0.040  1.00  0.00     0.349 HD
BRANCH  14  16
ATOM     16  C   UNL     1       0.740  -1.533   0.267  1.00  0.00     0.178 C 
ATOM     17  C   UNL     1       1.372  -0.302  -0.380  1.00  0.00     0.075 C 
ATOM     18  C   UNL     1       1.782  -2.095   1.243  1.00  0.00     0.075 C 
ENDBRANCH  14  16
BRANCH  14  19
ATOM     19  C   UNL     1      -1.248  -2.879   0.856  1.00  0.00     0.310 C 
BRANCH  19  20
ATOM     20  C   UNL     1      -0.968  -3.705   2.100  1.00  0.00     0.059 A 
ATOM     21  C   UNL     1      -0.265  -3.430   3.262  1.00  0.00     0.021 A 
ATOM     22  S   UNL     1      -1.605  -5.308   2.171  1.00  0.00    -0.143 S 
ATOM     23  C   UNL     1      -0.269  -4.494   4.203  1.00  0.00     0.012 A 
ATOM     24  C   UNL     1      -0.955  -5.584   3.728  1.00  0.00     0.065 A 
ENDBRANCH  19  20
ENDBRANCH  14  19
ENDBRANCH  12  14
ENDBRANCH   8  12
ENDBRANCH   4   7
ENDBRANCH   2   3
ENDBRANCH   1   2
BRANCH   1  25
ATOM     25  C   UNL     1       1.447   7.561   1.800  1.00  0.00     0.023 C 
BRANCH  25  26
ATOM     26  C   UNL     1       1.211   8.723   0.841  1.00  0.00     0.116 C 
BRANCH  26  27
ATOM     27  N   UNL     1      -0.110   9.325   0.988  1.00  0.00    -0.352 N 
ATOM     28  C   UNL     1      -0.464  10.632   0.768  1.00  0.00     0.251 C 
ATOM     29  H   UNL     1      -0.832   8.722   1.278  1.00  0.00     0.163 HD
ATOM     30  O   UNL     1      -1.591  11.034   1.048  1.00  0.00    -0.269 OA
BRANCH  28  31
ATOM     31  C   UNL     1       0.553  11.545   0.222  1.00  0.00     0.039 A 
ATOM     32  C   UNL     1       0.862  12.712   0.922  1.00  0.00     0.014 A 
ATOM     33  C   UNL     1       1.258  11.188  -0.930  1.00  0.00     0.014 A 
ATOM     34  C   UNL     1       1.928  13.500   0.492  1.00  0.00     0.010 A 
ATOM     35  C   UNL     1       2.369  11.930  -1.306  1.00  0.00     0.010 A 
ATOM     36  C   UNL     1       2.710  13.097  -0.605  1.00  0.00    -0.014 A 
BRANCH  36  37
ATOM     37  C   UNL     1       3.887  13.884  -1.043  1.00  0.00     0.031 A 
ATOM     38  C   UNL     1       3.909  14.488  -2.420  1.00  0.00     0.074 A 
ATOM     39  C   UNL     1       4.966  13.976  -0.241  1.00  0.00     0.049 A 
ATOM     40  N   UNL     1       4.870  15.142  -3.018  1.00  0.00    -0.248 NA
ATOM     41  C   UNL     1       2.702  14.308  -3.247  1.00  0.00     0.031 C 
ATOM     42  C   UNL     1       5.093  13.367   1.085  1.00  0.00     0.029 A 
ATOM     43  N   UNL     1       6.175  14.595  -0.437  1.00  0.00    -0.354 N 
ATOM     44  C   UNL     1       4.402  15.416  -4.297  1.00  0.00     0.074 A 
ATOM     45  C   UNL     1       3.087  14.825  -4.404  1.00  0.00     0.031 C 
ATOM     46  C   UNL     1       6.308  13.647   1.584  1.00  0.00     0.029 A 
ATOM     47  C   UNL     1       7.059  14.424   0.603  1.00  0.00     0.049 A 
ATOM     48  H   UNL     1       6.390  15.114  -1.246  1.00  0.00     0.167 HD
ATOM     49  C   UNL     1       4.999  16.124  -5.284  1.00  0.00     0.034 A 
ATOM     50  C   UNL     1       8.334  14.836   0.744  1.00  0.00     0.034 A 
ATOM     51  C   UNL     1       6.288  16.746  -5.155  1.00  0.00     0.049 A 
ATOM     52  C   UNL     1       8.962  15.649  -0.356  1.00  0.00     0.074 A 
ATOM     53  C   UNL     1       6.946  17.555  -6.064  1.00  0.00     0.029 A 
ATOM     54  N   UNL     1       7.118  16.623  -4.052  1.00  0.00    -0.354 N 
ATOM     55  N   UNL     1       8.445  16.028  -1.500  1.00  0.00    -0.248 NA
ATOM     56  C   UNL     1      10.335  16.124  -0.133  1.00  0.00     0.031 C 
ATOM     57  C   UNL     1       8.187  17.898  -5.522  1.00  0.00     0.029 A 
ATOM     58  C   UNL     1       8.286  17.335  -4.260  1.00  0.00     0.049 A 
ATOM     59  H   UNL     1       6.907  16.107  -3.241  1.00  0.00     0.167 HD
ATOM     60  C   UNL     1       9.410  16.820  -2.111  1.00  0.00     0.074 A 
ATOM     61  C   UNL     1      10.537  16.879  -1.204  1.00  0.00     0.031 C 
ATOM     62  C   UNL     1       9.372  17.434  -3.319  1.00  0.00     0.034 A 
BRANCH  49  63
ATOM     63  C   UNL     1       4.242  16.307  -6.573  1.00  0.00     0.023 A 
ATOM     64  C   UNL     1       3.103  17.140  -6.601  1.00  0.00     0.012 A 
ATOM     65  C   UNL     1       4.689  15.708  -7.766  1.00  0.00     0.148 A 
ATOM     66  C   UNL     1       2.402  17.344  -7.788  1.00  0.00     0.002 A 
ATOM     67  C   UNL     1       4.013  15.956  -8.954  1.00  0.00     0.091 A 
ATOM     68  F   UNL     1       5.761  14.904  -7.715  1.00  0.00    -0.205 F 
ATOM     69  C   UNL     1       2.863  16.762  -8.965  1.00  0.00     0.022 A 
BRANCH  67  70
ATOM     70  S   UNL     1       4.573  15.323 -10.539  1.00  0.00     0.127 S 
ATOM     71  O   UNL     1       3.520  14.361 -10.861  1.00  0.00    -0.237 OA
ATOM     72  O   UNL     1       4.571  16.529 -11.368  1.00  0.00    -0.237 OA
ATOM     73  O   UNL     1       5.890  14.749 -10.302  1.00  0.00    -0.744 OA
ENDBRANCH  67  70
ENDBRANCH  49  63
BRANCH  50  74
ATOM     74  C   UNL     1       9.085  14.539   1.997  1.00  0.00     0.023 A 
ATOM     75  C   UNL     1       9.411  15.590   2.876  1.00  0.00     0.012 A 
ATOM     76  C   UNL     1       9.470  13.225   2.327  1.00  0.00     0.148 A 
ATOM     77  C   UNL     1      10.142  15.346   4.039  1.00  0.00     0.002 A 
ATOM     78  C   UNL     1      10.148  12.980   3.516  1.00  0.00     0.091 A 
ATOM     79  F   UNL     1       9.158  12.239   1.475  1.00  0.00    -0.205 F 
ATOM     80  C   UNL     1      10.502  14.041   4.364  1.00  0.00     0.022 A 
BRANCH  78  81
ATOM     81  S   UNL     1      10.538  11.319   4.078  1.00  0.00     0.127 S 
ATOM     82  O   UNL     1      11.990  11.286   3.927  1.00  0.00    -0.237 OA
ATOM     83  O   UNL     1      10.061  11.350   5.461  1.00  0.00    -0.237 OA
ATOM     84  O   UNL     1       9.789  10.424   3.206  1.00  0.00    -0.744 OA
ENDBRANCH  78  81
ENDBRANCH  50  74
BRANCH  62  85
ATOM     85  C   UNL     1      10.556  18.276  -3.717  1.00  0.00     0.023 A 
ATOM     86  C   UNL     1      11.771  17.663  -4.077  1.00  0.00     0.012 A 
ATOM     87  C   UNL     1      10.429  19.676  -3.818  1.00  0.00     0.148 A 
ATOM     88  C   UNL     1      12.854  18.433  -4.501  1.00  0.00     0.002 A 
ATOM     89  C   UNL     1      11.493  20.432  -4.292  1.00  0.00     0.091 A 
ATOM     90  F   UNL     1       9.268  20.241  -3.454  1.00  0.00    -0.205 F 
ATOM     91  C   UNL     1      12.711  19.814  -4.621  1.00  0.00     0.022 A 
BRANCH  89  92
ATOM     92  S   UNL     1      11.368  22.201  -4.577  1.00  0.00     0.127 S 
ATOM     93  O   UNL     1      12.222  22.734  -3.517  1.00  0.00    -0.237 OA
ATOM     94  O   UNL     1      11.915  22.335  -5.927  1.00  0.00    -0.237 OA
ATOM     95  O   UNL     1       9.953  22.528  -4.461  1.00  0.00    -0.744 OA
ENDBRANCH  89  92
ENDBRANCH  62  85
ENDBRANCH  36  37
ENDBRANCH  28  31
ENDBRANCH  26  27
ENDBRANCH  25  26
ENDBRANCH   1  25
TORSDOF 19
