REMARK SMILES O=C(NCCCCNC(=O)[C@H](CO)NC(=O)[C@H](CS)NC(=O)[C@H](Cc1ccccc1)NC(=O)c1ccc(F)cc1)c1ccc(-c2c3nc(c(-c4cccc(S(=O)(=O)[O-])c4F)c4ccc([nH]4)c(-c4cccc(S(=O)(=O)[O-])c4F)c4nc(c(-c5cccc(S(=O)(=O)[O-])c5F)c5ccc2[nH]5)C=C4)C=C3)cc1
REMARK SMILES IDX 7 1 6 2 5 3 4 4 3 5 1 6 2 7 41 9 42 10 103 11 43 12 102 13
REMARK SMILES IDX 44 14 45 15 46 16 96 17 47 18 101 19 95 20 97 21 48 22
REMARK SMILES IDX 100 23 94 24 93 25 49 27 81 28 61 29 80 30 62 31 65 32 79 33
REMARK SMILES IDX 98 34 63 35 64 36 78 38 99 39 66 40 50 41 51 42 59 43 52 44
REMARK SMILES IDX 54 45 60 46 53 47 55 48 56 49 57 50 58 51 82 52 83 53 91 54
REMARK SMILES IDX 84 55 86 56 92 57 85 58 87 59 88 60 89 61 90 62 67 63 68 64
REMARK SMILES IDX 76 65 69 66 71 67 77 68 70 69 72 70 73 71 74 72 75 73 8 74
REMARK SMILES IDX 9 75 10 77 11 78 14 79 15 80 16 82 17 83 20 84 21 85 22 87
REMARK SMILES IDX 23 88 31 89 32 90 33 92 34 93 35 94 40 95 36 96 39 97 37 98
REMARK SMILES IDX 38 99 24 100 25 101 26 102 30 103 27 104 29 105 28 106
REMARK SMILES IDX 18 107 19 108 12 110 13 111
REMARK H PARENT 3 8 97 26 65 37 8 76 14 81 20 86 31 91 19 109 13 112
REMARK Flexibility Score: inf
ROOT
ATOM      1  C   UNL     1      10.488   8.931  -0.172  1.00  0.00     0.116 C 
ENDROOT
BRANCH   1   2
ATOM      2  C   UNL     1      10.695   8.446   1.260  1.00  0.00     0.023 C 
BRANCH   2   3
ATOM      3  C   UNL     1      12.165   8.302   1.638  1.00  0.00     0.023 C 
BRANCH   3   4
ATOM      4  C   UNL     1      12.969   9.588   1.516  1.00  0.00     0.116 C 
BRANCH   4   5
ATOM      5  N   UNL     1      12.399  10.706   2.259  1.00  0.00    -0.352 N 
ATOM      6  O   UNL     1      12.464  12.461   3.690  1.00  0.00    -0.269 OA
ATOM      7  C   UNL     1      13.069  11.627   3.038  1.00  0.00     0.251 C 
ATOM      8  H   UNL     1      11.422  10.816   2.197  1.00  0.00     0.163 HD
BRANCH   7   9
ATOM      9  C   UNL     1      14.540  11.530   3.074  1.00  0.00     0.039 A 
ATOM     10  C   UNL     1      15.235  11.493   1.865  1.00  0.00     0.014 A 
ATOM     11  C   UNL     1      15.186  11.293   4.287  1.00  0.00     0.014 A 
ATOM     12  C   UNL     1      16.537  11.023   1.857  1.00  0.00     0.010 A 
ATOM     13  C   UNL     1      16.536  10.934   4.281  1.00  0.00     0.010 A 
ATOM     14  C   UNL     1      17.209  10.748   3.063  1.00  0.00    -0.014 A 
BRANCH  14  15
ATOM     15  C   UNL     1      18.632  10.328   2.994  1.00  0.00     0.031 A 
ATOM     16  C   UNL     1      19.098   8.992   3.503  1.00  0.00     0.074 A 
ATOM     17  C   UNL     1      19.499  11.167   2.394  1.00  0.00     0.049 A 
ATOM     18  N   UNL     1      20.294   8.465   3.435  1.00  0.00    -0.248 NA
ATOM     19  C   UNL     1      18.111   8.137   4.184  1.00  0.00     0.031 C 
ATOM     20  C   UNL     1      19.163  12.512   1.915  1.00  0.00     0.029 A 
ATOM     21  N   UNL     1      20.816  11.015   2.055  1.00  0.00    -0.354 N 
ATOM     22  C   UNL     1      20.220   7.247   4.099  1.00  0.00     0.074 A 
ATOM     23  C   UNL     1      18.857   7.107   4.566  1.00  0.00     0.031 C 
ATOM     24  C   UNL     1      20.221  13.032   1.283  1.00  0.00     0.029 A 
ATOM     25  C   UNL     1      21.332  12.093   1.374  1.00  0.00     0.049 A 
ATOM     26  H   UNL     1      21.343  10.213   2.276  1.00  0.00     0.167 HD
ATOM     27  C   UNL     1      21.196   6.325   4.288  1.00  0.00     0.034 A 
ATOM     28  C   UNL     1      22.565  12.312   0.881  1.00  0.00     0.034 A 
ATOM     29  C   UNL     1      22.538   6.455   3.780  1.00  0.00     0.049 A 
ATOM     30  C   UNL     1      23.599  11.239   1.037  1.00  0.00     0.074 A 
ATOM     31  C   UNL     1      23.593   5.566   3.897  1.00  0.00     0.029 A 
ATOM     32  N   UNL     1      23.009   7.537   3.051  1.00  0.00    -0.354 N 
ATOM     33  N   UNL     1      23.478  10.057   1.592  1.00  0.00    -0.248 NA
ATOM     34  C   UNL     1      24.930  11.517   0.485  1.00  0.00     0.031 C 
ATOM     35  C   UNL     1      24.701   6.111   3.237  1.00  0.00     0.029 A 
ATOM     36  C   UNL     1      24.335   7.336   2.703  1.00  0.00     0.049 A 
ATOM     37  H   UNL     1      22.478   8.332   2.815  1.00  0.00     0.167 HD
ATOM     38  C   UNL     1      24.719   9.451   1.463  1.00  0.00     0.074 A 
ATOM     39  C   UNL     1      25.560  10.376   0.727  1.00  0.00     0.031 C 
ATOM     40  C   UNL     1      25.140   8.255   1.941  1.00  0.00     0.034 A 
BRANCH  27  41
ATOM     41  C   UNL     1      20.845   5.063   5.034  1.00  0.00     0.023 A 
ATOM     42  C   UNL     1      20.105   4.058   4.379  1.00  0.00     0.012 A 
ATOM     43  C   UNL     1      21.319   4.830   6.341  1.00  0.00     0.148 A 
ATOM     44  C   UNL     1      19.826   2.849   5.017  1.00  0.00     0.002 A 
ATOM     45  C   UNL     1      21.067   3.608   6.958  1.00  0.00     0.091 A 
ATOM     46  F   UNL     1      22.004   5.804   6.956  1.00  0.00    -0.205 F 
ATOM     47  C   UNL     1      20.316   2.620   6.300  1.00  0.00     0.022 A 
BRANCH  45  48
ATOM     48  S   UNL     1      21.714   3.189   8.582  1.00  0.00     0.127 S 
ATOM     49  O   UNL     1      20.505   3.247   9.403  1.00  0.00    -0.237 OA
ATOM     50  O   UNL     1      22.241   1.841   8.367  1.00  0.00    -0.237 OA
ATOM     51  O   UNL     1      22.724   4.195   8.881  1.00  0.00    -0.744 OA
ENDBRANCH  45  48
ENDBRANCH  27  41
BRANCH  28  52
ATOM     52  C   UNL     1      22.849  13.585   0.164  1.00  0.00     0.023 A 
ATOM     53  C   UNL     1      23.074  13.569  -1.225  1.00  0.00     0.012 A 
ATOM     54  C   UNL     1      22.806  14.820   0.838  1.00  0.00     0.148 A 
ATOM     55  C   UNL     1      23.263  14.762  -1.926  1.00  0.00     0.002 A 
ATOM     56  C   UNL     1      22.922  16.006   0.123  1.00  0.00     0.091 A 
ATOM     57  F   UNL     1      22.615  14.819   2.166  1.00  0.00    -0.205 F 
ATOM     58  C   UNL     1      23.168  15.980  -1.256  1.00  0.00     0.022 A 
BRANCH  56  59
ATOM     59  S   UNL     1      22.615  17.592   0.908  1.00  0.00     0.127 S 
ATOM     60  O   UNL     1      23.960  18.002   1.298  1.00  0.00    -0.237 OA
ATOM     61  O   UNL     1      22.023  18.373  -0.179  1.00  0.00    -0.237 OA
ATOM     62  O   UNL     1      21.687  17.295   1.992  1.00  0.00    -0.744 OA
ENDBRANCH  56  59
ENDBRANCH  28  52
BRANCH  40  63
ATOM     63  C   UNL     1      26.578   7.895   1.693  1.00  0.00     0.023 A 
ATOM     64  C   UNL     1      27.587   8.540   2.437  1.00  0.00     0.012 A 
ATOM     65  C   UNL     1      26.932   6.909   0.754  1.00  0.00     0.148 A 
ATOM     66  C   UNL     1      28.929   8.234   2.224  1.00  0.00     0.002 A 
ATOM     67  C   UNL     1      28.271   6.581   0.575  1.00  0.00     0.091 A 
ATOM     68  F   UNL     1      25.960   6.327   0.036  1.00  0.00    -0.205 F 
ATOM     69  C   UNL     1      29.271   7.249   1.301  1.00  0.00     0.022 A 
BRANCH  67  70
ATOM     70  S   UNL     1      28.783   5.271  -0.541  1.00  0.00     0.127 S 
ATOM     71  O   UNL     1      29.167   6.026  -1.732  1.00  0.00    -0.237 OA
ATOM     72  O   UNL     1      29.900   4.659   0.179  1.00  0.00    -0.237 OA
ATOM     73  O   UNL     1      27.620   4.406  -0.687  1.00  0.00    -0.744 OA
ENDBRANCH  67  70
ENDBRANCH  40  63
ENDBRANCH  14  15
ENDBRANCH   7   9
ENDBRANCH   4   5
ENDBRANCH   3   4
ENDBRANCH   2   3
ENDBRANCH   1   2
BRANCH   1  74
ATOM     74  N   UNL     1      10.503   7.811  -1.092  1.00  0.00    -0.354 N 
ATOM     75  C   UNL     1       9.584   7.384  -2.002  1.00  0.00     0.244 C 
ATOM     76  H   UNL     1      11.320   7.264  -1.052  1.00  0.00     0.163 HD
ATOM     77  O   UNL     1       9.807   6.308  -2.564  1.00  0.00    -0.273 OA
BRANCH  75  78
ATOM     78  C   UNL     1       8.377   8.261  -2.405  1.00  0.00     0.197 C 
BRANCH  78  79
ATOM     79  N   UNL     1       7.571   7.511  -3.381  1.00  0.00    -0.340 N 
ATOM     80  C   UNL     1       6.588   7.949  -4.216  1.00  0.00     0.244 C 
ATOM     81  H   UNL     1       7.773   6.549  -3.439  1.00  0.00     0.164 HD
ATOM     82  O   UNL     1       5.591   7.226  -4.314  1.00  0.00    -0.273 OA
BRANCH  80  83
ATOM     83  C   UNL     1       6.839   9.110  -5.208  1.00  0.00     0.181 C 
BRANCH  83  84
ATOM     84  N   UNL     1       5.638   9.300  -6.040  1.00  0.00    -0.342 N 
ATOM     85  C   UNL     1       5.494   9.511  -7.375  1.00  0.00     0.243 C 
ATOM     86  H   UNL     1       4.790   9.268  -5.541  1.00  0.00     0.164 HD
ATOM     87  O   UNL     1       4.440  10.039  -7.746  1.00  0.00    -0.273 OA
BRANCH  85  88
ATOM     88  C   UNL     1       6.497   8.950  -8.411  1.00  0.00     0.176 C 
BRANCH  88  89
ATOM     89  N   UNL     1       7.878   9.362  -8.132  1.00  0.00    -0.340 N 
ATOM     90  C   UNL     1       8.605  10.399  -8.650  1.00  0.00     0.251 C 
ATOM     91  H   UNL     1       8.353   8.808  -7.472  1.00  0.00     0.164 HD
ATOM     92  O   UNL     1       9.719  10.640  -8.195  1.00  0.00    -0.269 OA
BRANCH  90  93
ATOM     93  C   UNL     1       8.124  11.124  -9.840  1.00  0.00     0.040 A 
ATOM     94  C   UNL     1       8.931  11.063 -10.985  1.00  0.00     0.017 A 
ATOM     95  C   UNL     1       6.912  11.822  -9.862  1.00  0.00     0.017 A 
ATOM     96  C   UNL     1       8.499  11.653 -12.171  1.00  0.00     0.040 A 
ATOM     97  C   UNL     1       6.481  12.404 -11.056  1.00  0.00     0.040 A 
ATOM     98  C   UNL     1       7.272  12.307 -12.199  1.00  0.00     0.123 A 
ATOM     99  F   UNL     1       6.844  12.851 -13.345  1.00  0.00    -0.207 F 
ENDBRANCH  90  93
ENDBRANCH  88  89
BRANCH  88 100
ATOM    100  C   UNL     1       6.356   7.414  -8.489  1.00  0.00     0.070 C 
BRANCH 100 101
ATOM    101  C   UNL     1       5.411   6.959  -9.587  1.00  0.00    -0.045 A 
ATOM    102  C   UNL     1       4.089   7.424  -9.661  1.00  0.00     0.004 A 
ATOM    103  C   UNL     1       5.850   6.048 -10.557  1.00  0.00     0.004 A 
ATOM    104  C   UNL     1       3.249   7.038 -10.706  1.00  0.00     0.000 A 
ATOM    105  C   UNL     1       5.003   5.648 -11.593  1.00  0.00     0.000 A 
ATOM    106  C   UNL     1       3.707   6.152 -11.675  1.00  0.00     0.000 A 
ENDBRANCH 100 101
ENDBRANCH  88 100
ENDBRANCH  85  88
ENDBRANCH  83  84
BRANCH  83 107
ATOM    107  C   UNL     1       7.286  10.488  -4.713  1.00  0.00     0.101 C 
BRANCH 107 108
ATOM    108  S   UNL     1       6.021  11.385  -3.752  1.00  0.00    -0.177 SA
ATOM    109  H   UNL     1       4.938  11.623  -4.539  1.00  0.00     0.102 HD
ENDBRANCH 107 108
ENDBRANCH  83 107
ENDBRANCH  80  83
ENDBRANCH  78  79
BRANCH  78 110
ATOM    110  C   UNL     1       7.461   8.654  -1.232  1.00  0.00     0.191 C 
BRANCH 110 111
ATOM    111  O   UNL     1       7.263  10.070  -1.189  1.00  0.00    -0.394 OA
ATOM    112  H   UNL     1       8.117  10.513  -1.067  1.00  0.00     0.210 HD
ENDBRANCH 110 111
ENDBRANCH  78 110
ENDBRANCH  75  78
ENDBRANCH   1  74
TORSDOF 26
