REMARK SMILES O=C(NCCCCNC(=O)c1cccc(S(=O)(=O)Nc2cccc(I)c2)c1)c1ccc(-c2c3nc(c(-c4cccc(S(=O)(=O)[O-])c4F)c4ccc([nH]4)c(-c4cccc(S(=O)(=O)[O-])c4F)c4nc(c(-c5cccc(S(=O)(=O)[O-])c5F)c5ccc2[nH]5)C=C4)C=C3)cc1
REMARK SMILES IDX 5 1 4 2 3 3 1 4 2 5 28 7 29 8 90 9 30 10 89 11 31 12 32 13
REMARK SMILES IDX 33 14 83 15 34 16 88 17 82 18 84 19 35 20 87 21 81 22 80 23
REMARK SMILES IDX 36 25 68 26 48 27 67 28 49 29 52 30 66 31 85 32 50 33 51 34
REMARK SMILES IDX 65 36 86 37 53 38 37 39 38 40 46 41 39 42 41 43 47 44 40 45
REMARK SMILES IDX 42 46 43 47 44 48 45 49 69 50 70 51 78 52 71 53 73 54 79 55
REMARK SMILES IDX 72 56 74 57 75 58 76 59 77 60 54 61 55 62 63 63 56 64 58 65
REMARK SMILES IDX 64 66 57 67 59 68 60 69 61 70 62 71 6 72 7 73 8 74 9 75
REMARK SMILES IDX 10 77 11 78 12 79 27 80 13 81 15 82 14 83 16 84 17 85 18 86
REMARK SMILES IDX 19 87 20 89 21 90 26 91 22 92 24 93 23 94 25 95
REMARK H PARENT 3 6 84 24 52 35 8 76 19 88
REMARK Flexibility Score: inf
ROOT
ATOM      1  C   UNL     1       4.787  -0.625  -2.680  1.00  0.00     0.023 C 
ENDROOT
BRANCH   1   2
ATOM      2  C   UNL     1       4.535   0.217  -1.436  1.00  0.00     0.116 C 
BRANCH   2   3
ATOM      3  N   UNL     1       3.117   0.375  -1.139  1.00  0.00    -0.352 N 
ATOM      4  O   UNL     1       1.165   0.002  -0.078  1.00  0.00    -0.269 OA
ATOM      5  C   UNL     1       2.388  -0.095  -0.070  1.00  0.00     0.251 C 
ATOM      6  H   UNL     1       2.605   0.894  -1.800  1.00  0.00     0.163 HD
BRANCH   5   7
ATOM      7  C   UNL     1       3.085  -0.736   1.067  1.00  0.00     0.039 A 
ATOM      8  C   UNL     1       4.235  -0.155   1.601  1.00  0.00     0.014 A 
ATOM      9  C   UNL     1       2.604  -1.941   1.587  1.00  0.00     0.014 A 
ATOM     10  C   UNL     1       5.002  -0.864   2.515  1.00  0.00     0.010 A 
ATOM     11  C   UNL     1       3.325  -2.604   2.588  1.00  0.00     0.010 A 
ATOM     12  C   UNL     1       4.555  -2.095   3.029  1.00  0.00    -0.014 A 
BRANCH  12  13
ATOM     13  C   UNL     1       5.378  -2.772   4.066  1.00  0.00     0.031 A 
ATOM     14  C   UNL     1       6.002  -4.121   3.831  1.00  0.00     0.074 A 
ATOM     15  C   UNL     1       5.608  -2.116   5.222  1.00  0.00     0.049 A 
ATOM     16  N   UNL     1       6.830  -4.784   4.598  1.00  0.00    -0.248 NA
ATOM     17  C   UNL     1       5.651  -4.824   2.587  1.00  0.00     0.031 C 
ATOM     18  C   UNL     1       5.007  -0.831   5.589  1.00  0.00     0.029 A 
ATOM     19  N   UNL     1       6.417  -2.420   6.286  1.00  0.00    -0.354 N 
ATOM     20  C   UNL     1       7.076  -5.989   3.951  1.00  0.00     0.074 A 
ATOM     21  C   UNL     1       6.298  -5.974   2.731  1.00  0.00     0.031 C 
ATOM     22  C   UNL     1       5.505  -0.432   6.767  1.00  0.00     0.029 A 
ATOM     23  C   UNL     1       6.422  -1.452   7.263  1.00  0.00     0.049 A 
ATOM     24  H   UNL     1       6.942  -3.250   6.346  1.00  0.00     0.167 HD
ATOM     25  C   UNL     1       7.893  -7.003   4.327  1.00  0.00     0.034 A 
ATOM     26  C   UNL     1       7.088  -1.386   8.432  1.00  0.00     0.034 A 
ATOM     27  C   UNL     1       8.694  -6.998   5.525  1.00  0.00     0.049 A 
ATOM     28  C   UNL     1       8.035  -2.494   8.788  1.00  0.00     0.074 A 
ATOM     29  C   UNL     1       9.576  -7.965   5.975  1.00  0.00     0.029 A 
ATOM     30  N   UNL     1       8.716  -5.974   6.460  1.00  0.00    -0.354 N 
ATOM     31  N   UNL     1       8.340  -3.568   8.102  1.00  0.00    -0.248 NA
ATOM     32  C   UNL     1       8.752  -2.368  10.064  1.00  0.00     0.031 C 
ATOM     33  C   UNL     1      10.130  -7.527   7.183  1.00  0.00     0.029 A 
ATOM     34  C   UNL     1       9.599  -6.283   7.481  1.00  0.00     0.049 A 
ATOM     35  H   UNL     1       8.182  -5.149   6.406  1.00  0.00     0.167 HD
ATOM     36  C   UNL     1       9.287  -4.245   8.858  1.00  0.00     0.074 A 
ATOM     37  C   UNL     1       9.541  -3.434  10.032  1.00  0.00     0.031 C 
ATOM     38  C   UNL     1       9.871  -5.445   8.620  1.00  0.00     0.034 A 
BRANCH  25  39
ATOM     39  C   UNL     1       8.015  -8.189   3.405  1.00  0.00     0.023 A 
ATOM     40  C   UNL     1       8.781  -8.067   2.228  1.00  0.00     0.012 A 
ATOM     41  C   UNL     1       7.452  -9.438   3.736  1.00  0.00     0.148 A 
ATOM     42  C   UNL     1       8.970  -9.161   1.384  1.00  0.00     0.002 A 
ATOM     43  C   UNL     1       7.674 -10.534   2.907  1.00  0.00     0.091 A 
ATOM     44  F   UNL     1       6.710  -9.531   4.848  1.00  0.00    -0.205 F 
ATOM     45  C   UNL     1       8.426 -10.396   1.729  1.00  0.00     0.022 A 
BRANCH  43  46
ATOM     46  S   UNL     1       7.074 -12.182   3.299  1.00  0.00     0.127 S 
ATOM     47  O   UNL     1       5.989 -12.338   2.331  1.00  0.00    -0.237 OA
ATOM     48  O   UNL     1       8.250 -13.012   3.034  1.00  0.00    -0.237 OA
ATOM     49  O   UNL     1       6.667 -12.138   4.696  1.00  0.00    -0.744 OA
ENDBRANCH  43  46
ENDBRANCH  25  39
BRANCH  26  50
ATOM     50  C   UNL     1       6.912  -0.196   9.310  1.00  0.00     0.023 A 
ATOM     51  C   UNL     1       7.972   0.716   9.470  1.00  0.00     0.012 A 
ATOM     52  C   UNL     1       5.677   0.071   9.930  1.00  0.00     0.148 A 
ATOM     53  C   UNL     1       7.809   1.863  10.248  1.00  0.00     0.002 A 
ATOM     54  C   UNL     1       5.502   1.248  10.648  1.00  0.00     0.091 A 
ATOM     55  F   UNL     1       4.684  -0.819   9.788  1.00  0.00    -0.205 F 
ATOM     56  C   UNL     1       6.570   2.138  10.823  1.00  0.00     0.022 A 
BRANCH  54  57
ATOM     57  S   UNL     1       3.884   1.734  11.260  1.00  0.00     0.127 S 
ATOM     58  O   UNL     1       3.927   1.258  12.639  1.00  0.00    -0.237 OA
ATOM     59  O   UNL     1       3.915   3.189  11.108  1.00  0.00    -0.237 OA
ATOM     60  O   UNL     1       2.935   1.069  10.375  1.00  0.00    -0.744 OA
ENDBRANCH  54  57
ENDBRANCH  26  50
BRANCH  38  61
ATOM     61  C   UNL     1      10.836  -5.953   9.657  1.00  0.00     0.023 A 
ATOM     62  C   UNL     1      10.338  -6.445  10.880  1.00  0.00     0.012 A 
ATOM     63  C   UNL     1      12.221  -5.982   9.412  1.00  0.00     0.148 A 
ATOM     64  C   UNL     1      11.207  -6.925  11.858  1.00  0.00     0.002 A 
ATOM     65  C   UNL     1      13.079  -6.500  10.376  1.00  0.00     0.091 A 
ATOM     66  F   UNL     1      12.679  -5.487   8.252  1.00  0.00    -0.205 F 
ATOM     67  C   UNL     1      12.575  -6.962  11.602  1.00  0.00     0.022 A 
BRANCH  65  68
ATOM     68  S   UNL     1      14.846  -6.655  10.090  1.00  0.00     0.127 S 
ATOM     69  O   UNL     1      15.365  -5.480  10.787  1.00  0.00    -0.237 OA
ATOM     70  O   UNL     1      15.160  -7.933  10.732  1.00  0.00    -0.237 OA
ATOM     71  O   UNL     1      15.010  -6.657   8.642  1.00  0.00    -0.744 OA
ENDBRANCH  65  68
ENDBRANCH  38  61
ENDBRANCH  12  13
ENDBRANCH   5   7
ENDBRANCH   2   3
ENDBRANCH   1   2
BRANCH   1  72
ATOM     72  C   UNL     1       4.255  -0.030  -3.982  1.00  0.00     0.023 C 
BRANCH  72  73
ATOM     73  C   UNL     1       4.709   1.396  -4.276  1.00  0.00     0.116 C 
BRANCH  73  74
ATOM     74  N   UNL     1       6.153   1.508  -4.396  1.00  0.00    -0.352 N 
ATOM     75  C   UNL     1       6.897   2.150  -5.353  1.00  0.00     0.251 C 
ATOM     76  H   UNL     1       6.671   1.059  -3.689  1.00  0.00     0.163 HD
ATOM     77  O   UNL     1       8.113   1.994  -5.398  1.00  0.00    -0.269 OA
BRANCH  75  78
ATOM     78  C   UNL     1       6.246   3.057  -6.325  1.00  0.00     0.041 A 
ATOM     79  C   UNL     1       6.655   3.041  -7.660  1.00  0.00     0.014 A 
ATOM     80  C   UNL     1       5.313   4.001  -5.891  1.00  0.00     0.036 A 
ATOM     81  C   UNL     1       6.095   3.943  -8.567  1.00  0.00     0.002 A 
ATOM     82  C   UNL     1       4.787   4.934  -6.782  1.00  0.00     0.088 A 
ATOM     83  C   UNL     1       5.162   4.889  -8.130  1.00  0.00     0.022 A 
BRANCH  82  84
ATOM     84  S   UNL     1       3.693   6.241  -6.264  1.00  0.00     0.261 S 
ATOM     85  O   UNL     1       4.473   7.457  -6.219  1.00  0.00    -0.201 OA
ATOM     86  O   UNL     1       2.521   6.137  -7.111  1.00  0.00    -0.201 OA
BRANCH  84  87
ATOM     87  N   UNL     1       3.141   5.875  -4.728  1.00  0.00    -0.280 N 
ATOM     88  H   UNL     1       2.173   5.719  -4.634  1.00  0.00     0.180 HD
BRANCH  87  89
ATOM     89  C   UNL     1       3.922   5.763  -3.542  1.00  0.00     0.050 A 
ATOM     90  C   UNL     1       3.335   5.083  -2.468  1.00  0.00     0.027 A 
ATOM     91  C   UNL     1       5.252   6.177  -3.443  1.00  0.00     0.041 A 
ATOM     92  C   UNL     1       4.091   4.742  -1.344  1.00  0.00     0.003 A 
ATOM     93  C   UNL     1       6.013   5.804  -2.331  1.00  0.00     0.015 A 
ATOM     94  C   UNL     1       5.441   5.082  -1.286  1.00  0.00     0.015 A 
ATOM     95  I   UNL     1       8.043   6.254  -2.282  1.00  0.00    -0.044 I 
ENDBRANCH  87  89
ENDBRANCH  84  87
ENDBRANCH  82  84
ENDBRANCH  75  78
ENDBRANCH  73  74
ENDBRANCH  72  73
ENDBRANCH   1  72
TORSDOF 17
