REMARK SMILES Nc1c(Cl)ccc2c1C=C(C(=O)NCCCCNC(=O)c1ccc(-c3c4nc(c(-c5cccc(S(=O)(=O)[O-])c5F)c5ccc([nH]5)c(-c5cccc(S(=O)(=O)[O-])c5F)c5nc(c(-c6cccc(S(=O)(=O)[O-])c6F)c6ccc3[nH]6)C=C5)C=C4)cc1)[C@@H](C(F)(F)F)O2
REMARK SMILES IDX 16 1 15 2 14 3 13 4 11 5 12 6 10 8 2 9 3 10 8 11 4 12 5 13
REMARK SMILES IDX 7 14 9 15 6 16 89 17 84 18 1 19 85 22 86 23 87 24 88 25
REMARK SMILES IDX 17 26 18 27 19 28 20 30 21 31 22 32 83 33 23 34 82 35 24 36
REMARK SMILES IDX 25 37 26 38 76 39 27 40 81 41 75 42 77 43 28 44 80 45 74 46
REMARK SMILES IDX 73 47 29 49 61 50 41 51 60 52 42 53 45 54 59 55 78 56 43 57
REMARK SMILES IDX 44 58 58 60 79 61 46 62 30 63 31 64 39 65 32 66 34 67 40 68
REMARK SMILES IDX 33 69 35 70 36 71 37 72 38 73 62 74 63 75 71 76 64 77 66 78
REMARK SMILES IDX 72 79 65 80 67 81 68 82 69 83 70 84 47 85 48 86 56 87 49 88
REMARK SMILES IDX 51 89 57 90 50 91 52 92 53 93 54 94 55 95
REMARK H PARENT 13 7 1 20 1 21 18 29 77 48 45 59
REMARK Flexibility Score: inf
ROOT
ATOM      1  C   UNL     1      -6.912  -0.048   4.495  1.00  0.00     0.023 C 
ENDROOT
BRANCH   1   2
ATOM      2  C   UNL     1      -6.040   0.933   3.706  1.00  0.00     0.023 C 
BRANCH   2   3
ATOM      3  C   UNL     1      -4.676   1.198   4.335  1.00  0.00     0.116 C 
BRANCH   3   4
ATOM      4  N   UNL     1      -3.721   0.152   4.018  1.00  0.00    -0.352 N 
ATOM      5  C   UNL     1      -2.685  -0.014   3.166  1.00  0.00     0.251 C 
ATOM      6  O   UNL     1      -2.131  -1.117   3.218  1.00  0.00    -0.270 OA
ATOM      7  H   UNL     1      -3.868  -0.650   4.570  1.00  0.00     0.163 HD
BRANCH   5   8
ATOM      8  C   UNL     1      -2.178   1.014   2.207  1.00  0.00     0.067 C 
ATOM      9  C   UNL     1       0.528   1.209  -0.359  1.00  0.00     0.061 A 
ATOM     10  C   UNL     1       1.029   2.196  -1.240  1.00  0.00     0.064 A 
ATOM     11  C   UNL     1      -0.619   1.522   0.405  1.00  0.00     0.042 A 
ATOM     12  Cl  UNL     1       2.454   1.899  -2.183  1.00  0.00    -0.082 Cl
ATOM     13  C   UNL     1       0.396   3.430  -1.395  1.00  0.00     0.026 A 
ATOM     14  C   UNL     1      -1.235   2.772   0.247  1.00  0.00     0.130 A 
ATOM     15  C   UNL     1      -1.235   0.584   1.348  1.00  0.00     0.027 C 
ATOM     16  C   UNL     1      -0.746   3.715  -0.655  1.00  0.00     0.049 A 
ATOM     17  O   UNL     1      -2.365   3.136   0.926  1.00  0.00    -0.475 OA
ATOM     18  C   UNL     1      -2.609   2.449   2.186  1.00  0.00     0.314 C 
BRANCH   9  19
ATOM     19  N   UNL     1       1.228   0.011  -0.189  1.00  0.00    -0.397 N 
ATOM     20  H   UNL     1       2.023  -0.177  -0.737  1.00  0.00     0.156 HD
ATOM     21  H   UNL     1       0.925  -0.645   0.480  1.00  0.00     0.156 HD
ENDBRANCH   9  19
BRANCH  18  22
ATOM     22  C   UNL     1      -2.010   3.273   3.340  1.00  0.00     0.429 C 
ATOM     23  F   UNL     1      -2.648   4.467   3.448  1.00  0.00    -0.167 F 
ATOM     24  F   UNL     1      -2.137   2.661   4.540  1.00  0.00    -0.167 F 
ATOM     25  F   UNL     1      -0.695   3.535   3.166  1.00  0.00    -0.167 F 
ENDBRANCH  18  22
ENDBRANCH   5   8
ENDBRANCH   3   4
ENDBRANCH   2   3
ENDBRANCH   1   2
BRANCH   1  26
ATOM     26  C   UNL     1      -7.150   0.320   5.959  1.00  0.00     0.116 C 
BRANCH  26  27
ATOM     27  N   UNL     1      -7.639   1.681   6.144  1.00  0.00    -0.352 N 
ATOM     28  C   UNL     1      -8.501   2.131   7.116  1.00  0.00     0.251 C 
ATOM     29  H   UNL     1      -7.316   2.353   5.502  1.00  0.00     0.163 HD
ATOM     30  O   UNL     1      -8.885   3.294   7.137  1.00  0.00    -0.269 OA
BRANCH  28  31
ATOM     31  C   UNL     1      -8.979   1.156   8.109  1.00  0.00     0.039 A 
ATOM     32  C   UNL     1     -10.331   0.809   8.111  1.00  0.00     0.014 A 
ATOM     33  C   UNL     1      -8.060   0.503   8.936  1.00  0.00     0.014 A 
ATOM     34  C   UNL     1     -10.758  -0.249   8.911  1.00  0.00     0.010 A 
ATOM     35  C   UNL     1      -8.482  -0.579   9.700  1.00  0.00     0.010 A 
ATOM     36  C   UNL     1      -9.831  -0.964   9.688  1.00  0.00    -0.014 A 
BRANCH  36  37
ATOM     37  C   UNL     1     -10.268  -2.123  10.497  1.00  0.00     0.031 A 
ATOM     38  C   UNL     1     -10.319  -2.008  11.992  1.00  0.00     0.074 A 
ATOM     39  C   UNL     1     -10.574  -3.285   9.888  1.00  0.00     0.049 A 
ATOM     40  N   UNL     1     -10.716  -2.892  12.867  1.00  0.00    -0.248 NA
ATOM     41  C   UNL     1      -9.850  -0.742  12.583  1.00  0.00     0.031 C 
ATOM     42  C   UNL     1     -10.494  -3.534   8.446  1.00  0.00     0.029 A 
ATOM     43  N   UNL     1     -11.008  -4.479  10.406  1.00  0.00    -0.354 N 
ATOM     44  C   UNL     1     -10.527  -2.302  14.109  1.00  0.00     0.074 A 
ATOM     45  C   UNL     1      -9.952  -0.995  13.880  1.00  0.00     0.031 C 
ATOM     46  C   UNL     1     -10.889  -4.794   8.195  1.00  0.00     0.029 A 
ATOM     47  C   UNL     1     -11.245  -5.442   9.453  1.00  0.00     0.049 A 
ATOM     48  H   UNL     1     -11.139  -4.631  11.370  1.00  0.00     0.167 HD
ATOM     49  C   UNL     1     -10.847  -2.789  15.328  1.00  0.00     0.034 A 
ATOM     50  C   UNL     1     -11.721  -6.696   9.583  1.00  0.00     0.034 A 
ATOM     51  C   UNL     1     -11.489  -4.052  15.544  1.00  0.00     0.049 A 
ATOM     52  C   UNL     1     -12.092  -7.201  10.950  1.00  0.00     0.074 A 
ATOM     53  C   UNL     1     -11.971  -4.577  16.729  1.00  0.00     0.029 A 
ATOM     54  N   UNL     1     -11.741  -4.986  14.553  1.00  0.00    -0.354 N 
ATOM     55  N   UNL     1     -12.069  -6.563  12.095  1.00  0.00    -0.248 NA
ATOM     56  C   UNL     1     -12.581  -8.585  11.043  1.00  0.00     0.031 C 
ATOM     57  C   UNL     1     -12.518  -5.833  16.453  1.00  0.00     0.029 A 
ATOM     58  C   UNL     1     -12.364  -6.091  15.100  1.00  0.00     0.049 A 
ATOM     59  H   UNL     1     -11.511  -4.878  13.602  1.00  0.00     0.167 HD
ATOM     60  C   UNL     1     -12.566  -7.454  13.037  1.00  0.00     0.074 A 
ATOM     61  C   UNL     1     -12.888  -8.677  12.331  1.00  0.00     0.031 C 
ATOM     62  C   UNL     1     -12.729  -7.277  14.370  1.00  0.00     0.034 A 
BRANCH  49  63
ATOM     63  C   UNL     1     -10.598  -1.910  16.517  1.00  0.00     0.023 A 
ATOM     64  C   UNL     1     -11.537  -0.905  16.824  1.00  0.00     0.012 A 
ATOM     65  C   UNL     1      -9.492  -2.116  17.361  1.00  0.00     0.148 A 
ATOM     66  C   UNL     1     -11.373  -0.107  17.953  1.00  0.00     0.002 A 
ATOM     67  C   UNL     1      -9.346  -1.328  18.497  1.00  0.00     0.091 A 
ATOM     68  F   UNL     1      -8.611  -3.073  17.038  1.00  0.00    -0.205 F 
ATOM     69  C   UNL     1     -10.283  -0.323  18.792  1.00  0.00     0.022 A 
BRANCH  67  70
ATOM     70  S   UNL     1      -7.996  -1.536  19.663  1.00  0.00     0.127 S 
ATOM     71  O   UNL     1      -7.346  -0.227  19.597  1.00  0.00    -0.237 OA
ATOM     72  O   UNL     1      -8.710  -1.800  20.911  1.00  0.00    -0.237 OA
ATOM     73  O   UNL     1      -7.195  -2.644  19.162  1.00  0.00    -0.744 OA
ENDBRANCH  67  70
ENDBRANCH  49  63
BRANCH  50  74
ATOM     74  C   UNL     1     -11.985  -7.519   8.372  1.00  0.00     0.023 A 
ATOM     75  C   UNL     1     -13.315  -7.667   7.933  1.00  0.00     0.012 A 
ATOM     76  C   UNL     1     -10.946  -8.124   7.641  1.00  0.00     0.148 A 
ATOM     77  C   UNL     1     -13.609  -8.415   6.794  1.00  0.00     0.002 A 
ATOM     78  C   UNL     1     -11.243  -8.845   6.488  1.00  0.00     0.091 A 
ATOM     79  F   UNL     1      -9.689  -7.982   8.086  1.00  0.00    -0.205 F 
ATOM     80  C   UNL     1     -12.574  -8.998   6.068  1.00  0.00     0.022 A 
BRANCH  78  81
ATOM     81  S   UNL     1      -9.968  -9.557   5.441  1.00  0.00     0.127 S 
ATOM     82  O   UNL     1     -10.091 -10.979   5.748  1.00  0.00    -0.237 OA
ATOM     83  O   UNL     1     -10.422  -9.173   4.104  1.00  0.00    -0.237 OA
ATOM     84  O   UNL     1      -8.725  -8.922   5.856  1.00  0.00    -0.744 OA
ENDBRANCH  78  81
ENDBRANCH  50  74
BRANCH  62  85
ATOM     85  C   UNL     1     -13.284  -8.415  15.177  1.00  0.00     0.023 A 
ATOM     86  C   UNL     1     -12.409  -9.426  15.615  1.00  0.00     0.012 A 
ATOM     87  C   UNL     1     -14.614  -8.390  15.638  1.00  0.00     0.148 A 
ATOM     88  C   UNL     1     -12.850 -10.400  16.508  1.00  0.00     0.002 A 
ATOM     89  C   UNL     1     -15.038  -9.346  16.552  1.00  0.00     0.091 A 
ATOM     90  F   UNL     1     -15.421  -7.412  15.203  1.00  0.00    -0.205 F 
ATOM     91  C   UNL     1     -14.158 -10.352  16.986  1.00  0.00     0.022 A 
BRANCH  89  92
ATOM     92  S   UNL     1     -16.675  -9.327  17.289  1.00  0.00     0.127 S 
ATOM     93  O   UNL     1     -17.225 -10.601  16.828  1.00  0.00    -0.237 OA
ATOM     94  O   UNL     1     -16.367  -9.275  18.718  1.00  0.00    -0.237 OA
ATOM     95  O   UNL     1     -17.343  -8.144  16.763  1.00  0.00    -0.744 OA
ENDBRANCH  89  92
ENDBRANCH  62  85
ENDBRANCH  36  37
ENDBRANCH  28  31
ENDBRANCH  26  27
ENDBRANCH   1  26
TORSDOF 16
