REMARK SMILES O=C(NCCCCNC(=O)[C@H]1CS[C@@H](c2cccc(OCc3ccc(Cl)cc3Cl)c2)[NH2+]1)c1ccc(-c2c3nc(c(-c4cccc(S(=O)(=O)[O-])c4F)c4ccc([nH]4)c(-c4cccc(S(=O)(=O)[O-])c4F)c4nc(c(-c5cccc(S(=O)(=O)[O-])c5F)c5ccc2[nH]5)C=C4)C=C3)cc1
REMARK SMILES IDX 6 1 5 2 4 3 3 4 1 5 2 6 32 8 33 9 94 10 34 11 93 12 35 13
REMARK SMILES IDX 36 14 37 15 87 16 38 17 92 18 86 19 88 20 39 21 91 22 85 23
REMARK SMILES IDX 84 24 40 26 72 27 52 28 71 29 53 30 56 31 70 32 89 33 54 34
REMARK SMILES IDX 55 35 69 37 90 38 57 39 41 40 42 41 50 42 43 43 45 44 51 45
REMARK SMILES IDX 44 46 46 47 47 48 48 49 49 50 73 51 74 52 82 53 75 54 77 55
REMARK SMILES IDX 83 56 76 57 78 58 79 59 80 60 81 61 58 62 59 63 67 64 60 65
REMARK SMILES IDX 62 66 68 67 61 68 63 69 64 70 65 71 66 72 7 73 8 74 9 75
REMARK SMILES IDX 10 77 11 78 12 79 31 80 13 81 14 82 15 85 16 86 30 87 17 88
REMARK SMILES IDX 19 89 18 90 20 91 21 92 22 93 23 94 28 95 24 96 27 97 29 98
REMARK SMILES IDX 25 99 26 100
REMARK H PARENT 3 7 88 25 56 36 8 76 31 83 31 84
REMARK Flexibility Score: inf
ROOT
ATOM      1  C   UNL     1       4.376   3.497  -1.331  1.00  0.00     0.023 C 
ENDROOT
BRANCH   1   2
ATOM      2  C   UNL     1       4.887   2.073  -1.544  1.00  0.00     0.023 C 
BRANCH   2   3
ATOM      3  C   UNL     1       4.567   1.098  -0.417  1.00  0.00     0.116 C 
BRANCH   3   4
ATOM      4  N   UNL     1       3.141   1.003  -0.134  1.00  0.00    -0.352 N 
ATOM      5  O   UNL     1       1.144  -0.015   0.095  1.00  0.00    -0.269 OA
ATOM      6  C   UNL     1       2.363  -0.122  -0.006  1.00  0.00     0.251 C 
ATOM      7  H   UNL     1       2.672   1.861  -0.020  1.00  0.00     0.163 HD
BRANCH   6   8
ATOM      8  C   UNL     1       3.007  -1.452  -0.023  1.00  0.00     0.039 A 
ATOM      9  C   UNL     1       4.144  -1.692   0.752  1.00  0.00     0.014 A 
ATOM     10  C   UNL     1       2.488  -2.453  -0.847  1.00  0.00     0.014 A 
ATOM     11  C   UNL     1       4.847  -2.880   0.591  1.00  0.00     0.010 A 
ATOM     12  C   UNL     1       3.151  -3.678  -0.944  1.00  0.00     0.010 A 
ATOM     13  C   UNL     1       4.355  -3.889  -0.253  1.00  0.00    -0.014 A 
BRANCH  13  14
ATOM     14  C   UNL     1       5.082  -5.180  -0.340  1.00  0.00     0.031 A 
ATOM     15  C   UNL     1       5.715  -5.638  -1.624  1.00  0.00     0.074 A 
ATOM     16  C   UNL     1       5.168  -5.940   0.769  1.00  0.00     0.049 A 
ATOM     17  N   UNL     1       6.407  -6.724  -1.854  1.00  0.00    -0.248 NA
ATOM     18  C   UNL     1       5.549  -4.775  -2.805  1.00  0.00     0.031 C 
ATOM     19  C   UNL     1       4.550  -5.617   2.058  1.00  0.00     0.029 A 
ATOM     20  N   UNL     1       5.801  -7.134   0.995  1.00  0.00    -0.354 N 
ATOM     21  C   UNL     1       6.725  -6.700  -3.206  1.00  0.00     0.074 A 
ATOM     22  C   UNL     1       6.147  -5.489  -3.751  1.00  0.00     0.031 C 
ATOM     23  C   UNL     1       4.856  -6.574   2.945  1.00  0.00     0.029 A 
ATOM     24  C   UNL     1       5.648  -7.601   2.279  1.00  0.00     0.049 A 
ATOM     25  H   UNL     1       6.316  -7.612   0.304  1.00  0.00     0.167 HD
ATOM     26  C   UNL     1       7.446  -7.595  -3.922  1.00  0.00     0.034 A 
ATOM     27  C   UNL     1       6.086  -8.736   2.857  1.00  0.00     0.034 A 
ATOM     28  C   UNL     1       8.055  -8.774  -3.363  1.00  0.00     0.049 A 
ATOM     29  C   UNL     1       6.915  -9.688   2.046  1.00  0.00     0.074 A 
ATOM     30  C   UNL     1       8.861  -9.707  -3.993  1.00  0.00     0.029 A 
ATOM     31  N   UNL     1       7.925  -9.185  -2.045  1.00  0.00    -0.354 N 
ATOM     32  N   UNL     1       7.315  -9.578   0.803  1.00  0.00    -0.248 NA
ATOM     33  C   UNL     1       7.376 -10.908   2.723  1.00  0.00     0.031 C 
ATOM     34  C   UNL     1       9.209 -10.688  -3.059  1.00  0.00     0.029 A 
ATOM     35  C   UNL     1       8.629 -10.360  -1.844  1.00  0.00     0.049 A 
ATOM     36  H   UNL     1       7.408  -8.712  -1.355  1.00  0.00     0.167 HD
ATOM     37  C   UNL     1       8.092 -10.701   0.553  1.00  0.00     0.074 A 
ATOM     38  C   UNL     1       8.130 -11.465   1.785  1.00  0.00     0.031 C 
ATOM     39  C   UNL     1       8.699 -11.080  -0.598  1.00  0.00     0.034 A 
BRANCH  26  40
ATOM     40  C   UNL     1       7.666  -7.319  -5.386  1.00  0.00     0.023 A 
ATOM     41  C   UNL     1       8.606  -6.341  -5.771  1.00  0.00     0.012 A 
ATOM     42  C   UNL     1       7.016  -8.081  -6.377  1.00  0.00     0.148 A 
ATOM     43  C   UNL     1       8.882  -6.114  -7.119  1.00  0.00     0.002 A 
ATOM     44  C   UNL     1       7.321  -7.872  -7.717  1.00  0.00     0.091 A 
ATOM     45  F   UNL     1       6.109  -8.990  -5.992  1.00  0.00    -0.205 F 
ATOM     46  C   UNL     1       8.249  -6.886  -8.090  1.00  0.00     0.022 A 
BRANCH  44  47
ATOM     47  S   UNL     1       6.611  -8.863  -9.037  1.00  0.00     0.127 S 
ATOM     48  O   UNL     1       5.662  -7.924  -9.632  1.00  0.00    -0.237 OA
ATOM     49  O   UNL     1       7.778  -9.158  -9.868  1.00  0.00    -0.237 OA
ATOM     50  O   UNL     1       6.021 -10.026  -8.389  1.00  0.00    -0.744 OA
ENDBRANCH  44  47
ENDBRANCH  26  40
BRANCH  27  51
ATOM     51  C   UNL     1       5.788  -8.990   4.293  1.00  0.00     0.023 A 
ATOM     52  C   UNL     1       6.829  -8.928   5.238  1.00  0.00     0.012 A 
ATOM     53  C   UNL     1       4.472  -9.229   4.735  1.00  0.00     0.148 A 
ATOM     54  C   UNL     1       6.568  -9.118   6.595  1.00  0.00     0.002 A 
ATOM     55  C   UNL     1       4.210  -9.356   6.093  1.00  0.00     0.091 A 
ATOM     56  F   UNL     1       3.496  -9.305   3.819  1.00  0.00    -0.205 F 
ATOM     57  C   UNL     1       5.258  -9.317   7.024  1.00  0.00     0.022 A 
BRANCH  55  58
ATOM     58  S   UNL     1       2.531  -9.458   6.726  1.00  0.00     0.127 S 
ATOM     59  O   UNL     1       2.385 -10.891   6.960  1.00  0.00    -0.237 OA
ATOM     60  O   UNL     1       2.606  -8.639   7.937  1.00  0.00    -0.237 OA
ATOM     61  O   UNL     1       1.695  -8.889   5.677  1.00  0.00    -0.744 OA
ENDBRANCH  55  58
ENDBRANCH  27  51
BRANCH  39  62
ATOM     62  C   UNL     1       9.471 -12.371  -0.579  1.00  0.00     0.023 A 
ATOM     63  C   UNL     1       8.774 -13.595  -0.580  1.00  0.00     0.012 A 
ATOM     64  C   UNL     1      10.878 -12.373  -0.624  1.00  0.00     0.148 A 
ATOM     65  C   UNL     1       9.467 -14.804  -0.598  1.00  0.00     0.002 A 
ATOM     66  C   UNL     1      11.562 -13.582  -0.684  1.00  0.00     0.091 A 
ATOM     67  F   UNL     1      11.523 -11.198  -0.598  1.00  0.00    -0.205 F 
ATOM     68  C   UNL     1      10.859 -14.798  -0.662  1.00  0.00     0.022 A 
BRANCH  66  69
ATOM     69  S   UNL     1      13.348 -13.662  -0.855  1.00  0.00     0.127 S 
ATOM     70  O   UNL     1      13.764 -13.995   0.506  1.00  0.00    -0.237 OA
ATOM     71  O   UNL     1      13.523 -14.741  -1.829  1.00  0.00    -0.237 OA
ATOM     72  O   UNL     1      13.758 -12.349  -1.336  1.00  0.00    -0.744 OA
ENDBRANCH  66  69
ENDBRANCH  39  62
ENDBRANCH  13  14
ENDBRANCH   6   8
ENDBRANCH   3   4
ENDBRANCH   2   3
ENDBRANCH   1   2
BRANCH   1  73
ATOM     73  C   UNL     1       4.854   4.149  -0.040  1.00  0.00     0.116 C 
BRANCH  73  74
ATOM     74  N   UNL     1       6.253   4.532  -0.108  1.00  0.00    -0.351 N 
ATOM     75  C   UNL     1       6.820   5.738   0.207  1.00  0.00     0.279 C 
ATOM     76  H   UNL     1       6.873   3.835  -0.421  1.00  0.00     0.163 HD
ATOM     77  O   UNL     1       8.043   5.861   0.136  1.00  0.00    -0.268 OA
BRANCH  75  78
ATOM     78  C   UNL     1       5.905   6.863   0.696  1.00  0.00     0.283 C 
ATOM     79  C   UNL     1       5.677   6.699   2.198  1.00  0.00     0.151 C 
ATOM     80  N   UNL     1       6.494   8.198   0.439  1.00  0.00    -0.321 N 
ATOM     81  S   UNL     1       5.385   8.377   2.814  1.00  0.00    -0.088 SA
ATOM     82  C   UNL     1       5.657   9.128   1.199  1.00  0.00     0.274 C 
ATOM     83  H   UNL     1       6.464   8.418  -0.556  1.00  0.00     0.348 HD
ATOM     84  H   UNL     1       7.474   8.246   0.717  1.00  0.00     0.348 HD
BRANCH  82  85
ATOM     85  C   UNL     1       6.195  10.539   1.144  1.00  0.00     0.024 A 
ATOM     86  C   UNL     1       6.830  11.198   2.201  1.00  0.00     0.011 A 
ATOM     87  C   UNL     1       6.065  11.219  -0.085  1.00  0.00     0.057 A 
ATOM     88  C   UNL     1       7.297  12.505   2.037  1.00  0.00     0.004 A 
ATOM     89  C   UNL     1       6.580  12.498  -0.276  1.00  0.00     0.120 A 
ATOM     90  C   UNL     1       7.172  13.148   0.804  1.00  0.00     0.046 A 
BRANCH  89  91
ATOM     91  O   UNL     1       6.569  13.193  -1.452  1.00  0.00    -0.489 OA
BRANCH  91  92
ATOM     92  C   UNL     1       6.294  12.488  -2.670  1.00  0.00     0.267 C 
BRANCH  92  93
ATOM     93  C   UNL     1       7.324  11.438  -3.041  1.00  0.00     0.008 A 
ATOM     94  C   UNL     1       6.906  10.106  -3.228  1.00  0.00     0.010 A 
ATOM     95  C   UNL     1       8.690  11.733  -3.184  1.00  0.00     0.049 A 
ATOM     96  C   UNL     1       7.830   9.092  -3.485  1.00  0.00     0.021 A 
ATOM     97  C   UNL     1       9.614  10.719  -3.450  1.00  0.00     0.041 A 
ATOM     98  Cl  UNL     1       9.293  13.348  -3.061  1.00  0.00    -0.084 Cl
ATOM     99  C   UNL     1       9.181   9.403  -3.587  1.00  0.00     0.042 A 
ATOM    100  Cl  UNL     1      10.323   8.155  -3.897  1.00  0.00    -0.084 Cl
ENDBRANCH  92  93
ENDBRANCH  91  92
ENDBRANCH  89  91
ENDBRANCH  82  85
ENDBRANCH  75  78
ENDBRANCH  73  74
ENDBRANCH   1  73
TORSDOF 18
