REMARK SMILES C[NH+]1CCC(C(=O)N2C[C@@H](C(=O)NCCCCNC(=O)c3ccc(-c4c5nc(c(-c6cccc(S(=O)(=O)[O-])c6F)c6ccc([nH]6)c(-c6cccc(S(=O)(=O)[O-])c6F)c6nc(c(-c7cccc(S(=O)(=O)[O-])c7F)c7ccc4[nH]7)C=C6)C=C5)cc3)[C@H](c3ccc4c(c3)OCO4)C2)CC1
REMARK SMILES IDX 16 1 15 2 14 3 13 4 11 5 12 6 10 8 8 9 9 10 94 11 84 12 6 13
REMARK SMILES IDX 7 14 5 15 1 16 2 17 3 18 96 19 4 21 95 22 85 23 86 24 90 25
REMARK SMILES IDX 87 26 89 27 88 28 91 29 93 30 92 31 17 32 18 33 19 34 20 36
REMARK SMILES IDX 21 37 22 38 83 39 23 40 82 41 24 42 25 43 26 44 76 45 27 46
REMARK SMILES IDX 81 47 75 48 77 49 28 50 80 51 74 52 73 53 29 55 61 56 41 57
REMARK SMILES IDX 60 58 42 59 45 60 59 61 78 62 43 63 44 64 58 66 79 67 46 68
REMARK SMILES IDX 30 69 31 70 39 71 32 72 34 73 40 74 33 75 35 76 36 77 37 78
REMARK SMILES IDX 38 79 62 80 63 81 71 82 64 83 66 84 72 85 65 86 67 87 68 88
REMARK SMILES IDX 69 89 70 90 47 91 48 92 56 93 49 94 51 95 57 96 50 97 52 98
REMARK SMILES IDX 53 99 54 100 55 101
REMARK H PARENT 13 7 2 20 18 35 77 54 45 65
REMARK Flexibility Score: inf
ROOT
ATOM      1  C   UNL     1      -0.026   0.150   8.237  1.00  0.00     0.023 C 
ENDROOT
BRANCH   1   2
ATOM      2  C   UNL     1       0.155   0.734   6.834  1.00  0.00     0.023 C 
BRANCH   2   3
ATOM      3  C   UNL     1       1.593   0.799   6.331  1.00  0.00     0.116 C 
BRANCH   3   4
ATOM      4  N   UNL     1       2.195  -0.506   6.115  1.00  0.00    -0.356 N 
ATOM      5  C   UNL     1       2.952  -0.952   5.070  1.00  0.00     0.225 C 
ATOM      6  O   UNL     1       3.500  -2.051   5.165  1.00  0.00    -0.275 OA
ATOM      7  H   UNL     1       2.033  -1.165   6.828  1.00  0.00     0.163 HD
BRANCH   5   8
ATOM      8  C   UNL     1       3.097  -0.103   3.826  1.00  0.00     0.107 C 
ATOM      9  N   UNL     1       3.618  -0.056   1.578  1.00  0.00    -0.341 N 
ATOM     10  C   UNL     1       3.144  -0.977   2.589  1.00  0.00     0.133 C 
ATOM     11  C   UNL     1       4.620   0.825   2.178  1.00  0.00     0.128 C 
ATOM     12  C   UNL     1       4.441   0.657   3.710  1.00  0.00     0.053 C 
BRANCH   9  13
ATOM     13  C   UNL     1       3.282   0.067   0.255  1.00  0.00     0.226 C 
ATOM     14  O   UNL     1       4.099   0.544  -0.544  1.00  0.00    -0.275 OA
BRANCH  13  15
ATOM     15  C   UNL     1       1.825  -0.079  -0.209  1.00  0.00     0.090 C 
ATOM     16  C   UNL     1      -2.474   0.020  -0.274  1.00  0.00     0.332 C 
ATOM     17  N   UNL     1      -1.067  -0.037   0.114  1.00  0.00    -0.337 N 
ATOM     18  C   UNL     1      -0.366   1.190  -0.275  1.00  0.00     0.262 C 
ATOM     19  C   UNL     1      -0.408  -1.223  -0.454  1.00  0.00     0.262 C 
ATOM     20  H   UNL     1      -1.026  -0.115   1.130  1.00  0.00     0.347 HD
ATOM     21  C   UNL     1       1.066   1.175   0.251  1.00  0.00     0.075 C 
ATOM     22  C   UNL     1       1.015  -1.334   0.103  1.00  0.00     0.075 C 
ENDBRANCH  13  15
ENDBRANCH   9  13
BRANCH  12  23
ATOM     23  C   UNL     1       4.419   1.901   4.577  1.00  0.00    -0.038 A 
ATOM     24  C   UNL     1       3.818   3.112   4.163  1.00  0.00     0.008 A 
ATOM     25  C   UNL     1       4.846   1.772   5.915  1.00  0.00     0.054 A 
ATOM     26  C   UNL     1       3.599   4.157   5.070  1.00  0.00     0.051 A 
ATOM     27  C   UNL     1       4.573   2.799   6.793  1.00  0.00     0.166 A 
ATOM     28  C   UNL     1       3.955   3.954   6.384  1.00  0.00     0.165 A 
ATOM     29  O   UNL     1       4.765   2.761   8.139  1.00  0.00    -0.454 OA
ATOM     30  O   UNL     1       3.694   4.794   7.421  1.00  0.00    -0.454 OA
ATOM     31  C   UNL     1       4.062   3.957   8.540  1.00  0.00     0.468 C 
ENDBRANCH  12  23
ENDBRANCH   5   8
ENDBRANCH   3   4
ENDBRANCH   2   3
ENDBRANCH   1   2
BRANCH   1  32
ATOM     32  C   UNL     1       0.828   0.762   9.346  1.00  0.00     0.116 C 
BRANCH  32  33
ATOM     33  N   UNL     1       0.678   2.203   9.485  1.00  0.00    -0.352 N 
ATOM     34  C   UNL     1       0.702   2.970  10.627  1.00  0.00     0.251 C 
ATOM     35  H   UNL     1       0.542   2.698   8.645  1.00  0.00     0.163 HD
ATOM     36  O   UNL     1       0.551   4.188  10.548  1.00  0.00    -0.269 OA
BRANCH  34  37
ATOM     37  C   UNL     1       0.870   2.333  11.952  1.00  0.00     0.039 A 
ATOM     38  C   UNL     1      -0.030   2.665  12.970  1.00  0.00     0.014 A 
ATOM     39  C   UNL     1       1.881   1.398  12.189  1.00  0.00     0.014 A 
ATOM     40  C   UNL     1       0.026   1.994  14.194  1.00  0.00     0.010 A 
ATOM     41  C   UNL     1       1.900   0.689  13.390  1.00  0.00     0.010 A 
ATOM     42  C   UNL     1       0.963   0.967  14.398  1.00  0.00    -0.014 A 
BRANCH  42  43
ATOM     43  C   UNL     1       0.924   0.129  15.624  1.00  0.00     0.031 A 
ATOM     44  C   UNL     1       2.065   0.134  16.602  1.00  0.00     0.074 A 
ATOM     45  C   UNL     1      -0.104  -0.727  15.801  1.00  0.00     0.049 A 
ATOM     46  N   UNL     1       2.212  -0.565  17.697  1.00  0.00    -0.248 NA
ATOM     47  C   UNL     1       3.199   1.020  16.296  1.00  0.00     0.031 C 
ATOM     48  C   UNL     1      -1.223  -0.902  14.873  1.00  0.00     0.029 A 
ATOM     49  N   UNL     1      -0.355  -1.636  16.799  1.00  0.00    -0.354 N 
ATOM     50  C   UNL     1       3.467  -0.234  18.194  1.00  0.00     0.074 A 
ATOM     51  C   UNL     1       4.049   0.713  17.267  1.00  0.00     0.031 C 
ATOM     52  C   UNL     1      -2.033  -1.866  15.338  1.00  0.00     0.029 A 
ATOM     53  C   UNL     1      -1.484  -2.393  16.583  1.00  0.00     0.049 A 
ATOM     54  H   UNL     1       0.218  -1.737  17.593  1.00  0.00     0.167 HD
ATOM     55  C   UNL     1       4.069  -0.659  19.331  1.00  0.00     0.034 A 
ATOM     56  C   UNL     1      -2.015  -3.403  17.300  1.00  0.00     0.034 A 
ATOM     57  C   UNL     1       3.470  -1.568  20.273  1.00  0.00     0.049 A 
ATOM     58  C   UNL     1      -1.363  -3.808  18.592  1.00  0.00     0.074 A 
ATOM     59  C   UNL     1       3.950  -1.966  21.508  1.00  0.00     0.029 A 
ATOM     60  N   UNL     1       2.269  -2.232  20.079  1.00  0.00    -0.354 N 
ATOM     61  N   UNL     1      -0.273  -3.336  19.148  1.00  0.00    -0.248 NA
ATOM     62  C   UNL     1      -2.033  -4.855  19.379  1.00  0.00     0.031 C 
ATOM     63  C   UNL     1       3.049  -2.888  22.052  1.00  0.00     0.029 A 
ATOM     64  C   UNL     1       1.997  -3.049  21.164  1.00  0.00     0.049 A 
ATOM     65  H   UNL     1       1.693  -2.138  19.286  1.00  0.00     0.167 HD
ATOM     66  C   UNL     1      -0.141  -4.005  20.359  1.00  0.00     0.074 A 
ATOM     67  C   UNL     1      -1.276  -4.899  20.468  1.00  0.00     0.031 C 
ATOM     68  C   UNL     1       0.841  -3.899  21.288  1.00  0.00     0.034 A 
BRANCH  55  69
ATOM     69  C   UNL     1       5.432  -0.102  19.649  1.00  0.00     0.023 A 
ATOM     70  C   UNL     1       5.552   1.240  20.064  1.00  0.00     0.012 A 
ATOM     71  C   UNL     1       6.582  -0.913  19.592  1.00  0.00     0.148 A 
ATOM     72  C   UNL     1       6.799   1.777  20.381  1.00  0.00     0.002 A 
ATOM     73  C   UNL     1       7.816  -0.382  19.950  1.00  0.00     0.091 A 
ATOM     74  F   UNL     1       6.452  -2.180  19.173  1.00  0.00    -0.205 F 
ATOM     75  C   UNL     1       7.928   0.964  20.333  1.00  0.00     0.022 A 
BRANCH  73  76
ATOM     76  S   UNL     1       9.314  -1.373  19.992  1.00  0.00     0.127 S 
ATOM     77  O   UNL     1       9.997  -0.928  18.779  1.00  0.00    -0.237 OA
ATOM     78  O   UNL     1       9.942  -0.934  21.240  1.00  0.00    -0.237 OA
ATOM     79  O   UNL     1       8.873  -2.760  19.996  1.00  0.00    -0.744 OA
ENDBRANCH  73  76
ENDBRANCH  55  69
BRANCH  56  80
ATOM     80  C   UNL     1      -3.274  -4.050  16.835  1.00  0.00     0.023 A 
ATOM     81  C   UNL     1      -4.476  -3.804  17.526  1.00  0.00     0.012 A 
ATOM     82  C   UNL     1      -3.297  -4.859  15.682  1.00  0.00     0.148 A 
ATOM     83  C   UNL     1      -5.675  -4.371  17.091  1.00  0.00     0.002 A 
ATOM     84  C   UNL     1      -4.503  -5.375  15.222  1.00  0.00     0.091 A 
ATOM     85  F   UNL     1      -2.140  -5.090  15.045  1.00  0.00    -0.205 F 
ATOM     86  C   UNL     1      -5.691  -5.145  15.934  1.00  0.00     0.022 A 
BRANCH  84  87
ATOM     87  S   UNL     1      -4.639  -6.263  13.666  1.00  0.00     0.127 S 
ATOM     88  O   UNL     1      -4.880  -7.629  14.122  1.00  0.00    -0.237 OA
ATOM     89  O   UNL     1      -5.790  -5.608  13.044  1.00  0.00    -0.237 OA
ATOM     90  O   UNL     1      -3.377  -6.037  12.975  1.00  0.00    -0.744 OA
ENDBRANCH  84  87
ENDBRANCH  56  80
BRANCH  68  91
ATOM     91  C   UNL     1       0.732  -4.755  22.523  1.00  0.00     0.023 A 
ATOM     92  C   UNL     1       0.984  -6.138  22.438  1.00  0.00     0.012 A 
ATOM     93  C   UNL     1       0.458  -4.178  23.779  1.00  0.00     0.148 A 
ATOM     94  C   UNL     1       0.939  -6.939  23.579  1.00  0.00     0.002 A 
ATOM     95  C   UNL     1       0.460  -4.975  24.919  1.00  0.00     0.091 A 
ATOM     96  F   UNL     1       0.199  -2.864  23.838  1.00  0.00    -0.205 F 
ATOM     97  C   UNL     1       0.690  -6.357  24.819  1.00  0.00     0.022 A 
BRANCH  95  98
ATOM     98  S   UNL     1       0.241  -4.293  26.567  1.00  0.00     0.127 S 
ATOM     99  O   UNL     1      -1.127  -4.701  26.879  1.00  0.00    -0.237 OA
ATOM    100  O   UNL     1       1.275  -4.990  27.333  1.00  0.00    -0.237 OA
ATOM    101  O   UNL     1       0.454  -2.858  26.436  1.00  0.00    -0.744 OA
ENDBRANCH  95  98
ENDBRANCH  68  91
ENDBRANCH  42  43
ENDBRANCH  34  37
ENDBRANCH  32  33
ENDBRANCH   1  32
TORSDOF 17
