REMARK SMILES O=C(NCCCCNC(=O)[C@H]1CC[C@@H]2CCCC[C@H]2N1C(=O)N1CCSCC1)c1ccc(-c2c3nc(c(-c4cccc(S(=O)(=O)[O-])c4F)c4ccc([nH]4)c(-c4cccc(S(=O)(=O)[O-])c4F)c4nc(c(-c5cccc(S(=O)(=O)[O-])c5F)c5ccc2[nH]5)C=C4)C=C3)cc1
REMARK SMILES IDX 4 1 3 2 1 3 2 4 29 6 30 7 91 8 31 9 90 10 32 11 33 12 34 13
REMARK SMILES IDX 84 14 35 15 89 16 83 17 85 18 36 19 88 20 82 21 81 22 37 24
REMARK SMILES IDX 69 25 49 26 68 27 50 28 53 29 67 30 86 31 51 32 52 33 66 35
REMARK SMILES IDX 87 36 54 37 38 38 39 39 47 40 40 41 42 42 48 43 41 44 43 45
REMARK SMILES IDX 44 46 45 47 46 48 70 49 71 50 79 51 72 52 74 53 80 54 73 55
REMARK SMILES IDX 75 56 76 57 77 58 78 59 55 60 56 61 64 62 57 63 59 64 65 65
REMARK SMILES IDX 58 66 60 67 61 68 62 69 63 70 5 71 6 72 7 73 8 74 9 75 10 77
REMARK SMILES IDX 11 78 12 79 20 80 13 81 19 82 14 83 18 84 15 85 17 86 16 87
REMARK SMILES IDX 21 88 22 89 23 90 24 91 28 92 25 93 27 94 26 95
REMARK H PARENT 3 5 85 23 53 34 8 76
REMARK Flexibility Score: inf
ROOT
ATOM      1  C   UNL     1      10.389  -4.269 -10.167  1.00  0.00     0.116 C 
ENDROOT
BRANCH   1   2
ATOM      2  N   UNL     1      10.166  -3.375 -11.302  1.00  0.00    -0.352 N 
ATOM      3  O   UNL     1      10.662  -2.401 -13.287  1.00  0.00    -0.269 OA
ATOM      4  C   UNL     1      10.919  -3.258 -12.450  1.00  0.00     0.251 C 
ATOM      5  H   UNL     1       9.382  -2.784 -11.238  1.00  0.00     0.163 HD
BRANCH   4   6
ATOM      6  C   UNL     1      12.069  -4.167 -12.606  1.00  0.00     0.039 A 
ATOM      7  C   UNL     1      11.890  -5.525 -12.347  1.00  0.00     0.014 A 
ATOM      8  C   UNL     1      13.341  -3.640 -12.832  1.00  0.00     0.014 A 
ATOM      9  C   UNL     1      12.999  -6.306 -12.078  1.00  0.00     0.010 A 
ATOM     10  C   UNL     1      14.455  -4.473 -12.705  1.00  0.00     0.010 A 
ATOM     11  C   UNL     1      14.296  -5.799 -12.274  1.00  0.00    -0.014 A 
BRANCH  11  12
ATOM     12  C   UNL     1      15.448  -6.716 -12.083  1.00  0.00     0.031 A 
ATOM     13  C   UNL     1      16.532  -6.434 -11.080  1.00  0.00     0.074 A 
ATOM     14  C   UNL     1      15.472  -7.846 -12.816  1.00  0.00     0.049 A 
ATOM     15  N   UNL     1      17.582  -7.158 -10.789  1.00  0.00    -0.248 NA
ATOM     16  C   UNL     1      16.445  -5.179 -10.315  1.00  0.00     0.031 C 
ATOM     17  C   UNL     1      14.487  -8.198 -13.845  1.00  0.00     0.029 A 
ATOM     18  N   UNL     1      16.324  -8.918 -12.799  1.00  0.00    -0.354 N 
ATOM     19  C   UNL     1      18.316  -6.421  -9.867  1.00  0.00     0.074 A 
ATOM     20  C   UNL     1      17.582  -5.197  -9.629  1.00  0.00     0.031 C 
ATOM     21  C   UNL     1      14.739  -9.431 -14.296  1.00  0.00     0.029 A 
ATOM     22  C   UNL     1      15.954  -9.922 -13.663  1.00  0.00     0.049 A 
ATOM     23  H   UNL     1      17.122  -8.965 -12.224  1.00  0.00     0.167 HD
ATOM     24  C   UNL     1      19.490  -6.743  -9.272  1.00  0.00     0.034 A 
ATOM     25  C   UNL     1      16.536 -11.104 -13.933  1.00  0.00     0.034 A 
ATOM     26  C   UNL     1      20.172  -7.996  -9.467  1.00  0.00     0.049 A 
ATOM     27  C   UNL     1      17.798 -11.457 -13.209  1.00  0.00     0.074 A 
ATOM     28  C   UNL     1      21.332  -8.449  -8.862  1.00  0.00     0.029 A 
ATOM     29  N   UNL     1      19.754  -9.001 -10.328  1.00  0.00    -0.354 N 
ATOM     30  N   UNL     1      18.426 -10.784 -12.276  1.00  0.00    -0.248 NA
ATOM     31  C   UNL     1      18.428 -12.733 -13.567  1.00  0.00     0.031 C 
ATOM     32  C   UNL     1      21.619  -9.723  -9.365  1.00  0.00     0.029 A 
ATOM     33  C   UNL     1      20.633 -10.070 -10.274  1.00  0.00     0.049 A 
ATOM     34  H   UNL     1      18.949  -8.960 -10.893  1.00  0.00     0.167 HD
ATOM     35  C   UNL     1      19.523 -11.557 -11.925  1.00  0.00     0.074 A 
ATOM     36  C   UNL     1      19.450 -12.767 -12.722  1.00  0.00     0.031 C 
ATOM     37  C   UNL     1      20.516 -11.281 -11.046  1.00  0.00     0.034 A 
BRANCH  24  38
ATOM     38  C   UNL     1      20.106  -5.741  -8.329  1.00  0.00     0.023 A 
ATOM     39  C   UNL     1      19.567  -5.569  -7.039  1.00  0.00     0.012 A 
ATOM     40  C   UNL     1      21.263  -5.022  -8.694  1.00  0.00     0.148 A 
ATOM     41  C   UNL     1      20.154  -4.681  -6.136  1.00  0.00     0.002 A 
ATOM     42  C   UNL     1      21.864  -4.167  -7.775  1.00  0.00     0.091 A 
ATOM     43  F   UNL     1      21.750  -5.177  -9.933  1.00  0.00    -0.205 F 
ATOM     44  C   UNL     1      21.306  -3.989  -6.499  1.00  0.00     0.022 A 
BRANCH  42  45
ATOM     45  S   UNL     1      23.392  -3.292  -8.135  1.00  0.00     0.127 S 
ATOM     46  O   UNL     1      22.900  -1.948  -8.434  1.00  0.00    -0.237 OA
ATOM     47  O   UNL     1      24.124  -3.405  -6.872  1.00  0.00    -0.237 OA
ATOM     48  O   UNL     1      24.002  -4.005  -9.249  1.00  0.00    -0.744 OA
ENDBRANCH  42  45
ENDBRANCH  24  38
BRANCH  25  49
ATOM     49  C   UNL     1      15.886 -12.038 -14.893  1.00  0.00     0.023 A 
ATOM     50  C   UNL     1      15.310 -13.229 -14.414  1.00  0.00     0.012 A 
ATOM     51  C   UNL     1      15.750 -11.709 -16.257  1.00  0.00     0.148 A 
ATOM     52  C   UNL     1      14.617 -14.079 -15.276  1.00  0.00     0.002 A 
ATOM     53  C   UNL     1      15.001 -12.526 -17.095  1.00  0.00     0.091 A 
ATOM     54  F   UNL     1      16.325 -10.582 -16.701  1.00  0.00    -0.205 F 
ATOM     55  C   UNL     1      14.446 -13.719 -16.611  1.00  0.00     0.022 A 
BRANCH  53  56
ATOM     56  S   UNL     1      14.592 -12.032 -18.773  1.00  0.00     0.127 S 
ATOM     57  O   UNL     1      15.553 -12.804 -19.555  1.00  0.00    -0.237 OA
ATOM     58  O   UNL     1      13.201 -12.471 -18.896  1.00  0.00    -0.237 OA
ATOM     59  O   UNL     1      14.760 -10.584 -18.797  1.00  0.00    -0.744 OA
ENDBRANCH  53  56
ENDBRANCH  25  49
BRANCH  37  60
ATOM     60  C   UNL     1      21.596 -12.314 -10.897  1.00  0.00     0.023 A 
ATOM     61  C   UNL     1      22.566 -12.454 -11.910  1.00  0.00     0.012 A 
ATOM     62  C   UNL     1      21.677 -13.115  -9.743  1.00  0.00     0.148 A 
ATOM     63  C   UNL     1      23.582 -13.399 -11.791  1.00  0.00     0.002 A 
ATOM     64  C   UNL     1      22.718 -14.026  -9.612  1.00  0.00     0.091 A 
ATOM     65  F   UNL     1      20.729 -12.986  -8.803  1.00  0.00    -0.205 F 
ATOM     66  C   UNL     1      23.665 -14.178 -10.638  1.00  0.00     0.022 A 
BRANCH  64  67
ATOM     67  S   UNL     1      22.939 -15.003  -8.121  1.00  0.00     0.127 S 
ATOM     68  O   UNL     1      22.362 -16.286  -8.516  1.00  0.00    -0.237 OA
ATOM     69  O   UNL     1      24.394 -15.012  -7.962  1.00  0.00    -0.237 OA
ATOM     70  O   UNL     1      22.228 -14.284  -7.072  1.00  0.00    -0.744 OA
ENDBRANCH  64  67
ENDBRANCH  37  60
ENDBRANCH  11  12
ENDBRANCH   4   6
ENDBRANCH   1   2
BRANCH   1  71
ATOM     71  C   UNL     1      10.214  -3.600  -8.824  1.00  0.00     0.023 C 
BRANCH  71  72
ATOM     72  C   UNL     1       8.845  -2.982  -8.619  1.00  0.00     0.023 C 
BRANCH  72  73
ATOM     73  C   UNL     1       7.684  -3.962  -8.390  1.00  0.00     0.116 C 
BRANCH  73  74
ATOM     74  N   UNL     1       7.658  -4.460  -7.028  1.00  0.00    -0.354 N 
ATOM     75  C   UNL     1       7.212  -3.917  -5.861  1.00  0.00     0.242 C 
ATOM     76  H   UNL     1       8.034  -5.364  -6.927  1.00  0.00     0.163 HD
ATOM     77  O   UNL     1       7.559  -4.523  -4.836  1.00  0.00    -0.273 OA
BRANCH  75  78
ATOM     78  C   UNL     1       6.351  -2.612  -5.722  1.00  0.00     0.176 C 
ATOM     79  C   UNL     1       7.054  -1.504  -6.526  1.00  0.00     0.036 C 
ATOM     80  N   UNL     1       4.857  -2.498  -5.818  1.00  0.00    -0.309 N 
ATOM     81  C   UNL     1       6.513  -0.107  -6.397  1.00  0.00     0.008 C 
ATOM     82  C   UNL     1       4.361  -1.073  -5.626  1.00  0.00     0.091 C 
ATOM     83  C   UNL     1       5.015  -0.128  -6.664  1.00  0.00     0.012 C 
ATOM     84  C   UNL     1       2.842  -0.809  -5.547  1.00  0.00     0.025 C 
ATOM     85  C   UNL     1       4.530   1.328  -6.660  1.00  0.00     0.006 C 
ATOM     86  C   UNL     1       2.507   0.671  -5.382  1.00  0.00     0.002 C 
ATOM     87  C   UNL     1       3.022   1.456  -6.577  1.00  0.00     0.000 C 
BRANCH  80  88
ATOM     88  C   UNL     1       3.935  -3.526  -5.955  1.00  0.00     0.321 C 
ATOM     89  O   UNL     1       2.742  -3.309  -6.184  1.00  0.00    -0.248 OA
ATOM     90  N   UNL     1       4.328  -4.852  -5.892  1.00  0.00    -0.323 N 
ATOM     91  C   UNL     1       3.419  -5.759  -6.619  1.00  0.00     0.132 C 
ATOM     92  C   UNL     1       4.797  -5.411  -4.615  1.00  0.00     0.132 C 
ATOM     93  C   UNL     1       3.989  -7.129  -6.965  1.00  0.00     0.091 C 
ATOM     94  C   UNL     1       5.561  -6.734  -4.772  1.00  0.00     0.091 C 
ATOM     95  S   UNL     1       4.507  -8.042  -5.482  1.00  0.00    -0.158 SA
ENDBRANCH  80  88
ENDBRANCH  75  78
ENDBRANCH  73  74
ENDBRANCH  72  73
ENDBRANCH  71  72
ENDBRANCH   1  71
TORSDOF 15
