REMARK SMILES CC1=Nn2c(nnc(CCC(=O)NCCCCNC(=O)c3ccc(-c4c5nc(c(-c6cccc(S(=O)(=O)[O-])c6F)c6ccc([nH]6)c(-c6cccc(S(=O)(=O)[O-])c6F)c6nc(c(-c7cccc(S(=O)(=O)[O-])c7F)c7ccc4[nH]7)C=C6)C=C5)cc3)c2=O)SC1
REMARK SMILES IDX 16 1 15 2 14 3 13 4 11 5 12 6 10 8 9 9 8 10 1 11 2 12 3 13
REMARK SMILES IDX 87 14 4 15 86 16 5 17 84 18 6 19 85 20 7 21 17 22 18 23
REMARK SMILES IDX 19 24 20 26 21 27 22 28 83 29 23 30 82 31 24 32 25 33 26 34
REMARK SMILES IDX 76 35 27 36 81 37 75 38 77 39 28 40 80 41 74 42 73 43 29 45
REMARK SMILES IDX 61 46 41 47 60 48 42 49 45 50 59 51 78 52 43 53 44 54 58 56
REMARK SMILES IDX 79 57 46 58 30 59 31 60 39 61 32 62 34 63 40 64 33 65 35 66
REMARK SMILES IDX 36 67 37 68 38 69 62 70 63 71 71 72 64 73 66 74 72 75 65 76
REMARK SMILES IDX 67 77 68 78 69 79 70 80 47 81 48 82 56 83 49 84 51 85 57 86
REMARK SMILES IDX 50 87 52 88 53 89 54 90 55 91
REMARK H PARENT 13 7 18 25 77 44 45 55
REMARK Flexibility Score: inf
ROOT
ATOM      1  C   UNL     1       2.768  -2.232  -0.231  1.00  0.00     0.023 C 
ENDROOT
BRANCH   1   2
ATOM      2  C   UNL     1       2.278  -3.630  -0.580  1.00  0.00     0.023 C 
BRANCH   2   3
ATOM      3  C   UNL     1       3.340  -4.554  -1.164  1.00  0.00     0.116 C 
BRANCH   3   4
ATOM      4  N   UNL     1       4.010  -5.287  -0.108  1.00  0.00    -0.356 N 
ATOM      5  C   UNL     1       3.719  -6.511   0.412  1.00  0.00     0.220 C 
ATOM      6  O   UNL     1       4.367  -6.914   1.378  1.00  0.00    -0.275 OA
ATOM      7  H   UNL     1       4.787  -4.834   0.292  1.00  0.00     0.163 HD
BRANCH   5   8
ATOM      8  C   UNL     1       2.619  -7.360  -0.196  1.00  0.00     0.106 C 
BRANCH   8   9
ATOM      9  C   UNL     1       1.353  -7.359   0.657  1.00  0.00     0.074 C 
BRANCH   9  10
ATOM     10  C   UNL     1       0.296  -6.401   0.144  1.00  0.00     0.131 A 
ATOM     11  C   UNL     1      -1.011  -0.660   1.138  1.00  0.00     0.064 C 
ATOM     12  C   UNL     1      -1.227  -1.980   0.434  1.00  0.00     0.046 C 
ATOM     13  N   UNL     1      -0.856  -3.055   1.061  1.00  0.00    -0.172 NA
ATOM     14  C   UNL     1      -1.691  -1.923  -0.994  1.00  0.00     0.131 C 
ATOM     15  N   UNL     1      -0.823  -4.274   0.408  1.00  0.00    -0.169 N 
ATOM     16  S   UNL     1      -2.559  -3.424  -1.437  1.00  0.00    -0.078 SA
ATOM     17  C   UNL     1      -1.387  -4.552  -0.813  1.00  0.00     0.214 A 
ATOM     18  C   UNL     1      -0.160  -5.294   1.063  1.00  0.00     0.296 A 
ATOM     19  N   UNL     1      -1.139  -5.618  -1.506  1.00  0.00    -0.123 NA
ATOM     20  O   UNL     1       0.123  -5.360   2.252  1.00  0.00    -0.265 OA
ATOM     21  N   UNL     1      -0.171  -6.528  -1.060  1.00  0.00    -0.147 NA
ENDBRANCH   9  10
ENDBRANCH   8   9
ENDBRANCH   5   8
ENDBRANCH   3   4
ENDBRANCH   2   3
ENDBRANCH   1   2
BRANCH   1  22
ATOM     22  C   UNL     1       3.168  -1.401  -1.442  1.00  0.00     0.116 C 
BRANCH  22  23
ATOM     23  N   UNL     1       2.068  -1.185  -2.377  1.00  0.00    -0.352 N 
ATOM     24  C   UNL     1       1.230  -0.114  -2.579  1.00  0.00     0.251 C 
ATOM     25  H   UNL     1       1.894  -1.948  -2.974  1.00  0.00     0.163 HD
ATOM     26  O   UNL     1       0.268  -0.245  -3.334  1.00  0.00    -0.269 OA
BRANCH  24  27
ATOM     27  C   UNL     1       1.423   1.164  -1.863  1.00  0.00     0.039 A 
ATOM     28  C   UNL     1       0.300   1.901  -1.464  1.00  0.00     0.014 A 
ATOM     29  C   UNL     1       2.697   1.663  -1.614  1.00  0.00     0.014 A 
ATOM     30  C   UNL     1       0.464   3.095  -0.757  1.00  0.00     0.010 A 
ATOM     31  C   UNL     1       2.861   2.775  -0.802  1.00  0.00     0.010 A 
ATOM     32  C   UNL     1       1.749   3.526  -0.401  1.00  0.00    -0.014 A 
BRANCH  32  33
ATOM     33  C   UNL     1       1.998   4.818   0.280  1.00  0.00     0.031 A 
ATOM     34  C   UNL     1       2.820   5.861  -0.432  1.00  0.00     0.074 A 
ATOM     35  C   UNL     1       1.593   5.011   1.549  1.00  0.00     0.049 A 
ATOM     36  N   UNL     1       3.310   6.982   0.025  1.00  0.00    -0.248 NA
ATOM     37  C   UNL     1       3.184   5.576  -1.833  1.00  0.00     0.031 C 
ATOM     38  C   UNL     1       0.846   4.048   2.358  1.00  0.00     0.029 A 
ATOM     39  N   UNL     1       1.780   6.079   2.389  1.00  0.00    -0.354 N 
ATOM     40  C   UNL     1       4.080   7.501  -1.008  1.00  0.00     0.074 A 
ATOM     41  C   UNL     1       4.045   6.548  -2.092  1.00  0.00     0.031 C 
ATOM     42  C   UNL     1       0.625   4.575   3.574  1.00  0.00     0.029 A 
ATOM     43  C   UNL     1       1.240   5.898   3.640  1.00  0.00     0.049 A 
ATOM     44  H   UNL     1       2.257   6.898   2.122  1.00  0.00     0.167 HD
ATOM     45  C   UNL     1       4.716   8.693  -1.074  1.00  0.00     0.034 A 
ATOM     46  C   UNL     1       1.243   6.713   4.714  1.00  0.00     0.034 A 
ATOM     47  C   UNL     1       4.660   9.677  -0.033  1.00  0.00     0.049 A 
ATOM     48  C   UNL     1       1.920   8.054   4.605  1.00  0.00     0.074 A 
ATOM     49  C   UNL     1       5.171  10.960  -0.035  1.00  0.00     0.029 A 
ATOM     50  N   UNL     1       4.036   9.490   1.191  1.00  0.00    -0.354 N 
ATOM     51  N   UNL     1       2.531   8.588   3.574  1.00  0.00    -0.248 NA
ATOM     52  C   UNL     1       1.891   8.915   5.796  1.00  0.00     0.031 C 
ATOM     53  C   UNL     1       4.857  11.550   1.193  1.00  0.00     0.029 A 
ATOM     54  C   UNL     1       4.148  10.634   1.956  1.00  0.00     0.049 A 
ATOM     55  H   UNL     1       3.580   8.664   1.473  1.00  0.00     0.167 HD
ATOM     56  C   UNL     1       2.937   9.853   3.982  1.00  0.00     0.074 A 
ATOM     57  C   UNL     1       2.484  10.015   5.348  1.00  0.00     0.031 C 
ATOM     58  C   UNL     1       3.640  10.789   3.296  1.00  0.00     0.034 A 
BRANCH  45  59
ATOM     59  C   UNL     1       5.436   9.026  -2.354  1.00  0.00     0.023 A 
ATOM     60  C   UNL     1       4.683   9.302  -3.514  1.00  0.00     0.012 A 
ATOM     61  C   UNL     1       6.841   9.092  -2.411  1.00  0.00     0.148 A 
ATOM     62  C   UNL     1       5.314   9.591  -4.722  1.00  0.00     0.002 A 
ATOM     63  C   UNL     1       7.464   9.426  -3.609  1.00  0.00     0.091 A 
ATOM     64  F   UNL     1       7.543   8.804  -1.305  1.00  0.00    -0.205 F 
ATOM     65  C   UNL     1       6.703   9.662  -4.767  1.00  0.00     0.022 A 
BRANCH  63  66
ATOM     66  S   UNL     1       9.244   9.614  -3.757  1.00  0.00     0.127 S 
ATOM     67  O   UNL     1       9.604   8.416  -4.514  1.00  0.00    -0.237 OA
ATOM     68  O   UNL     1       9.361  10.866  -4.505  1.00  0.00    -0.237 OA
ATOM     69  O   UNL     1       9.754   9.672  -2.394  1.00  0.00    -0.744 OA
ENDBRANCH  63  66
ENDBRANCH  45  59
BRANCH  46  70
ATOM     70  C   UNL     1       0.492   6.322   5.941  1.00  0.00     0.023 A 
ATOM     71  C   UNL     1      -0.712   6.991   6.238  1.00  0.00     0.012 A 
ATOM     72  C   UNL     1       0.913   5.266   6.772  1.00  0.00     0.148 A 
ATOM     73  C   UNL     1      -1.474   6.629   7.349  1.00  0.00     0.002 A 
ATOM     74  C   UNL     1       0.124   4.879   7.851  1.00  0.00     0.091 A 
ATOM     75  F   UNL     1       2.064   4.646   6.476  1.00  0.00    -0.205 F 
ATOM     76  C   UNL     1      -1.063   5.567   8.149  1.00  0.00     0.022 A 
BRANCH  74  77
ATOM     77  S   UNL     1       0.503   3.446   8.867  1.00  0.00     0.127 S 
ATOM     78  O   UNL     1       0.810   4.064  10.154  1.00  0.00    -0.237 OA
ATOM     79  O   UNL     1      -0.759   2.707   8.823  1.00  0.00    -0.237 OA
ATOM     80  O   UNL     1       1.617   2.779   8.207  1.00  0.00    -0.744 OA
ENDBRANCH  74  77
ENDBRANCH  46  70
BRANCH  58  81
ATOM     81  C   UNL     1       3.974  12.079   3.995  1.00  0.00     0.023 A 
ATOM     82  C   UNL     1       5.019  12.094   4.939  1.00  0.00     0.012 A 
ATOM     83  C   UNL     1       3.371  13.290   3.603  1.00  0.00     0.148 A 
ATOM     84  C   UNL     1       5.457  13.298   5.487  1.00  0.00     0.002 A 
ATOM     85  C   UNL     1       3.845  14.490   4.118  1.00  0.00     0.091 A 
ATOM     86  F   UNL     1       2.371  13.245   2.711  1.00  0.00    -0.205 F 
ATOM     87  C   UNL     1       4.883  14.495   5.064  1.00  0.00     0.022 A 
BRANCH  85  88
ATOM     88  S   UNL     1       3.246  16.087   3.554  1.00  0.00     0.127 S 
ATOM     89  O   UNL     1       2.547  16.578   4.741  1.00  0.00    -0.237 OA
ATOM     90  O   UNL     1       4.491  16.791   3.244  1.00  0.00    -0.237 OA
ATOM     91  O   UNL     1       2.398  15.817   2.401  1.00  0.00    -0.744 OA
ENDBRANCH  85  88
ENDBRANCH  58  81
ENDBRANCH  32  33
ENDBRANCH  24  27
ENDBRANCH  22  23
ENDBRANCH   1  22
TORSDOF 16
