REMARK SMILES CC(C)Nc1ncc(C(=O)N2CCC[C@H](c3cccc(C(=O)NCCCCNC(=O)c4ccc(-c5c6nc(c(-c7cccc(S(=O)(=O)[O-])c7F)c7ccc([nH]7)c(-c7cccc(S(=O)(=O)[O-])c7F)c7nc(c(-c8cccc(S(=O)(=O)[O-])c8F)c8ccc5[nH]8)C=C7)C=C6)cc4)c3)C2)cn1
REMARK SMILES IDX 24 1 23 2 21 3 22 4 20 6 16 7 17 8 94 9 18 10 19 11 15 12
REMARK SMILES IDX 11 13 12 14 95 15 13 16 14 17 9 18 10 19 8 20 5 21 6 22
REMARK SMILES IDX 97 23 7 24 96 25 4 26 2 28 1 29 3 30 25 31 26 32 27 33 28 34
REMARK SMILES IDX 29 35 30 37 31 38 32 39 93 40 33 41 92 42 34 43 35 44 36 45
REMARK SMILES IDX 86 46 37 47 91 48 85 49 87 50 38 51 90 52 84 53 83 54 39 56
REMARK SMILES IDX 71 57 51 58 70 59 52 60 55 61 69 62 88 63 53 64 54 65 68 67
REMARK SMILES IDX 89 68 56 69 40 70 41 71 49 72 42 73 44 74 50 75 43 76 45 77
REMARK SMILES IDX 46 78 47 79 48 80 72 81 73 82 81 83 74 84 76 85 82 86 75 87
REMARK SMILES IDX 77 88 78 89 79 90 80 91 57 92 58 93 66 94 59 95 61 96 67 97
REMARK SMILES IDX 60 98 62 99 63 100 64 101 65 102
REMARK H PARENT 23 5 4 27 28 36 87 55 55 66
REMARK Flexibility Score: inf
ROOT
ATOM      1  C   UNL     1      -6.233  -7.072  -8.628  1.00  0.00     0.116 C 
ENDROOT
BRANCH   1   2
ATOM      2  N   UNL     1      -5.459  -8.303  -8.571  1.00  0.00    -0.352 N 
ATOM      3  C   UNL     1      -4.542  -8.753  -7.642  1.00  0.00     0.251 C 
ATOM      4  O   UNL     1      -4.009  -9.848  -7.801  1.00  0.00    -0.269 OA
ATOM      5  H   UNL     1      -5.616  -8.920  -9.322  1.00  0.00     0.163 HD
BRANCH   3   6
ATOM      6  C   UNL     1      -4.133  -7.912  -6.486  1.00  0.00     0.040 A 
ATOM      7  C   UNL     1      -4.617  -6.082  -4.930  1.00  0.00    -0.042 A 
ATOM      8  C   UNL     1      -3.256  -6.073  -4.584  1.00  0.00     0.004 A 
ATOM      9  C   UNL     1      -5.040  -7.088  -5.815  1.00  0.00     0.018 A 
ATOM     10  C   UNL     1      -2.363  -7.006  -5.128  1.00  0.00     0.001 A 
ATOM     11  C   UNL     1      -2.794  -7.906  -6.100  1.00  0.00     0.014 A 
BRANCH   7  12
ATOM     12  C   UNL     1      -5.582  -4.950  -4.551  1.00  0.00     0.039 C 
ATOM     13  N   UNL     1      -5.480  -4.928  -2.062  1.00  0.00    -0.338 N 
ATOM     14  C   UNL     1      -6.815  -5.509  -1.929  1.00  0.00     0.120 C 
ATOM     15  C   UNL     1      -5.225  -4.148  -3.279  1.00  0.00     0.128 C 
ATOM     16  C   UNL     1      -7.274  -6.239  -3.184  1.00  0.00     0.022 C 
ATOM     17  C   UNL     1      -7.064  -5.371  -4.422  1.00  0.00     0.012 C 
BRANCH  13  18
ATOM     18  C   UNL     1      -4.553  -5.141  -1.051  1.00  0.00     0.257 C 
ATOM     19  O   UNL     1      -4.589  -6.099  -0.283  1.00  0.00    -0.269 OA
BRANCH  18  20
ATOM     20  C   UNL     1      -3.539  -4.114  -0.791  1.00  0.00     0.076 A 
ATOM     21  C   UNL     1      -1.758  -2.214  -0.004  1.00  0.00     0.222 A 
ATOM     22  N   UNL     1      -2.998  -1.821  -0.332  1.00  0.00    -0.221 NA
ATOM     23  N   UNL     1      -1.343  -3.490  -0.048  1.00  0.00    -0.221 NA
ATOM     24  C   UNL     1      -3.865  -2.781  -0.714  1.00  0.00     0.130 A 
ATOM     25  C   UNL     1      -2.255  -4.423  -0.417  1.00  0.00     0.130 A 
BRANCH  21  26
ATOM     26  N   UNL     1      -0.929  -1.211   0.401  1.00  0.00    -0.352 N 
ATOM     27  H   UNL     1      -1.329  -0.332   0.590  1.00  0.00     0.163 HD
BRANCH  26  28
ATOM     28  C   UNL     1       0.495  -1.355   0.570  1.00  0.00     0.076 C 
ATOM     29  C   UNL     1       1.170  -0.153  -0.090  1.00  0.00     0.030 C 
ATOM     30  C   UNL     1       0.840  -1.411   2.055  1.00  0.00     0.030 C 
ENDBRANCH  26  28
ENDBRANCH  21  26
ENDBRANCH  18  20
ENDBRANCH  13  18
ENDBRANCH   7  12
ENDBRANCH   3   6
ENDBRANCH   1   2
BRANCH   1  31
ATOM     31  C   UNL     1      -6.205  -6.349  -9.966  1.00  0.00     0.023 C 
BRANCH  31  32
ATOM     32  C   UNL     1      -6.790  -7.097 -11.154  1.00  0.00     0.023 C 
BRANCH  32  33
ATOM     33  C   UNL     1      -8.165  -7.719 -10.945  1.00  0.00     0.116 C 
BRANCH  33  34
ATOM     34  N   UNL     1      -9.196  -6.772 -10.539  1.00  0.00    -0.352 N 
ATOM     35  C   UNL     1     -10.465  -6.599 -11.052  1.00  0.00     0.251 C 
ATOM     36  H   UNL     1      -8.954  -6.173  -9.795  1.00  0.00     0.163 HD
ATOM     37  O   UNL     1     -11.195  -5.716 -10.620  1.00  0.00    -0.269 OA
BRANCH  35  38
ATOM     38  C   UNL     1     -10.912  -7.461 -12.168  1.00  0.00     0.039 A 
ATOM     39  C   UNL     1     -11.380  -6.861 -13.340  1.00  0.00     0.014 A 
ATOM     40  C   UNL     1     -10.773  -8.848 -12.089  1.00  0.00     0.014 A 
ATOM     41  C   UNL     1     -11.603  -7.646 -14.474  1.00  0.00     0.010 A 
ATOM     42  C   UNL     1     -10.917  -9.614 -13.241  1.00  0.00     0.010 A 
ATOM     43  C   UNL     1     -11.315  -9.020 -14.449  1.00  0.00    -0.014 A 
BRANCH  43  44
ATOM     44  C   UNL     1     -11.366  -9.855 -15.678  1.00  0.00     0.031 A 
ATOM     45  C   UNL     1     -12.295 -11.036 -15.749  1.00  0.00     0.074 A 
ATOM     46  C   UNL     1     -10.476  -9.638 -16.668  1.00  0.00     0.049 A 
ATOM     47  N   UNL     1     -12.387 -11.957 -16.672  1.00  0.00    -0.248 NA
ATOM     48  C   UNL     1     -13.213 -11.227 -14.614  1.00  0.00     0.031 C 
ATOM     49  C   UNL     1      -9.455  -8.587 -16.675  1.00  0.00     0.029 A 
ATOM     50  N   UNL     1     -10.258 -10.317 -17.842  1.00  0.00    -0.354 N 
ATOM     51  C   UNL     1     -13.330 -12.864 -16.207  1.00  0.00     0.074 A 
ATOM     52  C   UNL     1     -13.765 -12.396 -14.909  1.00  0.00     0.031 C 
ATOM     53  C   UNL     1      -8.718  -8.695 -17.792  1.00  0.00     0.029 A 
ATOM     54  C   UNL     1      -9.192  -9.836 -18.568  1.00  0.00     0.049 A 
ATOM     55  H   UNL     1     -10.812 -11.076 -18.136  1.00  0.00     0.167 HD
ATOM     56  C   UNL     1     -13.814 -13.973 -16.816  1.00  0.00     0.034 A 
ATOM     57  C   UNL     1      -8.651 -10.270 -19.724  1.00  0.00     0.034 A 
ATOM     58  C   UNL     1     -13.435 -14.396 -18.136  1.00  0.00     0.049 A 
ATOM     59  C   UNL     1      -9.267 -11.450 -20.424  1.00  0.00     0.074 A 
ATOM     60  C   UNL     1     -13.953 -15.434 -18.889  1.00  0.00     0.029 A 
ATOM     61  N   UNL     1     -12.445 -13.801 -18.903  1.00  0.00    -0.354 N 
ATOM     62  N   UNL     1     -10.282 -12.191 -20.049  1.00  0.00    -0.248 NA
ATOM     63  C   UNL     1      -8.693 -11.832 -21.723  1.00  0.00     0.031 C 
ATOM     64  C   UNL     1     -13.273 -15.470 -20.110  1.00  0.00     0.029 A 
ATOM     65  C   UNL     1     -12.336 -14.449 -20.121  1.00  0.00     0.049 A 
ATOM     66  H   UNL     1     -11.900 -13.030 -18.623  1.00  0.00     0.167 HD
ATOM     67  C   UNL     1     -10.489 -13.103 -21.078  1.00  0.00     0.074 A 
ATOM     68  C   UNL     1      -9.506 -12.810 -22.101  1.00  0.00     0.031 C 
ATOM     69  C   UNL     1     -11.399 -14.104 -21.158  1.00  0.00     0.034 A 
BRANCH  56  70
ATOM     70  C   UNL     1     -14.863 -14.767 -16.086  1.00  0.00     0.023 A 
ATOM     71  C   UNL     1     -16.169 -14.246 -15.973  1.00  0.00     0.012 A 
ATOM     72  C   UNL     1     -14.578 -16.039 -15.556  1.00  0.00     0.148 A 
ATOM     73  C   UNL     1     -17.165 -14.963 -15.313  1.00  0.00     0.002 A 
ATOM     74  C   UNL     1     -15.587 -16.766 -14.934  1.00  0.00     0.091 A 
ATOM     75  F   UNL     1     -13.325 -16.507 -15.648  1.00  0.00    -0.205 F 
ATOM     76  C   UNL     1     -16.877 -16.226 -14.803  1.00  0.00     0.022 A 
BRANCH  74  77
ATOM     77  S   UNL     1     -15.328 -18.432 -14.313  1.00  0.00     0.127 S 
ATOM     78  O   UNL     1     -15.214 -18.197 -12.875  1.00  0.00    -0.237 OA
ATOM     79  O   UNL     1     -16.557 -19.113 -14.723  1.00  0.00    -0.237 OA
ATOM     80  O   UNL     1     -14.123 -18.917 -14.972  1.00  0.00    -0.744 OA
ENDBRANCH  74  77
ENDBRANCH  56  70
BRANCH  57  81
ATOM     81  C   UNL     1      -7.511  -9.526 -20.332  1.00  0.00     0.023 A 
ATOM     82  C   UNL     1      -7.738  -8.745 -21.482  1.00  0.00     0.012 A 
ATOM     83  C   UNL     1      -6.225  -9.545 -19.758  1.00  0.00     0.148 A 
ATOM     84  C   UNL     1      -6.701  -8.017 -22.065  1.00  0.00     0.002 A 
ATOM     85  C   UNL     1      -5.208  -8.777 -20.315  1.00  0.00     0.091 A 
ATOM     86  F   UNL     1      -6.025 -10.304 -18.672  1.00  0.00    -0.205 F 
ATOM     87  C   UNL     1      -5.440  -8.024 -21.476  1.00  0.00     0.022 A 
BRANCH  85  88
ATOM     88  S   UNL     1      -3.592  -8.620 -19.544  1.00  0.00     0.127 S 
ATOM     89  O   UNL     1      -2.760  -9.434 -20.425  1.00  0.00    -0.237 OA
ATOM     90  O   UNL     1      -3.352  -7.178 -19.629  1.00  0.00    -0.237 OA
ATOM     91  O   UNL     1      -3.760  -9.117 -18.185  1.00  0.00    -0.744 OA
ENDBRANCH  85  88
ENDBRANCH  57  81
BRANCH  69  92
ATOM     92  C   UNL     1     -11.409 -14.945 -22.407  1.00  0.00     0.023 A 
ATOM     93  C   UNL     1     -10.405 -15.914 -22.600  1.00  0.00     0.012 A 
ATOM     94  C   UNL     1     -12.460 -14.840 -23.338  1.00  0.00     0.148 A 
ATOM     95  C   UNL     1     -10.437 -16.754 -23.713  1.00  0.00     0.002 A 
ATOM     96  C   UNL     1     -12.508 -15.708 -24.422  1.00  0.00     0.091 A 
ATOM     97  F   UNL     1     -13.393 -13.896 -23.147  1.00  0.00    -0.205 F 
ATOM     98  C   UNL     1     -11.494 -16.660 -24.616  1.00  0.00     0.022 A 
BRANCH  96  99
ATOM     99  S   UNL     1     -13.882 -15.715 -25.580  1.00  0.00     0.127 S 
ATOM    100  O   UNL     1     -13.307 -15.023 -26.731  1.00  0.00    -0.237 OA
ATOM    101  O   UNL     1     -14.115 -17.146 -25.784  1.00  0.00    -0.237 OA
ATOM    102  O   UNL     1     -14.972 -15.020 -24.907  1.00  0.00    -0.744 OA
ENDBRANCH  96  99
ENDBRANCH  69  92
ENDBRANCH  43  44
ENDBRANCH  35  38
ENDBRANCH  33  34
ENDBRANCH  32  33
ENDBRANCH  31  32
ENDBRANCH   1  31
TORSDOF 19
