REMARK SMILES O=C(NCCCCNC(=O)[C@@H](Cc1ccc(O)cc1)Nc1c2ccccc2nc2ccccc12)c1ccc(-c2c3nc(c(-c4cccc(S(=O)(=O)[O-])c4F)c4ccc([nH]4)c(-c4cccc(S(=O)(=O)[O-])c4F)c4nc(c(-c5cccc(S(=O)(=O)[O-])c5F)c5ccc2[nH]5)C=C4)C=C3)cc1
REMARK SMILES IDX 5 1 4 2 3 3 1 4 2 5 35 7 36 8 97 9 37 10 96 11 38 12 39 13
REMARK SMILES IDX 40 14 90 15 41 16 95 17 89 18 91 19 42 20 94 21 88 22 87 23
REMARK SMILES IDX 43 25 75 26 55 27 74 28 56 29 59 30 73 31 92 32 57 33 58 34
REMARK SMILES IDX 72 36 93 37 60 38 44 39 45 40 53 41 46 42 48 43 54 44 47 45
REMARK SMILES IDX 49 46 50 47 51 48 52 49 76 50 77 51 85 52 78 53 80 54 86 55
REMARK SMILES IDX 79 56 81 57 82 58 83 59 84 60 61 61 62 62 70 63 63 64 65 65
REMARK SMILES IDX 71 66 64 67 66 68 67 69 68 70 69 71 6 72 7 73 8 74 9 75
REMARK SMILES IDX 10 77 11 78 12 79 13 80 14 81 19 82 15 83 18 84 16 85 17 86
REMARK SMILES IDX 20 88 21 90 22 91 34 92 23 93 27 94 29 95 33 96 24 97 26 98
REMARK SMILES IDX 28 99 30 100 32 101 25 102 31 103
REMARK H PARENT 3 6 91 24 59 35 8 76 17 87 20 89
REMARK Flexibility Score: inf
ROOT
ATOM      1  C   UNL     1       5.742  -0.508  -2.010  1.00  0.00     0.023 C 
ENDROOT
BRANCH   1   2
ATOM      2  C   UNL     1       5.031   0.022  -0.775  1.00  0.00     0.116 C 
BRANCH   2   3
ATOM      3  N   UNL     1       3.580   0.145  -0.903  1.00  0.00    -0.352 N 
ATOM      4  O   UNL     1       1.435   0.103  -0.174  1.00  0.00    -0.269 OA
ATOM      5  C   UNL     1       2.630  -0.007   0.085  1.00  0.00     0.251 C 
ATOM      6  H   UNL     1       3.241   0.362  -1.801  1.00  0.00     0.163 HD
BRANCH   5   7
ATOM      7  C   UNL     1       3.099  -0.361   1.441  1.00  0.00     0.039 A 
ATOM      8  C   UNL     1       4.137   0.375   2.011  1.00  0.00     0.014 A 
ATOM      9  C   UNL     1       2.635  -1.527   2.053  1.00  0.00     0.014 A 
ATOM     10  C   UNL     1       4.860  -0.180   3.055  1.00  0.00     0.010 A 
ATOM     11  C   UNL     1       3.291  -2.016   3.188  1.00  0.00     0.010 A 
ATOM     12  C   UNL     1       4.450  -1.383   3.660  1.00  0.00    -0.014 A 
BRANCH  12  13
ATOM     13  C   UNL     1       5.257  -1.914   4.793  1.00  0.00     0.031 A 
ATOM     14  C   UNL     1       5.932  -3.260   4.732  1.00  0.00     0.074 A 
ATOM     15  C   UNL     1       5.446  -1.116   5.864  1.00  0.00     0.049 A 
ATOM     16  N   UNL     1       6.736  -3.811   5.607  1.00  0.00    -0.248 NA
ATOM     17  C   UNL     1       5.672  -4.103   3.554  1.00  0.00     0.031 C 
ATOM     18  C   UNL     1       4.807   0.189   6.055  1.00  0.00     0.029 A 
ATOM     19  N   UNL     1       6.249  -1.256   6.966  1.00  0.00    -0.354 N 
ATOM     20  C   UNL     1       7.036  -5.077   5.115  1.00  0.00     0.074 A 
ATOM     21  C   UNL     1       6.329  -5.215   3.860  1.00  0.00     0.031 C 
ATOM     22  C   UNL     1       5.301   0.764   7.158  1.00  0.00     0.029 A 
ATOM     23  C   UNL     1       6.236  -0.157   7.793  1.00  0.00     0.049 A 
ATOM     24  H   UNL     1       6.782  -2.063   7.147  1.00  0.00     0.167 HD
ATOM     25  C   UNL     1       7.838  -6.028   5.652  1.00  0.00     0.034 A 
ATOM     26  C   UNL     1       6.899   0.090   8.939  1.00  0.00     0.034 A 
ATOM     27  C   UNL     1       8.585  -5.864   6.873  1.00  0.00     0.049 A 
ATOM     28  C   UNL     1       7.845  -0.948   9.463  1.00  0.00     0.074 A 
ATOM     29  C   UNL     1       9.438  -6.764   7.488  1.00  0.00     0.029 A 
ATOM     30  N   UNL     1       8.582  -4.720   7.656  1.00  0.00    -0.354 N 
ATOM     31  N   UNL     1       8.168  -2.105   8.938  1.00  0.00    -0.248 NA
ATOM     32  C   UNL     1       8.528  -0.645  10.727  1.00  0.00     0.031 C 
ATOM     33  C   UNL     1       9.955  -6.161   8.641  1.00  0.00     0.029 A 
ATOM     34  C   UNL     1       9.426  -4.885   8.742  1.00  0.00     0.049 A 
ATOM     35  H   UNL     1       8.057  -3.908   7.468  1.00  0.00     0.167 HD
ATOM     36  C   UNL     1       9.087  -2.672   9.809  1.00  0.00     0.074 A 
ATOM     37  C   UNL     1       9.309  -1.708  10.868  1.00  0.00     0.031 C 
ATOM     38  C   UNL     1       9.665  -3.897   9.761  1.00  0.00     0.034 A 
BRANCH  25  39
ATOM     39  C   UNL     1       8.003  -7.323   4.899  1.00  0.00     0.023 A 
ATOM     40  C   UNL     1       8.848  -7.361   3.771  1.00  0.00     0.012 A 
ATOM     41  C   UNL     1       7.401  -8.514   5.351  1.00  0.00     0.148 A 
ATOM     42  C   UNL     1       9.079  -8.560   3.096  1.00  0.00     0.002 A 
ATOM     43  C   UNL     1       7.662  -9.712   4.692  1.00  0.00     0.091 A 
ATOM     44  F   UNL     1       6.582  -8.455   6.411  1.00  0.00    -0.205 F 
ATOM     45  C   UNL     1       8.495  -9.735   3.563  1.00  0.00     0.022 A 
BRANCH  43  46
ATOM     46  S   UNL     1       7.012 -11.288   5.261  1.00  0.00     0.127 S 
ATOM     47  O   UNL     1       5.946 -11.535   4.291  1.00  0.00    -0.237 OA
ATOM     48  O   UNL     1       8.172 -12.171   5.129  1.00  0.00    -0.237 OA
ATOM     49  O   UNL     1       6.576 -11.066   6.633  1.00  0.00    -0.744 OA
ENDBRANCH  43  46
ENDBRANCH  25  39
BRANCH  26  50
ATOM     50  C   UNL     1       6.717   1.402   9.620  1.00  0.00     0.023 A 
ATOM     51  C   UNL     1       7.775   2.329   9.640  1.00  0.00     0.012 A 
ATOM     52  C   UNL     1       5.472   1.772  10.164  1.00  0.00     0.148 A 
ATOM     53  C   UNL     1       7.598   3.597  10.198  1.00  0.00     0.002 A 
ATOM     54  C   UNL     1       5.282   3.060  10.651  1.00  0.00     0.091 A 
ATOM     55  F   UNL     1       4.478   0.872  10.163  1.00  0.00    -0.205 F 
ATOM     56  C   UNL     1       6.347   3.969  10.685  1.00  0.00     0.022 A 
BRANCH  54  57
ATOM     57  S   UNL     1       3.641   3.635  11.100  1.00  0.00     0.127 S 
ATOM     58  O   UNL     1       3.572   3.287  12.515  1.00  0.00    -0.237 OA
ATOM     59  O   UNL     1       3.717   5.070  10.821  1.00  0.00    -0.237 OA
ATOM     60  O   UNL     1       2.745   2.909  10.207  1.00  0.00    -0.744 OA
ENDBRANCH  54  57
ENDBRANCH  26  50
BRANCH  38  61
ATOM     61  C   UNL     1      10.580  -4.263  10.896  1.00  0.00     0.023 A 
ATOM     62  C   UNL     1      10.019  -4.617  12.140  1.00  0.00     0.012 A 
ATOM     63  C   UNL     1      11.976  -4.298  10.729  1.00  0.00     0.148 A 
ATOM     64  C   UNL     1      10.837  -4.970  13.211  1.00  0.00     0.002 A 
ATOM     65  C   UNL     1      12.784  -4.686  11.792  1.00  0.00     0.091 A 
ATOM     66  F   UNL     1      12.492  -3.932   9.547  1.00  0.00    -0.205 F 
ATOM     67  C   UNL     1      12.218  -5.014  13.035  1.00  0.00     0.022 A 
BRANCH  65  68
ATOM     68  S   UNL     1      14.566  -4.833  11.618  1.00  0.00     0.127 S 
ATOM     69  O   UNL     1      15.025  -3.549  12.144  1.00  0.00    -0.237 OA
ATOM     70  O   UNL     1      14.875  -5.985  12.466  1.00  0.00    -0.237 OA
ATOM     71  O   UNL     1      14.800  -5.058  10.198  1.00  0.00    -0.744 OA
ENDBRANCH  65  68
ENDBRANCH  38  61
ENDBRANCH  12  13
ENDBRANCH   5   7
ENDBRANCH   2   3
ENDBRANCH   1   2
BRANCH   1  72
ATOM     72  C   UNL     1       5.426   0.252  -3.286  1.00  0.00     0.023 C 
BRANCH  72  73
ATOM     73  C   UNL     1       5.861   1.712  -3.325  1.00  0.00     0.116 C 
BRANCH  73  74
ATOM     74  N   UNL     1       7.113   1.847  -4.030  1.00  0.00    -0.354 N 
ATOM     75  C   UNL     1       7.387   2.002  -5.353  1.00  0.00     0.242 C 
ATOM     76  H   UNL     1       7.909   1.823  -3.451  1.00  0.00     0.163 HD
ATOM     77  O   UNL     1       8.569   1.824  -5.679  1.00  0.00    -0.273 OA
BRANCH  75  78
ATOM     78  C   UNL     1       6.341   2.383  -6.437  1.00  0.00     0.173 C 
BRANCH  78  79
ATOM     79  C   UNL     1       5.395   1.235  -6.885  1.00  0.00     0.070 C 
BRANCH  79  80
ATOM     80  C   UNL     1       4.122   0.844  -6.159  1.00  0.00    -0.045 A 
ATOM     81  C   UNL     1       3.183   1.768  -5.677  1.00  0.00     0.007 A 
ATOM     82  C   UNL     1       3.816  -0.526  -6.034  1.00  0.00     0.007 A 
ATOM     83  C   UNL     1       2.058   1.343  -4.955  1.00  0.00     0.046 A 
ATOM     84  C   UNL     1       2.681  -0.954  -5.339  1.00  0.00     0.046 A 
ATOM     85  C   UNL     1       1.833  -0.015  -4.770  1.00  0.00     0.115 A 
BRANCH  85  86
ATOM     86  O   UNL     1       0.791  -0.474  -4.024  1.00  0.00    -0.508 OA
ATOM     87  H   UNL     1       0.198   0.132  -3.624  1.00  0.00     0.293 HD
ENDBRANCH  85  86
ENDBRANCH  79  80
ENDBRANCH  78  79
BRANCH  78  88
ATOM     88  N   UNL     1       5.659   3.650  -6.142  1.00  0.00    -0.372 N 
ATOM     89  H   UNL     1       5.025   3.631  -5.389  1.00  0.00     0.161 HD
BRANCH  88  90
ATOM     90  C   UNL     1       5.795   4.885  -6.796  1.00  0.00     0.054 A 
ATOM     91  C   UNL     1       5.959   5.039  -8.217  1.00  0.00     0.024 A 
ATOM     92  C   UNL     1       5.758   6.073  -5.981  1.00  0.00     0.024 A 
ATOM     93  C   UNL     1       5.995   4.007  -9.197  1.00  0.00     0.012 A 
ATOM     94  C   UNL     1       6.053   6.357  -8.716  1.00  0.00     0.073 A 
ATOM     95  C   UNL     1       5.826   7.319  -6.636  1.00  0.00     0.073 A 
ATOM     96  C   UNL     1       5.670   6.098  -4.560  1.00  0.00     0.012 A 
ATOM     97  C   UNL     1       6.182   4.251 -10.560  1.00  0.00     0.001 A 
ATOM     98  C   UNL     1       6.223   6.587 -10.076  1.00  0.00     0.029 A 
ATOM     99  N   UNL     1       5.971   7.447  -7.954  1.00  0.00    -0.248 NA
ATOM    100  C   UNL     1       5.747   8.496  -5.904  1.00  0.00     0.029 A 
ATOM    101  C   UNL     1       5.604   7.293  -3.839  1.00  0.00     0.001 A 
ATOM    102  C   UNL     1       6.302   5.552 -11.003  1.00  0.00     0.002 A 
ATOM    103  C   UNL     1       5.630   8.499  -4.517  1.00  0.00     0.002 A 
ENDBRANCH  88  90
ENDBRANCH  78  88
ENDBRANCH  75  78
ENDBRANCH  73  74
ENDBRANCH  72  73
ENDBRANCH   1  72
TORSDOF 19
