REMARK SMILES Cc1ccc(C(=O)N2CCCC[C@@H]2C(=O)NCCCCNC(=O)c2ccc(-c3c4nc(c(-c5cccc(S(=O)(=O)[O-])c5F)c5ccc([nH]5)c(-c5cccc(S(=O)(=O)[O-])c5F)c5nc(c(-c6cccc(S(=O)(=O)[O-])c6F)c6ccc3[nH]6)C=C5)C=C4)cc2)cc1S(=O)(=O)N1CCCCC1
REMARK SMILES IDX 18 1 17 2 16 3 14 4 15 5 13 7 8 8 9 9 10 10 12 11 11 12 6 13
REMARK SMILES IDX 7 14 5 15 1 16 2 17 3 18 88 19 4 20 87 21 89 22 90 23 91 24
REMARK SMILES IDX 92 25 93 26 97 27 94 28 96 29 95 30 19 31 20 32 21 33 22 34
REMARK SMILES IDX 23 36 24 37 25 38 86 39 26 40 85 41 27 42 28 43 29 44 79 45
REMARK SMILES IDX 30 46 84 47 78 48 80 49 31 50 83 51 77 52 76 53 32 55 64 56
REMARK SMILES IDX 44 57 63 58 45 59 48 60 62 61 81 62 46 63 47 64 61 66 82 67
REMARK SMILES IDX 49 68 33 69 34 70 42 71 35 72 37 73 43 74 36 75 38 76 39 77
REMARK SMILES IDX 40 78 41 79 65 80 66 81 74 82 67 83 69 84 75 85 68 86 70 87
REMARK SMILES IDX 71 88 72 89 73 90 50 91 51 92 59 93 52 94 54 95 60 96 53 97
REMARK SMILES IDX 55 98 56 99 57 100 58 101
REMARK H PARENT 16 6 21 35 80 54 48 65
REMARK Flexibility Score: inf
ROOT
ATOM      1  C   UNL     1      -6.021  -0.024  -3.631  1.00  0.00     0.023 C 
ENDROOT
BRANCH   1   2
ATOM      2  C   UNL     1      -5.033  -0.274  -2.481  1.00  0.00     0.116 C 
BRANCH   2   3
ATOM      3  N   UNL     1      -3.716   0.266  -2.778  1.00  0.00    -0.354 N 
ATOM      4  C   UNL     1      -3.107   1.403  -2.339  1.00  0.00     0.242 C 
ATOM      5  O   UNL     1      -2.112   1.791  -2.959  1.00  0.00    -0.273 OA
ATOM      6  H   UNL     1      -3.177  -0.278  -3.396  1.00  0.00     0.163 HD
BRANCH   4   7
ATOM      7  C   UNL     1      -3.696   2.255  -1.189  1.00  0.00     0.174 C 
ATOM      8  N   UNL     1      -4.084   1.465   0.007  1.00  0.00    -0.327 N 
ATOM      9  C   UNL     1      -4.980   2.104   0.961  1.00  0.00     0.120 C 
ATOM     10  C   UNL     1      -6.208   2.696   0.305  1.00  0.00     0.022 C 
ATOM     11  C   UNL     1      -4.880   3.052  -1.783  1.00  0.00     0.035 C 
ATOM     12  C   UNL     1      -5.791   3.704  -0.754  1.00  0.00     0.004 C 
BRANCH   8  13
ATOM     13  C   UNL     1      -3.396   0.358   0.520  1.00  0.00     0.254 C 
ATOM     14  O   UNL     1      -3.937  -0.433   1.292  1.00  0.00    -0.269 OA
BRANCH  13  15
ATOM     15  C   UNL     1      -1.966   0.126   0.214  1.00  0.00     0.041 A 
ATOM     16  C   UNL     1       2.214  -0.873  -0.088  1.00  0.00     0.046 C 
ATOM     17  C   UNL     1       0.811  -0.365  -0.025  1.00  0.00    -0.031 A 
ATOM     18  C   UNL     1      -0.144  -1.414  -0.038  1.00  0.00     0.005 A 
ATOM     19  C   UNL     1       0.346   0.958   0.082  1.00  0.00     0.086 A 
ATOM     20  C   UNL     1      -1.510  -1.178   0.079  1.00  0.00     0.014 A 
ATOM     21  C   UNL     1      -1.044   1.174   0.236  1.00  0.00     0.035 A 
BRANCH  19  22
ATOM     22  S   UNL     1       1.234   2.525   0.083  1.00  0.00     0.243 S 
ATOM     23  O   UNL     1       0.860   3.188  -1.157  1.00  0.00    -0.207 OA
ATOM     24  O   UNL     1       0.917   3.145   1.351  1.00  0.00    -0.207 OA
BRANCH  22  25
ATOM     25  N   UNL     1       2.915   2.330   0.044  1.00  0.00    -0.198 NA
ATOM     26  C   UNL     1       3.550   1.947   1.320  1.00  0.00     0.102 C 
ATOM     27  C   UNL     1       3.510   2.001  -1.269  1.00  0.00     0.102 C 
ATOM     28  C   UNL     1       5.053   1.738   1.233  1.00  0.00     0.017 C 
ATOM     29  C   UNL     1       5.011   1.751  -1.238  1.00  0.00     0.017 C 
ATOM     30  C   UNL     1       5.475   0.984  -0.013  1.00  0.00     0.003 C 
ENDBRANCH  22  25
ENDBRANCH  19  22
ENDBRANCH  13  15
ENDBRANCH   8  13
ENDBRANCH   4   7
ENDBRANCH   2   3
ENDBRANCH   1   2
BRANCH   1  31
ATOM     31  C   UNL     1      -5.545  -0.496  -5.001  1.00  0.00     0.023 C 
BRANCH  31  32
ATOM     32  C   UNL     1      -5.348  -1.994  -5.091  1.00  0.00     0.116 C 
BRANCH  32  33
ATOM     33  N   UNL     1      -6.574  -2.712  -5.361  1.00  0.00    -0.352 N 
ATOM     34  C   UNL     1      -6.746  -4.017  -5.785  1.00  0.00     0.251 C 
ATOM     35  H   UNL     1      -7.403  -2.200  -5.224  1.00  0.00     0.163 HD
ATOM     36  O   UNL     1      -7.828  -4.327  -6.274  1.00  0.00    -0.269 OA
BRANCH  34  37
ATOM     37  C   UNL     1      -5.721  -5.048  -5.462  1.00  0.00     0.039 A 
ATOM     38  C   UNL     1      -6.220  -6.268  -4.991  1.00  0.00     0.014 A 
ATOM     39  C   UNL     1      -4.393  -4.710  -5.224  1.00  0.00     0.014 A 
ATOM     40  C   UNL     1      -5.534  -6.940  -3.991  1.00  0.00     0.010 A 
ATOM     41  C   UNL     1      -3.756  -5.304  -4.168  1.00  0.00     0.010 A 
ATOM     42  C   UNL     1      -4.389  -6.344  -3.490  1.00  0.00    -0.014 A 
BRANCH  42  43
ATOM     43  C   UNL     1      -3.700  -6.746  -2.288  1.00  0.00     0.031 A 
ATOM     44  C   UNL     1      -2.699  -7.809  -2.404  1.00  0.00     0.074 A 
ATOM     45  C   UNL     1      -3.811  -5.932  -1.218  1.00  0.00     0.049 A 
ATOM     46  N   UNL     1      -2.091  -8.342  -1.409  1.00  0.00    -0.248 NA
ATOM     47  C   UNL     1      -2.327  -8.382  -3.694  1.00  0.00     0.031 C 
ATOM     48  C   UNL     1      -2.873  -5.741  -0.121  1.00  0.00     0.029 A 
ATOM     49  N   UNL     1      -4.863  -5.111  -0.859  1.00  0.00    -0.354 N 
ATOM     50  C   UNL     1      -1.048  -9.081  -1.925  1.00  0.00     0.074 A 
ATOM     51  C   UNL     1      -1.331  -9.193  -3.332  1.00  0.00     0.031 C 
ATOM     52  C   UNL     1      -3.489  -5.068   0.872  1.00  0.00     0.029 A 
ATOM     53  C   UNL     1      -4.901  -5.002   0.530  1.00  0.00     0.049 A 
ATOM     54  H   UNL     1      -5.486  -4.674  -1.483  1.00  0.00     0.167 HD
ATOM     55  C   UNL     1       0.009  -9.338  -1.107  1.00  0.00     0.034 A 
ATOM     56  C   UNL     1      -5.891  -5.621   1.254  1.00  0.00     0.034 A 
ATOM     57  C   UNL     1      -0.326  -8.933   0.274  1.00  0.00     0.049 A 
ATOM     58  C   UNL     1      -5.376  -6.774   2.112  1.00  0.00     0.074 A 
ATOM     59  C   UNL     1      -0.043  -7.798   1.017  1.00  0.00     0.029 A 
ATOM     60  N   UNL     1      -1.373  -9.576   0.933  1.00  0.00    -0.354 N 
ATOM     61  N   UNL     1      -4.181  -7.293   2.019  1.00  0.00    -0.248 NA
ATOM     62  C   UNL     1      -6.173  -7.426   3.148  1.00  0.00     0.031 C 
ATOM     63  C   UNL     1      -1.013  -7.705   2.058  1.00  0.00     0.029 A 
ATOM     64  C   UNL     1      -1.855  -8.803   1.982  1.00  0.00     0.049 A 
ATOM     65  H   UNL     1      -1.725 -10.462   0.687  1.00  0.00     0.167 HD
ATOM     66  C   UNL     1      -4.077  -8.392   2.828  1.00  0.00     0.074 A 
ATOM     67  C   UNL     1      -5.322  -8.373   3.582  1.00  0.00     0.031 C 
ATOM     68  C   UNL     1      -3.009  -9.253   2.766  1.00  0.00     0.034 A 
BRANCH  55  69
ATOM     69  C   UNL     1       1.427  -9.674  -1.559  1.00  0.00     0.023 A 
ATOM     70  C   UNL     1       2.441  -9.581  -0.578  1.00  0.00     0.012 A 
ATOM     71  C   UNL     1       1.876  -9.988  -2.868  1.00  0.00     0.148 A 
ATOM     72  C   UNL     1       3.801  -9.729  -0.877  1.00  0.00     0.002 A 
ATOM     73  C   UNL     1       3.235 -10.132  -3.172  1.00  0.00     0.091 A 
ATOM     74  F   UNL     1       1.006 -10.167  -3.857  1.00  0.00    -0.205 F 
ATOM     75  C   UNL     1       4.202  -9.994  -2.177  1.00  0.00     0.022 A 
BRANCH  73  76
ATOM     76  S   UNL     1       3.835 -10.468  -4.842  1.00  0.00     0.127 S 
ATOM     77  O   UNL     1       4.712  -9.321  -5.087  1.00  0.00    -0.237 OA
ATOM     78  O   UNL     1       4.534 -11.741  -4.672  1.00  0.00    -0.237 OA
ATOM     79  O   UNL     1       2.662 -10.522  -5.706  1.00  0.00    -0.744 OA
ENDBRANCH  73  76
ENDBRANCH  55  69
BRANCH  56  80
ATOM     80  C   UNL     1      -7.208  -5.616   0.531  1.00  0.00     0.023 A 
ATOM     81  C   UNL     1      -7.739  -4.347   0.190  1.00  0.00     0.012 A 
ATOM     82  C   UNL     1      -7.645  -6.745  -0.185  1.00  0.00     0.148 A 
ATOM     83  C   UNL     1      -8.497  -4.181  -0.972  1.00  0.00     0.002 A 
ATOM     84  C   UNL     1      -8.417  -6.572  -1.333  1.00  0.00     0.091 A 
ATOM     85  F   UNL     1      -7.258  -7.960   0.224  1.00  0.00    -0.205 F 
ATOM     86  C   UNL     1      -8.788  -5.287  -1.763  1.00  0.00     0.022 A 
BRANCH  84  87
ATOM     87  S   UNL     1      -8.861  -7.979  -2.363  1.00  0.00     0.127 S 
ATOM     88  O   UNL     1     -10.119  -8.404  -1.758  1.00  0.00    -0.237 OA
ATOM     89  O   UNL     1      -8.996  -7.384  -3.692  1.00  0.00    -0.237 OA
ATOM     90  O   UNL     1      -7.740  -8.900  -2.236  1.00  0.00    -0.744 OA
ENDBRANCH  84  87
ENDBRANCH  56  80
BRANCH  68  91
ATOM     91  C   UNL     1      -2.955 -10.617   3.443  1.00  0.00     0.023 A 
ATOM     92  C   UNL     1      -4.112 -11.289   3.884  1.00  0.00     0.012 A 
ATOM     93  C   UNL     1      -1.736 -11.339   3.544  1.00  0.00     0.148 A 
ATOM     94  C   UNL     1      -4.060 -12.552   4.483  1.00  0.00     0.002 A 
ATOM     95  C   UNL     1      -1.709 -12.650   4.012  1.00  0.00     0.091 A 
ATOM     96  F   UNL     1      -0.578 -10.752   3.209  1.00  0.00    -0.205 F 
ATOM     97  C   UNL     1      -2.860 -13.244   4.528  1.00  0.00     0.022 A 
BRANCH  95  98
ATOM     98  S   UNL     1      -0.247 -13.681   3.823  1.00  0.00     0.127 S 
ATOM     99  O   UNL     1       0.362 -13.588   5.148  1.00  0.00    -0.237 OA
ATOM    100  O   UNL     1      -0.827 -14.989   3.509  1.00  0.00    -0.237 OA
ATOM    101  O   UNL     1       0.505 -13.086   2.727  1.00  0.00    -0.744 OA
ENDBRANCH  95  98
ENDBRANCH  68  91
ENDBRANCH  42  43
ENDBRANCH  34  37
ENDBRANCH  32  33
ENDBRANCH  31  32
ENDBRANCH   1  31
TORSDOF 18
