REMARK SMILES CC[C@@H](Oc1ccc(Cl)c(Cl)c1)C(=O)NCCCCNC(=O)c1ccc(-c2c3nc(c(-c4cccc(S(=O)(=O)[O-])c4F)c4ccc([nH]4)c(-c4cccc(S(=O)(=O)[O-])c4F)c4nc(c(-c5cccc(S(=O)(=O)[O-])c5F)c5ccc2[nH]5)C=C4)C=C3)cc1
REMARK SMILES IDX 18 1 17 2 16 3 15 4 13 5 14 6 3 8 2 9 1 10 4 11 5 12 6 13
REMARK SMILES IDX 12 14 7 15 10 16 8 17 11 18 9 19 19 20 20 21 21 22 22 24
REMARK SMILES IDX 23 25 24 26 85 27 25 28 84 29 26 30 27 31 28 32 78 33 29 34
REMARK SMILES IDX 83 35 77 36 79 37 30 38 82 39 76 40 75 41 31 43 63 44 43 45
REMARK SMILES IDX 62 46 44 47 47 48 61 49 80 50 45 51 46 52 60 54 81 55 48 56
REMARK SMILES IDX 32 57 33 58 41 59 34 60 36 61 42 62 35 63 37 64 38 65 39 66
REMARK SMILES IDX 40 67 64 68 65 69 73 70 66 71 68 72 74 73 67 74 69 75 70 76
REMARK SMILES IDX 71 77 72 78 49 79 50 80 58 81 51 82 53 83 59 84 52 85 54 86
REMARK SMILES IDX 55 87 56 88 57 89
REMARK H PARENT 15 7 20 23 79 42 47 53
REMARK Flexibility Score: inf
ROOT
ATOM      1  C   UNL     1      -3.565   4.013   1.115  1.00  0.00     0.023 C 
ENDROOT
BRANCH   1   2
ATOM      2  C   UNL     1      -2.768   2.782   0.690  1.00  0.00     0.023 C 
BRANCH   2   3
ATOM      3  C   UNL     1      -2.007   2.938  -0.622  1.00  0.00     0.116 C 
BRANCH   3   4
ATOM      4  N   UNL     1      -0.863   3.825  -0.498  1.00  0.00    -0.353 N 
ATOM      5  C   UNL     1       0.471   3.541  -0.634  1.00  0.00     0.261 C 
ATOM      6  O   UNL     1       1.282   4.465  -0.539  1.00  0.00    -0.271 OA
ATOM      7  H   UNL     1      -1.076   4.762  -0.287  1.00  0.00     0.163 HD
BRANCH   5   8
ATOM      8  C   UNL     1       0.946   2.091  -0.837  1.00  0.00     0.261 C 
BRANCH   8   9
ATOM      9  C   UNL     1       0.686   1.304   0.462  1.00  0.00     0.052 C 
ATOM     10  C   UNL     1       1.783   0.295   0.784  1.00  0.00     0.008 C 
ENDBRANCH   8   9
BRANCH   8  11
ATOM     11  O   UNL     1       0.223   1.599  -1.980  1.00  0.00    -0.481 OA
BRANCH  11  12
ATOM     12  C   UNL     1       0.735   0.479  -2.555  1.00  0.00     0.122 A 
ATOM     13  C   UNL     1       0.337  -0.775  -2.097  1.00  0.00     0.048 A 
ATOM     14  C   UNL     1       1.515   0.602  -3.700  1.00  0.00     0.068 A 
ATOM     15  C   UNL     1       0.802  -1.924  -2.732  1.00  0.00     0.026 A 
ATOM     16  C   UNL     1       1.960  -0.549  -4.356  1.00  0.00     0.063 A 
ATOM     17  C   UNL     1       1.618  -1.815  -3.861  1.00  0.00     0.059 A 
ATOM     18  Cl  UNL     1       2.911  -0.346  -5.785  1.00  0.00    -0.083 Cl
ATOM     19  Cl  UNL     1       2.155  -3.280  -4.602  1.00  0.00    -0.083 Cl
ENDBRANCH  11  12
ENDBRANCH   8  11
ENDBRANCH   5   8
ENDBRANCH   3   4
ENDBRANCH   2   3
ENDBRANCH   1   2
BRANCH   1  20
ATOM     20  C   UNL     1      -4.551   4.543   0.078  1.00  0.00     0.116 C 
BRANCH  20  21
ATOM     21  N   UNL     1      -5.504   3.539  -0.377  1.00  0.00    -0.352 N 
ATOM     22  C   UNL     1      -6.859   3.660  -0.573  1.00  0.00     0.251 C 
ATOM     23  H   UNL     1      -5.125   2.651  -0.570  1.00  0.00     0.163 HD
ATOM     24  O   UNL     1      -7.529   2.668  -0.850  1.00  0.00    -0.269 OA
BRANCH  22  25
ATOM     25  C   UNL     1      -7.510   4.979  -0.416  1.00  0.00     0.039 A 
ATOM     26  C   UNL     1      -8.680   5.066   0.343  1.00  0.00     0.014 A 
ATOM     27  C   UNL     1      -6.954   6.127  -0.986  1.00  0.00     0.014 A 
ATOM     28  C   UNL     1      -9.249   6.317   0.592  1.00  0.00     0.010 A 
ATOM     29  C   UNL     1      -7.479   7.378  -0.672  1.00  0.00     0.010 A 
ATOM     30  C   UNL     1      -8.630   7.487   0.122  1.00  0.00    -0.014 A 
BRANCH  30  31
ATOM     31  C   UNL     1      -9.154   8.830   0.485  1.00  0.00     0.031 A 
ATOM     32  C   UNL     1      -9.645   9.774  -0.580  1.00  0.00     0.074 A 
ATOM     33  C   UNL     1      -9.112   9.231   1.772  1.00  0.00     0.049 A 
ATOM     34  N   UNL     1     -10.105  10.992  -0.450  1.00  0.00    -0.248 NA
ATOM     35  C   UNL     1      -9.591   9.301  -1.973  1.00  0.00     0.031 C 
ATOM     36  C   UNL     1      -8.577   8.444   2.886  1.00  0.00     0.029 A 
ATOM     37  N   UNL     1      -9.503  10.409   2.359  1.00  0.00    -0.354 N 
ATOM     38  C   UNL     1     -10.367  11.440  -1.739  1.00  0.00     0.074 A 
ATOM     39  C   UNL     1      -9.981  10.377  -2.641  1.00  0.00     0.031 C 
ATOM     40  C   UNL     1      -8.680   9.157   4.019  1.00  0.00     0.029 A 
ATOM     41  C   UNL     1      -9.259  10.460   3.712  1.00  0.00     0.049 A 
ATOM     42  H   UNL     1      -9.918  11.148   1.858  1.00  0.00     0.167 HD
ATOM     43  C   UNL     1     -10.909  12.616  -2.137  1.00  0.00     0.034 A 
ATOM     44  C   UNL     1      -9.472  11.447   4.605  1.00  0.00     0.034 A 
ATOM     45  C   UNL     1     -11.328  13.657  -1.236  1.00  0.00     0.049 A 
ATOM     46  C   UNL     1     -10.110  12.728   4.139  1.00  0.00     0.074 A 
ATOM     47  C   UNL     1     -11.966  14.848  -1.536  1.00  0.00     0.029 A 
ATOM     48  N   UNL     1     -11.143  13.638   0.137  1.00  0.00    -0.354 N 
ATOM     49  N   UNL     1     -10.506  13.064   2.936  1.00  0.00    -0.248 NA
ATOM     50  C   UNL     1     -10.367  13.752   5.163  1.00  0.00     0.031 C 
ATOM     51  C   UNL     1     -12.145  15.561  -0.346  1.00  0.00     0.029 A 
ATOM     52  C   UNL     1     -11.646  14.800   0.699  1.00  0.00     0.049 A 
ATOM     53  H   UNL     1     -10.718  12.906   0.640  1.00  0.00     0.167 HD
ATOM     54  C   UNL     1     -11.089  14.319   3.063  1.00  0.00     0.074 A 
ATOM     55  C   UNL     1     -11.020  14.671   4.466  1.00  0.00     0.031 C 
ATOM     56  C   UNL     1     -11.618  15.117   2.103  1.00  0.00     0.034 A 
BRANCH  43  57
ATOM     57  C   UNL     1     -11.139  12.822  -3.612  1.00  0.00     0.023 A 
ATOM     58  C   UNL     1     -12.159  12.098  -4.262  1.00  0.00     0.012 A 
ATOM     59  C   UNL     1     -10.403  13.780  -4.336  1.00  0.00     0.148 A 
ATOM     60  C   UNL     1     -12.424  12.301  -5.616  1.00  0.00     0.002 A 
ATOM     61  C   UNL     1     -10.703  14.010  -5.674  1.00  0.00     0.091 A 
ATOM     62  F   UNL     1      -9.424  14.445  -3.706  1.00  0.00    -0.205 F 
ATOM     63  C   UNL     1     -11.705  13.264  -6.317  1.00  0.00     0.022 A 
BRANCH  61  64
ATOM     64  S   UNL     1      -9.892  15.283  -6.648  1.00  0.00     0.127 S 
ATOM     65  O   UNL     1      -9.121  14.481  -7.597  1.00  0.00    -0.237 OA
ATOM     66  O   UNL     1     -11.029  15.993  -7.232  1.00  0.00    -0.237 OA
ATOM     67  O   UNL     1      -9.101  16.066  -5.709  1.00  0.00    -0.744 OA
ENDBRANCH  61  64
ENDBRANCH  43  57
BRANCH  44  68
ATOM     68  C   UNL     1      -9.133  11.244   6.042  1.00  0.00     0.023 A 
ATOM     69  C   UNL     1     -10.168  11.150   6.993  1.00  0.00     0.012 A 
ATOM     70  C   UNL     1      -7.796  11.134   6.472  1.00  0.00     0.148 A 
ATOM     71  C   UNL     1      -9.879  10.992   8.348  1.00  0.00     0.002 A 
ATOM     72  C   UNL     1      -7.516  10.918   7.816  1.00  0.00     0.091 A 
ATOM     73  F   UNL     1      -6.823  11.238   5.555  1.00  0.00    -0.205 F 
ATOM     74  C   UNL     1      -8.554  10.867   8.759  1.00  0.00     0.022 A 
BRANCH  72  75
ATOM     75  S   UNL     1      -5.850  10.610   8.412  1.00  0.00     0.127 S 
ATOM     76  O   UNL     1      -5.544  11.859   9.105  1.00  0.00    -0.237 OA
ATOM     77  O   UNL     1      -6.049   9.452   9.285  1.00  0.00    -0.237 OA
ATOM     78  O   UNL     1      -5.056  10.332   7.223  1.00  0.00    -0.744 OA
ENDBRANCH  72  75
ENDBRANCH  44  68
BRANCH  56  79
ATOM     79  C   UNL     1     -12.198  16.439   2.537  1.00  0.00     0.023 A 
ATOM     80  C   UNL     1     -11.343  17.477   2.958  1.00  0.00     0.012 A 
ATOM     81  C   UNL     1     -13.586  16.671   2.471  1.00  0.00     0.148 A 
ATOM     82  C   UNL     1     -11.864  18.711   3.345  1.00  0.00     0.002 A 
ATOM     83  C   UNL     1     -14.093  17.920   2.809  1.00  0.00     0.091 A 
ATOM     84  F   UNL     1     -14.386  15.665   2.085  1.00  0.00    -0.205 F 
ATOM     85  C   UNL     1     -13.236  18.936   3.260  1.00  0.00     0.022 A 
BRANCH  83  86
ATOM     86  S   UNL     1     -15.834  18.330   2.638  1.00  0.00     0.127 S 
ATOM     87  O   UNL     1     -16.270  18.365   4.032  1.00  0.00    -0.237 OA
ATOM     88  O   UNL     1     -15.781  19.638   1.982  1.00  0.00    -0.237 OA
ATOM     89  O   UNL     1     -16.417  17.271   1.825  1.00  0.00    -0.744 OA
ENDBRANCH  83  86
ENDBRANCH  56  79
ENDBRANCH  30  31
ENDBRANCH  22  25
ENDBRANCH  20  21
ENDBRANCH   1  20
TORSDOF 17
