REMARK SMILES COc1ccc(C(=O)C2=C(NCCCCNC(=O)c3ccc(-c4c5nc(c(-c6cccc(S(=O)(=O)[O-])c6F)c6ccc([nH]6)c(-c6cccc(S(=O)(=O)[O-])c6F)c6nc(c(-c7cccc(S(=O)(=O)[O-])c7F)c7ccc4[nH]7)C=C6)C=C5)cc3)C(=O)N(CC(=O)[O-])[C@H]2c2ccccc2)cc1
REMARK SMILES IDX 13 1 12 2 11 3 10 5 9 6 89 7 82 8 84 9 83 10 7 11 8 12 6 13
REMARK SMILES IDX 3 14 4 15 97 16 5 17 96 18 2 19 1 20 90 21 91 22 95 23 92 24
REMARK SMILES IDX 94 25 93 26 85 27 86 28 87 29 88 30 14 31 15 32 16 33 17 34
REMARK SMILES IDX 18 36 19 37 20 38 81 39 21 40 80 41 22 42 23 43 24 44 74 45
REMARK SMILES IDX 25 46 79 47 73 48 75 49 26 50 78 51 72 52 71 53 27 55 59 56
REMARK SMILES IDX 39 57 58 58 40 59 43 60 57 61 76 62 41 63 42 64 56 66 77 67
REMARK SMILES IDX 44 68 28 69 29 70 37 71 30 72 32 73 38 74 31 75 33 76 34 77
REMARK SMILES IDX 35 78 36 79 60 80 61 81 69 82 62 83 64 84 70 85 63 86 65 87
REMARK SMILES IDX 66 88 67 89 68 90 45 91 46 92 54 93 47 94 49 95 55 96 48 97
REMARK SMILES IDX 50 98 51 99 52 100 53 101
REMARK H PARENT 11 4 16 35 75 54 43 65
REMARK Flexibility Score: inf
ROOT
ATOM      1  C   UNL     1       0.787   0.870   7.684  1.00  0.00     0.023 C 
ENDROOT
BRANCH   1   2
ATOM      2  C   UNL     1       1.320   2.300   7.733  1.00  0.00     0.113 C 
BRANCH   2   3
ATOM      3  N   UNL     1       2.763   2.294   7.756  1.00  0.00    -0.380 N 
ATOM      4  H   UNL     1       3.166   1.837   8.530  1.00  0.00     0.160 HD
BRANCH   3   5
ATOM      5  C   UNL     1       3.659   2.826   6.866  1.00  0.00     0.110 C 
ATOM      6  C   UNL     1       3.599   3.462   5.689  1.00  0.00     0.056 C 
ATOM      7  C   UNL     1       4.926   3.915   5.155  1.00  0.00     0.153 C 
ATOM      8  C   UNL     1       5.124   2.802   7.200  1.00  0.00     0.271 C 
ATOM      9  N   UNL     1       5.802   3.460   6.205  1.00  0.00    -0.320 N 
ATOM     10  O   UNL     1       5.598   2.284   8.199  1.00  0.00    -0.267 OA
BRANCH   6  11
ATOM     11  C   UNL     1       2.351   3.883   5.035  1.00  0.00     0.193 C 
ATOM     12  O   UNL     1       1.883   4.990   5.289  1.00  0.00    -0.289 OA
BRANCH  11  13
ATOM     13  C   UNL     1       1.699   3.003   4.020  1.00  0.00     0.023 A 
ATOM     14  C   UNL     1       0.546   1.581   1.875  1.00  0.00     0.118 A 
ATOM     15  C   UNL     1      -0.072   2.726   2.378  1.00  0.00     0.047 A 
ATOM     16  C   UNL     1       1.698   1.106   2.498  1.00  0.00     0.047 A 
ATOM     17  C   UNL     1       0.504   3.440   3.435  1.00  0.00     0.016 A 
ATOM     18  C   UNL     1       2.252   1.797   3.584  1.00  0.00     0.016 A 
BRANCH  14  19
ATOM     19  O   UNL     1      -0.066   1.021   0.788  1.00  0.00    -0.497 OA
ATOM     20  C   UNL     1       0.650  -0.007   0.114  1.00  0.00     0.278 C 
ENDBRANCH  14  19
ENDBRANCH  11  13
ENDBRANCH   6  11
BRANCH   7  21
ATOM     21  C   UNL     1       5.284   3.295   3.812  1.00  0.00    -0.021 A 
ATOM     22  C   UNL     1       5.704   1.953   3.708  1.00  0.00     0.006 A 
ATOM     23  C   UNL     1       5.152   4.046   2.635  1.00  0.00     0.006 A 
ATOM     24  C   UNL     1       5.963   1.377   2.465  1.00  0.00     0.000 A 
ATOM     25  C   UNL     1       5.423   3.468   1.392  1.00  0.00     0.000 A 
ATOM     26  C   UNL     1       5.822   2.135   1.307  1.00  0.00     0.000 A 
ENDBRANCH   7  21
BRANCH   9  27
ATOM     27  C   UNL     1       7.242   3.678   6.225  1.00  0.00     0.173 C 
BRANCH  27  28
ATOM     28  C   UNL     1       7.714   4.791   7.146  1.00  0.00     0.061 C 
ATOM     29  O   UNL     1       8.885   5.059   7.377  1.00  0.00    -0.548 OA
ATOM     30  O   UNL     1       6.734   5.552   7.671  1.00  0.00    -0.548 OA
ENDBRANCH  27  28
ENDBRANCH   9  27
ENDBRANCH   3   5
ENDBRANCH   2   3
ENDBRANCH   1   2
BRANCH   1  31
ATOM     31  C   UNL     1       1.021   0.049   8.956  1.00  0.00     0.023 C 
BRANCH  31  32
ATOM     32  C   UNL     1       0.487   0.666  10.246  1.00  0.00     0.116 C 
BRANCH  32  33
ATOM     33  N   UNL     1      -0.931   0.983  10.181  1.00  0.00    -0.352 N 
ATOM     34  C   UNL     1      -1.925   0.757  11.101  1.00  0.00     0.251 C 
ATOM     35  H   UNL     1      -1.222   1.427   9.352  1.00  0.00     0.163 HD
ATOM     36  O   UNL     1      -3.092   0.992  10.797  1.00  0.00    -0.269 OA
BRANCH  34  37
ATOM     37  C   UNL     1      -1.606   0.211  12.440  1.00  0.00     0.039 A 
ATOM     38  C   UNL     1      -2.442  -0.772  12.977  1.00  0.00     0.014 A 
ATOM     39  C   UNL     1      -0.508   0.669  13.174  1.00  0.00     0.014 A 
ATOM     40  C   UNL     1      -2.146  -1.332  14.222  1.00  0.00     0.010 A 
ATOM     41  C   UNL     1      -0.172   0.056  14.380  1.00  0.00     0.010 A 
ATOM     42  C   UNL     1      -0.992  -0.944  14.923  1.00  0.00    -0.014 A 
BRANCH  42  43
ATOM     43  C   UNL     1      -0.633  -1.589  16.212  1.00  0.00     0.031 A 
ATOM     44  C   UNL     1      -0.588  -0.791  17.488  1.00  0.00     0.074 A 
ATOM     45  C   UNL     1      -0.285  -2.892  16.225  1.00  0.00     0.049 A 
ATOM     46  N   UNL     1      -0.336  -1.198  18.706  1.00  0.00    -0.248 NA
ATOM     47  C   UNL     1      -0.830   0.657  17.381  1.00  0.00     0.031 C 
ATOM     48  C   UNL     1      -0.197  -3.754  15.045  1.00  0.00     0.029 A 
ATOM     49  N   UNL     1       0.068  -3.716  17.264  1.00  0.00    -0.354 N 
ATOM     50  C   UNL     1      -0.352  -0.058  19.501  1.00  0.00     0.074 A 
ATOM     51  C   UNL     1      -0.603   1.063  18.622  1.00  0.00     0.031 C 
ATOM     52  C   UNL     1       0.156  -4.991  15.429  1.00  0.00     0.029 A 
ATOM     53  C   UNL     1       0.340  -5.007  16.877  1.00  0.00     0.049 A 
ATOM     54  H   UNL     1       0.122  -3.411  18.199  1.00  0.00     0.167 HD
ATOM     55  C   UNL     1      -0.203   0.046  20.843  1.00  0.00     0.034 A 
ATOM     56  C   UNL     1       0.681  -6.087  17.607  1.00  0.00     0.034 A 
ATOM     57  C   UNL     1      -0.002  -1.077  21.720  1.00  0.00     0.049 A 
ATOM     58  C   UNL     1       0.774  -5.958  19.103  1.00  0.00     0.074 A 
ATOM     59  C   UNL     1       0.052  -1.093  23.103  1.00  0.00     0.029 A 
ATOM     60  N   UNL     1       0.189  -2.384  21.299  1.00  0.00    -0.354 N 
ATOM     61  N   UNL     1       0.567  -4.905  19.857  1.00  0.00    -0.248 NA
ATOM     62  C   UNL     1       1.105  -7.178  19.853  1.00  0.00     0.031 C 
ATOM     63  C   UNL     1       0.298  -2.407  23.517  1.00  0.00     0.029 A 
ATOM     64  C   UNL     1       0.372  -3.214  22.393  1.00  0.00     0.049 A 
ATOM     65  H   UNL     1       0.193  -2.680  20.360  1.00  0.00     0.167 HD
ATOM     66  C   UNL     1       0.699  -5.344  21.169  1.00  0.00     0.074 A 
ATOM     67  C   UNL     1       0.986  -6.763  21.107  1.00  0.00     0.031 C 
ATOM     68  C   UNL     1       0.604  -4.634  22.321  1.00  0.00     0.034 A 
BRANCH  55  69
ATOM     69  C   UNL     1      -0.304   1.421  21.453  1.00  0.00     0.023 A 
ATOM     70  C   UNL     1      -1.553   2.076  21.492  1.00  0.00     0.012 A 
ATOM     71  C   UNL     1       0.819   2.048  22.026  1.00  0.00     0.148 A 
ATOM     72  C   UNL     1      -1.674   3.348  22.050  1.00  0.00     0.002 A 
ATOM     73  C   UNL     1       0.682   3.297  22.623  1.00  0.00     0.091 A 
ATOM     74  F   UNL     1       2.004   1.424  21.962  1.00  0.00    -0.205 F 
ATOM     75  C   UNL     1      -0.559   3.954  22.624  1.00  0.00     0.022 A 
BRANCH  73  76
ATOM     76  S   UNL     1       2.042   4.120  23.461  1.00  0.00     0.127 S 
ATOM     77  O   UNL     1       2.402   5.155  22.494  1.00  0.00    -0.237 OA
ATOM     78  O   UNL     1       1.400   4.620  24.678  1.00  0.00    -0.237 OA
ATOM     79  O   UNL     1       3.048   3.092  23.689  1.00  0.00    -0.744 OA
ENDBRANCH  73  76
ENDBRANCH  55  69
BRANCH  56  80
ATOM     80  C   UNL     1       0.846  -7.411  16.943  1.00  0.00     0.023 A 
ATOM     81  C   UNL     1      -0.127  -8.409  17.155  1.00  0.00     0.012 A 
ATOM     82  C   UNL     1       1.928  -7.679  16.083  1.00  0.00     0.148 A 
ATOM     83  C   UNL     1      -0.009  -9.659  16.550  1.00  0.00     0.002 A 
ATOM     84  C   UNL     1       2.012  -8.910  15.441  1.00  0.00     0.091 A 
ATOM     85  F   UNL     1       2.847  -6.721  15.901  1.00  0.00    -0.205 F 
ATOM     86  C   UNL     1       1.054  -9.907  15.686  1.00  0.00     0.022 A 
BRANCH  84  87
ATOM     87  S   UNL     1       3.272  -9.276  14.215  1.00  0.00     0.127 S 
ATOM     88  O   UNL     1       4.094 -10.260  14.915  1.00  0.00    -0.237 OA
ATOM     89  O   UNL     1       2.474  -9.813  13.112  1.00  0.00    -0.237 OA
ATOM     90  O   UNL     1       3.919  -8.004  13.924  1.00  0.00    -0.744 OA
ENDBRANCH  84  87
ENDBRANCH  56  80
BRANCH  68  91
ATOM     91  C   UNL     1       0.773  -5.386  23.617  1.00  0.00     0.023 A 
ATOM     92  C   UNL     1       2.045  -5.862  23.992  1.00  0.00     0.012 A 
ATOM     93  C   UNL     1      -0.318  -5.573  24.488  1.00  0.00     0.148 A 
ATOM     94  C   UNL     1       2.220  -6.550  25.193  1.00  0.00     0.002 A 
ATOM     95  C   UNL     1      -0.126  -6.215  25.706  1.00  0.00     0.091 A 
ATOM     96  F   UNL     1      -1.526  -5.133  24.107  1.00  0.00    -0.205 F 
ATOM     97  C   UNL     1       1.138  -6.716  26.054  1.00  0.00     0.022 A 
BRANCH  95  98
ATOM     98  S   UNL     1      -1.446  -6.381  26.914  1.00  0.00     0.127 S 
ATOM     99  O   UNL     1      -1.848  -7.774  26.728  1.00  0.00    -0.237 OA
ATOM    100  O   UNL     1      -0.753  -6.110  28.175  1.00  0.00    -0.237 OA
ATOM    101  O   UNL     1      -2.442  -5.383  26.552  1.00  0.00    -0.744 OA
ENDBRANCH  95  98
ENDBRANCH  68  91
ENDBRANCH  42  43
ENDBRANCH  34  37
ENDBRANCH  32  33
ENDBRANCH  31  32
ENDBRANCH   1  31
TORSDOF 20
