REMARK SMILES COc1cccc(N2/C(=[NH+]/C(=O)CCC(=O)NCCCCNC(=O)c3ccc(-c4c5nc(c(-c6cccc(S(=O)(=O)[O-])c6F)c6ccc([nH]6)c(-c6cccc(S(=O)(=O)[O-])c6F)c6nc(c(-c7cccc(S(=O)(=O)[O-])c7F)c7ccc4[nH]7)C=C6)C=C5)cc3)S[C@@H]3CS(=O)(=O)C[C@H]32)c1
REMARK SMILES IDX 19 1 18 2 17 3 15 4 16 5 14 7 13 8 11 9 8 10 9 11 95 12
REMARK SMILES IDX 10 13 88 14 89 15 94 16 90 18 91 19 12 20 92 21 93 22 7 23
REMARK SMILES IDX 3 24 4 25 96 26 5 27 6 28 2 29 1 30 20 31 21 32 22 33 23 34
REMARK SMILES IDX 24 36 25 37 26 38 87 39 27 40 86 41 28 42 29 43 30 44 80 45
REMARK SMILES IDX 31 46 85 47 79 48 81 49 32 50 84 51 78 52 77 53 33 55 65 56
REMARK SMILES IDX 45 57 64 58 46 59 49 60 63 61 82 62 47 63 48 64 62 66 83 67
REMARK SMILES IDX 50 68 34 69 35 70 43 71 36 72 38 73 44 74 37 75 39 76 40 77
REMARK SMILES IDX 41 78 42 79 66 80 67 81 75 82 68 83 70 84 76 85 69 86 71 87
REMARK SMILES IDX 72 88 73 89 74 90 51 91 52 92 60 93 53 94 55 95 61 96 54 97
REMARK SMILES IDX 56 98 57 99 58 100 59 101
REMARK H PARENT 17 6 10 17 22 35 81 54 49 65
REMARK Flexibility Score: inf
ROOT
ATOM      1  C   UNL     1       5.945   1.069   1.217  1.00  0.00     0.023 C 
ENDROOT
BRANCH   1   2
ATOM      2  C   UNL     1       5.809  -0.047   0.178  1.00  0.00     0.116 C 
BRANCH   2   3
ATOM      3  N   UNL     1       4.733   0.172  -0.777  1.00  0.00    -0.356 N 
ATOM      4  C   UNL     1       4.636   1.013  -1.841  1.00  0.00     0.220 C 
ATOM      5  O   UNL     1       3.590   1.008  -2.490  1.00  0.00    -0.275 OA
ATOM      6  H   UNL     1       3.936  -0.386  -0.626  1.00  0.00     0.163 HD
BRANCH   4   7
ATOM      7  C   UNL     1       5.800   1.889  -2.236  1.00  0.00     0.112 C 
BRANCH   7   8
ATOM      8  C   UNL     1       5.359   3.343  -2.374  1.00  0.00     0.138 C 
BRANCH   8   9
ATOM      9  C   UNL     1       5.706   4.133  -1.132  1.00  0.00     0.308 C 
ATOM     10  N   UNL     1       3.767   5.075   1.862  1.00  0.00    -0.216 N 
ATOM     11  C   UNL     1       4.785   4.740   0.942  1.00  0.00     0.319 C 
ATOM     12  C   UNL     1       4.273   5.252   3.245  1.00  0.00     0.212 C 
ATOM     13  N   UNL     1       4.642   4.378  -0.293  1.00  0.00    -0.204 N 
ATOM     14  S   UNL     1       6.380   4.845   1.781  1.00  0.00    -0.029 SA
ATOM     15  C   UNL     1       5.665   5.863   3.057  1.00  0.00     0.120 C 
ATOM     16  C   UNL     1       3.603   6.174   4.252  1.00  0.00     0.188 C 
ATOM     17  H   UNL     1       3.730   4.272  -0.649  1.00  0.00     0.316 HD
ATOM     18  C   UNL     1       6.294   5.906   4.421  1.00  0.00     0.156 C 
ATOM     19  S   UNL     1       4.973   6.700   5.330  1.00  0.00     0.155 S 
ATOM     20  O   UNL     1       6.868   4.511  -0.992  1.00  0.00    -0.247 OA
ATOM     21  O   UNL     1       5.149   8.129   5.183  1.00  0.00    -0.229 OA
ATOM     22  O   UNL     1       4.868   6.084   6.634  1.00  0.00    -0.229 OA
BRANCH  10  23
ATOM     23  C   UNL     1       2.395   4.796   1.670  1.00  0.00     0.132 A 
ATOM     24  C   UNL     1       0.565   3.260   1.057  1.00  0.00     0.123 A 
ATOM     25  C   UNL     1      -0.355   4.285   1.253  1.00  0.00     0.047 A 
ATOM     26  C   UNL     1       1.925   3.532   1.249  1.00  0.00     0.098 A 
ATOM     27  C   UNL     1       0.075   5.551   1.641  1.00  0.00     0.008 A 
ATOM     28  C   UNL     1       1.435   5.800   1.854  1.00  0.00     0.052 A 
BRANCH  24  29
ATOM     29  O   UNL     1       0.005   2.086   0.638  1.00  0.00    -0.497 OA
ATOM     30  C   UNL     1       0.788   0.906   0.574  1.00  0.00     0.278 C 
ENDBRANCH  24  29
ENDBRANCH  10  23
ENDBRANCH   8   9
ENDBRANCH   7   8
ENDBRANCH   4   7
ENDBRANCH   2   3
ENDBRANCH   1   2
BRANCH   1  31
ATOM     31  C   UNL     1       4.632   1.399   1.917  1.00  0.00     0.023 C 
BRANCH  31  32
ATOM     32  C   UNL     1       4.386   0.898   3.327  1.00  0.00     0.116 C 
BRANCH  32  33
ATOM     33  N   UNL     1       5.216   1.546   4.323  1.00  0.00    -0.352 N 
ATOM     34  C   UNL     1       4.931   2.154   5.524  1.00  0.00     0.251 C 
ATOM     35  H   UNL     1       6.174   1.552   4.096  1.00  0.00     0.163 HD
ATOM     36  O   UNL     1       5.888   2.648   6.123  1.00  0.00    -0.269 OA
BRANCH  34  37
ATOM     37  C   UNL     1       3.551   2.332   6.077  1.00  0.00     0.039 A 
ATOM     38  C   UNL     1       3.358   3.369   7.006  1.00  0.00     0.014 A 
ATOM     39  C   UNL     1       2.453   1.533   5.764  1.00  0.00     0.014 A 
ATOM     40  C   UNL     1       2.095   3.659   7.539  1.00  0.00     0.010 A 
ATOM     41  C   UNL     1       1.178   1.843   6.253  1.00  0.00     0.010 A 
ATOM     42  C   UNL     1       0.991   2.896   7.160  1.00  0.00    -0.014 A 
BRANCH  42  43
ATOM     43  C   UNL     1      -0.317   3.029   7.851  1.00  0.00     0.031 A 
ATOM     44  C   UNL     1      -0.706   1.963   8.839  1.00  0.00     0.074 A 
ATOM     45  C   UNL     1      -1.166   4.037   7.576  1.00  0.00     0.049 A 
ATOM     46  N   UNL     1      -1.840   1.780   9.462  1.00  0.00    -0.248 NA
ATOM     47  C   UNL     1       0.321   0.954   9.149  1.00  0.00     0.031 C 
ATOM     48  C   UNL     1      -0.908   5.137   6.649  1.00  0.00     0.029 A 
ATOM     49  N   UNL     1      -2.441   4.273   8.033  1.00  0.00    -0.354 N 
ATOM     50  C   UNL     1      -1.679   0.615  10.200  1.00  0.00     0.074 A 
ATOM     51  C   UNL     1      -0.345   0.123   9.935  1.00  0.00     0.031 C 
ATOM     52  C   UNL     1      -2.001   5.918   6.586  1.00  0.00     0.029 A 
ATOM     53  C   UNL     1      -3.048   5.354   7.436  1.00  0.00     0.049 A 
ATOM     54  H   UNL     1      -2.877   3.722   8.722  1.00  0.00     0.167 HD
ATOM     55  C   UNL     1      -2.555   0.011  11.036  1.00  0.00     0.034 A 
ATOM     56  C   UNL     1      -4.313   5.813   7.543  1.00  0.00     0.034 A 
ATOM     57  C   UNL     1      -3.870   0.513  11.321  1.00  0.00     0.049 A 
ATOM     58  C   UNL     1      -5.281   5.108   8.462  1.00  0.00     0.074 A 
ATOM     59  C   UNL     1      -4.816  -0.002  12.189  1.00  0.00     0.029 A 
ATOM     60  N   UNL     1      -4.431   1.637  10.737  1.00  0.00    -0.354 N 
ATOM     61  N   UNL     1      -5.083   4.063   9.230  1.00  0.00    -0.248 NA
ATOM     62  C   UNL     1      -6.641   5.663   8.550  1.00  0.00     0.031 C 
ATOM     63  C   UNL     1      -5.964   0.791  12.101  1.00  0.00     0.029 A 
ATOM     64  C   UNL     1      -5.716   1.826  11.213  1.00  0.00     0.049 A 
ATOM     65  H   UNL     1      -3.981   2.216  10.080  1.00  0.00     0.167 HD
ATOM     66  C   UNL     1      -6.275   3.864   9.921  1.00  0.00     0.074 A 
ATOM     67  C   UNL     1      -7.185   4.905   9.493  1.00  0.00     0.031 C 
ATOM     68  C   UNL     1      -6.591   2.900  10.822  1.00  0.00     0.034 A 
BRANCH  55  69
ATOM     69  C   UNL     1      -2.110  -1.260  11.707  1.00  0.00     0.023 A 
ATOM     70  C   UNL     1      -1.127  -1.217  12.718  1.00  0.00     0.012 A 
ATOM     71  C   UNL     1      -2.689  -2.494  11.357  1.00  0.00     0.148 A 
ATOM     72  C   UNL     1      -0.699  -2.388  13.341  1.00  0.00     0.002 A 
ATOM     73  C   UNL     1      -2.294  -3.651  12.017  1.00  0.00     0.091 A 
ATOM     74  F   UNL     1      -3.603  -2.517  10.376  1.00  0.00    -0.205 F 
ATOM     75  C   UNL     1      -1.290  -3.602  12.998  1.00  0.00     0.022 A 
BRANCH  73  76
ATOM     76  S   UNL     1      -3.047  -5.250  11.703  1.00  0.00     0.127 S 
ATOM     77  O   UNL     1      -1.951  -5.970  11.058  1.00  0.00    -0.237 OA
ATOM     78  O   UNL     1      -3.367  -5.708  13.055  1.00  0.00    -0.237 OA
ATOM     79  O   UNL     1      -4.204  -4.991  10.858  1.00  0.00    -0.744 OA
ENDBRANCH  73  76
ENDBRANCH  55  69
BRANCH  56  80
ATOM     80  C   UNL     1      -4.745   7.017   6.773  1.00  0.00     0.023 A 
ATOM     81  C   UNL     1      -5.070   8.204   7.460  1.00  0.00     0.012 A 
ATOM     82  C   UNL     1      -4.845   6.990   5.369  1.00  0.00     0.148 A 
ATOM     83  C   UNL     1      -5.524   9.327   6.766  1.00  0.00     0.002 A 
ATOM     84  C   UNL     1      -5.239   8.131   4.679  1.00  0.00     0.091 A 
ATOM     85  F   UNL     1      -4.550   5.848   4.733  1.00  0.00    -0.205 F 
ATOM     86  C   UNL     1      -5.599   9.294   5.376  1.00  0.00     0.022 A 
BRANCH  84  87
ATOM     87  S   UNL     1      -5.235   8.221   2.885  1.00  0.00     0.127 S 
ATOM     88  O   UNL     1      -6.662   8.305   2.587  1.00  0.00    -0.237 OA
ATOM     89  O   UNL     1      -4.481   9.453   2.649  1.00  0.00    -0.237 OA
ATOM     90  O   UNL     1      -4.563   7.011   2.431  1.00  0.00    -0.744 OA
ENDBRANCH  84  87
ENDBRANCH  56  80
BRANCH  68  91
ATOM     91  C   UNL     1      -7.957   2.947  11.459  1.00  0.00     0.023 A 
ATOM     92  C   UNL     1      -9.102   2.618  10.708  1.00  0.00     0.012 A 
ATOM     93  C   UNL     1      -8.092   3.233  12.834  1.00  0.00     0.148 A 
ATOM     94  C   UNL     1     -10.363   2.606  11.306  1.00  0.00     0.002 A 
ATOM     95  C   UNL     1      -9.343   3.166  13.434  1.00  0.00     0.091 A 
ATOM     96  F   UNL     1      -6.992   3.559  13.529  1.00  0.00    -0.205 F 
ATOM     97  C   UNL     1     -10.481   2.867  12.669  1.00  0.00     0.022 A 
BRANCH  95  98
ATOM     98  S   UNL     1      -9.577   3.384  15.202  1.00  0.00     0.127 S 
ATOM     99  O   UNL     1     -10.264   4.674  15.255  1.00  0.00    -0.237 OA
ATOM    100  O   UNL     1     -10.412   2.234  15.547  1.00  0.00    -0.237 OA
ATOM    101  O   UNL     1      -8.245   3.363  15.791  1.00  0.00    -0.744 OA
ENDBRANCH  95  98
ENDBRANCH  68  91
ENDBRANCH  42  43
ENDBRANCH  34  37
ENDBRANCH  32  33
ENDBRANCH  31  32
ENDBRANCH   1  31
TORSDOF 18
