REMARK SMILES C[C@H](NS(=O)(=O)c1ccc(-c2cc(-c3ccccc3)c3cc([N+](=O)[O-])ccc3n2)cc1)C(=O)NCCCCNC(=O)c1ccc(-c2c3nc(c(-c4cccc(S(=O)(=O)[O-])c4F)c4ccc([nH]4)c(-c4cccc(S(=O)(=O)[O-])c4F)c4nc(c(-c5cccc(S(=O)(=O)[O-])c5F)c5ccc2[nH]5)C=C4)C=C3)cc1
REMARK SMILES IDX 35 1 34 2 32 3 33 4 2 6 1 7 3 8 4 10 5 11 6 12 7 13 8 14
REMARK SMILES IDX 31 15 9 16 30 17 10 18 11 19 12 20 29 21 13 22 28 23 20 24
REMARK SMILES IDX 27 25 21 26 26 27 22 28 14 29 15 30 19 31 16 32 18 33 17 34
REMARK SMILES IDX 23 35 24 36 25 37 36 38 37 39 38 40 39 41 40 42 41 44 42 45
REMARK SMILES IDX 43 46 104 47 44 48 103 49 45 50 46 51 47 52 97 53 48 54
REMARK SMILES IDX 102 55 96 56 98 57 49 58 101 59 95 60 94 61 50 63 82 64
REMARK SMILES IDX 62 65 81 66 63 67 66 68 80 69 99 70 64 71 65 72 79 74 100 75
REMARK SMILES IDX 67 76 51 77 52 78 60 79 53 80 55 81 61 82 54 83 56 84 57 85
REMARK SMILES IDX 58 86 59 87 83 88 84 89 92 90 85 91 87 92 93 93 86 94 88 95
REMARK SMILES IDX 89 96 90 97 91 98 68 99 69 100 77 101 70 102 72 103 78 104
REMARK SMILES IDX 71 105 73 106 74 107 75 108 76 109
REMARK H PARENT 34 5 3 9 39 43 98 62 66 73
REMARK Flexibility Score: inf
ROOT
ATOM      1  C   UNL     1      -0.792  -2.169   0.435  1.00  0.00     0.116 C 
ENDROOT
BRANCH   1   2
ATOM      2  N   UNL     1      -1.261  -1.086  -0.409  1.00  0.00    -0.355 N 
ATOM      3  C   UNL     1      -0.547  -0.186  -1.148  1.00  0.00     0.237 C 
ATOM      4  O   UNL     1      -1.169   0.632  -1.829  1.00  0.00    -0.273 OA
ATOM      5  H   UNL     1      -2.239  -0.984  -0.456  1.00  0.00     0.163 HD
BRANCH   3   6
ATOM      6  C   UNL     1       0.988  -0.204  -1.154  1.00  0.00     0.155 C 
ATOM      7  C   UNL     1       1.482  -1.492  -1.805  1.00  0.00     0.036 C 
BRANCH   6   8
ATOM      8  N   UNL     1       1.529   0.051   0.187  1.00  0.00    -0.199 NA
ATOM      9  H   UNL     1       1.359  -0.802   0.720  1.00  0.00     0.142 HD
BRANCH   8  10
ATOM     10  S   UNL     1       3.118   0.466   0.493  1.00  0.00     0.241 S 
ATOM     11  O   UNL     1       3.212   0.677   1.917  1.00  0.00    -0.207 OA
ATOM     12  O   UNL     1       3.951  -0.509  -0.183  1.00  0.00    -0.207 OA
BRANCH  10  13
ATOM     13  C   UNL     1       3.406   2.046  -0.286  1.00  0.00     0.082 A 
ATOM     14  C   UNL     1       2.533   3.114  -0.078  1.00  0.00     0.022 A 
ATOM     15  C   UNL     1       4.493   2.197  -1.152  1.00  0.00     0.022 A 
ATOM     16  C   UNL     1       2.624   4.250  -0.902  1.00  0.00     0.012 A 
ATOM     17  C   UNL     1       4.605   3.352  -1.939  1.00  0.00     0.012 A 
ATOM     18  C   UNL     1       3.563   4.310  -1.956  1.00  0.00     0.000 A 
BRANCH  18  19
ATOM     19  C   UNL     1       3.080   4.822  -3.310  1.00  0.00     0.072 A 
ATOM     20  C   UNL     1       3.964   5.162  -4.335  1.00  0.00     0.038 A 
ATOM     21  N   UNL     1       2.055   4.002  -3.656  1.00  0.00    -0.248 NA
ATOM     22  C   UNL     1       4.122   4.228  -5.363  1.00  0.00    -0.007 A 
ATOM     23  C   UNL     1       2.432   2.917  -4.333  1.00  0.00     0.072 A 
ATOM     24  C   UNL     1       3.607   2.953  -5.078  1.00  0.00     0.015 A 
ATOM     25  C   UNL     1       1.787   1.703  -4.173  1.00  0.00     0.036 A 
ATOM     26  C   UNL     1       4.279   1.759  -5.412  1.00  0.00     0.096 A 
ATOM     27  C   UNL     1       2.441   0.508  -4.494  1.00  0.00     0.088 A 
ATOM     28  C   UNL     1       3.731   0.544  -5.023  1.00  0.00     0.270 A 
BRANCH  22  29
ATOM     29  C   UNL     1       4.693   4.450  -6.711  1.00  0.00    -0.018 A 
ATOM     30  C   UNL     1       4.069   3.786  -7.803  1.00  0.00     0.009 A 
ATOM     31  C   UNL     1       5.815   5.227  -6.998  1.00  0.00     0.009 A 
ATOM     32  C   UNL     1       4.600   3.788  -9.088  1.00  0.00     0.001 A 
ATOM     33  C   UNL     1       6.337   5.256  -8.303  1.00  0.00     0.001 A 
ATOM     34  C   UNL     1       5.748   4.519  -9.335  1.00  0.00     0.000 A 
ENDBRANCH  22  29
BRANCH  28  35
ATOM     35  N   UNL     1       4.554  -0.669  -5.070  1.00  0.00     0.062 N 
ATOM     36  O   UNL     1       5.706  -0.566  -5.519  1.00  0.00    -0.258 OA
ATOM     37  O   UNL     1       4.065  -1.713  -4.620  1.00  0.00    -0.258 OA
ENDBRANCH  28  35
ENDBRANCH  18  19
ENDBRANCH  10  13
ENDBRANCH   8  10
ENDBRANCH   6   8
ENDBRANCH   3   6
ENDBRANCH   1   2
BRANCH   1  38
ATOM     38  C   UNL     1      -1.327  -2.064   1.856  1.00  0.00     0.023 C 
BRANCH  38  39
ATOM     39  C   UNL     1      -2.829  -2.292   1.997  1.00  0.00     0.023 C 
BRANCH  39  40
ATOM     40  C   UNL     1      -3.346  -3.602   1.414  1.00  0.00     0.116 C 
BRANCH  40  41
ATOM     41  N   UNL     1      -2.672  -4.774   1.957  1.00  0.00    -0.352 N 
ATOM     42  C   UNL     1      -3.216  -5.898   2.533  1.00  0.00     0.251 C 
ATOM     43  H   UNL     1      -1.690  -4.759   1.905  1.00  0.00     0.163 HD
ATOM     44  O   UNL     1      -2.489  -6.729   3.069  1.00  0.00    -0.269 OA
BRANCH  42  45
ATOM     45  C   UNL     1      -4.682  -6.082   2.526  1.00  0.00     0.039 A 
ATOM     46  C   UNL     1      -5.326  -6.434   3.714  1.00  0.00     0.014 A 
ATOM     47  C   UNL     1      -5.418  -5.870   1.358  1.00  0.00     0.014 A 
ATOM     48  C   UNL     1      -6.721  -6.500   3.746  1.00  0.00     0.010 A 
ATOM     49  C   UNL     1      -6.808  -5.851   1.415  1.00  0.00     0.010 A 
ATOM     50  C   UNL     1      -7.475  -6.169   2.608  1.00  0.00    -0.014 A 
BRANCH  50  51
ATOM     51  C   UNL     1      -8.960  -6.137   2.648  1.00  0.00     0.031 A 
ATOM     52  C   UNL     1      -9.761  -7.050   1.760  1.00  0.00     0.074 A 
ATOM     53  C   UNL     1      -9.586  -5.227   3.421  1.00  0.00     0.049 A 
ATOM     54  N   UNL     1     -11.059  -7.131   1.620  1.00  0.00    -0.248 NA
ATOM     55  C   UNL     1      -9.008  -7.975   0.896  1.00  0.00     0.031 C 
ATOM     56  C   UNL     1      -8.921  -4.234   4.268  1.00  0.00     0.029 A 
ATOM     57  N   UNL     1     -10.923  -4.971   3.600  1.00  0.00    -0.354 N 
ATOM     58  C   UNL     1     -11.276  -8.082   0.629  1.00  0.00     0.074 A 
ATOM     59  C   UNL     1      -9.976  -8.526   0.178  1.00  0.00     0.031 C 
ATOM     60  C   UNL     1      -9.851  -3.487   4.885  1.00  0.00     0.029 A 
ATOM     61  C   UNL     1     -11.175  -3.920   4.452  1.00  0.00     0.049 A 
ATOM     62  H   UNL     1     -11.634  -5.492   3.162  1.00  0.00     0.167 HD
ATOM     63  C   UNL     1     -12.450  -8.562   0.156  1.00  0.00     0.034 A 
ATOM     64  C   UNL     1     -12.341  -3.361   4.832  1.00  0.00     0.034 A 
ATOM     65  C   UNL     1     -13.740  -8.146   0.634  1.00  0.00     0.049 A 
ATOM     66  C   UNL     1     -13.631  -3.933   4.311  1.00  0.00     0.074 A 
ATOM     67  C   UNL     1     -14.985  -8.640   0.287  1.00  0.00     0.029 A 
ATOM     68  N   UNL     1     -13.956  -7.128   1.550  1.00  0.00    -0.354 N 
ATOM     69  N   UNL     1     -13.816  -4.943   3.496  1.00  0.00    -0.248 NA
ATOM     70  C   UNL     1     -14.875  -3.312   4.789  1.00  0.00     0.031 C 
ATOM     71  C   UNL     1     -15.955  -7.894   0.963  1.00  0.00     0.029 A 
ATOM     72  C   UNL     1     -15.313  -6.966   1.766  1.00  0.00     0.049 A 
ATOM     73  H   UNL     1     -13.247  -6.599   1.983  1.00  0.00     0.167 HD
ATOM     74  C   UNL     1     -15.194  -5.104   3.396  1.00  0.00     0.074 A 
ATOM     75  C   UNL     1     -15.794  -4.100   4.249  1.00  0.00     0.031 C 
ATOM     76  C   UNL     1     -15.898  -5.996   2.656  1.00  0.00     0.034 A 
BRANCH  63  77
ATOM     77  C   UNL     1     -12.396  -9.622  -0.914  1.00  0.00     0.023 A 
ATOM     78  C   UNL     1     -11.943 -10.919  -0.594  1.00  0.00     0.012 A 
ATOM     79  C   UNL     1     -12.852  -9.353  -2.219  1.00  0.00     0.148 A 
ATOM     80  C   UNL     1     -11.910 -11.920  -1.563  1.00  0.00     0.002 A 
ATOM     81  C   UNL     1     -12.864 -10.370  -3.167  1.00  0.00     0.091 A 
ATOM     82  F   UNL     1     -13.260  -8.110  -2.510  1.00  0.00    -0.205 F 
ATOM     83  C   UNL     1     -12.381 -11.649  -2.845  1.00  0.00     0.022 A 
BRANCH  81  84
ATOM     84  S   UNL     1     -13.528 -10.146  -4.820  1.00  0.00     0.127 S 
ATOM     85  O   UNL     1     -12.318 -10.227  -5.637  1.00  0.00    -0.237 OA
ATOM     86  O   UNL     1     -14.427 -11.292  -4.947  1.00  0.00    -0.237 OA
ATOM     87  O   UNL     1     -14.190  -8.849  -4.817  1.00  0.00    -0.744 OA
ENDBRANCH  81  84
ENDBRANCH  63  77
BRANCH  64  88
ATOM     88  C   UNL     1     -12.347  -2.228   5.802  1.00  0.00     0.023 A 
ATOM     89  C   UNL     1     -12.858  -2.429   7.099  1.00  0.00     0.012 A 
ATOM     90  C   UNL     1     -11.843  -0.961   5.452  1.00  0.00     0.148 A 
ATOM     91  C   UNL     1     -12.904  -1.380   8.018  1.00  0.00     0.002 A 
ATOM     92  C   UNL     1     -11.838   0.065   6.390  1.00  0.00     0.091 A 
ATOM     93  F   UNL     1     -11.369  -0.787   4.211  1.00  0.00    -0.205 F 
ATOM     94  C   UNL     1     -12.386  -0.136   7.667  1.00  0.00     0.022 A 
BRANCH  92  95
ATOM     95  S   UNL     1     -11.077   1.660   6.071  1.00  0.00     0.127 S 
ATOM     96  O   UNL     1     -12.239   2.543   6.024  1.00  0.00    -0.237 OA
ATOM     97  O   UNL     1     -10.223   1.826   7.247  1.00  0.00    -0.237 OA
ATOM     98  O   UNL     1     -10.349   1.506   4.818  1.00  0.00    -0.744 OA
ENDBRANCH  92  95
ENDBRANCH  64  88
BRANCH  76  99
ATOM     99  C   UNL     1     -17.400  -5.968   2.767  1.00  0.00     0.023 A 
ATOM    100  C   UNL     1     -18.132  -4.903   2.206  1.00  0.00     0.012 A 
ATOM    101  C   UNL     1     -18.091  -7.040   3.367  1.00  0.00     0.148 A 
ATOM    102  C   UNL     1     -19.525  -4.888   2.272  1.00  0.00     0.002 A 
ATOM    103  C   UNL     1     -19.480  -7.045   3.381  1.00  0.00     0.091 A 
ATOM    104  F   UNL     1     -17.376  -8.036   3.911  1.00  0.00    -0.205 F 
ATOM    105  C   UNL     1     -20.198  -5.963   2.848  1.00  0.00     0.022 A 
BRANCH 103 106
ATOM    106  S   UNL     1     -20.433  -8.432   4.008  1.00  0.00     0.127 S 
ATOM    107  O   UNL     1     -21.005  -7.871   5.231  1.00  0.00    -0.237 OA
ATOM    108  O   UNL     1     -21.396  -8.657   2.931  1.00  0.00    -0.237 OA
ATOM    109  O   UNL     1     -19.482  -9.518   4.207  1.00  0.00    -0.744 OA
ENDBRANCH 103 106
ENDBRANCH  76  99
ENDBRANCH  50  51
ENDBRANCH  42  45
ENDBRANCH  40  41
ENDBRANCH  39  40
ENDBRANCH  38  39
ENDBRANCH   1  38
TORSDOF 20
