REMARK SMILES COc1ccc([C@@H]2Nc3c(C(=O)NCCCCNC(=O)c4ccc(-c5c6nc(c(-c7cccc(S(=O)(=O)[O-])c7F)c7ccc([nH]7)c(-c7cccc(S(=O)(=O)[O-])c7F)c7nc(c(-c8cccc(S(=O)(=O)[O-])c8F)c8ccc5[nH]8)C=C7)C=C6)cc4)cccc3[C@@H]3[C@H]4CC[C@H](C4)[C@H]32)cc1[N+](=O)[O-]
REMARK SMILES IDX 16 1 15 2 14 3 13 4 11 5 12 6 10 8 7 9 8 10 94 11 9 12 88 14
REMARK SMILES IDX 92 15 87 16 89 17 91 18 93 19 84 20 86 21 90 22 85 23 6 24
REMARK SMILES IDX 3 25 4 26 96 27 5 28 95 29 2 30 1 31 97 32 98 33 99 34 17 35
REMARK SMILES IDX 18 36 19 37 20 39 21 40 22 41 83 42 23 43 82 44 24 45 25 46
REMARK SMILES IDX 26 47 76 48 27 49 81 50 75 51 77 52 28 53 80 54 74 55 73 56
REMARK SMILES IDX 29 58 61 59 41 60 60 61 42 62 45 63 59 64 78 65 43 66 44 67
REMARK SMILES IDX 58 69 79 70 46 71 30 72 31 73 39 74 32 75 34 76 40 77 33 78
REMARK SMILES IDX 35 79 36 80 37 81 38 82 62 83 63 84 71 85 64 86 66 87 72 88
REMARK SMILES IDX 65 89 67 90 68 91 69 92 70 93 47 94 48 95 56 96 49 97 51 98
REMARK SMILES IDX 57 99 50 100 52 101 53 102 54 103 55 104
REMARK H PARENT 13 7 8 13 18 38 77 57 45 68
REMARK Flexibility Score: inf
ROOT
ATOM      1  C   UNL     1       0.444   7.213  -9.306  1.00  0.00     0.023 C 
ENDROOT
BRANCH   1   2
ATOM      2  C   UNL     1      -0.175   6.764  -7.986  1.00  0.00     0.023 C 
BRANCH   2   3
ATOM      3  C   UNL     1       0.329   7.439  -6.716  1.00  0.00     0.116 C 
BRANCH   3   4
ATOM      4  N   UNL     1       0.309   8.890  -6.726  1.00  0.00    -0.352 N 
ATOM      5  C   UNL     1       0.163   9.758  -5.666  1.00  0.00     0.253 C 
ATOM      6  O   UNL     1       0.308  10.965  -5.847  1.00  0.00    -0.269 OA
ATOM      7  H   UNL     1       0.415   9.312  -7.609  1.00  0.00     0.163 HD
BRANCH   5   8
ATOM      8  C   UNL     1      -0.301   9.273  -4.343  1.00  0.00     0.063 A 
ATOM      9  C   UNL     1       2.083   6.506  -3.199  1.00  0.00     0.114 C 
ATOM     10  N   UNL     1       1.530   7.654  -3.939  1.00  0.00    -0.377 N 
ATOM     11  C   UNL     1       1.513   6.577  -1.787  1.00  0.00     0.027 C 
ATOM     12  C   UNL     1       0.277   8.216  -3.621  1.00  0.00     0.051 A 
ATOM     13  H   UNL     1       2.053   8.040  -4.679  1.00  0.00     0.161 HD
ATOM     14  C   UNL     1      -0.001   6.395  -1.957  1.00  0.00     0.030 C 
ATOM     15  C   UNL     1       1.838   5.641  -0.620  1.00  0.00    -0.005 C 
ATOM     16  C   UNL     1      -0.478   7.699  -2.519  1.00  0.00    -0.020 A 
ATOM     17  C   UNL     1      -0.406   5.725  -0.626  1.00  0.00    -0.003 C 
ATOM     18  C   UNL     1       1.441   4.186  -0.895  1.00  0.00     0.004 C 
ATOM     19  C   UNL     1       0.720   6.100   0.341  1.00  0.00     0.008 C 
ATOM     20  C   UNL     1      -1.449   9.925  -3.850  1.00  0.00     0.016 A 
ATOM     21  C   UNL     1      -1.635   8.331  -2.058  1.00  0.00     0.006 A 
ATOM     22  C   UNL     1      -0.097   4.215  -0.797  1.00  0.00     0.004 C 
ATOM     23  C   UNL     1      -2.093   9.474  -2.699  1.00  0.00     0.001 A 
BRANCH   9  24
ATOM     24  C   UNL     1       3.597   6.483  -3.176  1.00  0.00    -0.018 A 
ATOM     25  C   UNL     1       6.388   6.230  -2.780  1.00  0.00     0.196 A 
ATOM     26  C   UNL     1       5.725   7.413  -2.440  1.00  0.00     0.054 A 
ATOM     27  C   UNL     1       5.654   5.178  -3.330  1.00  0.00     0.311 A 
ATOM     28  C   UNL     1       4.346   7.543  -2.644  1.00  0.00     0.010 A 
ATOM     29  C   UNL     1       4.272   5.306  -3.549  1.00  0.00     0.095 A 
BRANCH  25  30
ATOM     30  O   UNL     1       7.709   6.150  -2.440  1.00  0.00    -0.490 OA
ATOM     31  C   UNL     1       8.556   6.378  -3.566  1.00  0.00     0.278 C 
ENDBRANCH  25  30
BRANCH  27  32
ATOM     32  N   UNL     1       6.270   3.890  -3.622  1.00  0.00     0.066 N 
ATOM     33  O   UNL     1       5.896   3.309  -4.651  1.00  0.00    -0.258 OA
ATOM     34  O   UNL     1       7.085   3.431  -2.810  1.00  0.00    -0.258 OA
ENDBRANCH  27  32
ENDBRANCH   9  24
ENDBRANCH   5   8
ENDBRANCH   3   4
ENDBRANCH   2   3
ENDBRANCH   1   2
BRANCH   1  35
ATOM     35  C   UNL     1       1.946   7.463  -9.313  1.00  0.00     0.116 C 
BRANCH  35  36
ATOM     36  N   UNL     1       2.748   6.305  -8.945  1.00  0.00    -0.352 N 
ATOM     37  C   UNL     1       3.720   5.645  -9.661  1.00  0.00     0.251 C 
ATOM     38  H   UNL     1       2.567   5.938  -8.049  1.00  0.00     0.163 HD
ATOM     39  O   UNL     1       4.255   4.644  -9.192  1.00  0.00    -0.269 OA
BRANCH  37  40
ATOM     40  C   UNL     1       4.080   6.114 -11.015  1.00  0.00     0.039 A 
ATOM     41  C   UNL     1       4.071   5.197 -12.070  1.00  0.00     0.014 A 
ATOM     42  C   UNL     1       4.354   7.461 -11.255  1.00  0.00     0.014 A 
ATOM     43  C   UNL     1       4.228   5.653 -13.381  1.00  0.00     0.010 A 
ATOM     44  C   UNL     1       4.416   7.924 -12.565  1.00  0.00     0.010 A 
ATOM     45  C   UNL     1       4.342   7.028 -13.644  1.00  0.00    -0.014 A 
BRANCH  45  46
ATOM     46  C   UNL     1       4.348   7.562 -15.031  1.00  0.00     0.031 A 
ATOM     47  C   UNL     1       5.520   8.365 -15.526  1.00  0.00     0.074 A 
ATOM     48  C   UNL     1       3.248   7.432 -15.802  1.00  0.00     0.049 A 
ATOM     49  N   UNL     1       5.660   9.011 -16.655  1.00  0.00    -0.248 NA
ATOM     50  C   UNL     1       6.672   8.491 -14.617  1.00  0.00     0.031 C 
ATOM     51  C   UNL     1       2.010   6.754 -15.407  1.00  0.00     0.029 A 
ATOM     52  N   UNL     1       2.979   7.895 -17.067  1.00  0.00    -0.354 N 
ATOM     53  C   UNL     1       6.888   9.656 -16.572  1.00  0.00     0.074 A 
ATOM     54  C   UNL     1       7.439   9.351 -15.270  1.00  0.00     0.031 C 
ATOM     55  C   UNL     1       1.119   6.844 -16.407  1.00  0.00     0.029 A 
ATOM     56  C   UNL     1       1.704   7.611 -17.501  1.00  0.00     0.049 A 
ATOM     57  H   UNL     1       3.636   8.385 -17.612  1.00  0.00     0.167 HD
ATOM     58  C   UNL     1       7.517  10.408 -17.506  1.00  0.00     0.034 A 
ATOM     59  C   UNL     1       1.074   7.937 -18.648  1.00  0.00     0.034 A 
ATOM     60  C   UNL     1       6.996  10.656 -18.823  1.00  0.00     0.049 A 
ATOM     61  C   UNL     1       1.821   8.718 -19.695  1.00  0.00     0.074 A 
ATOM     62  C   UNL     1       7.601  11.319 -19.876  1.00  0.00     0.029 A 
ATOM     63  N   UNL     1       5.747  10.252 -19.268  1.00  0.00    -0.354 N 
ATOM     64  N   UNL     1       3.047   9.181 -19.660  1.00  0.00    -0.248 NA
ATOM     65  C   UNL     1       1.112   8.991 -20.954  1.00  0.00     0.031 C 
ATOM     66  C   UNL     1       6.711  11.327 -20.955  1.00  0.00     0.029 A 
ATOM     67  C   UNL     1       5.561  10.652 -20.580  1.00  0.00     0.049 A 
ATOM     68  H   UNL     1       5.090   9.754 -18.730  1.00  0.00     0.167 HD
ATOM     69  C   UNL     1       3.270   9.763 -20.903  1.00  0.00     0.074 A 
ATOM     70  C   UNL     1       2.058   9.580 -21.674  1.00  0.00     0.031 C 
ATOM     71  C   UNL     1       4.374  10.405 -21.358  1.00  0.00     0.034 A 
BRANCH  58  72
ATOM     72  C   UNL     1       8.874  10.962 -17.160  1.00  0.00     0.023 A 
ATOM     73  C   UNL     1       9.977  10.088 -17.071  1.00  0.00     0.012 A 
ATOM     74  C   UNL     1       9.071  12.345 -16.975  1.00  0.00     0.148 A 
ATOM     75  C   UNL     1      11.247  10.575 -16.767  1.00  0.00     0.002 A 
ATOM     76  C   UNL     1      10.349  12.828 -16.717  1.00  0.00     0.091 A 
ATOM     77  F   UNL     1       8.007  13.158 -17.042  1.00  0.00    -0.205 F 
ATOM     78  C   UNL     1      11.435  11.944 -16.601  1.00  0.00     0.022 A 
BRANCH  76  79
ATOM     79  S   UNL     1      10.708  14.581 -16.566  1.00  0.00     0.127 S 
ATOM     80  O   UNL     1      10.949  14.711 -15.130  1.00  0.00    -0.237 OA
ATOM     81  O   UNL     1      11.903  14.725 -17.399  1.00  0.00    -0.237 OA
ATOM     82  O   UNL     1       9.532  15.276 -17.070  1.00  0.00    -0.744 OA
ENDBRANCH  76  79
ENDBRANCH  58  72
BRANCH  59  83
ATOM     83  C   UNL     1      -0.316   7.458 -18.897  1.00  0.00     0.023 A 
ATOM     84  C   UNL     1      -0.533   6.453 -19.861  1.00  0.00     0.012 A 
ATOM     85  C   UNL     1      -1.413   7.962 -18.174  1.00  0.00     0.148 A 
ATOM     86  C   UNL     1      -1.820   5.983 -20.123  1.00  0.00     0.002 A 
ATOM     87  C   UNL     1      -2.687   7.451 -18.401  1.00  0.00     0.091 A 
ATOM     88  F   UNL     1      -1.189   8.925 -17.269  1.00  0.00    -0.205 F 
ATOM     89  C   UNL     1      -2.895   6.474 -19.387  1.00  0.00     0.022 A 
BRANCH  87  90
ATOM     90  S   UNL     1      -4.107   7.929 -17.410  1.00  0.00     0.127 S 
ATOM     91  O   UNL     1      -4.864   8.752 -18.349  1.00  0.00    -0.237 OA
ATOM     92  O   UNL     1      -4.711   6.632 -17.101  1.00  0.00    -0.237 OA
ATOM     93  O   UNL     1      -3.560   8.624 -16.253  1.00  0.00    -0.744 OA
ENDBRANCH  87  90
ENDBRANCH  59  83
BRANCH  71  94
ATOM     94  C   UNL     1       4.353  10.924 -22.771  1.00  0.00     0.023 A 
ATOM     95  C   UNL     1       3.594  12.068 -23.085  1.00  0.00     0.012 A 
ATOM     96  C   UNL     1       5.156  10.330 -23.765  1.00  0.00     0.148 A 
ATOM     97  C   UNL     1       3.615  12.599 -24.375  1.00  0.00     0.002 A 
ATOM     98  C   UNL     1       5.208  10.892 -25.034  1.00  0.00     0.091 A 
ATOM     99  F   UNL     1       5.854   9.229 -23.449  1.00  0.00    -0.205 F 
ATOM    100  C   UNL     1       4.431  12.019 -25.344  1.00  0.00     0.022 A 
BRANCH  98 101
ATOM    101  S   UNL     1       6.304  10.270 -26.315  1.00  0.00     0.127 S 
ATOM    102  O   UNL     1       5.364   9.605 -27.215  1.00  0.00    -0.237 OA
ATOM    103  O   UNL     1       6.891  11.501 -26.847  1.00  0.00    -0.237 OA
ATOM    104  O   UNL     1       7.252   9.394 -25.641  1.00  0.00    -0.744 OA
ENDBRANCH  98 101
ENDBRANCH  71  94
ENDBRANCH  45  46
ENDBRANCH  37  40
ENDBRANCH  35  36
ENDBRANCH   1  35
TORSDOF 17
