REMARK SMILES O=C(NCCCCNC(=O)[C@H]1CC2(CCN(C(=O)C3CC3)CC2)CN1C(=O)CCn1cccn1)c1ccc(-c2c3nc(c(-c4cccc(S(=O)(=O)[O-])c4F)c4ccc([nH]4)c(-c4cccc(S(=O)(=O)[O-])c4F)c4nc(c(-c5cccc(S(=O)(=O)[O-])c5F)c5ccc2[nH]5)C=C4)C=C3)cc1
REMARK SMILES IDX 6 1 5 2 4 3 3 4 1 5 2 6 35 8 36 9 97 10 37 11 96 12 38 13
REMARK SMILES IDX 39 14 40 15 90 16 41 17 95 18 89 19 91 20 42 21 94 22 88 23
REMARK SMILES IDX 87 24 43 26 75 27 55 28 74 29 56 30 59 31 73 32 92 33 57 34
REMARK SMILES IDX 58 35 72 37 93 38 60 39 44 40 45 41 53 42 46 43 48 44 54 45
REMARK SMILES IDX 47 46 49 47 50 48 51 49 52 50 76 51 77 52 85 53 78 54 80 55
REMARK SMILES IDX 86 56 79 57 81 58 82 59 83 60 84 61 61 62 62 63 70 64 63 65
REMARK SMILES IDX 65 66 71 67 64 68 66 69 67 70 68 71 69 72 7 73 8 74 9 75
REMARK SMILES IDX 10 77 11 78 12 79 25 80 13 81 24 82 14 83 23 84 15 85 22 86
REMARK SMILES IDX 16 87 17 88 18 89 26 90 27 91 28 92 29 93 30 94 31 95 34 96
REMARK SMILES IDX 32 97 33 98 19 99 20 100 21 101
REMARK H PARENT 3 7 91 25 59 36 8 76
REMARK Flexibility Score: inf
ROOT
ATOM      1  C   UNL     1      10.364  -0.294  -5.368  1.00  0.00     0.023 C 
ENDROOT
BRANCH   1   2
ATOM      2  C   UNL     1      11.503  -0.622  -6.339  1.00  0.00     0.023 C 
BRANCH   2   3
ATOM      3  C   UNL     1      11.422   0.083  -7.693  1.00  0.00     0.116 C 
BRANCH   3   4
ATOM      4  N   UNL     1      11.380   1.529  -7.630  1.00  0.00    -0.352 N 
ATOM      5  O   UNL     1      11.951   3.663  -7.511  1.00  0.00    -0.269 OA
ATOM      6  C   UNL     1      12.318   2.494  -7.376  1.00  0.00     0.251 C 
ATOM      7  H   UNL     1      10.485   1.898  -7.809  1.00  0.00     0.163 HD
BRANCH   6   8
ATOM      8  C   UNL     1      13.685   2.209  -6.872  1.00  0.00     0.039 A 
ATOM      9  C   UNL     1      14.342   0.982  -6.994  1.00  0.00     0.014 A 
ATOM     10  C   UNL     1      14.326   3.258  -6.194  1.00  0.00     0.014 A 
ATOM     11  C   UNL     1      15.532   0.750  -6.321  1.00  0.00     0.010 A 
ATOM     12  C   UNL     1      15.543   3.049  -5.561  1.00  0.00     0.010 A 
ATOM     13  C   UNL     1      16.111   1.776  -5.579  1.00  0.00    -0.014 A 
BRANCH  13  14
ATOM     14  C   UNL     1      17.384   1.506  -4.924  1.00  0.00     0.031 A 
ATOM     15  C   UNL     1      18.536   1.265  -5.842  1.00  0.00     0.074 A 
ATOM     16  C   UNL     1      17.534   1.639  -3.591  1.00  0.00     0.049 A 
ATOM     17  N   UNL     1      19.355   0.261  -5.871  1.00  0.00    -0.248 NA
ATOM     18  C   UNL     1      18.738   2.232  -6.934  1.00  0.00     0.031 C 
ATOM     19  C   UNL     1      16.550   2.159  -2.636  1.00  0.00     0.029 A 
ATOM     20  N   UNL     1      18.661   1.505  -2.837  1.00  0.00    -0.354 N 
ATOM     21  C   UNL     1      20.301   0.577  -6.848  1.00  0.00     0.074 A 
ATOM     22  C   UNL     1      19.786   1.711  -7.569  1.00  0.00     0.031 C 
ATOM     23  C   UNL     1      17.194   2.558  -1.519  1.00  0.00     0.029 A 
ATOM     24  C   UNL     1      18.597   2.205  -1.637  1.00  0.00     0.049 A 
ATOM     25  H   UNL     1      19.439   0.968  -3.112  1.00  0.00     0.167 HD
ATOM     26  C   UNL     1      21.549   0.034  -6.860  1.00  0.00     0.034 A 
ATOM     27  C   UNL     1      19.643   2.575  -0.860  1.00  0.00     0.034 A 
ATOM     28  C   UNL     1      21.631  -1.165  -6.074  1.00  0.00     0.049 A 
ATOM     29  C   UNL     1      20.800   1.729  -1.228  1.00  0.00     0.074 A 
ATOM     30  C   UNL     1      21.018  -2.401  -6.097  1.00  0.00     0.029 A 
ATOM     31  N   UNL     1      22.246  -1.076  -4.851  1.00  0.00    -0.354 N 
ATOM     32  N   UNL     1      20.852   0.444  -1.018  1.00  0.00    -0.248 NA
ATOM     33  C   UNL     1      21.744   2.244  -2.205  1.00  0.00     0.031 C 
ATOM     34  C   UNL     1      20.885  -2.769  -4.726  1.00  0.00     0.029 A 
ATOM     35  C   UNL     1      21.454  -1.750  -3.960  1.00  0.00     0.049 A 
ATOM     36  H   UNL     1      23.093  -0.617  -4.652  1.00  0.00     0.167 HD
ATOM     37  C   UNL     1      21.506  -0.064  -2.132  1.00  0.00     0.074 A 
ATOM     38  C   UNL     1      22.132   1.095  -2.764  1.00  0.00     0.031 C 
ATOM     39  C   UNL     1      21.237  -1.321  -2.597  1.00  0.00     0.034 A 
BRANCH  26  40
ATOM     40  C   UNL     1      22.795   0.772  -7.299  1.00  0.00     0.023 A 
ATOM     41  C   UNL     1      23.985   0.024  -7.440  1.00  0.00     0.012 A 
ATOM     42  C   UNL     1      22.919   2.181  -7.298  1.00  0.00     0.148 A 
ATOM     43  C   UNL     1      25.237   0.645  -7.524  1.00  0.00     0.002 A 
ATOM     44  C   UNL     1      24.157   2.793  -7.463  1.00  0.00     0.091 A 
ATOM     45  F   UNL     1      21.866   2.946  -6.997  1.00  0.00    -0.205 F 
ATOM     46  C   UNL     1      25.323   2.031  -7.544  1.00  0.00     0.022 A 
BRANCH  44  47
ATOM     47  S   UNL     1      24.300   4.582  -7.551  1.00  0.00     0.127 S 
ATOM     48  O   UNL     1      24.760   4.902  -6.198  1.00  0.00    -0.237 OA
ATOM     49  O   UNL     1      25.312   4.751  -8.599  1.00  0.00    -0.237 OA
ATOM     50  O   UNL     1      22.981   5.055  -7.918  1.00  0.00    -0.744 OA
ENDBRANCH  44  47
ENDBRANCH  26  40
BRANCH  27  51
ATOM     51  C   UNL     1      19.787   3.804  -0.048  1.00  0.00     0.023 A 
ATOM     52  C   UNL     1      20.702   3.837   1.021  1.00  0.00     0.012 A 
ATOM     53  C   UNL     1      19.208   5.024  -0.470  1.00  0.00     0.148 A 
ATOM     54  C   UNL     1      21.040   5.047   1.640  1.00  0.00     0.002 A 
ATOM     55  C   UNL     1      19.532   6.220   0.160  1.00  0.00     0.091 A 
ATOM     56  F   UNL     1      18.412   5.023  -1.547  1.00  0.00    -0.205 F 
ATOM     57  C   UNL     1      20.457   6.237   1.210  1.00  0.00     0.022 A 
BRANCH  55  58
ATOM     58  S   UNL     1      18.817   7.790  -0.347  1.00  0.00     0.127 S 
ATOM     59  O   UNL     1      18.408   8.364   0.936  1.00  0.00    -0.237 OA
ATOM     60  O   UNL     1      19.956   8.451  -0.978  1.00  0.00    -0.237 OA
ATOM     61  O   UNL     1      17.708   7.455  -1.231  1.00  0.00    -0.744 OA
ENDBRANCH  55  58
ENDBRANCH  27  51
BRANCH  39  62
ATOM     62  C   UNL     1      20.378  -2.224  -1.746  1.00  0.00     0.023 A 
ATOM     63  C   UNL     1      19.034  -1.907  -1.454  1.00  0.00     0.012 A 
ATOM     64  C   UNL     1      20.866  -3.494  -1.395  1.00  0.00     0.148 A 
ATOM     65  C   UNL     1      18.204  -2.821  -0.803  1.00  0.00     0.002 A 
ATOM     66  C   UNL     1      20.024  -4.418  -0.786  1.00  0.00     0.091 A 
ATOM     67  F   UNL     1      22.140  -3.789  -1.695  1.00  0.00    -0.205 F 
ATOM     68  C   UNL     1      18.695  -4.082  -0.479  1.00  0.00     0.022 A 
BRANCH  66  69
ATOM     69  S   UNL     1      20.550  -6.102  -0.459  1.00  0.00     0.127 S 
ATOM     70  O   UNL     1      20.718  -6.094   0.993  1.00  0.00    -0.237 OA
ATOM     71  O   UNL     1      19.410  -6.886  -0.938  1.00  0.00    -0.237 OA
ATOM     72  O   UNL     1      21.771  -6.299  -1.231  1.00  0.00    -0.744 OA
ENDBRANCH  66  69
ENDBRANCH  39  62
ENDBRANCH  13  14
ENDBRANCH   6   8
ENDBRANCH   3   4
ENDBRANCH   2   3
ENDBRANCH   1   2
BRANCH   1  73
ATOM     73  C   UNL     1       8.961  -0.409  -5.962  1.00  0.00     0.116 C 
BRANCH  73  74
ATOM     74  N   UNL     1       8.724  -1.738  -6.487  1.00  0.00    -0.354 N 
ATOM     75  C   UNL     1       8.030  -2.702  -5.822  1.00  0.00     0.242 C 
ATOM     76  H   UNL     1       9.086  -1.956  -7.377  1.00  0.00     0.163 HD
ATOM     77  O   UNL     1       8.644  -3.703  -5.459  1.00  0.00    -0.273 OA
BRANCH  75  78
ATOM     78  C   UNL     1       6.555  -2.444  -5.479  1.00  0.00     0.175 C 
ATOM     79  C   UNL     1       5.822  -1.307  -6.202  1.00  0.00     0.044 C 
ATOM     80  N   UNL     1       5.513  -3.491  -5.502  1.00  0.00    -0.330 N 
ATOM     81  C   UNL     1       4.355  -1.409  -5.688  1.00  0.00    -0.006 C 
ATOM     82  C   UNL     1       4.289  -2.829  -5.058  1.00  0.00     0.127 C 
ATOM     83  C   UNL     1       3.317  -1.287  -6.821  1.00  0.00     0.030 C 
ATOM     84  C   UNL     1       4.068  -0.308  -4.649  1.00  0.00     0.030 C 
ATOM     85  C   UNL     1       3.205   0.122  -7.404  1.00  0.00     0.120 C 
ATOM     86  C   UNL     1       3.990   1.084  -5.286  1.00  0.00     0.120 C 
ATOM     87  N   UNL     1       3.003   1.130  -6.368  1.00  0.00    -0.342 N 
ATOM     88  C   UNL     1       2.109   2.206  -6.362  1.00  0.00     0.225 C 
ATOM     89  O   UNL     1       2.154   3.049  -5.465  1.00  0.00    -0.275 OA
BRANCH  80  90
ATOM     90  C   UNL     1       5.373  -4.542  -6.402  1.00  0.00     0.225 C 
ATOM     91  O   UNL     1       4.259  -4.907  -6.798  1.00  0.00    -0.275 OA
BRANCH  90  92
ATOM     92  C   UNL     1       6.566  -5.349  -6.862  1.00  0.00     0.124 C 
BRANCH  92  93
ATOM     93  C   UNL     1       6.841  -5.236  -8.355  1.00  0.00     0.154 C 
BRANCH  93  94
ATOM     94  N   UNL     1       7.054  -3.899  -8.869  1.00  0.00    -0.272 N 
ATOM     95  C   UNL     1       6.089  -3.050  -9.337  1.00  0.00     0.108 A 
ATOM     96  N   UNL     1       8.303  -3.432  -9.071  1.00  0.00    -0.182 NA
ATOM     97  C   UNL     1       6.749  -1.949  -9.831  1.00  0.00     0.042 A 
ATOM     98  C   UNL     1       8.111  -2.247  -9.659  1.00  0.00     0.135 A 
ENDBRANCH  93  94
ENDBRANCH  92  93
ENDBRANCH  90  92
ENDBRANCH  80  90
BRANCH  88  99
ATOM     99  C   UNL     1       1.016   2.427  -7.358  1.00  0.00     0.079 C 
ATOM    100  C   UNL     1       0.875   1.993  -8.786  1.00  0.00     0.014 C 
ATOM    101  C   UNL     1       0.049   1.327  -7.716  1.00  0.00     0.014 C 
ENDBRANCH  88  99
ENDBRANCH  75  78
ENDBRANCH  73  74
ENDBRANCH   1  73
TORSDOF 19
