REMARK SMILES COc1cc2c(cc1OC)C1=C(C#N)C[N@@H+](CC(=O)NCCCCNC(=O)c3ccc(-c4c5nc(c(-c6cccc(S(=O)(=O)[O-])c6F)c6ccc([nH]6)c(-c6cccc(S(=O)(=O)[O-])c6F)c6nc(c(-c7cccc(S(=O)(=O)[O-])c7F)c7ccc4[nH]7)C=C6)C=C5)cc3)CN1CC2
REMARK SMILES IDX 23 1 22 2 21 3 20 4 18 5 19 6 17 8 16 9 3 10 4 11 8 12 5 13
REMARK SMILES IDX 7 14 6 15 94 16 11 17 93 18 12 19 92 20 15 21 91 22 2 24
REMARK SMILES IDX 1 25 9 26 10 27 13 28 14 29 24 30 25 31 26 32 27 34 28 35
REMARK SMILES IDX 29 36 90 37 30 38 89 39 31 40 32 41 33 42 83 43 34 44 88 45
REMARK SMILES IDX 82 46 84 47 35 48 87 49 81 50 80 51 36 53 68 54 48 55 67 56
REMARK SMILES IDX 49 57 52 58 66 59 85 60 50 61 51 62 65 64 86 65 53 66 37 67
REMARK SMILES IDX 38 68 46 69 39 70 41 71 47 72 40 73 42 74 43 75 44 76 45 77
REMARK SMILES IDX 69 78 70 79 78 80 71 81 73 82 79 83 72 84 74 85 75 86 76 87
REMARK SMILES IDX 77 88 54 89 55 90 63 91 56 92 58 93 64 94 57 95 59 96 60 97
REMARK SMILES IDX 61 98 62 99
REMARK H PARENT 20 7 16 23 25 33 84 52 52 63
REMARK Flexibility Score: inf
ROOT
ATOM      1  C   UNL     1       0.451   6.598  -1.925  1.00  0.00     0.023 C 
ENDROOT
BRANCH   1   2
ATOM      2  C   UNL     1       0.876   7.324  -3.192  1.00  0.00     0.023 C 
BRANCH   2   3
ATOM      3  C   UNL     1       1.874   8.456  -3.038  1.00  0.00     0.116 C 
BRANCH   3   4
ATOM      4  N   UNL     1       3.227   7.920  -3.047  1.00  0.00    -0.351 N 
ATOM      5  C   UNL     1       3.947   7.410  -4.097  1.00  0.00     0.275 C 
ATOM      6  O   UNL     1       5.025   6.863  -3.844  1.00  0.00    -0.269 OA
ATOM      7  H   UNL     1       3.690   7.924  -2.178  1.00  0.00     0.163 HD
BRANCH   5   8
ATOM      8  C   UNL     1       3.474   7.615  -5.545  1.00  0.00     0.365 C 
BRANCH   8   9
ATOM      9  N   UNL     1       3.062   6.426  -6.310  1.00  0.00    -0.306 N 
ATOM     10  C   UNL     1       1.104   0.769  -2.218  1.00  0.00     0.161 A 
ATOM     11  C   UNL     1       2.370   1.365  -2.210  1.00  0.00     0.055 A 
ATOM     12  C   UNL     1       0.173   1.159  -3.182  1.00  0.00     0.161 A 
ATOM     13  C   UNL     1       2.689   2.398  -3.111  1.00  0.00    -0.033 A 
ATOM     14  C   UNL     1       0.505   2.192  -4.076  1.00  0.00     0.061 A 
ATOM     15  C   UNL     1       1.722   2.890  -4.007  1.00  0.00     0.006 A 
ATOM     16  C   UNL     1       4.085   2.972  -3.144  1.00  0.00     0.058 C 
ATOM     17  C   UNL     1       2.073   4.064  -4.881  1.00  0.00     0.068 C 
ATOM     18  C   UNL     1       4.456   3.354  -4.582  1.00  0.00     0.127 C 
ATOM     19  C   UNL     1       1.192   4.975  -5.364  1.00  0.00     0.108 C 
ATOM     20  N   UNL     1       3.438   4.245  -5.141  1.00  0.00    -0.323 N 
ATOM     21  C   UNL     1       1.635   6.095  -6.278  1.00  0.00     0.314 C 
ATOM     22  C   UNL     1       3.877   5.231  -6.119  1.00  0.00     0.390 C 
ATOM     23  H   UNL     1       3.252   6.760  -7.255  1.00  0.00     0.350 HD
BRANCH  10  24
ATOM     24  O   UNL     1       0.838  -0.281  -1.379  1.00  0.00    -0.493 OA
ATOM     25  C   UNL     1       1.017   0.052  -0.001  1.00  0.00     0.278 C 
ENDBRANCH  10  24
BRANCH  12  26
ATOM     26  O   UNL     1      -1.073   0.634  -3.411  1.00  0.00    -0.493 OA
ATOM     27  C   UNL     1      -1.721  -0.026  -2.331  1.00  0.00     0.278 C 
ENDBRANCH  12  26
BRANCH  19  28
ATOM     28  C   UNL     1      -0.284   4.909  -5.011  1.00  0.00     0.103 C 
ATOM     29  N   UNL     1      -1.510   4.855  -4.718  1.00  0.00    -0.192 NA
ENDBRANCH  19  28
ENDBRANCH   8   9
ENDBRANCH   5   8
ENDBRANCH   3   4
ENDBRANCH   2   3
ENDBRANCH   1   2
BRANCH   1  30
ATOM     30  C   UNL     1      -0.906   7.051  -1.423  1.00  0.00     0.116 C 
BRANCH  30  31
ATOM     31  N   UNL     1      -2.039   6.731  -2.293  1.00  0.00    -0.352 N 
ATOM     32  C   UNL     1      -3.369   6.593  -1.933  1.00  0.00     0.251 C 
ATOM     33  H   UNL     1      -1.831   6.598  -3.246  1.00  0.00     0.163 HD
ATOM     34  O   UNL     1      -4.241   6.356  -2.761  1.00  0.00    -0.269 OA
BRANCH  32  35
ATOM     35  C   UNL     1      -3.699   6.636  -0.494  1.00  0.00     0.039 A 
ATOM     36  C   UNL     1      -3.166   7.646   0.298  1.00  0.00     0.014 A 
ATOM     37  C   UNL     1      -4.335   5.536   0.088  1.00  0.00     0.014 A 
ATOM     38  C   UNL     1      -2.992   7.401   1.650  1.00  0.00     0.010 A 
ATOM     39  C   UNL     1      -4.298   5.377   1.476  1.00  0.00     0.010 A 
ATOM     40  C   UNL     1      -3.541   6.258   2.262  1.00  0.00    -0.014 A 
BRANCH  40  41
ATOM     41  C   UNL     1      -3.256   6.010   3.704  1.00  0.00     0.031 A 
ATOM     42  C   UNL     1      -2.594   4.737   4.175  1.00  0.00     0.074 A 
ATOM     43  C   UNL     1      -3.503   6.998   4.589  1.00  0.00     0.049 A 
ATOM     44  N   UNL     1      -2.249   4.401   5.393  1.00  0.00    -0.248 NA
ATOM     45  C   UNL     1      -2.288   3.703   3.171  1.00  0.00     0.031 C 
ATOM     46  C   UNL     1      -4.154   8.270   4.264  1.00  0.00     0.029 A 
ATOM     47  N   UNL     1      -3.188   7.121   5.918  1.00  0.00    -0.354 N 
ATOM     48  C   UNL     1      -1.770   3.098   5.314  1.00  0.00     0.074 A 
ATOM     49  C   UNL     1      -1.842   2.706   3.925  1.00  0.00     0.031 C 
ATOM     50  C   UNL     1      -4.080   9.086   5.321  1.00  0.00     0.029 A 
ATOM     51  C   UNL     1      -3.469   8.365   6.432  1.00  0.00     0.049 A 
ATOM     52  H   UNL     1      -2.799   6.391   6.451  1.00  0.00     0.167 HD
ATOM     53  C   UNL     1      -1.300   2.307   6.307  1.00  0.00     0.034 A 
ATOM     54  C   UNL     1      -3.268   8.879   7.660  1.00  0.00     0.034 A 
ATOM     55  C   UNL     1      -1.130   2.732   7.670  1.00  0.00     0.049 A 
ATOM     56  C   UNL     1      -2.675   8.008   8.723  1.00  0.00     0.074 A 
ATOM     57  C   UNL     1      -0.622   2.009   8.736  1.00  0.00     0.029 A 
ATOM     58  N   UNL     1      -1.434   3.995   8.150  1.00  0.00    -0.354 N 
ATOM     59  N   UNL     1      -2.213   6.787   8.617  1.00  0.00    -0.248 NA
ATOM     60  C   UNL     1      -2.590   8.573  10.076  1.00  0.00     0.031 C 
ATOM     61  C   UNL     1      -0.610   2.841   9.860  1.00  0.00     0.029 A 
ATOM     62  C   UNL     1      -1.116   4.077   9.493  1.00  0.00     0.049 A 
ATOM     63  H   UNL     1      -1.819   4.726   7.614  1.00  0.00     0.167 HD
ATOM     64  C   UNL     1      -1.799   6.428   9.891  1.00  0.00     0.074 A 
ATOM     65  C   UNL     1      -2.025   7.576  10.746  1.00  0.00     0.031 C 
ATOM     66  C   UNL     1      -1.310   5.240  10.319  1.00  0.00     0.034 A 
BRANCH  53  67
ATOM     67  C   UNL     1      -0.885   0.902   5.965  1.00  0.00     0.023 A 
ATOM     68  C   UNL     1       0.398   0.670   5.433  1.00  0.00     0.012 A 
ATOM     69  C   UNL     1      -1.714  -0.193   6.283  1.00  0.00     0.148 A 
ATOM     70  C   UNL     1       0.849  -0.631   5.215  1.00  0.00     0.002 A 
ATOM     71  C   UNL     1      -1.247  -1.488   6.088  1.00  0.00     0.091 A 
ATOM     72  F   UNL     1      -2.936   0.055   6.777  1.00  0.00    -0.205 F 
ATOM     73  C   UNL     1       0.032  -1.708   5.552  1.00  0.00     0.022 A 
BRANCH  71  74
ATOM     74  S   UNL     1      -2.196  -2.944   6.543  1.00  0.00     0.127 S 
ATOM     75  O   UNL     1      -2.502  -3.515   5.232  1.00  0.00    -0.237 OA
ATOM     76  O   UNL     1      -1.229  -3.708   7.330  1.00  0.00    -0.237 OA
ATOM     77  O   UNL     1      -3.345  -2.458   7.294  1.00  0.00    -0.744 OA
ENDBRANCH  71  74
ENDBRANCH  53  67
BRANCH  54  78
ATOM     78  C   UNL     1      -3.603  10.307   7.908  1.00  0.00     0.023 A 
ATOM     79  C   UNL     1      -2.561  11.245   8.030  1.00  0.00     0.012 A 
ATOM     80  C   UNL     1      -4.938  10.755   7.889  1.00  0.00     0.148 A 
ATOM     81  C   UNL     1      -2.844  12.608   8.115  1.00  0.00     0.002 A 
ATOM     82  C   UNL     1      -5.209  12.117   7.913  1.00  0.00     0.091 A 
ATOM     83  F   UNL     1      -5.912   9.840   7.792  1.00  0.00    -0.205 F 
ATOM     84  C   UNL     1      -4.164  13.045   8.037  1.00  0.00     0.022 A 
BRANCH  82  85
ATOM     85  S   UNL     1      -6.862  12.767   7.646  1.00  0.00     0.127 S 
ATOM     86  O   UNL     1      -7.212  13.248   8.980  1.00  0.00    -0.237 OA
ATOM     87  O   UNL     1      -6.619  13.816   6.655  1.00  0.00    -0.237 OA
ATOM     88  O   UNL     1      -7.647  11.645   7.149  1.00  0.00    -0.744 OA
ENDBRANCH  82  85
ENDBRANCH  54  78
BRANCH  66  89
ATOM     89  C   UNL     1      -1.004   5.100  11.781  1.00  0.00     0.023 A 
ATOM     90  C   UNL     1      -2.056   4.805  12.669  1.00  0.00     0.012 A 
ATOM     91  C   UNL     1       0.319   5.150  12.255  1.00  0.00     0.148 A 
ATOM     92  C   UNL     1      -1.795   4.565  14.017  1.00  0.00     0.002 A 
ATOM     93  C   UNL     1       0.576   4.884  13.595  1.00  0.00     0.091 A 
ATOM     94  F   UNL     1       1.298   5.444  11.387  1.00  0.00    -0.205 F 
ATOM     95  C   UNL     1      -0.480   4.595  14.477  1.00  0.00     0.022 A 
BRANCH  93  96
ATOM     96  S   UNL     1       2.239   4.837  14.270  1.00  0.00     0.127 S 
ATOM     97  O   UNL     1       2.239   6.011  15.141  1.00  0.00    -0.237 OA
ATOM     98  O   UNL     1       2.251   3.554  14.973  1.00  0.00    -0.237 OA
ATOM     99  O   UNL     1       3.140   4.912  13.128  1.00  0.00    -0.744 OA
ENDBRANCH  93  96
ENDBRANCH  66  89
ENDBRANCH  40  41
ENDBRANCH  32  35
ENDBRANCH  30  31
ENDBRANCH   1  30
TORSDOF 18
