REMARK SMILES [NH3+]C[C@@H]1CC[C@H](C(=O)N[C@@H](Cc2ccccc2)C(=O)NCCCCNC(=O)c2ccc(-c3c4nc(c(-c5cccc(S(=O)(=O)[O-])c5F)c5ccc([nH]5)c(-c5cccc(S(=O)(=O)[O-])c5F)c5nc(c(-c6cccc(S(=O)(=O)[O-])c6F)c6ccc3[nH]6)C=C5)C=C4)cc2)O1
REMARK SMILES IDX 22 1 21 2 20 3 18 4 19 5 10 7 9 8 7 9 8 10 6 12 3 13 4 14
REMARK SMILES IDX 91 15 5 16 2 17 1 18 11 22 12 23 13 24 17 25 14 26 16 27
REMARK SMILES IDX 15 28 23 29 24 30 25 31 26 32 27 34 28 35 29 36 90 37 30 38
REMARK SMILES IDX 89 39 31 40 32 41 33 42 83 43 34 44 88 45 82 46 84 47 35 48
REMARK SMILES IDX 87 49 81 50 80 51 36 53 68 54 48 55 67 56 49 57 52 58 66 59
REMARK SMILES IDX 85 60 50 61 51 62 65 64 86 65 53 66 37 67 38 68 46 69 39 70
REMARK SMILES IDX 41 71 47 72 40 73 42 74 43 75 44 76 45 77 69 78 70 79 78 80
REMARK SMILES IDX 71 81 73 82 79 83 72 84 74 85 75 86 76 87 77 88 54 89 55 90
REMARK SMILES IDX 63 91 56 92 58 93 64 94 57 95 59 96 60 97 61 98 62 99
REMARK H PARENT 20 6 9 11 1 19 1 20 1 21 25 33 84 52 52 63
REMARK Flexibility Score: inf
ROOT
ATOM      1  C   UNL     1      -3.627  -3.167   1.909  1.00  0.00     0.023 C 
ENDROOT
BRANCH   1   2
ATOM      2  C   UNL     1      -3.678  -2.187   0.747  1.00  0.00     0.116 C 
BRANCH   2   3
ATOM      3  N   UNL     1      -2.683  -1.142   0.807  1.00  0.00    -0.354 N 
ATOM      4  C   UNL     1      -2.099  -0.456  -0.214  1.00  0.00     0.242 C 
ATOM      5  O   UNL     1      -1.707   0.690   0.041  1.00  0.00    -0.273 OA
ATOM      6  H   UNL     1      -2.385  -0.892   1.712  1.00  0.00     0.163 HD
BRANCH   4   7
ATOM      7  C   UNL     1      -2.034  -0.971  -1.672  1.00  0.00     0.175 C 
BRANCH   7   8
ATOM      8  N   UNL     1      -1.773  -2.396  -1.891  1.00  0.00    -0.342 N 
ATOM      9  C   UNL     1      -0.678  -3.014  -2.416  1.00  0.00     0.249 C 
ATOM     10  O   UNL     1      -0.733  -4.239  -2.563  1.00  0.00    -0.272 OA
ATOM     11  H   UNL     1      -2.500  -3.000  -1.616  1.00  0.00     0.164 HD
BRANCH   9  12
ATOM     12  C   UNL     1       0.556  -2.223  -2.881  1.00  0.00     0.207 C 
ATOM     13  C   UNL     1       1.557  -0.153  -2.586  1.00  0.00     0.174 C 
ATOM     14  C   UNL     1       0.737  -0.023  -3.859  1.00  0.00     0.041 C 
ATOM     15  O   UNL     1       1.031  -1.301  -1.901  1.00  0.00    -0.359 OA
ATOM     16  C   UNL     1       0.344  -1.451  -4.179  1.00  0.00     0.045 C 
BRANCH  13  17
ATOM     17  C   UNL     1       1.482   1.085  -1.679  1.00  0.00     0.291 C 
BRANCH  17  18
ATOM     18  N   UNL     1       2.019   0.824  -0.340  1.00  0.00    -0.355 N 
ATOM     19  H   UNL     1       1.949   1.669   0.226  1.00  0.00     0.344 HD
ATOM     20  H   UNL     1       2.998   0.545  -0.415  1.00  0.00     0.344 HD
ATOM     21  H   UNL     1       1.485   0.074   0.101  1.00  0.00     0.344 HD
ENDBRANCH  17  18
ENDBRANCH  13  17
ENDBRANCH   9  12
ENDBRANCH   7   8
BRANCH   7  22
ATOM     22  C   UNL     1      -3.170  -0.440  -2.568  1.00  0.00     0.070 C 
BRANCH  22  23
ATOM     23  C   UNL     1      -4.568  -0.822  -2.156  1.00  0.00    -0.045 A 
ATOM     24  C   UNL     1      -5.369   0.105  -1.474  1.00  0.00     0.004 A 
ATOM     25  C   UNL     1      -5.073  -2.106  -2.404  1.00  0.00     0.004 A 
ATOM     26  C   UNL     1      -6.633  -0.259  -1.010  1.00  0.00     0.000 A 
ATOM     27  C   UNL     1      -6.331  -2.473  -1.921  1.00  0.00     0.000 A 
ATOM     28  C   UNL     1      -7.107  -1.552  -1.219  1.00  0.00     0.000 A 
ENDBRANCH  22  23
ENDBRANCH   7  22
ENDBRANCH   4   7
ENDBRANCH   2   3
ENDBRANCH   1   2
BRANCH   1  29
ATOM     29  C   UNL     1      -4.030  -2.596   3.267  1.00  0.00     0.023 C 
BRANCH  29  30
ATOM     30  C   UNL     1      -5.298  -1.749   3.294  1.00  0.00     0.116 C 
BRANCH  30  31
ATOM     31  N   UNL     1      -6.460  -2.386   2.685  1.00  0.00    -0.352 N 
ATOM     32  C   UNL     1      -7.759  -2.421   3.140  1.00  0.00     0.251 C 
ATOM     33  H   UNL     1      -6.293  -2.854   1.835  1.00  0.00     0.163 HD
ATOM     34  O   UNL     1      -8.626  -3.018   2.517  1.00  0.00    -0.269 OA
BRANCH  32  35
ATOM     35  C   UNL     1      -8.076  -1.757   4.421  1.00  0.00     0.039 A 
ATOM     36  C   UNL     1      -8.631  -2.514   5.455  1.00  0.00     0.014 A 
ATOM     37  C   UNL     1      -7.723  -0.421   4.626  1.00  0.00     0.014 A 
ATOM     38  C   UNL     1      -8.744  -1.956   6.729  1.00  0.00     0.010 A 
ATOM     39  C   UNL     1      -7.769   0.108   5.911  1.00  0.00     0.010 A 
ATOM     40  C   UNL     1      -8.266  -0.658   6.978  1.00  0.00    -0.014 A 
BRANCH  40  41
ATOM     41  C   UNL     1      -8.238  -0.094   8.351  1.00  0.00     0.031 A 
ATOM     42  C   UNL     1      -9.044   1.132   8.680  1.00  0.00     0.074 A 
ATOM     43  C   UNL     1      -7.405  -0.623   9.271  1.00  0.00     0.049 A 
ATOM     44  N   UNL     1      -9.094   1.809   9.797  1.00  0.00    -0.248 NA
ATOM     45  C   UNL     1      -9.881   1.687   7.603  1.00  0.00     0.031 C 
ATOM     46  C   UNL     1      -6.504  -1.756   9.047  1.00  0.00     0.029 A 
ATOM     47  N   UNL     1      -7.161  -0.260  10.572  1.00  0.00    -0.354 N 
ATOM     48  C   UNL     1      -9.934   2.887   9.549  1.00  0.00     0.074 A 
ATOM     49  C   UNL     1     -10.344   2.794   8.165  1.00  0.00     0.031 C 
ATOM     50  C   UNL     1      -5.813  -2.000  10.173  1.00  0.00     0.029 A 
ATOM     51  C   UNL     1      -6.204  -1.031  11.192  1.00  0.00     0.049 A 
ATOM     52  H   UNL     1      -7.627   0.482  11.021  1.00  0.00     0.167 HD
ATOM     53  C   UNL     1     -10.359   3.846  10.405  1.00  0.00     0.034 A 
ATOM     54  C   UNL     1      -5.702  -0.966  12.441  1.00  0.00     0.034 A 
ATOM     55  C   UNL     1      -9.996   3.903  11.794  1.00  0.00     0.049 A 
ATOM     56  C   UNL     1      -6.238   0.072  13.389  1.00  0.00     0.074 A 
ATOM     57  C   UNL     1     -10.438   4.785  12.764  1.00  0.00     0.029 A 
ATOM     58  N   UNL     1      -9.109   3.038  12.414  1.00  0.00    -0.354 N 
ATOM     59  N   UNL     1      -7.158   0.983  13.181  1.00  0.00    -0.248 NA
ATOM     60  C   UNL     1      -5.698   0.067  14.757  1.00  0.00     0.031 C 
ATOM     61  C   UNL     1      -9.816   4.453  13.972  1.00  0.00     0.029 A 
ATOM     62  C   UNL     1      -8.992   3.360  13.755  1.00  0.00     0.049 A 
ATOM     63  H   UNL     1      -8.632   2.302  11.967  1.00  0.00     0.167 HD
ATOM     64  C   UNL     1      -7.334   1.633  14.397  1.00  0.00     0.074 A 
ATOM     65  C   UNL     1      -6.439   0.999  15.343  1.00  0.00     0.031 C 
ATOM     66  C   UNL     1      -8.149   2.673  14.699  1.00  0.00     0.034 A 
BRANCH  53  67
ATOM     67  C   UNL     1     -11.329   4.868   9.875  1.00  0.00     0.023 A 
ATOM     68  C   UNL     1     -12.662   4.482   9.623  1.00  0.00     0.012 A 
ATOM     69  C   UNL     1     -10.947   6.208   9.672  1.00  0.00     0.148 A 
ATOM     70  C   UNL     1     -13.591   5.403   9.144  1.00  0.00     0.002 A 
ATOM     71  C   UNL     1     -11.890   7.130   9.231  1.00  0.00     0.091 A 
ATOM     72  F   UNL     1      -9.670   6.551   9.893  1.00  0.00    -0.205 F 
ATOM     73  C   UNL     1     -13.208   6.728   8.958  1.00  0.00     0.022 A 
BRANCH  71  74
ATOM     74  S   UNL     1     -11.512   8.875   9.029  1.00  0.00     0.127 S 
ATOM     75  O   UNL     1     -11.440   8.995   7.574  1.00  0.00    -0.237 OA
ATOM     76  O   UNL     1     -12.678   9.518   9.636  1.00  0.00    -0.237 OA
ATOM     77  O   UNL     1     -10.261   9.097   9.741  1.00  0.00    -0.744 OA
ENDBRANCH  71  74
ENDBRANCH  53  67
BRANCH  54  78
ATOM     78  C   UNL     1      -4.704  -1.974  12.899  1.00  0.00     0.023 A 
ATOM     79  C   UNL     1      -5.102  -2.957  13.826  1.00  0.00     0.012 A 
ATOM     80  C   UNL     1      -3.384  -1.988  12.410  1.00  0.00     0.148 A 
ATOM     81  C   UNL     1      -4.196  -3.915  14.284  1.00  0.00     0.002 A 
ATOM     82  C   UNL     1      -2.500  -2.976  12.832  1.00  0.00     0.091 A 
ATOM     83  F   UNL     1      -3.016  -1.036  11.540  1.00  0.00    -0.205 F 
ATOM     84  C   UNL     1      -2.899  -3.931  13.780  1.00  0.00     0.022 A 
BRANCH  82  85
ATOM     85  S   UNL     1      -0.852  -3.145  12.135  1.00  0.00     0.127 S 
ATOM     86  O   UNL     1      -0.020  -2.574  13.191  1.00  0.00    -0.237 OA
ATOM     87  O   UNL     1      -0.733  -4.594  11.972  1.00  0.00    -0.237 OA
ATOM     88  O   UNL     1      -0.889  -2.407  10.879  1.00  0.00    -0.744 OA
ENDBRANCH  82  85
ENDBRANCH  54  78
BRANCH  66  89
ATOM     89  C   UNL     1      -8.146   3.175  16.117  1.00  0.00     0.023 A 
ATOM     90  C   UNL     1      -7.062   3.947  16.579  1.00  0.00     0.012 A 
ATOM     91  C   UNL     1      -9.251   2.956  16.962  1.00  0.00     0.148 A 
ATOM     92  C   UNL     1      -7.067   4.473  17.870  1.00  0.00     0.002 A 
ATOM     93  C   UNL     1      -9.268   3.519  18.233  1.00  0.00     0.091 A 
ATOM     94  F   UNL     1     -10.262   2.199  16.512  1.00  0.00    -0.205 F 
ATOM     95  C   UNL     1      -8.174   4.271  18.691  1.00  0.00     0.022 A 
BRANCH  93  96
ATOM     96  S   UNL     1     -10.693   3.384  19.320  1.00  0.00     0.127 S 
ATOM     97  O   UNL     1     -10.252   2.359  20.264  1.00  0.00    -0.237 OA
ATOM     98  O   UNL     1     -10.788   4.732  19.883  1.00  0.00    -0.237 OA
ATOM     99  O   UNL     1     -11.810   3.012  18.463  1.00  0.00    -0.744 OA
ENDBRANCH  93  96
ENDBRANCH  66  89
ENDBRANCH  40  41
ENDBRANCH  32  35
ENDBRANCH  30  31
ENDBRANCH  29  30
ENDBRANCH   1  29
TORSDOF 20
