REMARK SMILES Cc1ccccc1OC1(C(=O)NCCCCNC(=O)c2ccc(-c3c4nc(c(-c5cccc(S(=O)(=O)[O-])c5F)c5ccc([nH]5)c(-c5cccc(S(=O)(=O)[O-])c5F)c5nc(c(-c6cccc(S(=O)(=O)[O-])c6F)c6ccc3[nH]6)C=C5)C=C4)cc2)CCN(c2ncc(C#N)c(N)n2)CC1
REMARK SMILES IDX 15 1 14 2 13 3 12 4 10 5 11 6 9 8 83 9 96 10 84 11 95 12
REMARK SMILES IDX 85 13 8 14 7 15 1 16 2 17 3 18 4 19 6 20 5 21 86 22 87 23
REMARK SMILES IDX 94 24 88 25 92 26 89 27 93 28 90 31 91 32 16 33 17 34 18 35
REMARK SMILES IDX 19 37 20 38 21 39 82 40 22 41 81 42 23 43 24 44 25 45 75 46
REMARK SMILES IDX 26 47 80 48 74 49 76 50 27 51 79 52 73 53 72 54 28 56 60 57
REMARK SMILES IDX 40 58 59 59 41 60 44 61 58 62 77 63 42 64 43 65 57 67 78 68
REMARK SMILES IDX 45 69 29 70 30 71 38 72 31 73 33 74 39 75 32 76 34 77 35 78
REMARK SMILES IDX 36 79 37 80 61 81 62 82 70 83 63 84 65 85 71 86 64 87 66 88
REMARK SMILES IDX 67 89 68 90 69 91 46 92 47 93 55 94 48 95 50 96 56 97 49 98
REMARK SMILES IDX 51 99 52 100 53 101 54 102
REMARK H PARENT 12 7 93 29 93 30 17 36 76 55 44 66
REMARK Flexibility Score: inf
ROOT
ATOM      1  C   UNL     1       6.523   4.232  -2.123  1.00  0.00     0.023 C 
ENDROOT
BRANCH   1   2
ATOM      2  C   UNL     1       5.882   2.974  -1.565  1.00  0.00     0.023 C 
BRANCH   2   3
ATOM      3  C   UNL     1       5.210   3.138  -0.195  1.00  0.00     0.116 C 
BRANCH   3   4
ATOM      4  N   UNL     1       3.971   3.906  -0.214  1.00  0.00    -0.353 N 
ATOM      5  C   UNL     1       2.656   3.506  -0.073  1.00  0.00     0.264 C 
ATOM      6  O   UNL     1       1.810   4.405  -0.042  1.00  0.00    -0.270 OA
ATOM      7  H   UNL     1       4.093   4.874  -0.350  1.00  0.00     0.163 HD
BRANCH   5   8
ATOM      8  C   UNL     1       2.268   1.967   0.029  1.00  0.00     0.190 C 
ATOM      9  C   UNL     1       2.745   1.374  -1.296  1.00  0.00     0.080 C 
ATOM     10  C   UNL     1       2.848   1.527   1.377  1.00  0.00     0.080 C 
ATOM     11  C   UNL     1       3.798   0.285  -1.231  1.00  0.00     0.124 C 
ATOM     12  C   UNL     1       3.701   0.278   1.368  1.00  0.00     0.124 C 
ATOM     13  N   UNL     1       4.334  -0.012   0.090  1.00  0.00    -0.340 N 
BRANCH   8  14
ATOM     14  O   UNL     1       0.816   1.914   0.088  1.00  0.00    -0.477 OA
BRANCH  14  15
ATOM     15  C   UNL     1      -0.078   0.877   0.048  1.00  0.00     0.123 A 
ATOM     16  C   UNL     1       1.279  -1.347   0.018  1.00  0.00     0.048 C 
ATOM     17  C   UNL     1       0.045  -0.524   0.014  1.00  0.00    -0.009 A 
ATOM     18  C   UNL     1      -1.108  -1.348  -0.020  1.00  0.00     0.007 A 
ATOM     19  C   UNL     1      -2.384  -0.818  -0.029  1.00  0.00     0.001 A 
ATOM     20  C   UNL     1      -1.394   1.382   0.036  1.00  0.00     0.047 A 
ATOM     21  C   UNL     1      -2.528   0.557  -0.003  1.00  0.00     0.004 A 
ENDBRANCH  14  15
ENDBRANCH   8  14
BRANCH  13  22
ATOM     22  C   UNL     1       5.067  -1.191   0.069  1.00  0.00     0.227 A 
ATOM     23  N   UNL     1       6.171  -1.221  -0.685  1.00  0.00    -0.220 NA
ATOM     24  N   UNL     1       4.582  -2.265   0.717  1.00  0.00    -0.195 NA
ATOM     25  C   UNL     1       6.859  -2.375  -0.707  1.00  0.00     0.138 A 
ATOM     26  C   UNL     1       5.263  -3.418   0.639  1.00  0.00     0.147 A 
ATOM     27  C   UNL     1       6.448  -3.514  -0.057  1.00  0.00     0.113 A 
BRANCH  26  28
ATOM     28  N   UNL     1       4.631  -4.506   1.218  1.00  0.00    -0.382 N 
ATOM     29  H   UNL     1       5.064  -5.391   1.204  1.00  0.00     0.158 HD
ATOM     30  H   UNL     1       3.750  -4.396   1.643  1.00  0.00     0.158 HD
ENDBRANCH  26  28
BRANCH  27  31
ATOM     31  C   UNL     1       7.223  -4.708  -0.117  1.00  0.00     0.105 C 
ATOM     32  N   UNL     1       7.856  -5.673  -0.150  1.00  0.00    -0.192 NA
ENDBRANCH  27  31
ENDBRANCH  13  22
ENDBRANCH   5   8
ENDBRANCH   3   4
ENDBRANCH   2   3
ENDBRANCH   1   2
BRANCH   1  33
ATOM     33  C   UNL     1       7.607   4.770  -1.224  1.00  0.00     0.116 C 
BRANCH  33  34
ATOM     34  N   UNL     1       8.862   4.077  -1.331  1.00  0.00    -0.352 N 
ATOM     35  C   UNL     1      10.108   4.589  -1.024  1.00  0.00     0.251 C 
ATOM     36  H   UNL     1       8.831   3.148  -1.654  1.00  0.00     0.163 HD
ATOM     37  O   UNL     1      11.076   4.111  -1.607  1.00  0.00    -0.269 OA
BRANCH  35  38
ATOM     38  C   UNL     1      10.266   5.540   0.125  1.00  0.00     0.039 A 
ATOM     39  C   UNL     1      11.476   5.429   0.818  1.00  0.00     0.014 A 
ATOM     40  C   UNL     1       9.161   6.063   0.787  1.00  0.00     0.014 A 
ATOM     41  C   UNL     1      11.460   5.394   2.201  1.00  0.00     0.010 A 
ATOM     42  C   UNL     1       9.101   5.921   2.139  1.00  0.00     0.010 A 
ATOM     43  C   UNL     1      10.227   5.457   2.816  1.00  0.00    -0.014 A 
BRANCH  43  44
ATOM     44  C   UNL     1       9.967   5.237   4.213  1.00  0.00     0.031 A 
ATOM     45  C   UNL     1      10.086   6.436   5.049  1.00  0.00     0.074 A 
ATOM     46  C   UNL     1       9.189   4.155   4.447  1.00  0.00     0.049 A 
ATOM     47  N   UNL     1       9.895   6.463   6.313  1.00  0.00    -0.248 NA
ATOM     48  C   UNL     1      10.462   7.742   4.498  1.00  0.00     0.031 C 
ATOM     49  C   UNL     1       8.099   3.992   5.396  1.00  0.00     0.029 A 
ATOM     50  N   UNL     1       9.246   2.915   3.819  1.00  0.00    -0.354 N 
ATOM     51  C   UNL     1       9.719   7.792   6.646  1.00  0.00     0.074 A 
ATOM     52  C   UNL     1      10.283   8.536   5.555  1.00  0.00     0.031 C 
ATOM     53  C   UNL     1       7.761   2.688   5.463  1.00  0.00     0.029 A 
ATOM     54  C   UNL     1       8.739   1.940   4.686  1.00  0.00     0.049 A 
ATOM     55  H   UNL     1       9.588   2.750   2.911  1.00  0.00     0.167 HD
ATOM     56  C   UNL     1       8.907   8.073   7.701  1.00  0.00     0.034 A 
ATOM     57  C   UNL     1       9.614   1.033   5.230  1.00  0.00     0.034 A 
ATOM     58  C   UNL     1       8.499   6.804   8.341  1.00  0.00     0.049 A 
ATOM     59  C   UNL     1       9.947   1.358   6.682  1.00  0.00     0.074 A 
ATOM     60  C   UNL     1       7.339   6.048   8.282  1.00  0.00     0.029 A 
ATOM     61  N   UNL     1       9.488   5.954   8.835  1.00  0.00    -0.354 N 
ATOM     62  N   UNL     1       9.586   2.458   7.289  1.00  0.00    -0.248 NA
ATOM     63  C   UNL     1      10.656   0.453   7.582  1.00  0.00     0.031 C 
ATOM     64  C   UNL     1       7.677   4.705   8.631  1.00  0.00     0.029 A 
ATOM     65  C   UNL     1       9.029   4.647   8.933  1.00  0.00     0.049 A 
ATOM     66  H   UNL     1      10.396   6.244   9.082  1.00  0.00     0.167 HD
ATOM     67  C   UNL     1      10.058   2.484   8.569  1.00  0.00     0.074 A 
ATOM     68  C   UNL     1      10.668   1.169   8.723  1.00  0.00     0.031 C 
ATOM     69  C   UNL     1       9.936   3.585   9.379  1.00  0.00     0.034 A 
BRANCH  56  70
ATOM     70  C   UNL     1       8.254   9.413   8.025  1.00  0.00     0.023 A 
ATOM     71  C   UNL     1       7.317   9.403   9.084  1.00  0.00     0.012 A 
ATOM     72  C   UNL     1       8.422  10.664   7.373  1.00  0.00     0.148 A 
ATOM     73  C   UNL     1       6.573  10.531   9.451  1.00  0.00     0.002 A 
ATOM     74  C   UNL     1       7.694  11.799   7.752  1.00  0.00     0.091 A 
ATOM     75  F   UNL     1       9.276  10.790   6.360  1.00  0.00    -0.205 F 
ATOM     76  C   UNL     1       6.760  11.731   8.786  1.00  0.00     0.022 A 
BRANCH  74  77
ATOM     77  S   UNL     1       7.888  13.410   6.955  1.00  0.00     0.127 S 
ATOM     78  O   UNL     1       6.540  13.664   6.446  1.00  0.00    -0.237 OA
ATOM     79  O   UNL     1       8.284  14.265   8.074  1.00  0.00    -0.237 OA
ATOM     80  O   UNL     1       8.904  13.245   5.923  1.00  0.00    -0.744 OA
ENDBRANCH  74  77
ENDBRANCH  56  70
BRANCH  57  81
ATOM     81  C   UNL     1      10.565   0.513   4.185  1.00  0.00     0.023 A 
ATOM     82  C   UNL     1       9.969  -0.206   3.115  1.00  0.00     0.012 A 
ATOM     83  C   UNL     1      11.793   1.160   3.962  1.00  0.00     0.148 A 
ATOM     84  C   UNL     1      10.459  -0.083   1.812  1.00  0.00     0.002 A 
ATOM     85  C   UNL     1      12.269   1.289   2.657  1.00  0.00     0.091 A 
ATOM     86  F   UNL     1      12.426   1.710   5.006  1.00  0.00    -0.205 F 
ATOM     87  C   UNL     1      11.574   0.715   1.578  1.00  0.00     0.022 A 
BRANCH  85  88
ATOM     88  S   UNL     1      13.670   2.347   2.272  1.00  0.00     0.127 S 
ATOM     89  O   UNL     1      14.757   1.379   2.157  1.00  0.00    -0.237 OA
ATOM     90  O   UNL     1      13.270   2.954   1.005  1.00  0.00    -0.237 OA
ATOM     91  O   UNL     1      13.765   3.282   3.384  1.00  0.00    -0.744 OA
ENDBRANCH  85  88
ENDBRANCH  57  81
BRANCH  69  92
ATOM     92  C   UNL     1      10.669   3.771  10.697  1.00  0.00     0.023 A 
ATOM     93  C   UNL     1      11.810   3.023  11.038  1.00  0.00     0.012 A 
ATOM     94  C   UNL     1      10.314   4.821  11.587  1.00  0.00     0.148 A 
ATOM     95  C   UNL     1      12.501   3.230  12.236  1.00  0.00     0.002 A 
ATOM     96  C   UNL     1      11.098   5.123  12.693  1.00  0.00     0.091 A 
ATOM     97  F   UNL     1       9.191   5.525  11.389  1.00  0.00    -0.205 F 
ATOM     98  C   UNL     1      12.162   4.298  13.052  1.00  0.00     0.022 A 
BRANCH  96  99
ATOM     99  S   UNL     1      10.883   6.663  13.596  1.00  0.00     0.127 S 
ATOM    100  O   UNL     1      10.134   6.221  14.769  1.00  0.00    -0.237 OA
ATOM    101  O   UNL     1      12.267   7.056  13.865  1.00  0.00    -0.237 OA
ATOM    102  O   UNL     1      10.178   7.554  12.684  1.00  0.00    -0.744 OA
ENDBRANCH  96  99
ENDBRANCH  69  92
ENDBRANCH  43  44
ENDBRANCH  35  38
ENDBRANCH  33  34
ENDBRANCH   1  33
TORSDOF 19
