REMARK SMILES Cc1ccc(C)c(S(=O)(=O)N[C@H](CC2=c3ccccc3=NC2)C(=O)NCCCCNC(=O)c2ccc(-c3c4nc(c(-c5cccc(S(=O)(=O)[O-])c5F)c5ccc([nH]5)c(-c5cccc(S(=O)(=O)[O-])c5F)c5nc(c(-c6cccc(S(=O)(=O)[O-])c6F)c6ccc3[nH]6)C=C5)C=C4)cc2)c1
REMARK SMILES IDX 27 1 26 2 25 3 23 4 24 5 12 7 11 8 8 10 9 11 10 12 7 13 1 14
REMARK SMILES IDX 2 15 3 16 96 17 4 18 5 19 6 20 13 21 14 22 15 23 22 24 16 25
REMARK SMILES IDX 20 26 21 27 17 28 19 29 18 30 28 31 29 32 30 33 31 34 32 36
REMARK SMILES IDX 33 37 34 38 95 39 35 40 94 41 36 42 37 43 38 44 88 45 39 46
REMARK SMILES IDX 93 47 87 48 89 49 40 50 92 51 86 52 85 53 41 55 73 56 53 57
REMARK SMILES IDX 72 58 54 59 57 60 71 61 90 62 55 63 56 64 70 66 91 67 58 68
REMARK SMILES IDX 42 69 43 70 51 71 44 72 46 73 52 74 45 75 47 76 48 77 49 78
REMARK SMILES IDX 50 79 74 80 75 81 83 82 76 83 78 84 84 85 77 86 79 87 80 88
REMARK SMILES IDX 81 89 82 90 59 91 60 92 68 93 61 94 63 95 69 96 62 97 64 98
REMARK SMILES IDX 65 99 66 100 67 101
REMARK H PARENT 25 6 11 9 30 35 89 54 57 65
REMARK Flexibility Score: inf
ROOT
ATOM      1  C   UNL     1      -1.609   8.047  -0.815  1.00  0.00     0.023 C 
ENDROOT
BRANCH   1   2
ATOM      2  C   UNL     1      -0.960   6.997  -1.771  1.00  0.00     0.116 C 
BRANCH   2   3
ATOM      3  N   UNL     1       0.457   6.684  -1.630  1.00  0.00    -0.355 N 
ATOM      4  C   UNL     1       1.191   5.579  -1.269  1.00  0.00     0.238 C 
ATOM      5  O   UNL     1       2.369   5.805  -0.975  1.00  0.00    -0.273 OA
ATOM      6  H   UNL     1       1.030   7.454  -1.847  1.00  0.00     0.163 HD
BRANCH   4   7
ATOM      7  C   UNL     1       0.612   4.165  -1.058  1.00  0.00     0.163 C 
BRANCH   7   8
ATOM      8  N   UNL     1      -0.455   3.859  -2.081  1.00  0.00    -0.198 NA
ATOM      9  H   UNL     1      -1.269   3.522  -1.567  1.00  0.00     0.142 HD
BRANCH   8  10
ATOM     10  S   UNL     1      -0.143   2.722  -3.313  1.00  0.00     0.241 S 
ATOM     11  O   UNL     1       1.242   2.798  -3.655  1.00  0.00    -0.207 OA
ATOM     12  O   UNL     1      -1.198   2.967  -4.286  1.00  0.00    -0.207 OA
BRANCH  10  13
ATOM     13  C   UNL     1      -0.484   1.120  -2.622  1.00  0.00     0.085 A 
ATOM     14  C   UNL     1      -1.740  -0.198   0.716  1.00  0.00     0.044 C 
ATOM     15  C   UNL     1      -1.212  -0.164  -0.685  1.00  0.00    -0.050 A 
ATOM     16  C   UNL     1      -0.828  -1.337  -1.336  1.00  0.00     0.004 A 
ATOM     17  C   UNL     1      -1.076   1.052  -1.356  1.00  0.00     0.025 A 
ATOM     18  C   UNL     1      -0.311  -1.287  -2.633  1.00  0.00     0.005 A 
ATOM     19  C   UNL     1      -0.126  -0.061  -3.299  1.00  0.00    -0.031 A 
ATOM     20  C   UNL     1       0.427  -0.113  -4.698  1.00  0.00     0.046 C 
ENDBRANCH  10  13
ENDBRANCH   8  10
ENDBRANCH   7   8
BRANCH   7  21
ATOM     21  C   UNL     1       0.084   3.857   0.405  1.00  0.00     0.063 C 
BRANCH  21  22
ATOM     22  C   UNL     1       0.261   4.817   1.565  1.00  0.00    -0.037 C 
ATOM     23  C   UNL     1       0.702   4.715   2.823  1.00  0.00     0.001 A 
ATOM     24  C   UNL     1      -0.268   6.189   1.374  1.00  0.00     0.174 C 
ATOM     25  C   UNL     1       1.193   3.693   3.690  1.00  0.00     0.010 A 
ATOM     26  C   UNL     1       0.483   6.079   3.363  1.00  0.00     0.065 A 
ATOM     27  N   UNL     1      -0.147   6.935   2.629  1.00  0.00    -0.280 NA
ATOM     28  C   UNL     1       1.534   4.021   4.952  1.00  0.00     0.001 A 
ATOM     29  C   UNL     1       0.973   6.391   4.710  1.00  0.00     0.028 A 
ATOM     30  C   UNL     1       1.478   5.390   5.442  1.00  0.00     0.002 A 
ENDBRANCH  21  22
ENDBRANCH   7  21
ENDBRANCH   4   7
ENDBRANCH   2   3
ENDBRANCH   1   2
BRANCH   1  31
ATOM     31  C   UNL     1      -0.747   8.957   0.097  1.00  0.00     0.023 C 
BRANCH  31  32
ATOM     32  C   UNL     1      -0.714  10.482  -0.086  1.00  0.00     0.116 C 
BRANCH  32  33
ATOM     33  N   UNL     1      -2.014  11.093  -0.370  1.00  0.00    -0.352 N 
ATOM     34  C   UNL     1      -2.550  11.631  -1.530  1.00  0.00     0.251 C 
ATOM     35  H   UNL     1      -2.619  11.129   0.406  1.00  0.00     0.163 HD
ATOM     36  O   UNL     1      -3.614  12.243  -1.480  1.00  0.00    -0.269 OA
BRANCH  34  37
ATOM     37  C   UNL     1      -1.859  11.461  -2.827  1.00  0.00     0.039 A 
ATOM     38  C   UNL     1      -2.284  11.989  -4.045  1.00  0.00     0.014 A 
ATOM     39  C   UNL     1      -0.795  10.593  -2.868  1.00  0.00     0.014 A 
ATOM     40  C   UNL     1      -1.679  11.507  -5.218  1.00  0.00     0.010 A 
ATOM     41  C   UNL     1       0.071  10.588  -3.894  1.00  0.00     0.010 A 
ATOM     42  C   UNL     1      -0.555  10.683  -5.104  1.00  0.00    -0.014 A 
BRANCH  42  43
ATOM     43  C   UNL     1       0.249  10.141  -6.170  1.00  0.00     0.031 A 
ATOM     44  C   UNL     1       1.180  11.143  -6.718  1.00  0.00     0.074 A 
ATOM     45  C   UNL     1       0.453   8.822  -6.365  1.00  0.00     0.049 A 
ATOM     46  N   UNL     1       0.922  11.945  -7.695  1.00  0.00    -0.248 NA
ATOM     47  C   UNL     1       2.387  11.496  -5.947  1.00  0.00     0.031 C 
ATOM     48  C   UNL     1      -0.018   7.663  -5.603  1.00  0.00     0.029 A 
ATOM     49  N   UNL     1       1.254   8.255  -7.297  1.00  0.00    -0.354 N 
ATOM     50  C   UNL     1       2.072  12.704  -7.822  1.00  0.00     0.074 A 
ATOM     51  C   UNL     1       2.752  12.625  -6.557  1.00  0.00     0.031 C 
ATOM     52  C   UNL     1       0.662   6.553  -5.992  1.00  0.00     0.029 A 
ATOM     53  C   UNL     1       1.490   6.895  -7.136  1.00  0.00     0.049 A 
ATOM     54  H   UNL     1       1.642   8.771  -8.040  1.00  0.00     0.167 HD
ATOM     55  C   UNL     1       2.559  13.045  -9.044  1.00  0.00     0.034 A 
ATOM     56  C   UNL     1       2.342   6.164  -7.897  1.00  0.00     0.034 A 
ATOM     57  C   UNL     1       1.656  12.656 -10.099  1.00  0.00     0.049 A 
ATOM     58  C   UNL     1       2.518   6.932  -9.162  1.00  0.00     0.074 A 
ATOM     59  C   UNL     1       0.340  12.936 -10.410  1.00  0.00     0.029 A 
ATOM     60  N   UNL     1       1.959  11.478 -10.745  1.00  0.00    -0.354 N 
ATOM     61  N   UNL     1       1.555   7.174 -10.009  1.00  0.00    -0.248 NA
ATOM     62  C   UNL     1       3.681   7.798  -9.277  1.00  0.00     0.031 C 
ATOM     63  C   UNL     1      -0.209  11.694 -10.852  1.00  0.00     0.029 A 
ATOM     64  C   UNL     1       0.809  10.738 -10.847  1.00  0.00     0.049 A 
ATOM     65  H   UNL     1       2.848  11.214 -11.076  1.00  0.00     0.167 HD
ATOM     66  C   UNL     1       1.794   8.470 -10.451  1.00  0.00     0.074 A 
ATOM     67  C   UNL     1       3.171   8.755 -10.056  1.00  0.00     0.031 C 
ATOM     68  C   UNL     1       0.767   9.287 -10.829  1.00  0.00     0.034 A 
BRANCH  55  69
ATOM     69  C   UNL     1       3.995  13.382  -9.313  1.00  0.00     0.023 A 
ATOM     70  C   UNL     1       4.279  14.107 -10.484  1.00  0.00     0.012 A 
ATOM     71  C   UNL     1       5.091  12.867  -8.585  1.00  0.00     0.148 A 
ATOM     72  C   UNL     1       5.595  14.323 -10.902  1.00  0.00     0.002 A 
ATOM     73  C   UNL     1       6.395  13.169  -8.947  1.00  0.00     0.091 A 
ATOM     74  F   UNL     1       4.888  11.967  -7.616  1.00  0.00    -0.205 F 
ATOM     75  C   UNL     1       6.655  13.877 -10.120  1.00  0.00     0.022 A 
BRANCH  73  76
ATOM     76  S   UNL     1       7.784  12.675  -7.921  1.00  0.00     0.127 S 
ATOM     77  O   UNL     1       8.305  11.533  -8.665  1.00  0.00    -0.237 OA
ATOM     78  O   UNL     1       8.623  13.873  -7.953  1.00  0.00    -0.237 OA
ATOM     79  O   UNL     1       7.207  12.390  -6.613  1.00  0.00    -0.744 OA
ENDBRANCH  73  76
ENDBRANCH  55  69
BRANCH  56  80
ATOM     80  C   UNL     1       3.236   5.024  -7.567  1.00  0.00     0.023 A 
ATOM     81  C   UNL     1       3.862   4.335  -8.631  1.00  0.00     0.012 A 
ATOM     82  C   UNL     1       3.744   4.831  -6.263  1.00  0.00     0.148 A 
ATOM     83  C   UNL     1       5.006   3.557  -8.422  1.00  0.00     0.002 A 
ATOM     84  C   UNL     1       4.880   4.047  -6.060  1.00  0.00     0.091 A 
ATOM     85  F   UNL     1       3.182   5.498  -5.246  1.00  0.00    -0.205 F 
ATOM     86  C   UNL     1       5.525   3.428  -7.141  1.00  0.00     0.022 A 
BRANCH  84  87
ATOM     87  S   UNL     1       5.655   3.854  -4.447  1.00  0.00     0.127 S 
ATOM     88  O   UNL     1       5.870   2.407  -4.382  1.00  0.00    -0.237 OA
ATOM     89  O   UNL     1       6.876   4.641  -4.606  1.00  0.00    -0.237 OA
ATOM     90  O   UNL     1       4.696   4.367  -3.481  1.00  0.00    -0.744 OA
ENDBRANCH  84  87
ENDBRANCH  56  80
BRANCH  68  91
ATOM     91  C   UNL     1      -0.595   8.665 -11.024  1.00  0.00     0.023 A 
ATOM     92  C   UNL     1      -1.368   8.177  -9.949  1.00  0.00     0.012 A 
ATOM     93  C   UNL     1      -1.183   8.754 -12.297  1.00  0.00     0.148 A 
ATOM     94  C   UNL     1      -2.698   7.789 -10.141  1.00  0.00     0.002 A 
ATOM     95  C   UNL     1      -2.515   8.403 -12.476  1.00  0.00     0.091 A 
ATOM     96  F   UNL     1      -0.433   9.228 -13.303  1.00  0.00    -0.205 F 
ATOM     97  C   UNL     1      -3.276   7.916 -11.402  1.00  0.00     0.022 A 
BRANCH  95  98
ATOM     98  S   UNL     1      -3.353   8.641 -14.045  1.00  0.00     0.127 S 
ATOM     99  O   UNL     1      -3.632   7.266 -14.455  1.00  0.00    -0.237 OA
ATOM    100  O   UNL     1      -4.533   9.413 -13.650  1.00  0.00    -0.237 OA
ATOM    101  O   UNL     1      -2.421   9.366 -14.899  1.00  0.00    -0.744 OA
ENDBRANCH  95  98
ENDBRANCH  68  91
ENDBRANCH  42  43
ENDBRANCH  34  37
ENDBRANCH  32  33
ENDBRANCH  31  32
ENDBRANCH   1  31
TORSDOF 19
