REMARK SMILES C=C1C(=O)O[C@H]2[C@@H]1[C@H](OC(=O)[C@]1(C)O[C@@H]1C)[C@@H](OC(C)=O)/C(C(=O)NCCCCNC(=O)c1ccc(-c3c4nc(c(-c5cccc(S(=O)(=O)[O-])c5F)c5ccc([nH]5)c(-c5cccc(S(=O)(=O)[O-])c5F)c5nc(c(-c6cccc(S(=O)(=O)[O-])c6F)c6ccc3[nH]6)C=C5)C=C4)cc1)=C/[C@@H]1O[C@@H]1[C@]1(C)O[C@H]21
REMARK SMILES IDX 26 1 25 2 23 3 24 4 22 6 96 7 17 8 8 9 7 10 1 11 2 12 3 13
REMARK SMILES IDX 5 14 4 15 6 16 9 18 10 19 11 20 12 21 14 22 15 23 13 24
REMARK SMILES IDX 16 25 18 26 19 27 20 28 21 29 97 30 98 31 99 32 100 33
REMARK SMILES IDX 102 34 103 35 101 36 27 38 28 39 29 40 30 41 31 42 32 44
REMARK SMILES IDX 33 45 34 46 95 47 35 48 94 49 36 50 37 51 38 52 88 53 39 54
REMARK SMILES IDX 93 55 87 56 89 57 40 58 92 59 86 60 85 61 41 63 73 64 53 65
REMARK SMILES IDX 72 66 54 67 57 68 71 69 90 70 55 71 56 72 70 74 91 75 58 76
REMARK SMILES IDX 42 77 43 78 51 79 44 80 46 81 52 82 45 83 47 84 48 85 49 86
REMARK SMILES IDX 50 87 74 88 75 89 83 90 76 91 78 92 84 93 77 94 79 95 80 96
REMARK SMILES IDX 81 97 82 98 59 99 60 100 68 101 61 102 63 103 69 104 62 105
REMARK SMILES IDX 64 106 65 107 66 108 67 109
REMARK H PARENT 25 5 30 43 89 62 57 73
REMARK Flexibility Score: 90.00
ROOT
ATOM      1  C   UNL     1      -3.519  -6.821   1.072  1.00  0.00     0.116 C 
ENDROOT
BRANCH   1   2
ATOM      2  N   UNL     1      -4.377  -6.019   1.928  1.00  0.00    -0.352 N 
ATOM      3  C   UNL     1      -4.011  -5.024   2.769  1.00  0.00     0.250 C 
ATOM      4  O   UNL     1      -4.788  -4.538   3.581  1.00  0.00    -0.270 OA
ATOM      5  H   UNL     1      -5.339  -6.224   1.891  1.00  0.00     0.163 HD
BRANCH   3   6
ATOM      6  C   UNL     1      -2.596  -4.646   2.780  1.00  0.00     0.060 C 
ATOM      7  C   UNL     1      -1.919  -4.046   1.785  1.00  0.00     0.020 C 
BRANCH   6   8
ATOM      8  C   UNL     1      -1.908  -4.910   4.061  1.00  0.00     0.253 C 
BRANCH   8   9
ATOM      9  C   UNL     1      -2.251  -4.133   5.348  1.00  0.00     0.233 C 
BRANCH   9  10
ATOM     10  C   UNL     1      -2.321  -2.572   5.237  1.00  0.00     0.115 C 
ATOM     11  C   UNL     1      -4.361  -2.199   6.823  1.00  0.00     0.021 C 
ATOM     12  C   UNL     1      -3.313  -1.822   6.081  1.00  0.00     0.041 C 
ATOM     13  C   UNL     1      -3.080  -0.388   5.750  1.00  0.00     0.334 C 
ATOM     14  O   UNL     1      -2.462  -0.375   4.530  1.00  0.00    -0.455 OA
ATOM     15  O   UNL     1      -3.345   0.577   6.441  1.00  0.00    -0.247 OA
ATOM     16  C   UNL     1      -2.513  -1.717   3.954  1.00  0.00     0.220 CG0
ATOM     17  G   UNL     1      -3.830  -1.799   3.196  1.00  0.00     0.000 G0
ENDBRANCH   9  10
BRANCH   9  18
ATOM     18  O   UNL     1      -1.044  -4.427   6.186  1.00  0.00    -0.455 OA
BRANCH  18  19
ATOM     19  C   UNL     1      -1.030  -5.642   6.811  1.00  0.00     0.341 C 
ATOM     20  O   UNL     1      -2.038  -6.136   7.302  1.00  0.00    -0.249 OA
BRANCH  19  21
ATOM     21  C   UNL     1       0.240  -6.448   6.681  1.00  0.00     0.188 C 
ATOM     22  O   UNL     1       1.461  -5.721   6.912  1.00  0.00    -0.354 OA
ATOM     23  C   UNL     1       1.314  -6.271   5.599  1.00  0.00     0.160 C 
ATOM     24  C   UNL     1       0.234  -7.832   7.293  1.00  0.00     0.058 C 
ATOM     25  C   UNL     1       1.423  -5.272   4.512  1.00  0.00     0.042 C 
ENDBRANCH  19  21
ENDBRANCH  18  19
ENDBRANCH   9  18
ENDBRANCH   8   9
BRANCH   8  26
ATOM     26  O   UNL     1      -1.628  -6.339   4.180  1.00  0.00    -0.453 OA
BRANCH  26  27
ATOM     27  C   UNL     1      -2.316  -7.410   4.609  1.00  0.00     0.303 C 
ATOM     28  C   UNL     1      -3.723  -7.283   5.088  1.00  0.00     0.139 C 
ATOM     29  O   UNL     1      -1.767  -8.510   4.561  1.00  0.00    -0.253 OA
ENDBRANCH  26  27
ENDBRANCH   8  26
ENDBRANCH   6   8
BRANCH   7  30
ATOM     30  C   UNL     1      -2.343  -3.432   0.537  1.00  0.00     0.174 C 
ATOM     31  O   UNL     1      -1.887  -2.066   0.376  1.00  0.00    -0.362 OA
ATOM     32  C   UNL     1      -3.291  -2.264   0.409  1.00  0.00     0.186 C 
BRANCH  32  33
ATOM     33  C   UNL     1      -4.113  -2.046   1.677  1.00  0.00     0.125 C 
ATOM     34  O   UNL     1      -3.977  -0.737   2.235  1.00  0.00    -0.359 OA
ATOM     35  C   UNL     1      -3.830  -1.799   3.196  1.00  0.00     0.195 CG0
ATOM     36  C   UNL     1      -5.565  -2.395   1.391  1.00  0.00     0.048 C 
ATOM     37  G   UNL     1      -2.513  -1.717   3.954  1.00  0.00     0.000 G0
ENDBRANCH  32  33
ENDBRANCH   7  30
ENDBRANCH   3   6
ENDBRANCH   1   2
BRANCH   1  38
ATOM     38  C   UNL     1      -3.515  -8.297   1.456  1.00  0.00     0.023 C 
BRANCH  38  39
ATOM     39  C   UNL     1      -4.891  -8.946   1.502  1.00  0.00     0.023 C 
BRANCH  39  40
ATOM     40  C   UNL     1      -5.726  -8.659   0.270  1.00  0.00     0.116 C 
BRANCH  40  41
ATOM     41  N   UNL     1      -4.995  -8.947  -0.958  1.00  0.00    -0.352 N 
ATOM     42  C   UNL     1      -5.398  -9.689  -2.034  1.00  0.00     0.251 C 
ATOM     43  H   UNL     1      -4.094  -8.556  -1.021  1.00  0.00     0.163 HD
ATOM     44  O   UNL     1      -4.597 -10.004  -2.906  1.00  0.00    -0.269 OA
BRANCH  42  45
ATOM     45  C   UNL     1      -6.806 -10.103  -2.100  1.00  0.00     0.039 A 
ATOM     46  C   UNL     1      -7.110 -11.428  -2.405  1.00  0.00     0.014 A 
ATOM     47  C   UNL     1      -7.812  -9.181  -1.797  1.00  0.00     0.014 A 
ATOM     48  C   UNL     1      -8.440 -11.834  -2.387  1.00  0.00     0.010 A 
ATOM     49  C   UNL     1      -9.116  -9.617  -1.659  1.00  0.00     0.010 A 
ATOM     50  C   UNL     1      -9.448 -10.935  -2.001  1.00  0.00    -0.014 A 
BRANCH  50  51
ATOM     51  C   UNL     1     -10.872 -11.331  -2.013  1.00  0.00     0.031 A 
ATOM     52  C   UNL     1     -11.832 -10.606  -2.917  1.00  0.00     0.074 A 
ATOM     53  C   UNL     1     -11.306 -12.284  -1.167  1.00  0.00     0.049 A 
ATOM     54  N   UNL     1     -13.119 -10.776  -3.058  1.00  0.00    -0.248 NA
ATOM     55  C   UNL     1     -11.282  -9.515  -3.744  1.00  0.00     0.031 C 
ATOM     56  C   UNL     1     -10.480 -12.981  -0.179  1.00  0.00     0.029 A 
ATOM     57  N   UNL     1     -12.556 -12.816  -0.993  1.00  0.00    -0.354 N 
ATOM     58  C   UNL     1     -13.535  -9.792  -3.945  1.00  0.00     0.074 A 
ATOM     59  C   UNL     1     -12.377  -8.992  -4.269  1.00  0.00     0.031 C 
ATOM     60  C   UNL     1     -11.243 -13.864   0.485  1.00  0.00     0.029 A 
ATOM     61  C   UNL     1     -12.613 -13.774  -0.010  1.00  0.00     0.049 A 
ATOM     62  H   UNL     1     -13.339 -12.538  -1.521  1.00  0.00     0.167 HD
ATOM     63  C   UNL     1     -14.763  -9.596  -4.477  1.00  0.00     0.034 A 
ATOM     64  C   UNL     1     -13.656 -14.500   0.435  1.00  0.00     0.034 A 
ATOM     65  C   UNL     1     -15.891 -10.436  -4.192  1.00  0.00     0.049 A 
ATOM     66  C   UNL     1     -14.995 -14.317  -0.226  1.00  0.00     0.074 A 
ATOM     67  C   UNL     1     -17.156 -10.397  -4.747  1.00  0.00     0.029 A 
ATOM     68  N   UNL     1     -15.889 -11.467  -3.264  1.00  0.00    -0.354 N 
ATOM     69  N   UNL     1     -15.335 -13.490  -1.185  1.00  0.00    -0.248 NA
ATOM     70  C   UNL     1     -16.081 -15.197   0.225  1.00  0.00     0.031 C 
ATOM     71  C   UNL     1     -17.929 -11.389  -4.133  1.00  0.00     0.029 A 
ATOM     72  C   UNL     1     -17.133 -12.069  -3.223  1.00  0.00     0.049 A 
ATOM     73  H   UNL     1     -15.116 -11.731  -2.715  1.00  0.00     0.167 HD
ATOM     74  C   UNL     1     -16.663 -13.774  -1.480  1.00  0.00     0.074 A 
ATOM     75  C   UNL     1     -17.057 -14.864  -0.610  1.00  0.00     0.031 C 
ATOM     76  C   UNL     1     -17.487 -13.183  -2.381  1.00  0.00     0.034 A 
BRANCH  63  77
ATOM     77  C   UNL     1     -14.927  -8.459  -5.452  1.00  0.00     0.023 A 
ATOM     78  C   UNL     1     -14.302  -8.520  -6.716  1.00  0.00     0.012 A 
ATOM     79  C   UNL     1     -15.718  -7.340  -5.129  1.00  0.00     0.148 A 
ATOM     80  C   UNL     1     -14.422  -7.467  -7.622  1.00  0.00     0.002 A 
ATOM     81  C   UNL     1     -15.877  -6.319  -6.058  1.00  0.00     0.091 A 
ATOM     82  F   UNL     1     -16.283  -7.285  -3.914  1.00  0.00    -0.205 F 
ATOM     83  C   UNL     1     -15.218  -6.372  -7.297  1.00  0.00     0.022 A 
BRANCH  81  84
ATOM     84  S   UNL     1     -16.948  -4.907  -5.767  1.00  0.00     0.127 S 
ATOM     85  O   UNL     1     -15.974  -3.830  -5.590  1.00  0.00    -0.237 OA
ATOM     86  O   UNL     1     -17.711  -4.840  -7.014  1.00  0.00    -0.237 OA
ATOM     87  O   UNL     1     -17.737  -5.237  -4.589  1.00  0.00    -0.744 OA
ENDBRANCH  81  84
ENDBRANCH  63  77
BRANCH  64  88
ATOM     88  C   UNL     1     -13.448 -15.517   1.502  1.00  0.00     0.023 A 
ATOM     89  C   UNL     1     -13.509 -16.886   1.179  1.00  0.00     0.012 A 
ATOM     90  C   UNL     1     -13.146 -15.135   2.823  1.00  0.00     0.148 A 
ATOM     91  C   UNL     1     -13.304 -17.858   2.159  1.00  0.00     0.002 A 
ATOM     92  C   UNL     1     -12.888 -16.107   3.782  1.00  0.00     0.091 A 
ATOM     93  F   UNL     1     -13.097 -13.826   3.109  1.00  0.00    -0.205 F 
ATOM     94  C   UNL     1     -12.984 -17.469   3.457  1.00  0.00     0.022 A 
BRANCH  92  95
ATOM     95  S   UNL     1     -12.338 -15.700   5.443  1.00  0.00     0.127 S 
ATOM     96  O   UNL     1     -13.487 -16.108   6.247  1.00  0.00    -0.237 OA
ATOM     97  O   UNL     1     -11.154 -16.549   5.583  1.00  0.00    -0.237 OA
ATOM     98  O   UNL     1     -12.054 -14.272   5.426  1.00  0.00    -0.744 OA
ENDBRANCH  92  95
ENDBRANCH  64  88
BRANCH  76  99
ATOM     99  C   UNL     1     -18.884 -13.729  -2.508  1.00  0.00     0.023 A 
ATOM    100  C   UNL     1     -19.824 -13.508  -1.483  1.00  0.00     0.012 A 
ATOM    101  C   UNL     1     -19.281 -14.401  -3.680  1.00  0.00     0.148 A 
ATOM    102  C   UNL     1     -21.129 -13.983  -1.606  1.00  0.00     0.002 A 
ATOM    103  C   UNL     1     -20.596 -14.823  -3.820  1.00  0.00     0.091 A 
ATOM    104  F   UNL     1     -18.366 -14.617  -4.636  1.00  0.00    -0.205 F 
ATOM    105  C   UNL     1     -21.518 -14.629  -2.778  1.00  0.00     0.022 A 
BRANCH 103 106
ATOM    106  S   UNL     1     -21.209 -15.567  -5.335  1.00  0.00     0.127 S 
ATOM    107  O   UNL     1     -21.343 -16.969  -4.945  1.00  0.00    -0.237 OA
ATOM    108  O   UNL     1     -22.477 -14.864  -5.535  1.00  0.00    -0.237 OA
ATOM    109  O   UNL     1     -20.201 -15.292  -6.351  1.00  0.00    -0.744 OA
ENDBRANCH 103 106
ENDBRANCH  76  99
ENDBRANCH  50  51
ENDBRANCH  42  45
ENDBRANCH  40  41
ENDBRANCH  39  40
ENDBRANCH  38  39
ENDBRANCH   1  38
TORSDOF 19
