REMARK SMILES CC(C)COc1cccc(N2C[C@@H](C(=O)NCCCCNC(=O)c3ccc(-c4c5nc(c(-c6cccc(S(=O)(=O)[O-])c6F)c6ccc([nH]6)c(-c6cccc(S(=O)(=O)[O-])c6F)c6nc(c(-c7cccc(S(=O)(=O)[O-])c7F)c7ccc4[nH]7)C=C6)C=C5)cc3)CC2=O)c1
REMARK SMILES IDX 18 1 17 2 16 3 14 4 15 5 13 7 11 8 12 9 88 10 87 11 89 12
REMARK SMILES IDX 10 13 6 14 7 15 90 16 8 17 9 18 5 19 4 20 2 21 1 22 3 23
REMARK SMILES IDX 19 24 20 25 21 26 22 27 23 29 24 30 25 31 86 32 26 33 85 34
REMARK SMILES IDX 27 35 28 36 29 37 79 38 30 39 84 40 78 41 80 42 31 43 83 44
REMARK SMILES IDX 77 45 76 46 32 48 64 49 44 50 63 51 45 52 48 53 62 54 81 55
REMARK SMILES IDX 46 56 47 57 61 59 82 60 49 61 33 62 34 63 42 64 35 65 37 66
REMARK SMILES IDX 43 67 36 68 38 69 39 70 40 71 41 72 65 73 66 74 74 75 67 76
REMARK SMILES IDX 69 77 75 78 68 79 70 80 71 81 72 82 73 83 50 84 51 85 59 86
REMARK SMILES IDX 52 87 54 88 60 89 53 90 55 91 56 92 57 93 58 94
REMARK H PARENT 16 6 21 28 80 47 48 58
REMARK Flexibility Score: inf
ROOT
ATOM      1  C   UNL     1       5.277  -1.504   1.575  1.00  0.00     0.023 C 
ENDROOT
BRANCH   1   2
ATOM      2  C   UNL     1       4.174  -1.206   2.593  1.00  0.00     0.116 C 
BRANCH   2   3
ATOM      3  N   UNL     1       4.702  -0.762   3.871  1.00  0.00    -0.356 N 
ATOM      4  C   UNL     1       4.613   0.418   4.537  1.00  0.00     0.225 C 
ATOM      5  O   UNL     1       5.123   0.471   5.660  1.00  0.00    -0.275 OA
ATOM      6  H   UNL     1       5.224  -1.448   4.346  1.00  0.00     0.163 HD
BRANCH   4   7
ATOM      7  C   UNL     1       3.905   1.641   3.991  1.00  0.00     0.107 C 
ATOM      8  N   UNL     1       2.018   2.188   2.696  1.00  0.00    -0.311 N 
ATOM      9  C   UNL     1       2.402   1.469   3.889  1.00  0.00     0.139 C 
ATOM     10  C   UNL     1       3.123   2.544   1.922  1.00  0.00     0.227 C 
ATOM     11  C   UNL     1       4.377   2.114   2.630  1.00  0.00     0.116 C 
ATOM     12  O   UNL     1       3.142   3.110   0.835  1.00  0.00    -0.274 OA
BRANCH   8  13
ATOM     13  C   UNL     1       0.666   2.236   2.267  1.00  0.00     0.047 A 
ATOM     14  C   UNL     1      -0.923   1.842   0.489  1.00  0.00     0.121 A 
ATOM     15  C   UNL     1      -1.984   1.876   1.384  1.00  0.00     0.046 A 
ATOM     16  C   UNL     1       0.368   2.148   0.907  1.00  0.00     0.072 A 
ATOM     17  C   UNL     1      -1.721   2.102   2.735  1.00  0.00     0.006 A 
ATOM     18  C   UNL     1      -0.398   2.227   3.180  1.00  0.00     0.026 A 
BRANCH  14  19
ATOM     19  O   UNL     1      -1.120   1.479  -0.815  1.00  0.00    -0.493 OA
BRANCH  19  20
ATOM     20  C   UNL     1      -0.874   0.066  -1.016  1.00  0.00     0.232 C 
BRANCH  20  21
ATOM     21  C   UNL     1       0.617  -0.270  -1.273  1.00  0.00     0.020 C 
ATOM     22  C   UNL     1       1.299  -0.878  -0.039  1.00  0.00     0.011 C 
ATOM     23  C   UNL     1       0.768  -1.278  -2.416  1.00  0.00     0.011 C 
ENDBRANCH  20  21
ENDBRANCH  19  20
ENDBRANCH  14  19
ENDBRANCH   8  13
ENDBRANCH   4   7
ENDBRANCH   2   3
ENDBRANCH   1   2
BRANCH   1  24
ATOM     24  C   UNL     1       6.202  -2.673   1.926  1.00  0.00     0.023 C 
BRANCH  24  25
ATOM     25  C   UNL     1       5.518  -4.011   2.192  1.00  0.00     0.116 C 
BRANCH  25  26
ATOM     26  N   UNL     1       4.691  -4.461   1.082  1.00  0.00    -0.352 N 
ATOM     27  C   UNL     1       4.631  -5.691   0.472  1.00  0.00     0.251 C 
ATOM     28  H   UNL     1       4.083  -3.781   0.712  1.00  0.00     0.163 HD
ATOM     29  O   UNL     1       3.946  -5.828  -0.539  1.00  0.00    -0.269 OA
BRANCH  27  30
ATOM     30  C   UNL     1       5.404  -6.837   1.004  1.00  0.00     0.039 A 
ATOM     31  C   UNL     1       6.080  -7.663   0.102  1.00  0.00     0.014 A 
ATOM     32  C   UNL     1       5.465  -7.107   2.374  1.00  0.00     0.014 A 
ATOM     33  C   UNL     1       6.869  -8.714   0.577  1.00  0.00     0.010 A 
ATOM     34  C   UNL     1       6.315  -8.105   2.850  1.00  0.00     0.010 A 
ATOM     35  C   UNL     1       7.027  -8.920   1.958  1.00  0.00    -0.014 A 
BRANCH  35  36
ATOM     36  C   UNL     1       7.970  -9.951   2.469  1.00  0.00     0.031 A 
ATOM     37  C   UNL     1       7.484 -11.107   3.301  1.00  0.00     0.074 A 
ATOM     38  C   UNL     1       9.291  -9.808   2.234  1.00  0.00     0.049 A 
ATOM     39  N   UNL     1       8.169 -12.098   3.812  1.00  0.00    -0.248 NA
ATOM     40  C   UNL     1       6.049 -11.143   3.625  1.00  0.00     0.031 C 
ATOM     41  C   UNL     1       9.903  -8.683   1.524  1.00  0.00     0.029 A 
ATOM     42  N   UNL     1      10.357 -10.599   2.583  1.00  0.00    -0.354 N 
ATOM     43  C   UNL     1       7.260 -12.857   4.540  1.00  0.00     0.074 A 
ATOM     44  C   UNL     1       5.979 -12.192   4.433  1.00  0.00     0.031 C 
ATOM     45  C   UNL     1      11.232  -8.862   1.477  1.00  0.00     0.029 A 
ATOM     46  C   UNL     1      11.572 -10.095   2.180  1.00  0.00     0.049 A 
ATOM     47  H   UNL     1      10.262 -11.447   3.074  1.00  0.00     0.167 HD
ATOM     48  C   UNL     1       7.465 -14.013   5.216  1.00  0.00     0.034 A 
ATOM     49  C   UNL     1      12.822 -10.564   2.362  1.00  0.00     0.034 A 
ATOM     50  C   UNL     1       8.735 -14.686   5.298  1.00  0.00     0.049 A 
ATOM     51  C   UNL     1      13.018 -11.871   3.077  1.00  0.00     0.074 A 
ATOM     52  C   UNL     1       9.022 -15.914   5.871  1.00  0.00     0.029 A 
ATOM     53  N   UNL     1       9.934 -14.183   4.816  1.00  0.00    -0.354 N 
ATOM     54  N   UNL     1      12.118 -12.667   3.602  1.00  0.00    -0.248 NA
ATOM     55  C   UNL     1      14.398 -12.365   3.192  1.00  0.00     0.031 C 
ATOM     56  C   UNL     1      10.400 -16.132   5.773  1.00  0.00     0.029 A 
ATOM     57  C   UNL     1      10.966 -15.062   5.099  1.00  0.00     0.049 A 
ATOM     58  H   UNL     1      10.036 -13.326   4.342  1.00  0.00     0.167 HD
ATOM     59  C   UNL     1      12.818 -13.767   4.085  1.00  0.00     0.074 A 
ATOM     60  C   UNL     1      14.213 -13.548   3.762  1.00  0.00     0.031 C 
ATOM     61  C   UNL     1      12.348 -14.853   4.748  1.00  0.00     0.034 A 
BRANCH  48  62
ATOM     62  C   UNL     1       6.279 -14.649   5.896  1.00  0.00     0.023 A 
ATOM     63  C   UNL     1       5.250 -15.223   5.120  1.00  0.00     0.012 A 
ATOM     64  C   UNL     1       6.210 -14.732   7.300  1.00  0.00     0.148 A 
ATOM     65  C   UNL     1       4.154 -15.833   5.729  1.00  0.00     0.002 A 
ATOM     66  C   UNL     1       5.139 -15.385   7.900  1.00  0.00     0.091 A 
ATOM     67  F   UNL     1       7.186 -14.166   8.024  1.00  0.00    -0.205 F 
ATOM     68  C   UNL     1       4.104 -15.923   7.117  1.00  0.00     0.022 A 
BRANCH  66  69
ATOM     69  S   UNL     1       5.022 -15.628   9.676  1.00  0.00     0.127 S 
ATOM     70  O   UNL     1       3.917 -14.736  10.023  1.00  0.00    -0.237 OA
ATOM     71  O   UNL     1       4.708 -17.054   9.771  1.00  0.00    -0.237 OA
ATOM     72  O   UNL     1       6.320 -15.254  10.219  1.00  0.00    -0.744 OA
ENDBRANCH  66  69
ENDBRANCH  48  62
BRANCH  49  73
ATOM     73  C   UNL     1      13.983  -9.809   1.809  1.00  0.00     0.023 A 
ATOM     74  C   UNL     1      14.705 -10.336   0.721  1.00  0.00     0.012 A 
ATOM     75  C   UNL     1      14.350  -8.556   2.336  1.00  0.00     0.148 A 
ATOM     76  C   UNL     1      15.791  -9.642   0.186  1.00  0.00     0.002 A 
ATOM     77  C   UNL     1      15.393  -7.842   1.760  1.00  0.00     0.091 A 
ATOM     78  F   UNL     1      13.655  -8.078   3.377  1.00  0.00    -0.205 F 
ATOM     79  C   UNL     1      16.128  -8.391   0.697  1.00  0.00     0.022 A 
BRANCH  77  80
ATOM     80  S   UNL     1      15.806  -6.168   2.261  1.00  0.00     0.127 S 
ATOM     81  O   UNL     1      17.118  -6.355   2.877  1.00  0.00    -0.237 OA
ATOM     82  O   UNL     1      15.821  -5.466   0.977  1.00  0.00    -0.237 OA
ATOM     83  O   UNL     1      14.740  -5.750   3.161  1.00  0.00    -0.744 OA
ENDBRANCH  77  80
ENDBRANCH  49  73
BRANCH  61  84
ATOM     84  C   UNL     1      13.348 -15.908   5.152  1.00  0.00     0.023 A 
ATOM     85  C   UNL     1      14.283 -15.638   6.171  1.00  0.00     0.012 A 
ATOM     86  C   UNL     1      13.325 -17.184   4.556  1.00  0.00     0.148 A 
ATOM     87  C   UNL     1      15.208 -16.607   6.560  1.00  0.00     0.002 A 
ATOM     88  C   UNL     1      14.214 -18.162   4.987  1.00  0.00     0.091 A 
ATOM     89  F   UNL     1      12.440 -17.418   3.577  1.00  0.00    -0.205 F 
ATOM     90  C   UNL     1      15.166 -17.871   5.976  1.00  0.00     0.022 A 
BRANCH  88  91
ATOM     91  S   UNL     1      14.170 -19.846   4.363  1.00  0.00     0.127 S 
ATOM     92  O   UNL     1      15.385 -19.895   3.551  1.00  0.00    -0.237 OA
ATOM     93  O   UNL     1      14.227 -20.634   5.594  1.00  0.00    -0.237 OA
ATOM     94  O   UNL     1      12.921 -19.969   3.624  1.00  0.00    -0.744 OA
ENDBRANCH  88  91
ENDBRANCH  61  84
ENDBRANCH  35  36
ENDBRANCH  27  30
ENDBRANCH  25  26
ENDBRANCH  24  25
ENDBRANCH   1  24
TORSDOF 18
