REMARK SMILES O=C(NCCCCNC(=O)[C@@H]1CCCN(C(=O)CCCc2ccc(Br)s2)C1)c1ccc(-c2c3nc(c(-c4cccc(S(=O)(=O)[O-])c4F)c4ccc([nH]4)c(-c4cccc(S(=O)(=O)[O-])c4F)c4nc(c(-c5cccc(S(=O)(=O)[O-])c5F)c5ccc2[nH]5)C=C4)C=C3)cc1
REMARK SMILES IDX 6 1 5 2 4 3 3 4 1 5 2 6 28 8 29 9 90 10 30 11 89 12 31 13
REMARK SMILES IDX 32 14 33 15 83 16 34 17 88 18 82 19 84 20 35 21 87 22 81 23
REMARK SMILES IDX 80 24 36 26 68 27 48 28 67 29 49 30 52 31 66 32 85 33 50 34
REMARK SMILES IDX 51 35 65 37 86 38 53 39 37 40 38 41 46 42 39 43 41 44 47 45
REMARK SMILES IDX 40 46 42 47 43 48 44 49 45 50 69 51 70 52 78 53 71 54 73 55
REMARK SMILES IDX 79 56 72 57 74 58 75 59 76 60 77 61 54 62 55 63 63 64 56 65
REMARK SMILES IDX 58 66 64 67 57 68 59 69 60 70 61 71 62 72 7 73 8 74 9 75
REMARK SMILES IDX 10 77 11 78 12 79 27 80 13 81 15 82 14 83 16 84 17 85 18 86
REMARK SMILES IDX 19 87 20 88 21 89 22 90 26 91 23 92 24 93 25 94
REMARK H PARENT 3 7 84 25 52 36 8 76
REMARK Flexibility Score: inf
ROOT
ATOM      1  C   UNL     1       4.647  -2.698   2.683  1.00  0.00     0.023 C 
ENDROOT
BRANCH   1   2
ATOM      2  C   UNL     1       5.167  -1.373   2.134  1.00  0.00     0.023 C 
BRANCH   2   3
ATOM      3  C   UNL     1       4.798  -1.073   0.683  1.00  0.00     0.116 C 
BRANCH   3   4
ATOM      4  N   UNL     1       3.359  -1.067   0.444  1.00  0.00    -0.352 N 
ATOM      5  O   UNL     1       1.317  -0.182   0.079  1.00  0.00    -0.269 OA
ATOM      6  C   UNL     1       2.526  -0.022   0.106  1.00  0.00     0.251 C 
ATOM      7  H   UNL     1       2.916  -1.942   0.538  1.00  0.00     0.163 HD
BRANCH   6   8
ATOM      8  C   UNL     1       3.122   1.299  -0.184  1.00  0.00     0.039 A 
ATOM      9  C   UNL     1       4.209   1.398  -1.053  1.00  0.00     0.014 A 
ATOM     10  C   UNL     1       2.626   2.433   0.462  1.00  0.00     0.014 A 
ATOM     11  C   UNL     1       4.921   2.587  -1.123  1.00  0.00     0.010 A 
ATOM     12  C   UNL     1       3.285   3.656   0.306  1.00  0.00     0.010 A 
ATOM     13  C   UNL     1       4.466   3.732  -0.448  1.00  0.00    -0.014 A 
BRANCH  13  14
ATOM     14  C   UNL     1       5.216   5.005  -0.596  1.00  0.00     0.031 A 
ATOM     15  C   UNL     1       5.853   5.684   0.587  1.00  0.00     0.074 A 
ATOM     16  C   UNL     1       5.325   5.543  -1.826  1.00  0.00     0.049 A 
ATOM     17  N   UNL     1       6.548   6.793   0.619  1.00  0.00    -0.248 NA
ATOM     18  C   UNL     1       5.684   5.049   1.903  1.00  0.00     0.031 C 
ATOM     19  C   UNL     1       4.717   4.992  -3.040  1.00  0.00     0.029 A 
ATOM     20  N   UNL     1       5.981   6.663  -2.264  1.00  0.00    -0.354 N 
ATOM     21  C   UNL     1       6.861   7.013   1.955  1.00  0.00     0.074 A 
ATOM     22  C   UNL     1       6.277   5.923   2.707  1.00  0.00     0.031 C 
ATOM     23  C   UNL     1       5.051   5.757  -4.088  1.00  0.00     0.029 A 
ATOM     24  C   UNL     1       5.844   6.884  -3.614  1.00  0.00     0.049 A 
ATOM     25  H   UNL     1       6.500   7.253  -1.671  1.00  0.00     0.167 HD
ATOM     26  C   UNL     1       7.582   8.022   2.501  1.00  0.00     0.034 A 
ATOM     27  C   UNL     1       6.287   7.893  -4.387  1.00  0.00     0.034 A 
ATOM     28  C   UNL     1       8.197   9.079   1.739  1.00  0.00     0.049 A 
ATOM     29  C   UNL     1       7.104   8.982  -3.758  1.00  0.00     0.074 A 
ATOM     30  C   UNL     1       9.002  10.110   2.193  1.00  0.00     0.029 A 
ATOM     31  N   UNL     1       8.073   9.244   0.368  1.00  0.00    -0.354 N 
ATOM     32  N   UNL     1       7.489   9.105  -2.511  1.00  0.00    -0.248 NA
ATOM     33  C   UNL     1       7.569  10.056  -4.644  1.00  0.00     0.031 C 
ATOM     34  C   UNL     1       9.347  10.910   1.098  1.00  0.00     0.029 A 
ATOM     35  C   UNL     1       8.776  10.365  -0.041  1.00  0.00     0.049 A 
ATOM     36  H   UNL     1       7.560   8.651  -0.228  1.00  0.00     0.167 HD
ATOM     37  C   UNL     1       8.260  10.259  -2.465  1.00  0.00     0.074 A 
ATOM     38  C   UNL     1       8.311  10.780  -3.816  1.00  0.00     0.031 C 
ATOM     39  C   UNL     1       8.855  10.845  -1.397  1.00  0.00     0.034 A 
BRANCH  26  40
ATOM     40  C   UNL     1       7.785   8.020   3.995  1.00  0.00     0.023 A 
ATOM     41  C   UNL     1       8.679   7.098   4.576  1.00  0.00     0.012 A 
ATOM     42  C   UNL     1       7.153   8.977   4.815  1.00  0.00     0.148 A 
ATOM     43  C   UNL     1       8.922   7.111   5.950  1.00  0.00     0.002 A 
ATOM     44  C   UNL     1       7.429   9.009   6.178  1.00  0.00     0.091 A 
ATOM     45  F   UNL     1       6.289   9.833   4.250  1.00  0.00    -0.205 F 
ATOM     46  C   UNL     1       8.306   8.072   6.748  1.00  0.00     0.022 A 
BRANCH  44  47
ATOM     47  S   UNL     1       6.744  10.255   7.276  1.00  0.00     0.127 S 
ATOM     48  O   UNL     1       5.755   9.478   8.023  1.00  0.00    -0.237 OA
ATOM     49  O   UNL     1       7.914  10.660   8.056  1.00  0.00    -0.237 OA
ATOM     50  O   UNL     1       6.203  11.295   6.413  1.00  0.00    -0.744 OA
ENDBRANCH  44  47
ENDBRANCH  26  40
BRANCH  27  51
ATOM     51  C   UNL     1       5.993   7.882  -5.847  1.00  0.00     0.023 A 
ATOM     52  C   UNL     1       7.037   7.654  -6.763  1.00  0.00     0.012 A 
ATOM     53  C   UNL     1       4.676   8.029  -6.325  1.00  0.00     0.148 A 
ATOM     54  C   UNL     1       6.777   7.594  -8.132  1.00  0.00     0.002 A 
ATOM     55  C   UNL     1       4.416   7.907  -7.685  1.00  0.00     0.091 A 
ATOM     56  F   UNL     1       3.698   8.261  -5.438  1.00  0.00    -0.205 F 
ATOM     57  C   UNL     1       5.467   7.706  -8.592  1.00  0.00     0.022 A 
BRANCH  55  58
ATOM     58  S   UNL     1       2.743   7.889  -8.339  1.00  0.00     0.127 S 
ATOM     59  O   UNL     1       2.649   9.210  -8.956  1.00  0.00    -0.237 OA
ATOM     60  O   UNL     1       2.797   6.771  -9.282  1.00  0.00    -0.237 OA
ATOM     61  O   UNL     1       1.878   7.659  -7.190  1.00  0.00    -0.744 OA
ENDBRANCH  55  58
ENDBRANCH  27  51
BRANCH  39  62
ATOM     62  C   UNL     1       9.631  12.110  -1.649  1.00  0.00     0.023 A 
ATOM     63  C   UNL     1       8.941  13.309  -1.914  1.00  0.00     0.012 A 
ATOM     64  C   UNL     1      11.037  12.122  -1.566  1.00  0.00     0.148 A 
ATOM     65  C   UNL     1       9.640  14.496  -2.125  1.00  0.00     0.002 A 
ATOM     66  C   UNL     1      11.725  13.319  -1.731  1.00  0.00     0.091 A 
ATOM     67  F   UNL     1      11.675  10.966  -1.334  1.00  0.00    -0.205 F 
ATOM     68  C   UNL     1      11.030  14.504  -2.022  1.00  0.00     0.022 A 
BRANCH  66  69
ATOM     69  S   UNL     1      13.505  13.438  -1.526  1.00  0.00     0.127 S 
ATOM     70  O   UNL     1      13.957  13.565  -2.910  1.00  0.00    -0.237 OA
ATOM     71  O   UNL     1      13.646  14.654  -0.724  1.00  0.00    -0.237 OA
ATOM     72  O   UNL     1      13.911  12.217  -0.843  1.00  0.00    -0.744 OA
ENDBRANCH  66  69
ENDBRANCH  39  62
ENDBRANCH  13  14
ENDBRANCH   6   8
ENDBRANCH   3   4
ENDBRANCH   2   3
ENDBRANCH   1   2
BRANCH   1  73
ATOM     73  C   UNL     1       4.928  -3.907   1.806  1.00  0.00     0.116 C 
BRANCH  73  74
ATOM     74  N   UNL     1       6.324  -4.313   1.770  1.00  0.00    -0.356 N 
ATOM     75  C   UNL     1       6.827  -5.543   1.409  1.00  0.00     0.224 C 
ATOM     76  H   UNL     1       6.984  -3.632   2.035  1.00  0.00     0.163 HD
ATOM     77  O   UNL     1       8.038  -5.746   1.463  1.00  0.00    -0.275 OA
BRANCH  75  78
ATOM     78  C   UNL     1       5.827  -6.623   1.002  1.00  0.00     0.098 C 
ATOM     79  C   UNL     1       6.382  -8.066   1.069  1.00  0.00     0.017 C 
ATOM     80  C   UNL     1       5.187  -6.264  -0.343  1.00  0.00     0.132 C 
ATOM     81  C   UNL     1       6.884  -8.650  -0.257  1.00  0.00     0.022 C 
ATOM     82  N   UNL     1       5.886  -6.849  -1.468  1.00  0.00    -0.342 N 
ATOM     83  C   UNL     1       5.952  -8.286  -1.404  1.00  0.00     0.119 C 
BRANCH  82  84
ATOM     84  C   UNL     1       6.760  -6.068  -2.215  1.00  0.00     0.222 C 
ATOM     85  O   UNL     1       7.135  -4.959  -1.831  1.00  0.00    -0.275 OA
BRANCH  84  86
ATOM     86  C   UNL     1       7.097  -6.544  -3.620  1.00  0.00     0.100 C 
BRANCH  86  87
ATOM     87  C   UNL     1       8.411  -7.294  -3.863  1.00  0.00     0.015 C 
BRANCH  87  88
ATOM     88  C   UNL     1       8.441  -8.832  -3.803  1.00  0.00     0.047 C 
BRANCH  88  89
ATOM     89  C   UNL     1       7.291  -9.603  -4.407  1.00  0.00     0.006 A 
ATOM     90  C   UNL     1       6.771 -10.801  -3.936  1.00  0.00     0.016 A 
ATOM     91  S   UNL     1       6.431  -9.090  -5.803  1.00  0.00    -0.133 S 
ATOM     92  C   UNL     1       5.533 -11.141  -4.558  1.00  0.00     0.028 A 
ATOM     93  C   UNL     1       5.210 -10.232  -5.531  1.00  0.00     0.070 A 
ATOM     94  Br  UNL     1       3.590 -10.256  -6.470  1.00  0.00    -0.039 Br
ENDBRANCH  88  89
ENDBRANCH  87  88
ENDBRANCH  86  87
ENDBRANCH  84  86
ENDBRANCH  82  84
ENDBRANCH  75  78
ENDBRANCH  73  74
ENDBRANCH   1  73
TORSDOF 19
