REMARK SMILES COc1ccccc1CC(=O)NC[C@H]1CC[C@H](C(=O)NCCCCNC(=O)c2ccc(-c3c4nc(c(-c5cccc(S(=O)(=O)[O-])c5F)c5ccc([nH]5)c(-c5cccc(S(=O)(=O)[O-])c5F)c5nc(c(-c6cccc(S(=O)(=O)[O-])c6F)c6ccc3[nH]6)C=C5)C=C4)cc2)O1
REMARK SMILES IDX 21 1 20 2 18 3 19 4 17 6 14 7 15 8 91 9 16 10 13 11 12 12
REMARK SMILES IDX 10 13 11 14 9 16 8 17 3 18 4 19 5 20 7 21 6 22 2 23 1 24
REMARK SMILES IDX 22 25 23 26 24 27 25 28 26 29 27 31 28 32 29 33 90 34 30 35
REMARK SMILES IDX 89 36 31 37 32 38 33 39 83 40 34 41 88 42 82 43 84 44 35 45
REMARK SMILES IDX 87 46 81 47 80 48 36 50 68 51 48 52 67 53 49 54 52 55 66 56
REMARK SMILES IDX 85 57 50 58 51 59 65 61 86 62 53 63 37 64 38 65 46 66 39 67
REMARK SMILES IDX 41 68 47 69 40 70 42 71 43 72 44 73 45 74 69 75 70 76 78 77
REMARK SMILES IDX 71 78 73 79 79 80 72 81 74 82 75 83 76 84 77 85 54 86 55 87
REMARK SMILES IDX 63 88 56 89 58 90 64 91 57 92 59 93 60 94 61 95 62 96
REMARK H PARENT 20 5 12 15 25 30 84 49 52 60
REMARK Flexibility Score: inf
ROOT
ATOM      1  C   UNL     1       4.808  -5.362   0.789  1.00  0.00     0.116 C 
ENDROOT
BRANCH   1   2
ATOM      2  N   UNL     1       5.231  -6.276  -0.245  1.00  0.00    -0.354 N 
ATOM      3  C   UNL     1       4.538  -6.729  -1.328  1.00  0.00     0.249 C 
ATOM      4  O   UNL     1       5.085  -7.568  -2.050  1.00  0.00    -0.272 OA
ATOM      5  H   UNL     1       6.149  -6.620  -0.156  1.00  0.00     0.163 HD
BRANCH   3   6
ATOM      6  C   UNL     1       3.092  -6.263  -1.616  1.00  0.00     0.207 C 
ATOM      7  C   UNL     1       1.681  -4.612  -0.725  1.00  0.00     0.138 C 
ATOM      8  C   UNL     1       1.310  -5.913  -0.035  1.00  0.00     0.037 C 
ATOM      9  O   UNL     1       2.835  -4.865  -1.535  1.00  0.00    -0.363 OA
ATOM     10  C   UNL     1       2.041  -6.991  -0.797  1.00  0.00     0.045 C 
BRANCH   7  11
ATOM     11  C   UNL     1       0.533  -4.032  -1.562  1.00  0.00     0.147 C 
BRANCH  11  12
ATOM     12  N   UNL     1       0.918  -2.795  -2.227  1.00  0.00    -0.353 N 
ATOM     13  C   UNL     1       0.965  -2.525  -3.563  1.00  0.00     0.224 C 
ATOM     14  O   UNL     1       1.391  -1.428  -3.933  1.00  0.00    -0.275 OA
ATOM     15  H   UNL     1       1.179  -2.054  -1.633  1.00  0.00     0.163 HD
BRANCH  13  16
ATOM     16  C   UNL     1       0.437  -3.542  -4.556  1.00  0.00     0.139 C 
BRANCH  16  17
ATOM     17  C   UNL     1       1.399  -4.659  -4.882  1.00  0.00     0.003 A 
ATOM     18  C   UNL     1       1.046  -6.011  -4.760  1.00  0.00     0.122 A 
ATOM     19  C   UNL     1       1.960  -7.025  -5.062  1.00  0.00     0.047 A 
ATOM     20  C   UNL     1       3.244  -6.699  -5.498  1.00  0.00     0.004 A 
ATOM     21  C   UNL     1       2.692  -4.350  -5.341  1.00  0.00     0.008 A 
ATOM     22  C   UNL     1       3.609  -5.362  -5.635  1.00  0.00     0.001 A 
BRANCH  18  23
ATOM     23  O   UNL     1      -0.143  -6.385  -4.188  1.00  0.00    -0.496 OA
ATOM     24  C   UNL     1      -1.156  -6.555  -5.174  1.00  0.00     0.278 C 
ENDBRANCH  18  23
ENDBRANCH  16  17
ENDBRANCH  13  16
ENDBRANCH  11  12
ENDBRANCH   7  11
ENDBRANCH   3   6
ENDBRANCH   1   2
BRANCH   1  25
ATOM     25  C   UNL     1       4.250  -6.114   1.995  1.00  0.00     0.023 C 
BRANCH  25  26
ATOM     26  C   UNL     1       5.308  -6.543   3.009  1.00  0.00     0.023 C 
BRANCH  26  27
ATOM     27  C   UNL     1       6.117  -5.399   3.605  1.00  0.00     0.116 C 
BRANCH  27  28
ATOM     28  N   UNL     1       5.296  -4.339   4.179  1.00  0.00    -0.352 N 
ATOM     29  C   UNL     1       5.635  -3.472   5.189  1.00  0.00     0.251 C 
ATOM     30  H   UNL     1       4.394  -4.233   3.799  1.00  0.00     0.163 HD
ATOM     31  O   UNL     1       4.813  -2.681   5.642  1.00  0.00    -0.269 OA
BRANCH  29  32
ATOM     32  C   UNL     1       6.998  -3.549   5.747  1.00  0.00     0.039 A 
ATOM     33  C   UNL     1       7.156  -3.771   7.116  1.00  0.00     0.014 A 
ATOM     34  C   UNL     1       8.105  -3.500   4.896  1.00  0.00     0.014 A 
ATOM     35  C   UNL     1       8.431  -4.014   7.625  1.00  0.00     0.010 A 
ATOM     36  C   UNL     1       9.362  -3.816   5.393  1.00  0.00     0.010 A 
ATOM     37  C   UNL     1       9.538  -4.075   6.761  1.00  0.00    -0.014 A 
BRANCH  37  38
ATOM     38  C   UNL     1      10.889  -4.423   7.263  1.00  0.00     0.031 A 
ATOM     39  C   UNL     1      12.008  -3.425   7.163  1.00  0.00     0.074 A 
ATOM     40  C   UNL     1      11.131  -5.673   7.706  1.00  0.00     0.049 A 
ATOM     41  N   UNL     1      13.265  -3.563   7.490  1.00  0.00    -0.248 NA
ATOM     42  C   UNL     1      11.679  -2.109   6.587  1.00  0.00     0.031 C 
ATOM     43  C   UNL     1      10.150  -6.761   7.752  1.00  0.00     0.029 A 
ATOM     44  N   UNL     1      12.286  -6.250   8.171  1.00  0.00    -0.354 N 
ATOM     45  C   UNL     1      13.885  -2.376   7.119  1.00  0.00     0.074 A 
ATOM     46  C   UNL     1      12.873  -1.538   6.515  1.00  0.00     0.031 C 
ATOM     47  C   UNL     1      10.746  -7.872   8.216  1.00  0.00     0.029 A 
ATOM     48  C   UNL     1      12.151  -7.583   8.485  1.00  0.00     0.049 A 
ATOM     49  H   UNL     1      13.131  -5.756   8.272  1.00  0.00     0.167 HD
ATOM     50  C   UNL     1      15.174  -2.003   7.297  1.00  0.00     0.034 A 
ATOM     51  C   UNL     1      13.058  -8.470   8.937  1.00  0.00     0.034 A 
ATOM     52  C   UNL     1      16.158  -2.813   7.962  1.00  0.00     0.049 A 
ATOM     53  C   UNL     1      14.463  -8.001   9.208  1.00  0.00     0.074 A 
ATOM     54  C   UNL     1      17.455  -2.479   8.305  1.00  0.00     0.029 A 
ATOM     55  N   UNL     1      15.953  -4.117   8.382  1.00  0.00    -0.354 N 
ATOM     56  N   UNL     1      14.981  -6.809   9.035  1.00  0.00    -0.248 NA
ATOM     57  C   UNL     1      15.397  -8.984   9.775  1.00  0.00     0.031 C 
ATOM     58  C   UNL     1      18.041  -3.589   8.924  1.00  0.00     0.029 A 
ATOM     59  C   UNL     1      17.102  -4.608   8.976  1.00  0.00     0.049 A 
ATOM     60  H   UNL     1      15.114  -4.621   8.273  1.00  0.00     0.167 HD
ATOM     61  C   UNL     1      16.288  -6.889   9.501  1.00  0.00     0.074 A 
ATOM     62  C   UNL     1      16.475  -8.241   9.987  1.00  0.00     0.031 C 
ATOM     63  C   UNL     1      17.252  -5.936   9.510  1.00  0.00     0.034 A 
BRANCH  50  64
ATOM     64  C   UNL     1      15.578  -0.632   6.828  1.00  0.00     0.023 A 
ATOM     65  C   UNL     1      15.140   0.501   7.543  1.00  0.00     0.012 A 
ATOM     66  C   UNL     1      16.435  -0.464   5.723  1.00  0.00     0.148 A 
ATOM     67  C   UNL     1      15.523   1.782   7.149  1.00  0.00     0.002 A 
ATOM     68  C   UNL     1      16.847   0.813   5.362  1.00  0.00     0.091 A 
ATOM     69  F   UNL     1      16.820  -1.552   5.041  1.00  0.00    -0.205 F 
ATOM     70  C   UNL     1      16.384   1.937   6.066  1.00  0.00     0.022 A 
BRANCH  68  71
ATOM     71  S   UNL     1      18.015   1.112   4.030  1.00  0.00     0.127 S 
ATOM     72  O   UNL     1      17.148   1.680   2.999  1.00  0.00    -0.237 OA
ATOM     73  O   UNL     1      18.941   2.067   4.641  1.00  0.00    -0.237 OA
ATOM     74  O   UNL     1      18.601  -0.183   3.714  1.00  0.00    -0.744 OA
ENDBRANCH  68  71
ENDBRANCH  50  64
BRANCH  51  75
ATOM     75  C   UNL     1      12.645  -9.869   9.242  1.00  0.00     0.023 A 
ATOM     76  C   UNL     1      12.568 -10.287  10.585  1.00  0.00     0.012 A 
ATOM     77  C   UNL     1      12.300 -10.775   8.221  1.00  0.00     0.148 A 
ATOM     78  C   UNL     1      12.188 -11.591  10.905  1.00  0.00     0.002 A 
ATOM     79  C   UNL     1      11.871 -12.057   8.549  1.00  0.00     0.091 A 
ATOM     80  F   UNL     1      12.393 -10.366   6.948  1.00  0.00    -0.205 F 
ATOM     81  C   UNL     1      11.830 -12.472   9.889  1.00  0.00     0.022 A 
BRANCH  79  82
ATOM     82  S   UNL     1      11.264 -13.206   7.309  1.00  0.00     0.127 S 
ATOM     83  O   UNL     1      12.398 -14.114   7.159  1.00  0.00    -0.237 OA
ATOM     84  O   UNL     1      10.094 -13.785   7.972  1.00  0.00    -0.237 OA
ATOM     85  O   UNL     1      10.943 -12.386   6.148  1.00  0.00    -0.744 OA
ENDBRANCH  79  82
ENDBRANCH  51  75
BRANCH  63  86
ATOM     86  C   UNL     1      18.593  -6.304  10.087  1.00  0.00     0.023 A 
ATOM     87  C   UNL     1      19.460  -7.137   9.353  1.00  0.00     0.012 A 
ATOM     88  C   UNL     1      19.026  -5.757  11.310  1.00  0.00     0.148 A 
ATOM     89  C   UNL     1      20.730  -7.441   9.842  1.00  0.00     0.002 A 
ATOM     90  C   UNL     1      20.309  -6.028  11.769  1.00  0.00     0.091 A 
ATOM     91  F   UNL     1      18.177  -4.984  12.003  1.00  0.00    -0.205 F 
ATOM     92  C   UNL     1      21.158  -6.878  11.042  1.00  0.00     0.022 A 
BRANCH  90  93
ATOM     93  S   UNL     1      20.974  -5.268  13.255  1.00  0.00     0.127 S 
ATOM     94  O   UNL     1      20.895  -6.367  14.214  1.00  0.00    -0.237 OA
ATOM     95  O   UNL     1      22.334  -4.913  12.844  1.00  0.00    -0.237 OA
ATOM     96  O   UNL     1      20.115  -4.125  13.534  1.00  0.00    -0.744 OA
ENDBRANCH  90  93
ENDBRANCH  63  86
ENDBRANCH  37  38
ENDBRANCH  29  32
ENDBRANCH  27  28
ENDBRANCH  26  27
ENDBRANCH  25  26
ENDBRANCH   1  25
TORSDOF 19
