REMARK SMILES O=C(NCCCCNC(=O)c1ccc(-c2ccncc2)cn1)c1ccc(-c2c3nc(c(-c4cccc(S(=O)(=O)[O-])c4F)c4ccc([nH]4)c(-c4cccc(S(=O)(=O)[O-])c4F)c4nc(c(-c5cccc(S(=O)(=O)[O-])c5F)c5ccc2[nH]5)C=C4)C=C3)cc1
REMARK SMILES IDX 4 1 3 2 1 3 2 4 23 6 24 7 85 8 25 9 84 10 26 11 27 12 28 13
REMARK SMILES IDX 78 14 29 15 83 16 77 17 79 18 30 19 82 20 76 21 75 22 31 24
REMARK SMILES IDX 63 25 43 26 62 27 44 28 47 29 61 30 80 31 45 32 46 33 60 35
REMARK SMILES IDX 81 36 48 37 32 38 33 39 41 40 34 41 36 42 42 43 35 44 37 45
REMARK SMILES IDX 38 46 39 47 40 48 64 49 65 50 73 51 66 52 68 53 74 54 67 55
REMARK SMILES IDX 69 56 70 57 71 58 72 59 49 60 50 61 58 62 51 63 53 64 59 65
REMARK SMILES IDX 52 66 54 67 55 68 56 69 57 70 5 71 6 72 7 73 8 74 9 75 10 77
REMARK SMILES IDX 11 78 12 79 22 80 13 81 21 82 14 83 15 84 16 85 20 86 17 87
REMARK SMILES IDX 19 88 18 89
REMARK H PARENT 3 5 79 23 47 34 8 76
REMARK Flexibility Score: inf
ROOT
ATOM      1  C   UNL     1       4.586  -1.056   0.831  1.00  0.00     0.116 C 
ENDROOT
BRANCH   1   2
ATOM      2  N   UNL     1       3.156  -1.089   0.573  1.00  0.00    -0.352 N 
ATOM      3  O   UNL     1       1.133  -0.305  -0.018  1.00  0.00    -0.269 OA
ATOM      4  C   UNL     1       2.352  -0.154  -0.034  1.00  0.00     0.251 C 
ATOM      5  H   UNL     1       2.694  -1.903   0.878  1.00  0.00     0.163 HD
BRANCH   4   6
ATOM      6  C   UNL     1       2.949   1.040  -0.672  1.00  0.00     0.039 A 
ATOM      7  C   UNL     1       4.063   0.928  -1.509  1.00  0.00     0.014 A 
ATOM      8  C   UNL     1       2.379   2.292  -0.429  1.00  0.00     0.014 A 
ATOM      9  C   UNL     1       4.693   2.076  -1.983  1.00  0.00     0.010 A 
ATOM     10  C   UNL     1       2.969   3.438  -0.967  1.00  0.00     0.010 A 
ATOM     11  C   UNL     1       4.152   3.344  -1.717  1.00  0.00    -0.014 A 
BRANCH  11  12
ATOM     12  C   UNL     1       4.804   4.564  -2.258  1.00  0.00     0.031 A 
ATOM     13  C   UNL     1       5.386   5.600  -1.336  1.00  0.00     0.074 A 
ATOM     14  C   UNL     1       4.834   4.753  -3.591  1.00  0.00     0.049 A 
ATOM     15  N   UNL     1       5.938   6.748  -1.633  1.00  0.00    -0.248 NA
ATOM     16  C   UNL     1       5.333   5.316   0.107  1.00  0.00     0.031 C 
ATOM     17  C   UNL     1       4.270   3.835  -4.583  1.00  0.00     0.029 A 
ATOM     18  N   UNL     1       5.336   5.787  -4.340  1.00  0.00    -0.354 N 
ATOM     19  C   UNL     1       6.257   7.345  -0.419  1.00  0.00     0.074 A 
ATOM     20  C   UNL     1       5.832   6.432   0.621  1.00  0.00     0.031 C 
ATOM     21  C   UNL     1       4.453   4.348  -5.808  1.00  0.00     0.029 A 
ATOM     22  C   UNL     1       5.103   5.649  -5.687  1.00  0.00     0.049 A 
ATOM     23  H   UNL     1       5.817   6.553  -3.950  1.00  0.00     0.167 HD
ATOM     24  C   UNL     1       6.861   8.536  -0.192  1.00  0.00     0.034 A 
ATOM     25  C   UNL     1       5.357   6.484  -6.712  1.00  0.00     0.034 A 
ATOM     26  C   UNL     1       7.315   9.422  -1.231  1.00  0.00     0.049 A 
ATOM     27  C   UNL     1       6.046   7.790  -6.437  1.00  0.00     0.074 A 
ATOM     28  C   UNL     1       7.999  10.618  -1.104  1.00  0.00     0.029 A 
ATOM     29  N   UNL     1       7.126   9.213  -2.589  1.00  0.00    -0.354 N 
ATOM     30  N   UNL     1       6.453   8.279  -5.291  1.00  0.00    -0.248 NA
ATOM     31  C   UNL     1       6.340   8.646  -7.595  1.00  0.00     0.031 C 
ATOM     32  C   UNL     1       8.207  11.141  -2.385  1.00  0.00     0.029 A 
ATOM     33  C   UNL     1       7.672  10.261  -3.311  1.00  0.00     0.049 A 
ATOM     34  H   UNL     1       6.670   8.434  -2.982  1.00  0.00     0.167 HD
ATOM     35  C   UNL     1       7.079   9.482  -5.590  1.00  0.00     0.074 A 
ATOM     36  C   UNL     1       7.010   9.641  -7.029  1.00  0.00     0.031 C 
ATOM     37  C   UNL     1       7.648  10.379  -4.747  1.00  0.00     0.034 A 
BRANCH  24  38
ATOM     38  C   UNL     1       7.100   8.939   1.240  1.00  0.00     0.023 A 
ATOM     39  C   UNL     1       8.109   8.295   1.985  1.00  0.00     0.012 A 
ATOM     40  C   UNL     1       6.368   9.986   1.833  1.00  0.00     0.148 A 
ATOM     41  C   UNL     1       8.362   8.664   3.306  1.00  0.00     0.002 A 
ATOM     42  C   UNL     1       6.653  10.375   3.137  1.00  0.00     0.091 A 
ATOM     43  F   UNL     1       5.396  10.573   1.119  1.00  0.00    -0.205 F 
ATOM     44  C   UNL     1       7.642   9.709   3.879  1.00  0.00     0.022 A 
BRANCH  42  45
ATOM     45  S   UNL     1       5.825  11.761   3.927  1.00  0.00     0.127 S 
ATOM     46  O   UNL     1       4.851  11.078   4.776  1.00  0.00    -0.237 OA
ATOM     47  O   UNL     1       6.919  12.407   4.654  1.00  0.00    -0.237 OA
ATOM     48  O   UNL     1       5.271  12.559   2.842  1.00  0.00    -0.744 OA
ENDBRANCH  42  45
ENDBRANCH  24  38
BRANCH  25  49
ATOM     49  C   UNL     1       4.993   6.070  -8.095  1.00  0.00     0.023 A 
ATOM     50  C   UNL     1       6.010   5.710  -8.999  1.00  0.00     0.012 A 
ATOM     51  C   UNL     1       3.646   5.952  -8.490  1.00  0.00     0.148 A 
ATOM     52  C   UNL     1       5.692   5.253 -10.278  1.00  0.00     0.002 A 
ATOM     53  C   UNL     1       3.335   5.442  -9.744  1.00  0.00     0.091 A 
ATOM     54  F   UNL     1       2.695   6.310  -7.615  1.00  0.00    -0.205 F 
ATOM     55  C   UNL     1       4.357   5.105 -10.645  1.00  0.00     0.022 A 
BRANCH  53  56
ATOM     56  S   UNL     1       1.649   5.082 -10.248  1.00  0.00     0.127 S 
ATOM     57  O   UNL     1       1.421   6.095 -11.274  1.00  0.00    -0.237 OA
ATOM     58  O   UNL     1       1.770   3.712 -10.749  1.00  0.00    -0.237 OA
ATOM     59  O   UNL     1       0.841   5.210  -9.043  1.00  0.00    -0.744 OA
ENDBRANCH  53  56
ENDBRANCH  25  49
BRANCH  37  60
ATOM     60  C   UNL     1       8.282  11.603  -5.352  1.00  0.00     0.023 A 
ATOM     61  C   UNL     1       7.468  12.647  -5.833  1.00  0.00     0.012 A 
ATOM     62  C   UNL     1       9.682  11.756  -5.358  1.00  0.00     0.148 A 
ATOM     63  C   UNL     1       8.040  13.817  -6.331  1.00  0.00     0.002 A 
ATOM     64  C   UNL     1      10.243  12.942  -5.814  1.00  0.00     0.091 A 
ATOM     65  F   UNL     1      10.438  10.741  -4.915  1.00  0.00    -0.205 F 
ATOM     66  C   UNL     1       9.425  13.970  -6.309  1.00  0.00     0.022 A 
BRANCH  64  67
ATOM     67  S   UNL     1      12.010  13.263  -5.737  1.00  0.00     0.127 S 
ATOM     68  O   UNL     1      12.393  13.156  -7.144  1.00  0.00    -0.237 OA
ATOM     69  O   UNL     1      12.057  14.620  -5.193  1.00  0.00    -0.237 OA
ATOM     70  O   UNL     1      12.564  12.242  -4.858  1.00  0.00    -0.744 OA
ENDBRANCH  64  67
ENDBRANCH  37  60
ENDBRANCH  11  12
ENDBRANCH   4   6
ENDBRANCH   1   2
BRANCH   1  71
ATOM     71  C   UNL     1       4.921  -1.159   2.315  1.00  0.00     0.023 C 
BRANCH  71  72
ATOM     72  C   UNL     1       4.446  -2.434   3.010  1.00  0.00     0.023 C 
BRANCH  72  73
ATOM     73  C   UNL     1       4.852  -3.740   2.333  1.00  0.00     0.116 C 
BRANCH  73  74
ATOM     74  N   UNL     1       6.293  -3.902   2.230  1.00  0.00    -0.351 N 
ATOM     75  C   UNL     1       7.058  -4.993   2.584  1.00  0.00     0.269 C 
ATOM     76  H   UNL     1       6.785  -3.135   1.860  1.00  0.00     0.163 HD
ATOM     77  O   UNL     1       8.279  -4.956   2.465  1.00  0.00    -0.268 OA
BRANCH  75  78
ATOM     78  C   UNL     1       6.381  -6.218   3.087  1.00  0.00     0.128 A 
ATOM     79  C   UNL     1       5.494  -6.899   2.264  1.00  0.00     0.035 A 
ATOM     80  N   UNL     1       6.636  -6.564   4.371  1.00  0.00    -0.250 NA
ATOM     81  C   UNL     1       4.786  -7.969   2.806  1.00  0.00     0.013 A 
ATOM     82  C   UNL     1       5.947  -7.623   4.855  1.00  0.00     0.120 A 
ATOM     83  C   UNL     1       4.993  -8.352   4.139  1.00  0.00     0.000 A 
BRANCH  83  84
ATOM     84  C   UNL     1       4.226  -9.443   4.756  1.00  0.00    -0.014 A 
ATOM     85  C   UNL     1       4.088 -10.683   4.122  1.00  0.00     0.029 A 
ATOM     86  C   UNL     1       3.587  -9.270   5.990  1.00  0.00     0.029 A 
ATOM     87  C   UNL     1       3.334 -11.673   4.735  1.00  0.00     0.111 A 
ATOM     88  C   UNL     1       2.853 -10.318   6.523  1.00  0.00     0.111 A 
ATOM     89  N   UNL     1       2.714 -11.517   5.923  1.00  0.00    -0.265 NA
ENDBRANCH  83  84
ENDBRANCH  75  78
ENDBRANCH  73  74
ENDBRANCH  72  73
ENDBRANCH  71  72
ENDBRANCH   1  71
TORSDOF 15
