REMARK SMILES CC(C)CCc1cc2c(cc1Cl)C=C(C(=O)NCCCCNC(=O)c1ccc(-c3c4nc(c(-c5cccc(S(=O)(=O)[O-])c5F)c5ccc([nH]5)c(-c5cccc(S(=O)(=O)[O-])c5F)c5nc(c(-c6cccc(S(=O)(=O)[O-])c6F)c6ccc3[nH]6)C=C5)C=C4)cc1)[C@@H](C(F)(F)F)O2
REMARK SMILES IDX 19 1 18 2 17 3 15 4 16 5 14 7 6 8 7 9 11 10 8 11 10 12 12 13
REMARK SMILES IDX 9 14 93 15 13 16 88 17 5 18 4 19 2 20 1 21 3 22 89 23 90 24
REMARK SMILES IDX 91 25 92 26 20 27 21 28 22 29 23 30 24 32 25 33 26 34 87 35
REMARK SMILES IDX 27 36 86 37 28 38 29 39 30 40 80 41 31 42 85 43 79 44 81 45
REMARK SMILES IDX 32 46 84 47 78 48 77 49 33 51 65 52 45 53 64 54 46 55 49 56
REMARK SMILES IDX 63 57 82 58 47 59 48 60 62 62 83 63 50 64 34 65 35 66 43 67
REMARK SMILES IDX 36 68 38 69 44 70 37 71 39 72 40 73 41 74 42 75 66 76 67 77
REMARK SMILES IDX 75 78 68 79 70 80 76 81 69 82 71 83 72 84 73 85 74 86 51 87
REMARK SMILES IDX 52 88 60 89 53 90 55 91 61 92 54 93 56 94 57 95 58 96 59 97
REMARK H PARENT 17 6 22 31 81 50 49 61
REMARK Flexibility Score: inf
ROOT
ATOM      1  C   UNL     1       0.203   9.013  -5.418  1.00  0.00     0.023 C 
ENDROOT
BRANCH   1   2
ATOM      2  C   UNL     1      -0.835   8.211  -6.199  1.00  0.00     0.116 C 
BRANCH   2   3
ATOM      3  N   UNL     1      -0.225   7.189  -7.031  1.00  0.00    -0.352 N 
ATOM      4  C   UNL     1       0.000   5.857  -6.951  1.00  0.00     0.251 C 
ATOM      5  O   UNL     1       0.565   5.359  -7.930  1.00  0.00    -0.270 OA
ATOM      6  H   UNL     1       0.115   7.564  -7.875  1.00  0.00     0.163 HD
BRANCH   4   7
ATOM      7  C   UNL     1      -0.377   4.983  -5.801  1.00  0.00     0.067 C 
ATOM      8  C   UNL     1      -1.114   1.046  -2.709  1.00  0.00    -0.026 A 
ATOM      9  C   UNL     1      -1.071   2.446  -2.542  1.00  0.00     0.052 A 
ATOM     10  C   UNL     1      -0.827   0.536  -3.988  1.00  0.00     0.045 A 
ATOM     11  C   UNL     1      -0.758   3.289  -3.607  1.00  0.00     0.128 A 
ATOM     12  C   UNL     1      -0.445   1.388  -5.037  1.00  0.00     0.032 A 
ATOM     13  Cl  UNL     1      -0.976  -1.136  -4.391  1.00  0.00    -0.084 Cl
ATOM     14  C   UNL     1      -0.416   2.768  -4.850  1.00  0.00     0.019 A 
ATOM     15  O   UNL     1      -0.804   4.639  -3.380  1.00  0.00    -0.475 OA
ATOM     16  C   UNL     1      -0.047   3.682  -5.925  1.00  0.00     0.025 C 
ATOM     17  C   UNL     1      -1.106   5.439  -4.567  1.00  0.00     0.314 C 
BRANCH   8  18
ATOM     18  C   UNL     1      -1.568   0.226  -1.517  1.00  0.00     0.037 C 
BRANCH  18  19
ATOM     19  C   UNL     1      -0.796  -1.047  -1.136  1.00  0.00     0.008 C 
BRANCH  19  20
ATOM     20  C   UNL     1       0.732  -0.902  -1.030  1.00  0.00    -0.017 C 
ATOM     21  C   UNL     1       1.141  -0.039   0.163  1.00  0.00     0.007 C 
ATOM     22  C   UNL     1       1.371  -2.288  -0.915  1.00  0.00     0.007 C 
ENDBRANCH  19  20
ENDBRANCH  18  19
ENDBRANCH   8  18
BRANCH  17  23
ATOM     23  C   UNL     1      -2.634   5.510  -4.777  1.00  0.00     0.429 C 
ATOM     24  F   UNL     1      -3.218   6.208  -3.771  1.00  0.00    -0.167 F 
ATOM     25  F   UNL     1      -2.970   6.137  -5.929  1.00  0.00    -0.167 F 
ATOM     26  F   UNL     1      -3.220   4.292  -4.812  1.00  0.00    -0.167 F 
ENDBRANCH  17  23
ENDBRANCH   4   7
ENDBRANCH   2   3
ENDBRANCH   1   2
BRANCH   1  27
ATOM     27  C   UNL     1       0.878  10.131  -6.218  1.00  0.00     0.023 C 
BRANCH  27  28
ATOM     28  C   UNL     1      -0.065  11.143  -6.865  1.00  0.00     0.116 C 
BRANCH  28  29
ATOM     29  N   UNL     1      -1.036  11.729  -5.950  1.00  0.00    -0.352 N 
ATOM     30  C   UNL     1      -1.708  12.923  -6.102  1.00  0.00     0.251 C 
ATOM     31  H   UNL     1      -1.232  11.216  -5.133  1.00  0.00     0.163 HD
ATOM     32  O   UNL     1      -2.475  13.330  -5.236  1.00  0.00    -0.269 OA
BRANCH  30  33
ATOM     33  C   UNL     1      -1.428  13.722  -7.309  1.00  0.00     0.039 A 
ATOM     34  C   UNL     1      -1.640  13.167  -8.573  1.00  0.00     0.014 A 
ATOM     35  C   UNL     1      -0.802  14.962  -7.163  1.00  0.00     0.014 A 
ATOM     36  C   UNL     1      -1.077  13.781  -9.686  1.00  0.00     0.010 A 
ATOM     37  C   UNL     1      -0.285  15.601  -8.290  1.00  0.00     0.010 A 
ATOM     38  C   UNL     1      -0.361  14.982  -9.547  1.00  0.00    -0.014 A 
BRANCH  38  39
ATOM     39  C   UNL     1       0.365  15.539 -10.714  1.00  0.00     0.031 A 
ATOM     40  C   UNL     1       1.870  15.524 -10.750  1.00  0.00     0.074 A 
ATOM     41  C   UNL     1      -0.331  16.008 -11.766  1.00  0.00     0.049 A 
ATOM     42  N   UNL     1       2.674  15.956 -11.688  1.00  0.00    -0.248 NA
ATOM     43  C   UNL     1       2.566  14.947  -9.587  1.00  0.00     0.031 C 
ATOM     44  C   UNL     1      -1.790  16.067 -11.849  1.00  0.00     0.029 A 
ATOM     45  N   UNL     1       0.096  16.505 -12.970  1.00  0.00    -0.354 N 
ATOM     46  C   UNL     1       3.962  15.745 -11.213  1.00  0.00     0.074 A 
ATOM     47  C   UNL     1       3.839  15.139  -9.905  1.00  0.00     0.031 C 
ATOM     48  C   UNL     1      -2.140  16.536 -13.057  1.00  0.00     0.029 A 
ATOM     49  C   UNL     1      -0.931  16.846 -13.816  1.00  0.00     0.049 A 
ATOM     50  H   UNL     1       1.046  16.608 -13.206  1.00  0.00     0.167 HD
ATOM     51  C   UNL     1       5.142  16.013 -11.819  1.00  0.00     0.034 A 
ATOM     52  C   UNL     1      -0.904  17.350 -15.065  1.00  0.00     0.034 A 
ATOM     53  C   UNL     1       5.269  16.554 -13.144  1.00  0.00     0.049 A 
ATOM     54  C   UNL     1       0.417  17.620 -15.722  1.00  0.00     0.074 A 
ATOM     55  C   UNL     1       6.426  16.834 -13.850  1.00  0.00     0.029 A 
ATOM     56  N   UNL     1       4.205  16.884 -13.968  1.00  0.00    -0.354 N 
ATOM     57  N   UNL     1       1.623  17.369 -15.274  1.00  0.00    -0.248 NA
ATOM     58  C   UNL     1       0.384  18.238 -17.055  1.00  0.00     0.031 C 
ATOM     59  C   UNL     1       6.060  17.322 -15.110  1.00  0.00     0.029 A 
ATOM     60  C   UNL     1       4.677  17.358 -15.179  1.00  0.00     0.049 A 
ATOM     61  H   UNL     1       3.255  16.793 -13.727  1.00  0.00     0.167 HD
ATOM     62  C   UNL     1       2.493  17.802 -16.266  1.00  0.00     0.074 A 
ATOM     63  C   UNL     1       1.676  18.302 -17.354  1.00  0.00     0.031 C 
ATOM     64  C   UNL     1       3.848  17.814 -16.263  1.00  0.00     0.034 A 
BRANCH  51  65
ATOM     65  C   UNL     1       6.403  15.668 -11.079  1.00  0.00     0.023 A 
ATOM     66  C   UNL     1       6.907  14.356 -11.168  1.00  0.00     0.012 A 
ATOM     67  C   UNL     1       7.123  16.646 -10.368  1.00  0.00     0.148 A 
ATOM     68  C   UNL     1       8.113  14.020 -10.553  1.00  0.00     0.002 A 
ATOM     69  C   UNL     1       8.333  16.308  -9.773  1.00  0.00     0.091 A 
ATOM     70  F   UNL     1       6.607  17.880 -10.278  1.00  0.00    -0.205 F 
ATOM     71  C   UNL     1       8.829  14.996  -9.865  1.00  0.00     0.022 A 
BRANCH  69  72
ATOM     72  S   UNL     1       9.348  17.501  -8.894  1.00  0.00     0.127 S 
ATOM     73  O   UNL     1       9.175  17.068  -7.508  1.00  0.00    -0.237 OA
ATOM     74  O   UNL     1      10.677  17.247  -9.451  1.00  0.00    -0.237 OA
ATOM     75  O   UNL     1       8.796  18.810  -9.213  1.00  0.00    -0.744 OA
ENDBRANCH  69  72
ENDBRANCH  51  65
BRANCH  52  76
ATOM     76  C   UNL     1      -2.187  17.568 -15.784  1.00  0.00     0.023 A 
ATOM     77  C   UNL     1      -2.567  16.663 -16.791  1.00  0.00     0.012 A 
ATOM     78  C   UNL     1      -3.068  18.601 -15.412  1.00  0.00     0.148 A 
ATOM     79  C   UNL     1      -3.808  16.780 -17.417  1.00  0.00     0.002 A 
ATOM     80  C   UNL     1      -4.321  18.685 -16.007  1.00  0.00     0.091 A 
ATOM     81  F   UNL     1      -2.673  19.463 -14.465  1.00  0.00    -0.205 F 
ATOM     82  C   UNL     1      -4.690  17.780 -17.015  1.00  0.00     0.022 A 
BRANCH  80  83
ATOM     83  S   UNL     1      -5.563  19.860 -15.455  1.00  0.00     0.127 S 
ATOM     84  O   UNL     1      -5.530  20.854 -16.524  1.00  0.00    -0.237 OA
ATOM     85  O   UNL     1      -6.770  19.034 -15.416  1.00  0.00    -0.237 OA
ATOM     86  O   UNL     1      -5.110  20.315 -14.147  1.00  0.00    -0.744 OA
ENDBRANCH  80  83
ENDBRANCH  52  76
BRANCH  64  87
ATOM     87  C   UNL     1       4.540  18.412 -17.454  1.00  0.00     0.023 A 
ATOM     88  C   UNL     1       4.699  19.809 -17.511  1.00  0.00     0.012 A 
ATOM     89  C   UNL     1       5.107  17.603 -18.456  1.00  0.00     0.148 A 
ATOM     90  C   UNL     1       5.409  20.397 -18.556  1.00  0.00     0.002 A 
ATOM     91  C   UNL     1       5.834  18.195 -19.483  1.00  0.00     0.091 A 
ATOM     92  F   UNL     1       4.921  16.277 -18.392  1.00  0.00    -0.205 F 
ATOM     93  C   UNL     1       5.985  19.591 -19.535  1.00  0.00     0.022 A 
BRANCH  91  94
ATOM     94  S   UNL     1       6.659  17.218 -20.744  1.00  0.00     0.127 S 
ATOM     95  O   UNL     1       5.705  17.287 -21.848  1.00  0.00    -0.237 OA
ATOM     96  O   UNL     1       7.901  17.962 -20.963  1.00  0.00    -0.237 OA
ATOM     97  O   UNL     1       6.850  15.899 -20.153  1.00  0.00    -0.744 OA
ENDBRANCH  91  94
ENDBRANCH  64  87
ENDBRANCH  38  39
ENDBRANCH  30  33
ENDBRANCH  28  29
ENDBRANCH  27  28
ENDBRANCH   1  27
TORSDOF 18
