REMARK SMILES CC(C)(C)OC(=O)NC[C@H]1CC[C@@H](C(=O)NCCCCNC(=O)c2ccc(-c3c4nc(c(-c5cccc(S(=O)(=O)[O-])c5F)c5ccc([nH]5)c(-c5cccc(S(=O)(=O)[O-])c5F)c5nc(c(-c6cccc(S(=O)(=O)[O-])c6F)c6ccc3[nH]6)C=C5)C=C4)cc2)CC1
REMARK SMILES IDX 18 1 17 2 16 3 14 4 15 5 13 7 10 8 11 9 88 10 12 11 87 12
REMARK SMILES IDX 9 13 8 14 6 15 7 16 5 18 2 19 1 20 3 21 4 22 19 23 20 24
REMARK SMILES IDX 21 25 22 26 23 28 24 29 25 30 86 31 26 32 85 33 27 34 28 35
REMARK SMILES IDX 29 36 79 37 30 38 84 39 78 40 80 41 31 42 83 43 77 44 76 45
REMARK SMILES IDX 32 47 64 48 44 49 63 50 45 51 48 52 62 53 81 54 46 55 47 56
REMARK SMILES IDX 61 58 82 59 49 60 33 61 34 62 42 63 35 64 37 65 43 66 36 67
REMARK SMILES IDX 38 68 39 69 40 70 41 71 65 72 66 73 74 74 67 75 69 76 75 77
REMARK SMILES IDX 68 78 70 79 71 80 72 81 73 82 50 83 51 84 59 85 52 86 54 87
REMARK SMILES IDX 60 88 53 89 55 90 56 91 57 92 58 93
REMARK H PARENT 16 6 8 17 21 27 80 46 48 57
REMARK Flexibility Score: inf
ROOT
ATOM      1  C   UNL     1       2.257   2.744   7.015  1.00  0.00     0.023 C 
ENDROOT
BRANCH   1   2
ATOM      2  C   UNL     1       2.492   4.219   6.710  1.00  0.00     0.116 C 
BRANCH   2   3
ATOM      3  N   UNL     1       3.577   4.815   7.440  1.00  0.00    -0.356 N 
ATOM      4  C   UNL     1       4.725   5.393   7.004  1.00  0.00     0.223 C 
ATOM      5  O   UNL     1       5.383   6.008   7.851  1.00  0.00    -0.275 OA
ATOM      6  H   UNL     1       3.470   4.803   8.419  1.00  0.00     0.163 HD
BRANCH   4   7
ATOM      7  C   UNL     1       5.249   5.325   5.556  1.00  0.00     0.078 C 
ATOM      8  C   UNL     1       3.639   4.112   3.291  1.00  0.00     0.008 C 
ATOM      9  C   UNL     1       3.421   5.572   3.739  1.00  0.00     0.006 C 
ATOM     10  C   UNL     1       4.522   3.239   4.206  1.00  0.00     0.006 C 
ATOM     11  C   UNL     1       4.559   6.209   4.521  1.00  0.00     0.014 C 
ATOM     12  C   UNL     1       5.599   3.943   5.017  1.00  0.00     0.014 C 
BRANCH   8  13
ATOM     13  C   UNL     1       2.288   3.382   3.092  1.00  0.00     0.123 C 
BRANCH  13  14
ATOM     14  N   UNL     1       1.363   4.096   2.245  1.00  0.00    -0.321 N 
ATOM     15  C   UNL     1       0.651   3.565   1.216  1.00  0.00     0.407 C 
ATOM     16  O   UNL     1      -0.133   4.251   0.572  1.00  0.00    -0.225 OA
ATOM     17  H   UNL     1       1.236   5.055   2.429  1.00  0.00     0.167 HD
BRANCH  15  18
ATOM     18  O   UNL     1       0.945   2.265   1.001  1.00  0.00    -0.444 OA
BRANCH  18  19
ATOM     19  C   UNL     1       0.410   1.565  -0.144  1.00  0.00     0.106 C 
ATOM     20  C   UNL     1       0.998   0.150  -0.045  1.00  0.00     0.056 C 
ATOM     21  C   UNL     1       0.910   2.216  -1.438  1.00  0.00     0.056 C 
ATOM     22  C   UNL     1      -1.117   1.466  -0.090  1.00  0.00     0.056 C 
ENDBRANCH  18  19
ENDBRANCH  15  18
ENDBRANCH  13  14
ENDBRANCH   8  13
ENDBRANCH   4   7
ENDBRANCH   2   3
ENDBRANCH   1   2
BRANCH   1  23
ATOM     23  C   UNL     1       1.102   2.471   7.965  1.00  0.00     0.023 C 
BRANCH  23  24
ATOM     24  C   UNL     1      -0.241   3.061   7.551  1.00  0.00     0.116 C 
BRANCH  24  25
ATOM     25  N   UNL     1      -0.750   2.598   6.264  1.00  0.00    -0.352 N 
ATOM     26  C   UNL     1      -2.053   2.263   5.951  1.00  0.00     0.251 C 
ATOM     27  H   UNL     1      -0.091   2.516   5.537  1.00  0.00     0.163 HD
ATOM     28  O   UNL     1      -2.346   1.829   4.843  1.00  0.00    -0.269 OA
BRANCH  26  29
ATOM     29  C   UNL     1      -3.076   2.387   7.011  1.00  0.00     0.039 A 
ATOM     30  C   UNL     1      -3.809   1.258   7.379  1.00  0.00     0.014 A 
ATOM     31  C   UNL     1      -3.177   3.573   7.741  1.00  0.00     0.014 A 
ATOM     32  C   UNL     1      -4.571   1.292   8.549  1.00  0.00     0.010 A 
ATOM     33  C   UNL     1      -3.842   3.564   8.960  1.00  0.00     0.010 A 
ATOM     34  C   UNL     1      -4.546   2.425   9.380  1.00  0.00    -0.014 A 
BRANCH  34  35
ATOM     35  C   UNL     1      -5.243   2.439  10.695  1.00  0.00     0.031 A 
ATOM     36  C   UNL     1      -6.310   3.466  10.967  1.00  0.00     0.074 A 
ATOM     37  C   UNL     1      -4.865   1.584  11.669  1.00  0.00     0.049 A 
ATOM     38  N   UNL     1      -6.992   3.676  12.062  1.00  0.00    -0.248 NA
ATOM     39  C   UNL     1      -6.631   4.402   9.875  1.00  0.00     0.031 C 
ATOM     40  C   UNL     1      -3.790   0.594  11.562  1.00  0.00     0.029 A 
ATOM     41  N   UNL     1      -5.332   1.423  12.951  1.00  0.00    -0.354 N 
ATOM     42  C   UNL     1      -7.797   4.778  11.801  1.00  0.00     0.074 A 
ATOM     43  C   UNL     1      -7.477   5.231  10.466  1.00  0.00     0.031 C 
ATOM     44  C   UNL     1      -3.696  -0.084  12.718  1.00  0.00     0.029 A 
ATOM     45  C   UNL     1      -4.673   0.446  13.663  1.00  0.00     0.049 A 
ATOM     46  H   UNL     1      -6.069   1.957  13.325  1.00  0.00     0.167 HD
ATOM     47  C   UNL     1      -8.747   5.343  12.583  1.00  0.00     0.034 A 
ATOM     48  C   UNL     1      -4.835   0.029  14.935  1.00  0.00     0.034 A 
ATOM     49  C   UNL     1      -9.089   4.871  13.896  1.00  0.00     0.049 A 
ATOM     50  C   UNL     1      -5.906   0.668  15.780  1.00  0.00     0.074 A 
ATOM     51  C   UNL     1     -10.081   5.330  14.743  1.00  0.00     0.029 A 
ATOM     52  N   UNL     1      -8.444   3.838  14.557  1.00  0.00    -0.354 N 
ATOM     53  N   UNL     1      -6.755   1.615  15.462  1.00  0.00    -0.248 NA
ATOM     54  C   UNL     1      -6.064   0.158  17.150  1.00  0.00     0.031 C 
ATOM     55  C   UNL     1     -10.015   4.595  15.930  1.00  0.00     0.029 A 
ATOM     56  C   UNL     1      -9.010   3.650  15.806  1.00  0.00     0.049 A 
ATOM     57  H   UNL     1      -7.693   3.315  14.193  1.00  0.00     0.167 HD
ATOM     58  C   UNL     1      -7.576   1.781  16.572  1.00  0.00     0.074 A 
ATOM     59  C   UNL     1      -7.133   0.823  17.564  1.00  0.00     0.031 C 
ATOM     60  C   UNL     1      -8.595   2.654  16.760  1.00  0.00     0.034 A 
BRANCH  47  61
ATOM     61  C   UNL     1      -9.522   6.502  12.012  1.00  0.00     0.023 A 
ATOM     62  C   UNL     1     -10.425   6.281  10.951  1.00  0.00     0.012 A 
ATOM     63  C   UNL     1      -9.396   7.796  12.553  1.00  0.00     0.148 A 
ATOM     64  C   UNL     1     -11.159   7.335  10.410  1.00  0.00     0.002 A 
ATOM     65  C   UNL     1     -10.170   8.832  12.043  1.00  0.00     0.091 A 
ATOM     66  F   UNL     1      -8.519   7.991  13.548  1.00  0.00    -0.205 F 
ATOM     67  C   UNL     1     -11.040   8.607  10.963  1.00  0.00     0.022 A 
BRANCH  65  68
ATOM     68  S   UNL     1     -10.154  10.488  12.736  1.00  0.00     0.127 S 
ATOM     69  O   UNL     1      -9.547  11.256  11.650  1.00  0.00    -0.237 OA
ATOM     70  O   UNL     1     -11.579  10.745  12.944  1.00  0.00    -0.237 OA
ATOM     71  O   UNL     1      -9.364  10.407  13.956  1.00  0.00    -0.744 OA
ENDBRANCH  65  68
ENDBRANCH  47  61
BRANCH  48  72
ATOM     72  C   UNL     1      -4.007  -1.086  15.479  1.00  0.00     0.023 A 
ATOM     73  C   UNL     1      -4.619  -2.316  15.795  1.00  0.00     0.012 A 
ATOM     74  C   UNL     1      -2.624  -0.936  15.697  1.00  0.00     0.148 A 
ATOM     75  C   UNL     1      -3.881  -3.357  16.360  1.00  0.00     0.002 A 
ATOM     76  C   UNL     1      -1.883  -1.997  16.205  1.00  0.00     0.091 A 
ATOM     77  F   UNL     1      -2.059   0.242  15.400  1.00  0.00    -0.205 F 
ATOM     78  C   UNL     1      -2.512  -3.201  16.558  1.00  0.00     0.022 A 
BRANCH  76  79
ATOM     79  S   UNL     1      -0.096  -1.930  16.376  1.00  0.00     0.127 S 
ATOM     80  O   UNL     1       0.066  -1.911  17.827  1.00  0.00    -0.237 OA
ATOM     81  O   UNL     1       0.315  -3.175  15.725  1.00  0.00    -0.237 OA
ATOM     82  O   UNL     1       0.321  -0.722  15.677  1.00  0.00    -0.744 OA
ENDBRANCH  76  79
ENDBRANCH  48  72
BRANCH  60  83
ATOM     83  C   UNL     1      -9.348   2.583  18.063  1.00  0.00     0.023 A 
ATOM     84  C   UNL     1      -8.739   3.014  19.258  1.00  0.00     0.012 A 
ATOM     85  C   UNL     1     -10.691   2.155  18.086  1.00  0.00     0.148 A 
ATOM     86  C   UNL     1      -9.442   2.983  20.462  1.00  0.00     0.002 A 
ATOM     87  C   UNL     1     -11.402   2.180  19.278  1.00  0.00     0.091 A 
ATOM     88  F   UNL     1     -11.247   1.735  16.940  1.00  0.00    -0.205 F 
ATOM     89  C   UNL     1     -10.775   2.579  20.470  1.00  0.00     0.022 A 
BRANCH  87  90
ATOM     90  S   UNL     1     -13.150   1.776  19.368  1.00  0.00     0.127 S 
ATOM     91  O   UNL     1     -13.125   0.513  20.104  1.00  0.00    -0.237 OA
ATOM     92  O   UNL     1     -13.690   2.910  20.118  1.00  0.00    -0.237 OA
ATOM     93  O   UNL     1     -13.614   1.684  17.990  1.00  0.00    -0.744 OA
ENDBRANCH  87  90
ENDBRANCH  60  83
ENDBRANCH  34  35
ENDBRANCH  26  29
ENDBRANCH  24  25
ENDBRANCH  23  24
ENDBRANCH   1  23
TORSDOF 18
