REMARK SMILES Nc1ccc(Cl)c(SC[C@H]2CC[C@@H](C(=O)NCCCCNC(=O)c3ccc(-c4c5nc(c(-c6cccc(S(=O)(=O)[O-])c6F)c6ccc([nH]6)c(-c6cccc(S(=O)(=O)[O-])c6F)c6nc(c(-c7cccc(S(=O)(=O)[O-])c7F)c7ccc4[nH]7)C=C6)C=C5)cc3)O2)c1
REMARK SMILES IDX 18 1 17 2 16 3 14 4 15 5 13 7 10 8 11 9 87 10 12 11 9 12
REMARK SMILES IDX 8 13 7 14 2 15 3 16 88 17 4 18 5 19 6 20 1 21 19 24 20 25
REMARK SMILES IDX 21 26 22 27 23 29 24 30 25 31 86 32 26 33 85 34 27 35 28 36
REMARK SMILES IDX 29 37 79 38 30 39 84 40 78 41 80 42 31 43 83 44 77 45 76 46
REMARK SMILES IDX 32 48 64 49 44 50 63 51 45 52 48 53 62 54 81 55 46 56 47 57
REMARK SMILES IDX 61 59 82 60 49 61 33 62 34 63 42 64 35 65 37 66 43 67 36 68
REMARK SMILES IDX 38 69 39 70 40 71 41 72 65 73 66 74 74 75 67 76 69 77 75 78
REMARK SMILES IDX 68 79 70 80 71 81 72 82 73 83 50 84 51 85 59 86 52 87 54 88
REMARK SMILES IDX 60 89 53 90 55 91 56 92 57 93 58 94
REMARK H PARENT 16 6 1 22 1 23 21 28 80 47 48 58
REMARK Flexibility Score: inf
ROOT
ATOM      1  C   UNL     1      -3.923  -4.809   4.859  1.00  0.00     0.023 C 
ENDROOT
BRANCH   1   2
ATOM      2  C   UNL     1      -4.825  -4.127   3.829  1.00  0.00     0.116 C 
BRANCH   2   3
ATOM      3  N   UNL     1      -4.294  -2.851   3.404  1.00  0.00    -0.354 N 
ATOM      4  C   UNL     1      -3.526  -2.492   2.339  1.00  0.00     0.249 C 
ATOM      5  O   UNL     1      -3.304  -1.280   2.223  1.00  0.00    -0.272 OA
ATOM      6  H   UNL     1      -4.532  -2.101   3.997  1.00  0.00     0.163 HD
BRANCH   4   7
ATOM      7  C   UNL     1      -3.021  -3.487   1.261  1.00  0.00     0.207 C 
ATOM      8  C   UNL     1      -0.808  -4.147   0.762  1.00  0.00     0.129 C 
ATOM      9  C   UNL     1      -1.685  -5.381   0.729  1.00  0.00     0.036 C 
ATOM     10  O   UNL     1      -1.732  -3.052   0.747  1.00  0.00    -0.364 OA
ATOM     11  C   UNL     1      -2.847  -4.961   1.587  1.00  0.00     0.045 C 
BRANCH   8  12
ATOM     12  C   UNL     1       0.206  -4.122   1.934  1.00  0.00     0.107 C 
BRANCH  12  13
ATOM     13  S   UNL     1      -0.190  -3.179   3.449  1.00  0.00    -0.122 SA
BRANCH  13  14
ATOM     14  C   UNL     1      -0.079  -1.441   2.961  1.00  0.00     0.028 A 
ATOM     15  C   UNL     1       0.438   0.291   1.295  1.00  0.00     0.033 A 
ATOM     16  C   UNL     1       0.060   1.276   2.201  1.00  0.00     0.027 A 
ATOM     17  C   UNL     1       0.420  -1.048   1.707  1.00  0.00     0.042 A 
ATOM     18  C   UNL     1      -0.417   0.924   3.463  1.00  0.00     0.024 A 
ATOM     19  C   UNL     1      -0.501  -0.423   3.839  1.00  0.00     0.054 A 
ATOM     20  Cl  UNL     1      -1.137  -0.749   5.419  1.00  0.00    -0.083 Cl
BRANCH  15  21
ATOM     21  N   UNL     1       0.964   0.632   0.053  1.00  0.00    -0.399 N 
ATOM     22  H   UNL     1       0.976   1.573  -0.235  1.00  0.00     0.156 HD
ATOM     23  H   UNL     1       1.325  -0.069  -0.538  1.00  0.00     0.156 HD
ENDBRANCH  15  21
ENDBRANCH  13  14
ENDBRANCH  12  13
ENDBRANCH   8  12
ENDBRANCH   4   7
ENDBRANCH   2   3
ENDBRANCH   1   2
BRANCH   1  24
ATOM     24  C   UNL     1      -4.118  -4.345   6.303  1.00  0.00     0.023 C 
BRANCH  24  25
ATOM     25  C   UNL     1      -5.511  -4.567   6.878  1.00  0.00     0.116 C 
BRANCH  25  26
ATOM     26  N   UNL     1      -5.972  -5.946   6.780  1.00  0.00    -0.352 N 
ATOM     27  C   UNL     1      -6.841  -6.610   7.613  1.00  0.00     0.251 C 
ATOM     28  H   UNL     1      -5.617  -6.467   6.024  1.00  0.00     0.163 HD
ATOM     29  O   UNL     1      -7.072  -7.805   7.445  1.00  0.00    -0.269 OA
BRANCH  27  30
ATOM     30  C   UNL     1      -7.458  -5.879   8.738  1.00  0.00     0.039 A 
ATOM     31  C   UNL     1      -7.352  -6.409  10.026  1.00  0.00     0.014 A 
ATOM     32  C   UNL     1      -8.082  -4.646   8.527  1.00  0.00     0.014 A 
ATOM     33  C   UNL     1      -7.806  -5.664  11.116  1.00  0.00     0.010 A 
ATOM     34  C   UNL     1      -8.473  -3.879   9.618  1.00  0.00     0.010 A 
ATOM     35  C   UNL     1      -8.334  -4.377  10.923  1.00  0.00    -0.014 A 
BRANCH  35  36
ATOM     36  C   UNL     1      -8.716  -3.517  12.070  1.00  0.00     0.031 A 
ATOM     37  C   UNL     1     -10.147  -3.094  12.253  1.00  0.00     0.074 A 
ATOM     38  C   UNL     1      -7.755  -3.021  12.874  1.00  0.00     0.049 A 
ATOM     39  N   UNL     1     -10.658  -2.282  13.140  1.00  0.00    -0.248 NA
ATOM     40  C   UNL     1     -11.129  -3.630  11.295  1.00  0.00     0.031 C 
ATOM     41  C   UNL     1      -6.319  -3.280  12.736  1.00  0.00     0.029 A 
ATOM     42  N   UNL     1      -7.835  -2.164  13.943  1.00  0.00    -0.354 N 
ATOM     43  C   UNL     1     -12.006  -2.173  12.823  1.00  0.00     0.074 A 
ATOM     44  C   UNL     1     -12.231  -2.985  11.648  1.00  0.00     0.031 C 
ATOM     45  C   UNL     1      -5.655  -2.590  13.679  1.00  0.00     0.029 A 
ATOM     46  C   UNL     1      -6.611  -1.826  14.473  1.00  0.00     0.049 A 
ATOM     47  H   UNL     1      -8.688  -1.824  14.298  1.00  0.00     0.167 HD
ATOM     48  C   UNL     1     -12.974  -1.483  13.471  1.00  0.00     0.034 A 
ATOM     49  C   UNL     1      -6.295  -0.988  15.480  1.00  0.00     0.034 A 
ATOM     50  C   UNL     1     -12.757  -0.731  14.676  1.00  0.00     0.049 A 
ATOM     51  C   UNL     1      -7.401  -0.294  16.227  1.00  0.00     0.074 A 
ATOM     52  C   UNL     1     -13.694  -0.099  15.474  1.00  0.00     0.029 A 
ATOM     53  N   UNL     1     -11.519  -0.507  15.256  1.00  0.00    -0.354 N 
ATOM     54  N   UNL     1      -8.695  -0.357  16.029  1.00  0.00    -0.248 NA
ATOM     55  C   UNL     1      -7.008   0.556  17.361  1.00  0.00     0.031 C 
ATOM     56  C   UNL     1     -13.019   0.518  16.533  1.00  0.00     0.029 A 
ATOM     57  C   UNL     1     -11.664   0.261  16.398  1.00  0.00     0.049 A 
ATOM     58  H   UNL     1     -10.662  -0.844  14.907  1.00  0.00     0.167 HD
ATOM     59  C   UNL     1      -9.273   0.418  17.028  1.00  0.00     0.074 A 
ATOM     60  C   UNL     1      -8.188   0.922  17.846  1.00  0.00     0.031 C 
ATOM     61  C   UNL     1     -10.581   0.703  17.238  1.00  0.00     0.034 A 
BRANCH  48  62
ATOM     62  C   UNL     1     -14.376  -1.567  12.930  1.00  0.00     0.023 A 
ATOM     63  C   UNL     1     -15.113  -2.756  13.105  1.00  0.00     0.012 A 
ATOM     64  C   UNL     1     -14.987  -0.458  12.314  1.00  0.00     0.148 A 
ATOM     65  C   UNL     1     -16.428  -2.849  12.651  1.00  0.00     0.002 A 
ATOM     66  C   UNL     1     -16.311  -0.546  11.899  1.00  0.00     0.091 A 
ATOM     67  F   UNL     1     -14.262   0.656  12.135  1.00  0.00    -0.205 F 
ATOM     68  C   UNL     1     -17.029  -1.743  12.059  1.00  0.00     0.022 A 
BRANCH  66  69
ATOM     69  S   UNL     1     -17.198   0.847  11.191  1.00  0.00     0.127 S 
ATOM     70  O   UNL     1     -17.289   0.454   9.785  1.00  0.00    -0.237 OA
ATOM     71  O   UNL     1     -18.468   0.806  11.918  1.00  0.00    -0.237 OA
ATOM     72  O   UNL     1     -16.382   2.021  11.463  1.00  0.00    -0.744 OA
ENDBRANCH  66  69
ENDBRANCH  48  62
BRANCH  49  73
ATOM     73  C   UNL     1      -4.872  -0.821  15.889  1.00  0.00     0.023 A 
ATOM     74  C   UNL     1      -4.436  -1.379  17.106  1.00  0.00     0.012 A 
ATOM     75  C   UNL     1      -3.945  -0.145  15.072  1.00  0.00     0.148 A 
ATOM     76  C   UNL     1      -3.110  -1.243  17.517  1.00  0.00     0.002 A 
ATOM     77  C   UNL     1      -2.613  -0.057  15.464  1.00  0.00     0.091 A 
ATOM     78  F   UNL     1      -4.381   0.394  13.925  1.00  0.00    -0.205 F 
ATOM     79  C   UNL     1      -2.197  -0.592  16.693  1.00  0.00     0.022 A 
BRANCH  77  80
ATOM     80  S   UNL     1      -1.350   0.650  14.401  1.00  0.00     0.127 S 
ATOM     81  O   UNL     1      -1.145   1.961  15.011  1.00  0.00    -0.237 OA
ATOM     82  O   UNL     1      -0.241  -0.290  14.574  1.00  0.00    -0.237 OA
ATOM     83  O   UNL     1      -1.928   0.650  13.064  1.00  0.00    -0.744 OA
ENDBRANCH  77  80
ENDBRANCH  49  73
BRANCH  61  84
ATOM     84  C   UNL     1     -10.927   1.582  18.410  1.00  0.00     0.023 A 
ATOM     85  C   UNL     1     -10.677   2.966  18.337  1.00  0.00     0.012 A 
ATOM     86  C   UNL     1     -11.580   1.053  19.540  1.00  0.00     0.148 A 
ATOM     87  C   UNL     1     -11.050   3.808  19.383  1.00  0.00     0.002 A 
ATOM     88  C   UNL     1     -11.989   1.905  20.559  1.00  0.00     0.091 A 
ATOM     89  F   UNL     1     -11.791  -0.270  19.598  1.00  0.00    -0.205 F 
ATOM     90  C   UNL     1     -11.717   3.281  20.487  1.00  0.00     0.022 A 
BRANCH  88  91
ATOM     91  S   UNL     1     -12.935   1.325  21.973  1.00  0.00     0.127 S 
ATOM     92  O   UNL     1     -11.925   1.327  23.029  1.00  0.00    -0.237 OA
ATOM     93  O   UNL     1     -13.962   2.360  22.108  1.00  0.00    -0.237 OA
ATOM     94  O   UNL     1     -13.448   0.015  21.597  1.00  0.00    -0.744 OA
ENDBRANCH  88  91
ENDBRANCH  61  84
ENDBRANCH  35  36
ENDBRANCH  27  30
ENDBRANCH  25  26
ENDBRANCH  24  25
ENDBRANCH   1  24
TORSDOF 18
