REMARK SMILES [NH3+][C@H]1C=C[C@@H](C(=O)NC2(CC(=O)NCCCCNC(=O)c3ccc(-c4c5nc(c(-c6cccc(S(=O)(=O)[O-])c6F)c6ccc([nH]6)c(-c6cccc(S(=O)(=O)[O-])c6F)c6nc(c(-c7cccc(S(=O)(=O)[O-])c7F)c7ccc4[nH]7)C=C6)C=C5)cc3)CCCCC2)C1
REMARK SMILES IDX 15 1 14 2 13 3 11 4 12 5 10 7 9 8 84 9 88 10 85 11 87 12
REMARK SMILES IDX 86 13 8 14 6 15 7 16 5 18 2 19 3 20 89 21 4 22 1 23 16 27
REMARK SMILES IDX 17 28 18 29 19 30 20 32 21 33 22 34 83 35 23 36 82 37 24 38
REMARK SMILES IDX 25 39 26 40 76 41 27 42 81 43 75 44 77 45 28 46 80 47 74 48
REMARK SMILES IDX 73 49 29 51 61 52 41 53 60 54 42 55 45 56 59 57 78 58 43 59
REMARK SMILES IDX 44 60 58 62 79 63 46 64 30 65 31 66 39 67 32 68 34 69 40 70
REMARK SMILES IDX 33 71 35 72 36 73 37 74 38 75 62 76 63 77 71 78 64 79 66 80
REMARK SMILES IDX 72 81 65 82 67 83 68 84 69 85 70 86 47 87 48 88 56 89 49 90
REMARK SMILES IDX 51 91 57 92 50 93 52 94 53 95 54 96 55 97
REMARK H PARENT 13 6 8 17 1 24 1 25 1 26 18 31 77 50 45 61
REMARK Flexibility Score: inf
ROOT
ATOM      1  C   UNL     1      -2.698  -0.447  -1.505  1.00  0.00     0.023 C 
ENDROOT
BRANCH   1   2
ATOM      2  C   UNL     1      -2.678   0.120  -2.928  1.00  0.00     0.116 C 
BRANCH   2   3
ATOM      3  N   UNL     1      -3.427   1.359  -2.993  1.00  0.00    -0.356 N 
ATOM      4  C   UNL     1      -2.999   2.646  -2.916  1.00  0.00     0.222 C 
ATOM      5  O   UNL     1      -3.844   3.541  -2.836  1.00  0.00    -0.275 OA
ATOM      6  H   UNL     1      -4.399   1.251  -3.111  1.00  0.00     0.163 HD
BRANCH   4   7
ATOM      7  C   UNL     1      -1.524   3.011  -2.941  1.00  0.00     0.128 C 
BRANCH   7   8
ATOM      8  C   UNL     1      -0.785   3.079  -1.557  1.00  0.00     0.049 C 
ATOM      9  C   UNL     1       0.296   4.195  -1.627  1.00  0.00     0.029 C 
ATOM     10  C   UNL     1      -0.053   1.762  -1.280  1.00  0.00     0.029 C 
ATOM     11  C   UNL     1       1.460   3.873  -2.574  1.00  0.00     0.002 C 
ATOM     12  C   UNL     1       1.068   1.407  -2.250  1.00  0.00     0.002 C 
ATOM     13  C   UNL     1       2.102   2.521  -2.276  1.00  0.00     0.000 C 
BRANCH   8  14
ATOM     14  N   UNL     1      -1.778   3.441  -0.503  1.00  0.00    -0.350 N 
ATOM     15  C   UNL     1      -1.900   3.470   0.845  1.00  0.00     0.227 C 
ATOM     16  O   UNL     1      -2.906   4.068   1.259  1.00  0.00    -0.274 OA
ATOM     17  H   UNL     1      -2.610   3.760  -0.921  1.00  0.00     0.164 HD
BRANCH  15  18
ATOM     18  C   UNL     1      -0.978   2.832   1.891  1.00  0.00     0.107 C 
ATOM     19  C   UNL     1       0.464   0.897   2.313  1.00  0.00     0.205 C 
ATOM     20  C   UNL     1       1.254   2.146   2.075  1.00  0.00     0.033 C 
ATOM     21  C   UNL     1      -0.974   1.300   1.934  1.00  0.00     0.087 C 
ATOM     22  C   UNL     1       0.468   3.205   1.847  1.00  0.00    -0.012 C 
BRANCH  19  23
ATOM     23  N   UNL     1       0.948  -0.229   1.535  1.00  0.00    -0.352 N 
ATOM     24  H   UNL     1       1.901  -0.456   1.822  1.00  0.00     0.345 HD
ATOM     25  H   UNL     1       0.940   0.013   0.544  1.00  0.00     0.345 HD
ATOM     26  H   UNL     1       0.344  -1.036   1.693  1.00  0.00     0.345 HD
ENDBRANCH  19  23
ENDBRANCH  15  18
ENDBRANCH   8  14
ENDBRANCH   7   8
ENDBRANCH   4   7
ENDBRANCH   2   3
ENDBRANCH   1   2
BRANCH   1  27
ATOM     27  C   UNL     1      -3.758  -1.507  -1.242  1.00  0.00     0.023 C 
BRANCH  27  28
ATOM     28  C   UNL     1      -3.501  -2.826  -1.957  1.00  0.00     0.116 C 
BRANCH  28  29
ATOM     29  N   UNL     1      -2.243  -3.470  -1.593  1.00  0.00    -0.352 N 
ATOM     30  C   UNL     1      -1.964  -4.821  -1.557  1.00  0.00     0.251 C 
ATOM     31  H   UNL     1      -1.504  -2.868  -1.343  1.00  0.00     0.163 HD
ATOM     32  O   UNL     1      -0.876  -5.232  -1.192  1.00  0.00    -0.269 OA
BRANCH  30  33
ATOM     33  C   UNL     1      -3.047  -5.759  -1.922  1.00  0.00     0.039 A 
ATOM     34  C   UNL     1      -3.438  -6.729  -0.997  1.00  0.00     0.014 A 
ATOM     35  C   UNL     1      -3.753  -5.578  -3.112  1.00  0.00     0.014 A 
ATOM     36  C   UNL     1      -4.605  -7.460  -1.228  1.00  0.00     0.010 A 
ATOM     37  C   UNL     1      -4.959  -6.239  -3.293  1.00  0.00     0.010 A 
ATOM     38  C   UNL     1      -5.400  -7.183  -2.352  1.00  0.00    -0.014 A 
BRANCH  38  39
ATOM     39  C   UNL     1      -6.705  -7.856  -2.571  1.00  0.00     0.031 A 
ATOM     40  C   UNL     1      -6.915  -8.683  -3.811  1.00  0.00     0.074 A 
ATOM     41  C   UNL     1      -7.728  -7.633  -1.721  1.00  0.00     0.049 A 
ATOM     42  N   UNL     1      -8.007  -9.252  -4.247  1.00  0.00    -0.248 NA
ATOM     43  C   UNL     1      -5.752  -8.858  -4.700  1.00  0.00     0.031 C 
ATOM     44  C   UNL     1      -7.678  -6.776  -0.534  1.00  0.00     0.029 A 
ATOM     45  N   UNL     1      -9.023  -8.088  -1.743  1.00  0.00    -0.354 N 
ATOM     46  C   UNL     1      -7.678  -9.809  -5.476  1.00  0.00     0.074 A 
ATOM     47  C   UNL     1      -6.295  -9.477  -5.738  1.00  0.00     0.031 C 
ATOM     48  C   UNL     1      -8.882  -6.775   0.062  1.00  0.00     0.029 A 
ATOM     49  C   UNL     1      -9.796  -7.610  -0.709  1.00  0.00     0.049 A 
ATOM     50  H   UNL     1      -9.367  -8.700  -2.433  1.00  0.00     0.167 HD
ATOM     51  C   UNL     1      -8.442 -10.567  -6.296  1.00  0.00     0.034 A 
ATOM     52  C   UNL     1     -11.095  -7.825  -0.418  1.00  0.00     0.034 A 
ATOM     53  C   UNL     1      -9.789 -10.964  -5.995  1.00  0.00     0.049 A 
ATOM     54  C   UNL     1     -11.896  -8.743  -1.303  1.00  0.00     0.074 A 
ATOM     55  C   UNL     1     -10.622 -11.800  -6.717  1.00  0.00     0.029 A 
ATOM     56  N   UNL     1     -10.495 -10.566  -4.870  1.00  0.00    -0.354 N 
ATOM     57  N   UNL     1     -11.519  -9.384  -2.383  1.00  0.00    -0.248 NA
ATOM     58  C   UNL     1     -13.289  -9.001  -0.908  1.00  0.00     0.031 C 
ATOM     59  C   UNL     1     -11.831 -11.914  -6.023  1.00  0.00     0.029 A 
ATOM     60  C   UNL     1     -11.748 -11.151  -4.869  1.00  0.00     0.049 A 
ATOM     61  H   UNL     1     -10.154  -9.958  -4.175  1.00  0.00     0.167 HD
ATOM     62  C   UNL     1     -12.612 -10.149  -2.773  1.00  0.00     0.074 A 
ATOM     63  C   UNL     1     -13.659  -9.908  -1.802  1.00  0.00     0.031 C 
ATOM     64  C   UNL     1     -12.746 -10.960  -3.850  1.00  0.00     0.034 A 
BRANCH  51  65
ATOM     65  C   UNL     1      -7.806 -11.093  -7.554  1.00  0.00     0.023 A 
ATOM     66  C   UNL     1      -6.857 -12.131  -7.459  1.00  0.00     0.012 A 
ATOM     67  C   UNL     1      -8.179 -10.608  -8.822  1.00  0.00     0.148 A 
ATOM     68  C   UNL     1      -6.264 -12.659  -8.604  1.00  0.00     0.002 A 
ATOM     69  C   UNL     1      -7.613 -11.168  -9.962  1.00  0.00     0.091 A 
ATOM     70  F   UNL     1      -9.066  -9.606  -8.889  1.00  0.00    -0.205 F 
ATOM     71  C   UNL     1      -6.650 -12.185  -9.855  1.00  0.00     0.022 A 
BRANCH  69  72
ATOM     72  S   UNL     1      -8.091 -10.679 -11.623  1.00  0.00     0.127 S 
ATOM     73  O   UNL     1      -6.894  -9.974 -12.079  1.00  0.00    -0.237 OA
ATOM     74  O   UNL     1      -8.320 -11.972 -12.271  1.00  0.00    -0.237 OA
ATOM     75  O   UNL     1      -9.282  -9.855 -11.473  1.00  0.00    -0.744 OA
ENDBRANCH  69  72
ENDBRANCH  51  65
BRANCH  52  76
ATOM     76  C   UNL     1     -11.697  -7.239   0.813  1.00  0.00     0.023 A 
ATOM     77  C   UNL     1     -12.017  -8.091   1.890  1.00  0.00     0.012 A 
ATOM     78  C   UNL     1     -11.948  -5.860   0.934  1.00  0.00     0.148 A 
ATOM     79  C   UNL     1     -12.609  -7.586   3.048  1.00  0.00     0.002 A 
ATOM     80  C   UNL     1     -12.492  -5.356   2.112  1.00  0.00     0.091 A 
ATOM     81  F   UNL     1     -11.655  -5.064  -0.104  1.00  0.00    -0.205 F 
ATOM     82  C   UNL     1     -12.838  -6.218   3.163  1.00  0.00     0.022 A 
BRANCH  80  83
ATOM     83  S   UNL     1     -12.698  -3.591   2.379  1.00  0.00     0.127 S 
ATOM     84  O   UNL     1     -14.108  -3.401   2.056  1.00  0.00    -0.237 OA
ATOM     85  O   UNL     1     -12.366  -3.449   3.797  1.00  0.00    -0.237 OA
ATOM     86  O   UNL     1     -11.740  -2.960   1.480  1.00  0.00    -0.744 OA
ENDBRANCH  80  83
ENDBRANCH  52  76
BRANCH  64  87
ATOM     87  C   UNL     1     -14.052 -11.686  -4.021  1.00  0.00     0.023 A 
ATOM     88  C   UNL     1     -15.184 -10.982  -4.474  1.00  0.00     0.012 A 
ATOM     89  C   UNL     1     -14.133 -13.078  -3.821  1.00  0.00     0.148 A 
ATOM     90  C   UNL     1     -16.386 -11.650  -4.704  1.00  0.00     0.002 A 
ATOM     91  C   UNL     1     -15.322 -13.743  -4.093  1.00  0.00     0.091 A 
ATOM     92  F   UNL     1     -13.049 -13.725  -3.368  1.00  0.00    -0.205 F 
ATOM     93  C   UNL     1     -16.451 -13.030  -4.527  1.00  0.00     0.022 A 
BRANCH  91  94
ATOM     94  S   UNL     1     -15.465 -15.531  -3.980  1.00  0.00     0.127 S 
ATOM     95  O   UNL     1     -16.183 -15.694  -2.718  1.00  0.00    -0.237 OA
ATOM     96  O   UNL     1     -16.245 -15.860  -5.173  1.00  0.00    -0.237 OA
ATOM     97  O   UNL     1     -14.099 -16.039  -3.998  1.00  0.00    -0.744 OA
ENDBRANCH  91  94
ENDBRANCH  64  87
ENDBRANCH  38  39
ENDBRANCH  30  33
ENDBRANCH  28  29
ENDBRANCH  27  28
ENDBRANCH   1  27
TORSDOF 18
