REMARK SMILES O=C(NCCCCNC(=O)c1ccc(-c2c3nc(c(-c4cccc(S(=O)(=O)[O-])c4F)c4ccc([nH]4)c(-c4cccc(S(=O)(=O)[O-])c4F)c4nc(c(-c5cccc(S(=O)(=O)[O-])c5F)c5ccc2[nH]5)C=C4)C=C3)cc1)C1=Cc2c(Cl)cc(Cl)cc2O[C@@H]1C(F)(F)F
REMARK SMILES IDX 6 1 5 2 4 3 3 4 1 5 2 6 74 8 75 9 85 10 76 11 84 12 77 13
REMARK SMILES IDX 83 14 78 15 79 16 82 17 80 18 81 19 86 20 87 21 88 22 89 23
REMARK SMILES IDX 7 24 8 25 9 26 10 28 11 29 12 30 73 31 13 32 72 33 14 34
REMARK SMILES IDX 15 35 16 36 66 37 17 38 71 39 65 40 67 41 18 42 70 43 64 44
REMARK SMILES IDX 63 45 19 47 51 48 31 49 50 50 32 51 35 52 49 53 68 54 33 55
REMARK SMILES IDX 34 56 48 58 69 59 36 60 20 61 21 62 29 63 22 64 24 65 30 66
REMARK SMILES IDX 23 67 25 68 26 69 27 70 28 71 52 72 53 73 61 74 54 75 56 76
REMARK SMILES IDX 62 77 55 78 57 79 58 80 59 81 60 82 37 83 38 84 46 85 39 86
REMARK SMILES IDX 41 87 47 88 40 89 42 90 43 91 44 92 45 93
REMARK H PARENT 3 7 8 27 67 46 35 57
REMARK Flexibility Score: inf
ROOT
ATOM      1  C   UNL     1       4.111  -1.239   4.179  1.00  0.00     0.023 C 
ENDROOT
BRANCH   1   2
ATOM      2  C   UNL     1       4.348  -0.151   3.132  1.00  0.00     0.023 C 
BRANCH   2   3
ATOM      3  C   UNL     1       3.826  -0.481   1.733  1.00  0.00     0.116 C 
BRANCH   3   4
ATOM      4  N   UNL     1       2.650   0.294   1.336  1.00  0.00    -0.352 N 
ATOM      5  O   UNL     1       1.188   1.257  -0.108  1.00  0.00    -0.270 OA
ATOM      6  C   UNL     1       2.319   0.843   0.117  1.00  0.00     0.251 C 
ATOM      7  H   UNL     1       1.992   0.446   2.052  1.00  0.00     0.163 HD
BRANCH   6   8
ATOM      8  C   UNL     1       3.323   0.789  -0.967  1.00  0.00     0.067 C 
ATOM      9  C   UNL     1       4.490   1.444  -0.880  1.00  0.00     0.027 C 
ATOM     10  C   UNL     1       3.118  -0.248  -2.025  1.00  0.00     0.314 C 
ATOM     11  C   UNL     1       5.640   0.517  -1.043  1.00  0.00     0.036 A 
ATOM     12  O   UNL     1       4.185  -1.222  -2.014  1.00  0.00    -0.475 OA
ATOM     13  C   UNL     1       6.866   0.764  -0.390  1.00  0.00     0.053 A 
ATOM     14  C   UNL     1       5.390  -0.798  -1.503  1.00  0.00     0.130 A 
ATOM     15  Cl  UNL     1       7.246   2.299   0.320  1.00  0.00    -0.083 Cl
ATOM     16  C   UNL     1       7.776  -0.274  -0.162  1.00  0.00     0.042 A 
ATOM     17  C   UNL     1       6.313  -1.825  -1.296  1.00  0.00     0.067 A 
ATOM     18  C   UNL     1       7.489  -1.562  -0.604  1.00  0.00     0.046 A 
ATOM     19  Cl  UNL     1       8.562  -2.852  -0.234  1.00  0.00    -0.084 Cl
BRANCH  10  20
ATOM     20  C   UNL     1       2.981   0.401  -3.416  1.00  0.00     0.429 C 
ATOM     21  F   UNL     1       2.676  -0.521  -4.361  1.00  0.00    -0.167 F 
ATOM     22  F   UNL     1       2.001   1.335  -3.448  1.00  0.00    -0.167 F 
ATOM     23  F   UNL     1       4.123   1.012  -3.816  1.00  0.00    -0.167 F 
ENDBRANCH  10  20
ENDBRANCH   6   8
ENDBRANCH   3   4
ENDBRANCH   2   3
ENDBRANCH   1   2
BRANCH   1  24
ATOM     24  C   UNL     1       4.694  -2.617   3.871  1.00  0.00     0.116 C 
BRANCH  24  25
ATOM     25  N   UNL     1       6.138  -2.638   3.685  1.00  0.00    -0.352 N 
ATOM     26  C   UNL     1       7.046  -3.566   4.151  1.00  0.00     0.251 C 
ATOM     27  H   UNL     1       6.515  -1.896   3.159  1.00  0.00     0.163 HD
ATOM     28  O   UNL     1       8.250  -3.400   3.963  1.00  0.00    -0.269 OA
BRANCH  26  29
ATOM     29  C   UNL     1       6.565  -4.734   4.923  1.00  0.00     0.039 A 
ATOM     30  C   UNL     1       7.162  -5.030   6.151  1.00  0.00     0.014 A 
ATOM     31  C   UNL     1       5.483  -5.491   4.469  1.00  0.00     0.014 A 
ATOM     32  C   UNL     1       6.617  -6.030   6.962  1.00  0.00     0.010 A 
ATOM     33  C   UNL     1       4.889  -6.423   5.315  1.00  0.00     0.010 A 
ATOM     34  C   UNL     1       5.450  -6.706   6.570  1.00  0.00    -0.014 A 
BRANCH  34  35
ATOM     35  C   UNL     1       4.806  -7.716   7.452  1.00  0.00     0.031 A 
ATOM     36  C   UNL     1       4.674  -9.144   6.989  1.00  0.00     0.074 A 
ATOM     37  C   UNL     1       4.270  -7.337   8.630  1.00  0.00     0.049 A 
ATOM     38  N   UNL     1       4.098 -10.155   7.586  1.00  0.00    -0.248 NA
ATOM     39  C   UNL     1       5.234  -9.472   5.667  1.00  0.00     0.031 C 
ATOM     40  C   UNL     1       4.241  -5.967   9.149  1.00  0.00     0.029 A 
ATOM     41  N   UNL     1       3.622  -8.067   9.597  1.00  0.00    -0.354 N 
ATOM     42  C   UNL     1       4.200 -11.226   6.705  1.00  0.00     0.074 A 
ATOM     43  C   UNL     1       4.845 -10.729   5.510  1.00  0.00     0.031 C 
ATOM     44  C   UNL     1       3.616  -5.957  10.339  1.00  0.00     0.029 A 
ATOM     45  C   UNL     1       3.185  -7.313  10.663  1.00  0.00     0.049 A 
ATOM     46  H   UNL     1       3.484  -9.040   9.534  1.00  0.00     0.167 HD
ATOM     47  C   UNL     1       3.834 -12.517   6.886  1.00  0.00     0.034 A 
ATOM     48  C   UNL     1       2.519  -7.677  11.777  1.00  0.00     0.034 A 
ATOM     49  C   UNL     1       3.243 -13.021   8.095  1.00  0.00     0.049 A 
ATOM     50  C   UNL     1       2.205  -9.135  11.992  1.00  0.00     0.074 A 
ATOM     51  C   UNL     1       2.876 -14.320   8.400  1.00  0.00     0.029 A 
ATOM     52  N   UNL     1       2.949 -12.250   9.208  1.00  0.00    -0.354 N 
ATOM     53  N   UNL     1       2.439 -10.155  11.201  1.00  0.00    -0.248 NA
ATOM     54  C   UNL     1       1.587  -9.501  13.274  1.00  0.00     0.031 C 
ATOM     55  C   UNL     1       2.366 -14.335   9.703  1.00  0.00     0.029 A 
ATOM     56  C   UNL     1       2.429 -13.048  10.212  1.00  0.00     0.049 A 
ATOM     57  H   UNL     1       3.089 -11.278   9.275  1.00  0.00     0.167 HD
ATOM     58  C   UNL     1       2.041 -11.284  11.908  1.00  0.00     0.074 A 
ATOM     59  C   UNL     1       1.572 -10.825  13.199  1.00  0.00     0.031 C 
ATOM     60  C   UNL     1       2.044 -12.582  11.518  1.00  0.00     0.034 A 
BRANCH  47  61
ATOM     61  C   UNL     1       4.147 -13.491   5.780  1.00  0.00     0.023 A 
ATOM     62  C   UNL     1       5.490 -13.857   5.550  1.00  0.00     0.012 A 
ATOM     63  C   UNL     1       3.129 -14.081   5.008  1.00  0.00     0.148 A 
ATOM     64  C   UNL     1       5.819 -14.767   4.547  1.00  0.00     0.002 A 
ATOM     65  C   UNL     1       3.461 -15.021   4.038  1.00  0.00     0.091 A 
ATOM     66  F   UNL     1       1.861 -13.708   5.229  1.00  0.00    -0.205 F 
ATOM     67  C   UNL     1       4.804 -15.356   3.799  1.00  0.00     0.022 A 
BRANCH  65  68
ATOM     68  S   UNL     1       2.228 -15.896   3.067  1.00  0.00     0.127 S 
ATOM     69  O   UNL     1       2.466 -15.352   1.730  1.00  0.00    -0.237 OA
ATOM     70  O   UNL     1       2.635 -17.291   3.239  1.00  0.00    -0.237 OA
ATOM     71  O   UNL     1       0.939 -15.560   3.655  1.00  0.00    -0.744 OA
ENDBRANCH  65  68
ENDBRANCH  47  61
BRANCH  48  72
ATOM     72  C   UNL     1       2.185  -6.665  12.821  1.00  0.00     0.023 A 
ATOM     73  C   UNL     1       2.856  -6.700  14.060  1.00  0.00     0.012 A 
ATOM     74  C   UNL     1       1.212  -5.672  12.599  1.00  0.00     0.148 A 
ATOM     75  C   UNL     1       2.531  -5.797  15.074  1.00  0.00     0.002 A 
ATOM     76  C   UNL     1       0.932  -4.740  13.593  1.00  0.00     0.091 A 
ATOM     77  F   UNL     1       0.572  -5.659  11.421  1.00  0.00    -0.205 F 
ATOM     78  C   UNL     1       1.576  -4.813  14.838  1.00  0.00     0.022 A 
BRANCH  76  79
ATOM     79  S   UNL     1      -0.187  -3.362  13.316  1.00  0.00     0.127 S 
ATOM     80  O   UNL     1      -1.405  -3.827  13.974  1.00  0.00    -0.237 OA
ATOM     81  O   UNL     1       0.500  -2.264  13.997  1.00  0.00    -0.237 OA
ATOM     82  O   UNL     1      -0.256  -3.212  11.869  1.00  0.00    -0.744 OA
ENDBRANCH  76  79
ENDBRANCH  48  72
BRANCH  60  83
ATOM     83  C   UNL     1       1.586 -13.611  12.517  1.00  0.00     0.023 A 
ATOM     84  C   UNL     1       0.219 -13.719  12.839  1.00  0.00     0.012 A 
ATOM     85  C   UNL     1       2.506 -14.512  13.088  1.00  0.00     0.148 A 
ATOM     86  C   UNL     1      -0.220 -14.684  13.745  1.00  0.00     0.002 A 
ATOM     87  C   UNL     1       2.054 -15.501  13.954  1.00  0.00     0.091 A 
ATOM     88  F   UNL     1       3.806 -14.380  12.787  1.00  0.00    -0.205 F 
ATOM     89  C   UNL     1       0.694 -15.581  14.293  1.00  0.00     0.022 A 
BRANCH  87  90
ATOM     90  S   UNL     1       3.155 -16.752  14.624  1.00  0.00     0.127 S 
ATOM     91  O   UNL     1       3.409 -16.237  15.968  1.00  0.00    -0.237 OA
ATOM     92  O   UNL     1       2.327 -17.958  14.580  1.00  0.00    -0.237 OA
ATOM     93  O   UNL     1       4.306 -16.783  13.731  1.00  0.00    -0.744 OA
ENDBRANCH  87  90
ENDBRANCH  60  83
ENDBRANCH  34  35
ENDBRANCH  26  29
ENDBRANCH  24  25
ENDBRANCH   1  24
TORSDOF 15
