REMARK SMILES CC(C)C[C@H](Nc1ncnc2scc(-c3ccccc3)c12)C(=O)NCCCCNC(=O)c1ccc(-c2c3nc(c(-c4cccc(S(=O)(=O)[O-])c4F)c4ccc([nH]4)c(-c4cccc(S(=O)(=O)[O-])c4F)c4nc(c(-c5cccc(S(=O)(=O)[O-])c5F)c5ccc2[nH]5)C=C4)C=C3)cc1
REMARK SMILES IDX 26 1 25 2 24 3 22 4 23 5 5 7 4 8 2 9 1 10 3 11 6 12 7 14
REMARK SMILES IDX 8 15 21 16 9 17 11 18 14 19 10 20 12 21 13 22 15 23 16 24
REMARK SMILES IDX 20 25 17 26 19 27 18 28 27 29 28 30 29 31 30 32 31 34 32 35
REMARK SMILES IDX 33 36 94 37 34 38 93 39 35 40 36 41 37 42 87 43 38 44 92 45
REMARK SMILES IDX 86 46 88 47 39 48 91 49 85 50 84 51 40 53 72 54 52 55 71 56
REMARK SMILES IDX 53 57 56 58 70 59 89 60 54 61 55 62 69 64 90 65 57 66 41 67
REMARK SMILES IDX 42 68 50 69 43 70 45 71 51 72 44 73 46 74 47 75 48 76 49 77
REMARK SMILES IDX 73 78 74 79 82 80 75 81 77 82 83 83 76 84 78 85 79 86 80 87
REMARK SMILES IDX 81 88 58 89 59 90 67 91 60 92 62 93 68 94 61 95 63 96 64 97
REMARK SMILES IDX 65 98 66 99
REMARK H PARENT 24 6 6 13 29 33 88 52 56 63
REMARK Flexibility Score: inf
ROOT
ATOM      1  C   UNL     1      -3.609   2.292  -3.785  1.00  0.00     0.023 C 
ENDROOT
BRANCH   1   2
ATOM      2  C   UNL     1      -3.126   3.030  -2.543  1.00  0.00     0.116 C 
BRANCH   2   3
ATOM      3  N   UNL     1      -3.622   2.487  -1.295  1.00  0.00    -0.354 N 
ATOM      4  C   UNL     1      -2.959   2.025  -0.193  1.00  0.00     0.242 C 
ATOM      5  O   UNL     1      -3.659   1.697   0.774  1.00  0.00    -0.273 OA
ATOM      6  H   UNL     1      -4.603   2.443  -1.229  1.00  0.00     0.163 HD
BRANCH   4   7
ATOM      7  C   UNL     1      -1.420   1.866  -0.118  1.00  0.00     0.170 C 
BRANCH   7   8
ATOM      8  C   UNL     1      -0.593   3.133   0.204  1.00  0.00     0.038 C 
BRANCH   8   9
ATOM      9  C   UNL     1      -0.981   4.496  -0.416  1.00  0.00    -0.015 C 
ATOM     10  C   UNL     1      -2.165   5.162   0.296  1.00  0.00     0.007 C 
ATOM     11  C   UNL     1       0.207   5.465  -0.378  1.00  0.00     0.007 C 
ENDBRANCH   8   9
ENDBRANCH   7   8
BRANCH   7  12
ATOM     12  N   UNL     1      -0.917   0.901  -1.126  1.00  0.00    -0.358 N 
ATOM     13  H   UNL     1      -1.011  -0.054  -0.907  1.00  0.00     0.162 HD
BRANCH  12  14
ATOM     14  C   UNL     1      -0.333   1.201  -2.330  1.00  0.00     0.139 A 
ATOM     15  N   UNL     1       0.542   2.231  -2.344  1.00  0.00    -0.219 NA
ATOM     16  C   UNL     1      -0.611   0.521  -3.554  1.00  0.00     0.062 A 
ATOM     17  C   UNL     1       1.150   2.580  -3.478  1.00  0.00     0.225 A 
ATOM     18  C   UNL     1       0.068   1.044  -4.658  1.00  0.00     0.129 A 
ATOM     19  C   UNL     1      -1.505  -0.574  -3.990  1.00  0.00     0.006 A 
ATOM     20  N   UNL     1       0.963   2.043  -4.673  1.00  0.00    -0.225 NA
ATOM     21  S   UNL     1      -0.361   0.329  -6.136  1.00  0.00    -0.123 S 
ATOM     22  C   UNL     1      -1.492  -0.679  -5.376  1.00  0.00     0.076 A 
BRANCH  19  23
ATOM     23  C   UNL     1      -2.498  -1.411  -3.273  1.00  0.00    -0.017 A 
ATOM     24  C   UNL     1      -2.776  -2.719  -3.704  1.00  0.00     0.009 A 
ATOM     25  C   UNL     1      -3.305  -0.902  -2.252  1.00  0.00     0.009 A 
ATOM     26  C   UNL     1      -3.835  -3.458  -3.158  1.00  0.00     0.001 A 
ATOM     27  C   UNL     1      -4.347  -1.639  -1.682  1.00  0.00     0.001 A 
ATOM     28  C   UNL     1      -4.620  -2.916  -2.146  1.00  0.00     0.000 A 
ENDBRANCH  19  23
ENDBRANCH  12  14
ENDBRANCH   7  12
ENDBRANCH   4   7
ENDBRANCH   2   3
ENDBRANCH   1   2
BRANCH   1  29
ATOM     29  C   UNL     1      -5.106   2.328  -4.026  1.00  0.00     0.023 C 
BRANCH  29  30
ATOM     30  C   UNL     1      -5.650   3.732  -4.191  1.00  0.00     0.116 C 
BRANCH  30  31
ATOM     31  N   UNL     1      -4.964   4.471  -5.248  1.00  0.00    -0.352 N 
ATOM     32  C   UNL     1      -5.488   5.044  -6.380  1.00  0.00     0.251 C 
ATOM     33  H   UNL     1      -3.992   4.573  -5.132  1.00  0.00     0.163 HD
ATOM     34  O   UNL     1      -4.752   5.461  -7.268  1.00  0.00    -0.269 OA
BRANCH  32  35
ATOM     35  C   UNL     1      -6.953   5.132  -6.510  1.00  0.00     0.039 A 
ATOM     36  C   UNL     1      -7.565   4.748  -7.704  1.00  0.00     0.014 A 
ATOM     37  C   UNL     1      -7.716   5.532  -5.412  1.00  0.00     0.014 A 
ATOM     38  C   UNL     1      -8.957   4.702  -7.770  1.00  0.00     0.010 A 
ATOM     39  C   UNL     1      -9.089   5.365  -5.441  1.00  0.00     0.010 A 
ATOM     40  C   UNL     1      -9.727   4.975  -6.627  1.00  0.00    -0.014 A 
BRANCH  40  41
ATOM     41  C   UNL     1     -11.207   4.892  -6.637  1.00  0.00     0.031 A 
ATOM     42  C   UNL     1     -12.015   6.117  -6.298  1.00  0.00     0.074 A 
ATOM     43  C   UNL     1     -11.810   3.704  -6.835  1.00  0.00     0.049 A 
ATOM     44  N   UNL     1     -13.306   6.235  -6.144  1.00  0.00    -0.248 NA
ATOM     45  C   UNL     1     -11.268   7.364  -6.049  1.00  0.00     0.031 C 
ATOM     46  C   UNL     1     -11.125   2.431  -7.072  1.00  0.00     0.029 A 
ATOM     47  N   UNL     1     -13.140   3.369  -6.838  1.00  0.00    -0.354 N 
ATOM     48  C   UNL     1     -13.518   7.544  -5.729  1.00  0.00     0.074 A 
ATOM     49  C   UNL     1     -12.221   8.169  -5.607  1.00  0.00     0.031 C 
ATOM     50  C   UNL     1     -12.040   1.458  -7.213  1.00  0.00     0.029 A 
ATOM     51  C   UNL     1     -13.372   2.030  -7.047  1.00  0.00     0.049 A 
ATOM     52  H   UNL     1     -13.861   4.026  -6.703  1.00  0.00     0.167 HD
ATOM     53  C   UNL     1     -14.689   8.184  -5.508  1.00  0.00     0.034 A 
ATOM     54  C   UNL     1     -14.530   1.344  -7.099  1.00  0.00     0.034 A 
ATOM     55  C   UNL     1     -15.974   7.577  -5.712  1.00  0.00     0.049 A 
ATOM     56  C   UNL     1     -15.823   2.098  -6.938  1.00  0.00     0.074 A 
ATOM     57  C   UNL     1     -17.224   8.162  -5.634  1.00  0.00     0.029 A 
ATOM     58  N   UNL     1     -16.172   6.245  -6.042  1.00  0.00    -0.354 N 
ATOM     59  N   UNL     1     -16.009   3.377  -6.712  1.00  0.00    -0.248 NA
ATOM     60  C   UNL     1     -17.065   1.326  -7.076  1.00  0.00     0.031 C 
ATOM     61  C   UNL     1     -18.181   7.178  -5.905  1.00  0.00     0.029 A 
ATOM     62  C   UNL     1     -17.524   5.986  -6.169  1.00  0.00     0.049 A 
ATOM     63  H   UNL     1     -15.455   5.582  -6.167  1.00  0.00     0.167 HD
ATOM     64  C   UNL     1     -17.385   3.569  -6.717  1.00  0.00     0.074 A 
ATOM     65  C   UNL     1     -17.984   2.278  -6.990  1.00  0.00     0.031 C 
ATOM     66  C   UNL     1     -18.093   4.705  -6.501  1.00  0.00     0.034 A 
BRANCH  53  67
ATOM     67  C   UNL     1     -14.630   9.630  -5.091  1.00  0.00     0.023 A 
ATOM     68  C   UNL     1     -14.211  10.606  -6.020  1.00  0.00     0.012 A 
ATOM     69  C   UNL     1     -15.024  10.031  -3.800  1.00  0.00     0.148 A 
ATOM     70  C   UNL     1     -14.146  11.950  -5.659  1.00  0.00     0.002 A 
ATOM     71  C   UNL     1     -15.002  11.380  -3.463  1.00  0.00     0.091 A 
ATOM     72  F   UNL     1     -15.395   9.088  -2.922  1.00  0.00    -0.205 F 
ATOM     73  C   UNL     1     -14.551  12.338  -4.386  1.00  0.00     0.022 A 
BRANCH  71  74
ATOM     74  S   UNL     1     -15.579  11.990  -1.875  1.00  0.00     0.127 S 
ATOM     75  O   UNL     1     -14.324  12.380  -1.235  1.00  0.00    -0.237 OA
ATOM     76  O   UNL     1     -16.436  13.109  -2.270  1.00  0.00    -0.237 OA
ATOM     77  O   UNL     1     -16.283  10.879  -1.250  1.00  0.00    -0.744 OA
ENDBRANCH  71  74
ENDBRANCH  53  67
BRANCH  54  78
ATOM     78  C   UNL     1     -14.521  -0.114  -7.408  1.00  0.00     0.023 A 
ATOM     79  C   UNL     1     -14.988  -0.552  -8.663  1.00  0.00     0.012 A 
ATOM     80  C   UNL     1     -14.026  -1.062  -6.492  1.00  0.00     0.148 A 
ATOM     81  C   UNL     1     -14.993  -1.909  -8.989  1.00  0.00     0.002 A 
ATOM     82  C   UNL     1     -13.985  -2.407  -6.843  1.00  0.00     0.091 A 
ATOM     83  F   UNL     1     -13.595  -0.628  -5.299  1.00  0.00    -0.205 F 
ATOM     84  C   UNL     1     -14.483  -2.835  -8.084  1.00  0.00     0.022 A 
BRANCH  82  85
ATOM     85  S   UNL     1     -13.225  -3.653  -5.794  1.00  0.00     0.127 S 
ATOM     86  O   UNL     1     -14.391  -4.379  -5.299  1.00  0.00    -0.237 OA
ATOM     87  O   UNL     1     -12.398  -4.391  -6.748  1.00  0.00    -0.237 OA
ATOM     88  O   UNL     1     -12.467  -2.912  -4.794  1.00  0.00    -0.744 OA
ENDBRANCH  82  85
ENDBRANCH  54  78
BRANCH  66  89
ATOM     89  C   UNL     1     -19.592   4.619  -6.583  1.00  0.00     0.023 A 
ATOM     90  C   UNL     1     -20.314   3.997  -5.547  1.00  0.00     0.012 A 
ATOM     91  C   UNL     1     -20.288   5.233  -7.643  1.00  0.00     0.148 A 
ATOM     92  C   UNL     1     -21.707   3.961  -5.579  1.00  0.00     0.002 A 
ATOM     93  C   UNL     1     -21.677   5.236  -7.643  1.00  0.00     0.091 A 
ATOM     94  F   UNL     1     -19.579   5.804  -8.629  1.00  0.00    -0.205 F 
ATOM     95  C   UNL     1     -22.388   4.591  -6.618  1.00  0.00     0.022 A 
BRANCH  93  96
ATOM     96  S   UNL     1     -22.634   6.109  -8.887  1.00  0.00     0.127 S 
ATOM     97  O   UNL     1     -23.144   5.006  -9.699  1.00  0.00    -0.237 OA
ATOM     98  O   UNL     1     -23.645   6.792  -8.080  1.00  0.00    -0.237 OA
ATOM     99  O   UNL     1     -21.698   7.001  -9.559  1.00  0.00    -0.744 OA
ENDBRANCH  93  96
ENDBRANCH  66  89
ENDBRANCH  40  41
ENDBRANCH  32  35
ENDBRANCH  30  31
ENDBRANCH  29  30
ENDBRANCH   1  29
TORSDOF 19
