REMARK SMILES CCCC1C[NH+]([C@H](CC(=O)NCCCCNC(=O)c2ccc(-c3c4nc(c(-c5cccc(S(=O)(=O)[O-])c5F)c5ccc([nH]5)c(-c5cccc(S(=O)(=O)[O-])c5F)c5nc(c(-c6cccc(S(=O)(=O)[O-])c6F)c6ccc3[nH]6)C=C5)C=C4)cc2)c2ccccc2)C1
REMARK SMILES IDX 13 1 12 2 11 3 9 4 10 5 8 7 7 8 6 9 4 10 5 11 88 12 3 14
REMARK SMILES IDX 2 15 1 16 82 17 83 18 87 19 84 20 86 21 85 22 14 23 15 24
REMARK SMILES IDX 16 25 17 26 18 28 19 29 20 30 81 31 21 32 80 33 22 34 23 35
REMARK SMILES IDX 24 36 74 37 25 38 79 39 73 40 75 41 26 42 78 43 72 44 71 45
REMARK SMILES IDX 27 47 59 48 39 49 58 50 40 51 43 52 57 53 76 54 41 55 42 56
REMARK SMILES IDX 56 58 77 59 44 60 28 61 29 62 37 63 30 64 32 65 38 66 31 67
REMARK SMILES IDX 33 68 34 69 35 70 36 71 60 72 61 73 69 74 62 75 64 76 70 77
REMARK SMILES IDX 63 78 65 79 66 80 67 81 68 82 45 83 46 84 54 85 47 86 49 87
REMARK SMILES IDX 55 88 48 89 50 90 51 91 52 92 53 93
REMARK H PARENT 11 6 6 13 16 27 75 46 43 57
REMARK Flexibility Score: inf
ROOT
ATOM      1  C   UNL     1      -3.717   2.384   2.659  1.00  0.00     0.023 C 
ENDROOT
BRANCH   1   2
ATOM      2  C   UNL     1      -2.606   2.411   3.697  1.00  0.00     0.116 C 
BRANCH   2   3
ATOM      3  N   UNL     1      -1.377   1.864   3.164  1.00  0.00    -0.356 N 
ATOM      4  C   UNL     1      -0.302   2.500   2.622  1.00  0.00     0.226 C 
ATOM      5  O   UNL     1       0.657   1.803   2.279  1.00  0.00    -0.275 OA
ATOM      6  H   UNL     1      -1.307   0.883   3.199  1.00  0.00     0.163 HD
BRANCH   4   7
ATOM      7  C   UNL     1      -0.240   4.015   2.514  1.00  0.00     0.170 C 
BRANCH   7   8
ATOM      8  C   UNL     1      -0.906   4.716   1.288  1.00  0.00     0.224 C 
BRANCH   8   9
ATOM      9  N   UNL     1      -0.469   4.084   0.026  1.00  0.00    -0.327 N 
ATOM     10  C   UNL     1      -1.188   3.261  -1.786  1.00  0.00     0.099 C 
ATOM     11  C   UNL     1      -0.897   4.691  -1.234  1.00  0.00     0.272 C 
ATOM     12  C   UNL     1      -1.068   2.798  -0.316  1.00  0.00     0.272 C 
ATOM     13  H   UNL     1       0.522   4.122   0.265  1.00  0.00     0.348 HD
BRANCH  10  14
ATOM     14  C   UNL     1      -2.555   2.980  -2.412  1.00  0.00     0.015 C 
BRANCH  14  15
ATOM     15  C   UNL     1      -2.458   2.646  -3.898  1.00  0.00    -0.003 C 
ATOM     16  C   UNL     1      -1.962   1.227  -4.144  1.00  0.00     0.004 C 
ENDBRANCH  14  15
ENDBRANCH  10  14
ENDBRANCH   8   9
BRANCH   8  17
ATOM     17  C   UNL     1      -2.350   5.196   1.553  1.00  0.00     0.010 A 
ATOM     18  C   UNL     1      -3.459   4.947   0.732  1.00  0.00     0.010 A 
ATOM     19  C   UNL     1      -2.599   5.973   2.708  1.00  0.00     0.010 A 
ATOM     20  C   UNL     1      -4.748   5.389   1.064  1.00  0.00     0.001 A 
ATOM     21  C   UNL     1      -3.887   6.398   3.058  1.00  0.00     0.001 A 
ATOM     22  C   UNL     1      -4.965   6.100   2.237  1.00  0.00     0.000 A 
ENDBRANCH   8  17
ENDBRANCH   7   8
ENDBRANCH   4   7
ENDBRANCH   2   3
ENDBRANCH   1   2
BRANCH   1  23
ATOM     23  C   UNL     1      -4.476   1.077   2.521  1.00  0.00     0.023 C 
BRANCH  23  24
ATOM     24  C   UNL     1      -5.370   0.766   3.707  1.00  0.00     0.116 C 
BRANCH  24  25
ATOM     25  N   UNL     1      -6.351   1.811   3.992  1.00  0.00    -0.352 N 
ATOM     26  C   UNL     1      -7.667   1.671   4.371  1.00  0.00     0.251 C 
ATOM     27  H   UNL     1      -6.028   2.737   3.901  1.00  0.00     0.163 HD
ATOM     28  O   UNL     1      -8.393   2.645   4.491  1.00  0.00    -0.269 OA
BRANCH  26  29
ATOM     29  C   UNL     1      -8.187   0.305   4.583  1.00  0.00     0.039 A 
ATOM     30  C   UNL     1      -9.361  -0.085   3.937  1.00  0.00     0.014 A 
ATOM     31  C   UNL     1      -7.442  -0.612   5.327  1.00  0.00     0.014 A 
ATOM     32  C   UNL     1      -9.742  -1.427   3.969  1.00  0.00     0.010 A 
ATOM     33  C   UNL     1      -7.758  -1.958   5.257  1.00  0.00     0.010 A 
ATOM     34  C   UNL     1      -8.917  -2.380   4.589  1.00  0.00    -0.014 A 
BRANCH  34  35
ATOM     35  C   UNL     1      -9.240  -3.828   4.576  1.00  0.00     0.031 A 
ATOM     36  C   UNL     1      -9.414  -4.556   5.882  1.00  0.00     0.074 A 
ATOM     37  C   UNL     1      -9.258  -4.504   3.409  1.00  0.00     0.049 A 
ATOM     38  N   UNL     1      -9.572  -5.835   6.099  1.00  0.00    -0.248 NA
ATOM     39  C   UNL     1      -9.351  -3.745   7.111  1.00  0.00     0.031 C 
ATOM     40  C   UNL     1      -9.002  -3.927   2.087  1.00  0.00     0.029 A 
ATOM     41  N   UNL     1      -9.473  -5.834   3.152  1.00  0.00    -0.354 N 
ATOM     42  C   UNL     1      -9.569  -5.985   7.480  1.00  0.00     0.074 A 
ATOM     43  C   UNL     1      -9.345  -4.677   8.052  1.00  0.00     0.031 C 
ATOM     44  C   UNL     1      -9.091  -4.894   1.159  1.00  0.00     0.029 A 
ATOM     45  C   UNL     1      -9.383  -6.162   1.819  1.00  0.00     0.049 A 
ATOM     46  H   UNL     1      -9.673  -6.493   3.856  1.00  0.00     0.167 HD
ATOM     47  C   UNL     1      -9.778  -7.104   8.212  1.00  0.00     0.034 A 
ATOM     48  C   UNL     1      -9.524  -7.352   1.202  1.00  0.00     0.034 A 
ATOM     49  C   UNL     1     -10.092  -8.382   7.638  1.00  0.00     0.049 A 
ATOM     50  C   UNL     1      -9.856  -8.562   2.034  1.00  0.00     0.074 A 
ATOM     51  C   UNL     1     -10.430  -9.556   8.285  1.00  0.00     0.029 A 
ATOM     52  N   UNL     1     -10.123  -8.646   6.278  1.00  0.00    -0.354 N 
ATOM     53  N   UNL     1     -10.007  -8.654   3.333  1.00  0.00    -0.248 NA
ATOM     54  C   UNL     1     -10.077  -9.825   1.313  1.00  0.00     0.031 C 
ATOM     55  C   UNL     1     -10.668 -10.533   7.312  1.00  0.00     0.029 A 
ATOM     56  C   UNL     1     -10.484  -9.963   6.062  1.00  0.00     0.049 A 
ATOM     57  H   UNL     1      -9.919  -7.993   5.570  1.00  0.00     0.167 HD
ATOM     58  C   UNL     1     -10.376  -9.971   3.583  1.00  0.00     0.074 A 
ATOM     59  C   UNL     1     -10.446 -10.634   2.297  1.00  0.00     0.031 C 
ATOM     60  C   UNL     1     -10.616 -10.582   4.769  1.00  0.00     0.034 A 
BRANCH  47  61
ATOM     61  C   UNL     1      -9.761  -6.969   9.711  1.00  0.00     0.023 A 
ATOM     62  C   UNL     1     -10.819  -6.296  10.357  1.00  0.00     0.012 A 
ATOM     63  C   UNL     1      -8.728  -7.533  10.484  1.00  0.00     0.148 A 
ATOM     64  C   UNL     1     -10.830  -6.150  11.742  1.00  0.00     0.002 A 
ATOM     65  C   UNL     1      -8.769  -7.423  11.870  1.00  0.00     0.091 A 
ATOM     66  F   UNL     1      -7.718  -8.148   9.852  1.00  0.00    -0.205 F 
ATOM     67  C   UNL     1      -9.812  -6.723  12.499  1.00  0.00     0.022 A 
BRANCH  65  68
ATOM     68  S   UNL     1      -7.546  -8.190  12.939  1.00  0.00     0.127 S 
ATOM     69  O   UNL     1      -6.792  -7.028  13.405  1.00  0.00    -0.237 OA
ATOM     70  O   UNL     1      -8.382  -8.824  13.959  1.00  0.00    -0.237 OA
ATOM     71  O   UNL     1      -6.807  -9.121  12.098  1.00  0.00    -0.744 OA
ENDBRANCH  65  68
ENDBRANCH  47  61
BRANCH  48  72
ATOM     72  C   UNL     1      -9.454  -7.438  -0.284  1.00  0.00     0.023 A 
ATOM     73  C   UNL     1     -10.638  -7.674  -1.011  1.00  0.00     0.012 A 
ATOM     74  C   UNL     1      -8.245  -7.264  -0.983  1.00  0.00     0.148 A 
ATOM     75  C   UNL     1     -10.614  -7.769  -2.403  1.00  0.00     0.002 A 
ATOM     76  C   UNL     1      -8.236  -7.308  -2.374  1.00  0.00     0.091 A 
ATOM     77  F   UNL     1      -7.125  -7.053  -0.276  1.00  0.00    -0.205 F 
ATOM     78  C   UNL     1      -9.416  -7.576  -3.085  1.00  0.00     0.022 A 
BRANCH  76  79
ATOM     79  S   UNL     1      -6.762  -6.944  -3.335  1.00  0.00     0.127 S 
ATOM     80  O   UNL     1      -6.344  -8.276  -3.759  1.00  0.00    -0.237 OA
ATOM     81  O   UNL     1      -7.294  -6.096  -4.403  1.00  0.00    -0.237 OA
ATOM     82  O   UNL     1      -5.865  -6.253  -2.418  1.00  0.00    -0.744 OA
ENDBRANCH  76  79
ENDBRANCH  48  72
BRANCH  60  83
ATOM     83  C   UNL     1     -11.014 -12.032   4.738  1.00  0.00     0.023 A 
ATOM     84  C   UNL     1     -10.041 -13.015   4.474  1.00  0.00     0.012 A 
ATOM     85  C   UNL     1     -12.328 -12.423   5.061  1.00  0.00     0.148 A 
ATOM     86  C   UNL     1     -10.376 -14.368   4.508  1.00  0.00     0.002 A 
ATOM     87  C   UNL     1     -12.643 -13.774   5.138  1.00  0.00     0.091 A 
ATOM     88  F   UNL     1     -13.243 -11.470   5.289  1.00  0.00    -0.205 F 
ATOM     89  C   UNL     1     -11.672 -14.747   4.852  1.00  0.00     0.022 A 
BRANCH  87  90
ATOM     90  S   UNL     1     -14.260 -14.350   5.667  1.00  0.00     0.127 S 
ATOM     91  O   UNL     1     -14.860 -14.761   4.399  1.00  0.00    -0.237 OA
ATOM     92  O   UNL     1     -13.921 -15.453   6.567  1.00  0.00    -0.237 OA
ATOM     93  O   UNL     1     -14.892 -13.213   6.323  1.00  0.00    -0.744 OA
ENDBRANCH  87  90
ENDBRANCH  60  83
ENDBRANCH  34  35
ENDBRANCH  26  29
ENDBRANCH  24  25
ENDBRANCH  23  24
ENDBRANCH   1  23
TORSDOF 19
