REMARK SMILES CC(C)(C)c1ccc(OCc2nnc(SCC(=O)NCCCCNC(=O)c3ccc(-c4c5nc(c(-c6cccc(S(=O)(=O)[O-])c6F)c6ccc([nH]6)c(-c6cccc(S(=O)(=O)[O-])c6F)c6nc(c(-c7cccc(S(=O)(=O)[O-])c7F)c7ccc4[nH]7)C=C6)C=C5)cc3)o2)cc1
REMARK SMILES IDX 20 1 19 2 17 3 18 4 16 6 15 7 14 8 11 9 12 10 90 11 13 12
REMARK SMILES IDX 10 13 9 14 8 15 5 16 6 17 92 18 7 19 91 20 2 21 1 22 3 23
REMARK SMILES IDX 4 24 21 25 22 26 23 27 24 28 25 29 26 31 27 32 28 33 89 34
REMARK SMILES IDX 29 35 88 36 30 37 31 38 32 39 82 40 33 41 87 42 81 43 83 44
REMARK SMILES IDX 34 45 86 46 80 47 79 48 35 50 67 51 47 52 66 53 48 54 51 55
REMARK SMILES IDX 65 56 84 57 49 58 50 59 64 61 85 62 52 63 36 64 37 65 45 66
REMARK SMILES IDX 38 67 40 68 46 69 39 70 41 71 42 72 43 73 44 74 68 75 69 76
REMARK SMILES IDX 77 77 70 78 72 79 78 80 71 81 73 82 74 83 75 84 76 85 53 86
REMARK SMILES IDX 54 87 62 88 55 89 57 90 63 91 56 92 58 93 59 94 60 95 61 96
REMARK H PARENT 19 5 24 30 83 49 51 60
REMARK Flexibility Score: inf
ROOT
ATOM      1  C   UNL     1      10.410  -5.784   0.337  1.00  0.00     0.116 C 
ENDROOT
BRANCH   1   2
ATOM      2  N   UNL     1       9.551  -6.851   0.819  1.00  0.00    -0.355 N 
ATOM      3  C   UNL     1       8.428  -7.388   0.265  1.00  0.00     0.230 C 
ATOM      4  O   UNL     1       7.779  -8.196   0.934  1.00  0.00    -0.274 OA
ATOM      5  H   UNL     1       9.822  -7.248   1.678  1.00  0.00     0.163 HD
BRANCH   3   6
ATOM      6  C   UNL     1       8.026  -7.066  -1.160  1.00  0.00     0.179 C 
BRANCH   6   7
ATOM      7  S   UNL     1       7.371  -5.403  -1.406  1.00  0.00    -0.055 SA
BRANCH   7   8
ATOM      8  C   UNL     1       6.360  -5.207  -0.015  1.00  0.00     0.277 A 
ATOM      9  C   UNL     1       4.937  -5.501   1.534  1.00  0.00     0.254 A 
ATOM     10  N   UNL     1       5.510  -4.337   1.765  1.00  0.00    -0.108 NA
ATOM     11  O   UNL     1       5.434  -6.121   0.415  1.00  0.00    -0.412 OA
ATOM     12  N   UNL     1       6.409  -4.136   0.748  1.00  0.00    -0.101 NA
BRANCH   9  13
ATOM     13  C   UNL     1       3.883  -6.191   2.323  1.00  0.00     0.328 C 
BRANCH  13  14
ATOM     14  O   UNL     1       2.579  -5.935   1.773  1.00  0.00    -0.484 OA
BRANCH  14  15
ATOM     15  C   UNL     1       2.067  -4.669   1.855  1.00  0.00     0.120 A 
ATOM     16  C   UNL     1       0.954  -2.058   1.643  1.00  0.00    -0.042 A 
ATOM     17  C   UNL     1       0.377  -3.156   0.982  1.00  0.00     0.008 A 
ATOM     18  C   UNL     1       2.070  -2.321   2.453  1.00  0.00     0.008 A 
ATOM     19  C   UNL     1       0.924  -4.442   1.091  1.00  0.00     0.047 A 
ATOM     20  C   UNL     1       2.603  -3.610   2.578  1.00  0.00     0.047 A 
BRANCH  16  21
ATOM     21  C   UNL     1       0.436  -0.626   1.423  1.00  0.00    -0.013 C 
ATOM     22  C   UNL     1       1.009  -0.108   0.087  1.00  0.00     0.016 C 
ATOM     23  C   UNL     1       0.867   0.353   2.539  1.00  0.00     0.016 C 
ATOM     24  C   UNL     1      -1.106  -0.574   1.357  1.00  0.00     0.016 C 
ENDBRANCH  16  21
ENDBRANCH  14  15
ENDBRANCH  13  14
ENDBRANCH   9  13
ENDBRANCH   7   8
ENDBRANCH   6   7
ENDBRANCH   3   6
ENDBRANCH   1   2
BRANCH   1  25
ATOM     25  C   UNL     1      10.281  -4.536   1.212  1.00  0.00     0.023 C 
BRANCH  25  26
ATOM     26  C   UNL     1      10.784  -4.705   2.652  1.00  0.00     0.023 C 
BRANCH  26  27
ATOM     27  C   UNL     1      12.248  -5.113   2.796  1.00  0.00     0.116 C 
BRANCH  27  28
ATOM     28  N   UNL     1      13.163  -4.155   2.196  1.00  0.00    -0.352 N 
ATOM     29  C   UNL     1      14.341  -3.648   2.683  1.00  0.00     0.251 C 
ATOM     30  H   UNL     1      12.898  -3.821   1.309  1.00  0.00     0.163 HD
ATOM     31  O   UNL     1      14.901  -2.736   2.072  1.00  0.00    -0.269 OA
BRANCH  29  32
ATOM     32  C   UNL     1      14.931  -4.164   3.940  1.00  0.00     0.039 A 
ATOM     33  C   UNL     1      15.486  -3.251   4.841  1.00  0.00     0.014 A 
ATOM     34  C   UNL     1      14.964  -5.531   4.229  1.00  0.00     0.014 A 
ATOM     35  C   UNL     1      16.026  -3.703   6.048  1.00  0.00     0.010 A 
ATOM     36  C   UNL     1      15.434  -5.973   5.466  1.00  0.00     0.010 A 
ATOM     37  C   UNL     1      15.979  -5.066   6.387  1.00  0.00    -0.014 A 
BRANCH  37  38
ATOM     38  C   UNL     1      16.483  -5.538   7.705  1.00  0.00     0.031 A 
ATOM     39  C   UNL     1      17.646  -6.493   7.790  1.00  0.00     0.074 A 
ATOM     40  C   UNL     1      15.862  -5.139   8.834  1.00  0.00     0.049 A 
ATOM     41  N   UNL     1      18.229  -6.988   8.853  1.00  0.00    -0.248 NA
ATOM     42  C   UNL     1      18.216  -6.973   6.521  1.00  0.00     0.031 C 
ATOM     43  C   UNL     1      14.675  -4.282   8.887  1.00  0.00     0.029 A 
ATOM     44  N   UNL     1      16.134  -5.407  10.152  1.00  0.00    -0.354 N 
ATOM     45  C   UNL     1      19.215  -7.848   8.384  1.00  0.00     0.074 A 
ATOM     46  C   UNL     1      19.123  -7.844   6.940  1.00  0.00     0.031 C 
ATOM     47  C   UNL     1      14.335  -4.079  10.170  1.00  0.00     0.029 A 
ATOM     48  C   UNL     1      15.259  -4.810  11.030  1.00  0.00     0.049 A 
ATOM     49  H   UNL     1      16.885  -5.974  10.443  1.00  0.00     0.167 HD
ATOM     50  C   UNL     1      20.137  -8.551   9.085  1.00  0.00     0.034 A 
ATOM     51  C   UNL     1      15.208  -4.843  12.377  1.00  0.00     0.034 A 
ATOM     52  C   UNL     1      20.248  -8.532  10.519  1.00  0.00     0.049 A 
ATOM     53  C   UNL     1      16.263  -5.608  13.129  1.00  0.00     0.074 A 
ATOM     54  C   UNL     1      21.191  -9.155  11.318  1.00  0.00     0.029 A 
ATOM     55  N   UNL     1      19.386  -7.860  11.372  1.00  0.00    -0.354 N 
ATOM     56  N   UNL     1      17.283  -6.288  12.663  1.00  0.00    -0.248 NA
ATOM     57  C   UNL     1      16.184  -5.576  14.597  1.00  0.00     0.031 C 
ATOM     58  C   UNL     1      20.884  -8.881  12.655  1.00  0.00     0.029 A 
ATOM     59  C   UNL     1      19.770  -8.058  12.688  1.00  0.00     0.049 A 
ATOM     60  H   UNL     1      18.614  -7.321  11.084  1.00  0.00     0.167 HD
ATOM     61  C   UNL     1      17.988  -6.728  13.778  1.00  0.00     0.074 A 
ATOM     62  C   UNL     1      17.293  -6.215  14.941  1.00  0.00     0.031 C 
ATOM     63  C   UNL     1      19.102  -7.500  13.835  1.00  0.00     0.034 A 
BRANCH  50  64
ATOM     64  C   UNL     1      21.145  -9.360   8.306  1.00  0.00     0.023 A 
ATOM     65  C   UNL     1      22.145  -8.694   7.567  1.00  0.00     0.012 A 
ATOM     66  C   UNL     1      21.148 -10.768   8.357  1.00  0.00     0.148 A 
ATOM     67  C   UNL     1      23.110  -9.414   6.864  1.00  0.00     0.002 A 
ATOM     68  C   UNL     1      22.142 -11.478   7.691  1.00  0.00     0.091 A 
ATOM     69  F   UNL     1      20.181 -11.385   9.050  1.00  0.00    -0.205 F 
ATOM     70  C   UNL     1      23.115 -10.804   6.935  1.00  0.00     0.022 A 
BRANCH  68  71
ATOM     71  S   UNL     1      22.287 -13.266   7.783  1.00  0.00     0.127 S 
ATOM     72  O   UNL     1      21.948 -13.660   6.415  1.00  0.00    -0.237 OA
ATOM     73  O   UNL     1      23.696 -13.442   8.136  1.00  0.00    -0.237 OA
ATOM     74  O   UNL     1      21.343 -13.696   8.805  1.00  0.00    -0.744 OA
ENDBRANCH  68  71
ENDBRANCH  50  64
BRANCH  51  75
ATOM     75  C   UNL     1      14.162  -4.073  13.109  1.00  0.00     0.023 A 
ATOM     76  C   UNL     1      14.537  -2.957  13.883  1.00  0.00     0.012 A 
ATOM     77  C   UNL     1      12.803  -4.435  13.043  1.00  0.00     0.148 A 
ATOM     78  C   UNL     1      13.586  -2.244  14.613  1.00  0.00     0.002 A 
ATOM     79  C   UNL     1      11.853  -3.685  13.726  1.00  0.00     0.091 A 
ATOM     80  F   UNL     1      12.466  -5.506  12.311  1.00  0.00    -0.205 F 
ATOM     81  C   UNL     1      12.244  -2.602  14.528  1.00  0.00     0.022 A 
BRANCH  79  82
ATOM     82  S   UNL     1      10.091  -3.996  13.570  1.00  0.00     0.127 S 
ATOM     83  O   UNL     1       9.770  -4.562  14.877  1.00  0.00    -0.237 OA
ATOM     84  O   UNL     1       9.566  -2.650  13.335  1.00  0.00    -0.237 OA
ATOM     85  O   UNL     1       9.951  -4.899  12.436  1.00  0.00    -0.744 OA
ENDBRANCH  79  82
ENDBRANCH  51  75
BRANCH  63  86
ATOM     86  C   UNL     1      19.669  -7.803  15.199  1.00  0.00     0.023 A 
ATOM     87  C   UNL     1      18.980  -8.668  16.073  1.00  0.00     0.012 A 
ATOM     88  C   UNL     1      20.910  -7.266  15.595  1.00  0.00     0.148 A 
ATOM     89  C   UNL     1      19.495  -8.956  17.337  1.00  0.00     0.002 A 
ATOM     90  C   UNL     1      21.443  -7.601  16.834  1.00  0.00     0.091 A 
ATOM     91  F   UNL     1      21.543  -6.431  14.758  1.00  0.00    -0.205 F 
ATOM     92  C   UNL     1      20.729  -8.432  17.712  1.00  0.00     0.022 A 
BRANCH  90  93
ATOM     93  S   UNL     1      23.070  -7.053  17.361  1.00  0.00     0.127 S 
ATOM     94  O   UNL     1      22.734  -6.043  18.363  1.00  0.00    -0.237 OA
ATOM     95  O   UNL     1      23.650  -8.282  17.905  1.00  0.00    -0.237 OA
ATOM     96  O   UNL     1      23.732  -6.553  16.164  1.00  0.00    -0.744 OA
ENDBRANCH  90  93
ENDBRANCH  63  86
ENDBRANCH  37  38
ENDBRANCH  29  32
ENDBRANCH  27  28
ENDBRANCH  26  27
ENDBRANCH  25  26
ENDBRANCH   1  25
TORSDOF 20
