REMARK SMILES C[C@@H]1Cc2ccccc2N1c1ccc(F)cc1C(=O)NCCCCNC(=O)c1ccc(-c2c3nc(c(-c4cccc(S(=O)(=O)[O-])c4F)c4ccc([nH]4)c(-c4cccc(S(=O)(=O)[O-])c4F)c4nc(c(-c5cccc(S(=O)(=O)[O-])c5F)c5ccc2[nH]5)C=C4)C=C3)cc1
REMARK SMILES IDX 23 1 22 2 21 3 20 4 18 5 19 6 17 8 11 9 12 10 13 11 16 12
REMARK SMILES IDX 14 13 15 14 10 15 1 16 2 17 3 18 4 19 9 20 5 21 8 22 6 23
REMARK SMILES IDX 7 24 24 25 25 26 26 27 27 29 28 30 29 31 90 32 30 33 89 34
REMARK SMILES IDX 31 35 32 36 33 37 83 38 34 39 88 40 82 41 84 42 35 43 87 44
REMARK SMILES IDX 81 45 80 46 36 48 68 49 48 50 67 51 49 52 52 53 66 54 85 55
REMARK SMILES IDX 50 56 51 57 65 59 86 60 53 61 37 62 38 63 46 64 39 65 41 66
REMARK SMILES IDX 47 67 40 68 42 69 43 70 44 71 45 72 69 73 70 74 78 75 71 76
REMARK SMILES IDX 73 77 79 78 72 79 74 80 75 81 76 82 77 83 54 84 55 85 63 86
REMARK SMILES IDX 56 87 58 88 64 89 57 90 59 91 60 92 61 93 62 94
REMARK H PARENT 20 7 25 28 84 47 52 58
REMARK Flexibility Score: inf
ROOT
ATOM      1  C   UNL     1      -1.974   4.024   3.109  1.00  0.00     0.023 C 
ENDROOT
BRANCH   1   2
ATOM      2  C   UNL     1      -1.930   4.421   1.635  1.00  0.00     0.023 C 
BRANCH   2   3
ATOM      3  C   UNL     1      -1.584   3.317   0.648  1.00  0.00     0.116 C 
BRANCH   3   4
ATOM      4  N   UNL     1      -2.474   2.189   0.592  1.00  0.00    -0.352 N 
ATOM      5  C   UNL     1      -2.566   1.213  -0.373  1.00  0.00     0.253 C 
ATOM      6  O   UNL     1      -3.358   0.290  -0.163  1.00  0.00    -0.269 OA
ATOM      7  H   UNL     1      -3.102   2.103   1.346  1.00  0.00     0.163 HD
BRANCH   5   8
ATOM      8  C   UNL     1      -1.846   1.218  -1.689  1.00  0.00     0.066 A 
ATOM      9  C   UNL     1      -0.471   1.454  -1.937  1.00  0.00     0.054 A 
ATOM     10  C   UNL     1       0.017   1.272  -3.253  1.00  0.00     0.030 A 
ATOM     11  C   UNL     1      -0.815   0.889  -4.302  1.00  0.00     0.041 A 
ATOM     12  C   UNL     1      -2.671   0.827  -2.768  1.00  0.00     0.055 A 
ATOM     13  C   UNL     1      -2.157   0.677  -4.049  1.00  0.00     0.124 A 
ATOM     14  F   UNL     1      -2.967   0.315  -5.052  1.00  0.00    -0.207 F 
BRANCH   9  15
ATOM     15  N   UNL     1       0.434   1.912  -0.982  1.00  0.00    -0.337 N 
ATOM     16  C   UNL     1       0.675  -0.065   0.568  1.00  0.00     0.032 C 
ATOM     17  C   UNL     1       1.373   1.013  -0.260  1.00  0.00     0.089 C 
ATOM     18  C   UNL     1       2.256   1.933   0.639  1.00  0.00     0.063 C 
ATOM     19  C   UNL     1       2.076   3.265  -0.012  1.00  0.00    -0.022 A 
ATOM     20  C   UNL     1       1.081   3.180  -0.984  1.00  0.00     0.045 A 
ATOM     21  C   UNL     1       2.662   4.478   0.311  1.00  0.00     0.006 A 
ATOM     22  C   UNL     1       0.713   4.300  -1.719  1.00  0.00     0.026 A 
ATOM     23  C   UNL     1       2.266   5.615  -0.399  1.00  0.00     0.000 A 
ATOM     24  C   UNL     1       1.311   5.525  -1.421  1.00  0.00     0.002 A 
ENDBRANCH   9  15
ENDBRANCH   5   8
ENDBRANCH   3   4
ENDBRANCH   2   3
ENDBRANCH   1   2
BRANCH   1  25
ATOM     25  C   UNL     1      -0.867   3.109   3.627  1.00  0.00     0.116 C 
BRANCH  25  26
ATOM     26  N   UNL     1       0.482   3.654   3.552  1.00  0.00    -0.352 N 
ATOM     27  C   UNL     1       1.447   3.807   4.536  1.00  0.00     0.251 C 
ATOM     28  H   UNL     1       0.753   3.964   2.657  1.00  0.00     0.163 HD
ATOM     29  O   UNL     1       2.551   4.226   4.250  1.00  0.00    -0.269 OA
BRANCH  27  30
ATOM     30  C   UNL     1       1.086   3.543   5.954  1.00  0.00     0.039 A 
ATOM     31  C   UNL     1       0.434   2.372   6.330  1.00  0.00     0.014 A 
ATOM     32  C   UNL     1       1.295   4.559   6.891  1.00  0.00     0.014 A 
ATOM     33  C   UNL     1      -0.256   2.337   7.539  1.00  0.00     0.010 A 
ATOM     34  C   UNL     1       0.685   4.477   8.147  1.00  0.00     0.010 A 
ATOM     35  C   UNL     1      -0.186   3.416   8.437  1.00  0.00    -0.014 A 
BRANCH  35  36
ATOM     36  C   UNL     1      -1.107   3.466   9.607  1.00  0.00     0.031 A 
ATOM     37  C   UNL     1      -2.144   4.561   9.722  1.00  0.00     0.074 A 
ATOM     38  C   UNL     1      -1.068   2.495  10.539  1.00  0.00     0.049 A 
ATOM     39  N   UNL     1      -3.046   4.746  10.653  1.00  0.00    -0.248 NA
ATOM     40  C   UNL     1      -2.172   5.585   8.662  1.00  0.00     0.031 C 
ATOM     41  C   UNL     1      -0.114   1.387  10.558  1.00  0.00     0.029 A 
ATOM     42  N   UNL     1      -1.859   2.276  11.639  1.00  0.00    -0.354 N 
ATOM     43  C   UNL     1      -3.700   5.929  10.327  1.00  0.00     0.074 A 
ATOM     44  C   UNL     1      -3.100   6.422   9.109  1.00  0.00     0.031 C 
ATOM     45  C   UNL     1      -0.400   0.581  11.591  1.00  0.00     0.029 A 
ATOM     46  C   UNL     1      -1.526   1.139  12.336  1.00  0.00     0.049 A 
ATOM     47  H   UNL     1      -2.593   2.876  11.904  1.00  0.00     0.167 HD
ATOM     48  C   UNL     1      -4.724   6.540  10.967  1.00  0.00     0.034 A 
ATOM     49  C   UNL     1      -2.060   0.601  13.450  1.00  0.00     0.034 A 
ATOM     50  C   UNL     1      -5.394   6.010  12.122  1.00  0.00     0.049 A 
ATOM     51  C   UNL     1      -3.226   1.271  14.116  1.00  0.00     0.074 A 
ATOM     52  C   UNL     1      -6.498   6.522  12.782  1.00  0.00     0.029 A 
ATOM     53  N   UNL     1      -5.035   4.848  12.782  1.00  0.00    -0.354 N 
ATOM     54  N   UNL     1      -3.880   2.341  13.739  1.00  0.00    -0.248 NA
ATOM     55  C   UNL     1      -3.735   0.656  15.351  1.00  0.00     0.031 C 
ATOM     56  C   UNL     1      -6.807   5.667  13.844  1.00  0.00     0.029 A 
ATOM     57  C   UNL     1      -5.892   4.627  13.846  1.00  0.00     0.049 A 
ATOM     58  H   UNL     1      -4.282   4.265  12.532  1.00  0.00     0.167 HD
ATOM     59  C   UNL     1      -4.878   2.530  14.687  1.00  0.00     0.074 A 
ATOM     60  C   UNL     1      -4.760   1.448  15.643  1.00  0.00     0.031 C 
ATOM     61  C   UNL     1      -5.793   3.526  14.768  1.00  0.00     0.034 A 
BRANCH  48  62
ATOM     62  C   UNL     1      -5.239   7.836  10.404  1.00  0.00     0.023 A 
ATOM     63  C   UNL     1      -6.144   7.809   9.325  1.00  0.00     0.012 A 
ATOM     64  C   UNL     1      -4.908   9.067  11.004  1.00  0.00     0.148 A 
ATOM     65  C   UNL     1      -6.708   8.991   8.846  1.00  0.00     0.002 A 
ATOM     66  C   UNL     1      -5.494  10.238  10.538  1.00  0.00     0.091 A 
ATOM     67  F   UNL     1      -4.030   9.067  12.017  1.00  0.00    -0.205 F 
ATOM     68  C   UNL     1      -6.392  10.201   9.458  1.00  0.00     0.022 A 
BRANCH  66  69
ATOM     69  S   UNL     1      -5.194  11.841  11.290  1.00  0.00     0.127 S 
ATOM     70  O   UNL     1      -4.412  12.511  10.252  1.00  0.00    -0.237 OA
ATOM     71  O   UNL     1      -6.551  12.360  11.462  1.00  0.00    -0.237 OA
ATOM     72  O   UNL     1      -4.482  11.576  12.533  1.00  0.00    -0.744 OA
ENDBRANCH  66  69
ENDBRANCH  48  62
BRANCH  49  73
ATOM     73  C   UNL     1      -1.505  -0.682  13.959  1.00  0.00     0.023 A 
ATOM     74  C   UNL     1      -2.216  -1.875  13.736  1.00  0.00     0.012 A 
ATOM     75  C   UNL     1      -0.228  -0.734  14.551  1.00  0.00     0.148 A 
ATOM     76  C   UNL     1      -1.659  -3.105  14.088  1.00  0.00     0.002 A 
ATOM     77  C   UNL     1       0.340  -1.965  14.854  1.00  0.00     0.091 A 
ATOM     78  F   UNL     1       0.422   0.420  14.756  1.00  0.00    -0.205 F 
ATOM     79  C   UNL     1      -0.378  -3.151  14.632  1.00  0.00     0.022 A 
BRANCH  77  80
ATOM     80  S   UNL     1       2.033  -2.134  15.430  1.00  0.00     0.127 S 
ATOM     81  O   UNL     1       1.840  -2.705  16.761  1.00  0.00    -0.237 OA
ATOM     82  O   UNL     1       2.593  -3.054  14.439  1.00  0.00    -0.237 OA
ATOM     83  O   UNL     1       2.599  -0.793  15.400  1.00  0.00    -0.744 OA
ENDBRANCH  77  80
ENDBRANCH  49  73
BRANCH  61  84
ATOM     84  C   UNL     1      -6.741   3.523  15.933  1.00  0.00     0.023 A 
ATOM     85  C   UNL     1      -6.301   4.033  17.169  1.00  0.00     0.012 A 
ATOM     86  C   UNL     1      -8.086   3.139  15.776  1.00  0.00     0.148 A 
ATOM     87  C   UNL     1      -7.187   4.157  18.238  1.00  0.00     0.002 A 
ATOM     88  C   UNL     1      -8.971   3.291  16.837  1.00  0.00     0.091 A 
ATOM     89  F   UNL     1      -8.475   2.647  14.591  1.00  0.00    -0.205 F 
ATOM     90  C   UNL     1      -8.523   3.797  18.069  1.00  0.00     0.022 A 
BRANCH  88  91
ATOM     91  S   UNL     1     -10.724   2.923  16.696  1.00  0.00     0.127 S 
ATOM     92  O   UNL     1     -10.845   1.730  17.533  1.00  0.00    -0.237 OA
ATOM     93  O   UNL     1     -11.340   4.126  17.254  1.00  0.00    -0.237 OA
ATOM     94  O   UNL     1     -10.978   2.715  15.276  1.00  0.00    -0.744 OA
ENDBRANCH  88  91
ENDBRANCH  61  84
ENDBRANCH  35  36
ENDBRANCH  27  30
ENDBRANCH  25  26
ENDBRANCH   1  25
TORSDOF 15
