REMARK SMILES CC1(C)S[C@H](c2ccccc2O)[NH2+][C@H]1C(=O)NCCCCNC(=O)c1ccc(-c2c3nc(c(-c4cccc(S(=O)(=O)[O-])c4F)c4ccc([nH]4)c(-c4cccc(S(=O)(=O)[O-])c4F)c4nc(c(-c5cccc(S(=O)(=O)[O-])c5F)c5ccc2[nH]5)C=C4)C=C3)cc1
REMARK SMILES IDX 20 1 19 2 18 3 17 4 15 5 16 6 14 8 1 9 2 10 3 11 4 12 5 13
REMARK SMILES IDX 13 14 6 17 7 18 11 19 8 20 10 21 9 22 12 23 21 25 22 26
REMARK SMILES IDX 23 27 24 29 25 30 26 31 87 32 27 33 86 34 28 35 29 36 30 37
REMARK SMILES IDX 80 38 31 39 85 40 79 41 81 42 32 43 84 44 78 45 77 46 33 48
REMARK SMILES IDX 65 49 45 50 64 51 46 52 49 53 63 54 82 55 47 56 48 57 62 59
REMARK SMILES IDX 83 60 50 61 34 62 35 63 43 64 36 65 38 66 44 67 37 68 39 69
REMARK SMILES IDX 40 70 41 71 42 72 66 73 67 74 75 75 68 76 70 77 76 78 69 79
REMARK SMILES IDX 71 80 72 81 73 82 74 83 51 84 52 85 60 86 53 87 55 88 61 89
REMARK SMILES IDX 54 90 56 91 57 92 58 93 59 94
REMARK H PARENT 17 7 13 15 13 16 12 24 22 28 81 47 49 58
REMARK Flexibility Score: inf
ROOT
ATOM      1  C   UNL     1       2.226   3.215   3.926  1.00  0.00     0.023 C 
ENDROOT
BRANCH   1   2
ATOM      2  C   UNL     1       1.635   1.972   3.279  1.00  0.00     0.023 C 
BRANCH   2   3
ATOM      3  C   UNL     1       0.394   2.218   2.422  1.00  0.00     0.116 C 
BRANCH   3   4
ATOM      4  N   UNL     1       0.721   2.844   1.156  1.00  0.00    -0.351 N 
ATOM      5  C   UNL     1       0.617   2.444  -0.140  1.00  0.00     0.279 C 
ATOM      6  O   UNL     1       1.076   3.220  -0.988  1.00  0.00    -0.268 OA
ATOM      7  H   UNL     1       1.098   3.749   1.255  1.00  0.00     0.163 HD
BRANCH   5   8
ATOM      8  C   UNL     1       0.014   1.099  -0.598  1.00  0.00     0.289 C 
ATOM      9  C   UNL     1       1.751  -0.307   0.789  1.00  0.00     0.030 C 
ATOM     10  C   UNL     1       0.952  -0.118  -0.494  1.00  0.00     0.077 C 
ATOM     11  C   UNL     1       1.918  -0.172  -1.684  1.00  0.00     0.030 C 
ATOM     12  S   UNL     1      -0.195  -1.526  -0.592  1.00  0.00    -0.081 SA
ATOM     13  C   UNL     1      -1.714  -0.540  -0.338  1.00  0.00     0.278 C 
ATOM     14  N   UNL     1      -1.332   0.846  -0.026  1.00  0.00    -0.320 N 
ATOM     15  H   UNL     1      -1.307   0.978   0.985  1.00  0.00     0.348 HD
ATOM     16  H   UNL     1      -2.010   1.496  -0.425  1.00  0.00     0.348 HD
BRANCH  13  17
ATOM     17  C   UNL     1      -2.657  -0.699  -1.518  1.00  0.00     0.062 A 
ATOM     18  C   UNL     1      -2.868   0.318  -2.466  1.00  0.00     0.015 A 
ATOM     19  C   UNL     1      -3.320  -1.922  -1.722  1.00  0.00     0.125 A 
ATOM     20  C   UNL     1      -3.669   0.102  -3.590  1.00  0.00     0.001 A 
ATOM     21  C   UNL     1      -4.114  -2.147  -2.847  1.00  0.00     0.047 A 
ATOM     22  C   UNL     1      -4.280  -1.134  -3.787  1.00  0.00     0.004 A 
BRANCH  19  23
ATOM     23  O   UNL     1      -3.180  -2.915  -0.791  1.00  0.00    -0.507 OA
ATOM     24  H   UNL     1      -2.649  -2.775  -0.032  1.00  0.00     0.293 HD
ENDBRANCH  19  23
ENDBRANCH  13  17
ENDBRANCH   5   8
ENDBRANCH   3   4
ENDBRANCH   2   3
ENDBRANCH   1   2
BRANCH   1  25
ATOM     25  C   UNL     1       1.278   3.945   4.861  1.00  0.00     0.116 C 
BRANCH  25  26
ATOM     26  N   UNL     1       0.732   3.085   5.905  1.00  0.00    -0.352 N 
ATOM     27  C   UNL     1       0.672   3.315   7.261  1.00  0.00     0.251 C 
ATOM     28  H   UNL     1       0.357   2.228   5.600  1.00  0.00     0.163 HD
ATOM     29  O   UNL     1       0.308   2.435   8.027  1.00  0.00    -0.269 OA
BRANCH  27  30
ATOM     30  C   UNL     1       1.081   4.640   7.766  1.00  0.00     0.039 A 
ATOM     31  C   UNL     1       1.988   4.719   8.823  1.00  0.00     0.014 A 
ATOM     32  C   UNL     1       0.617   5.795   7.133  1.00  0.00     0.014 A 
ATOM     33  C   UNL     1       2.479   5.968   9.207  1.00  0.00     0.010 A 
ATOM     34  C   UNL     1       1.188   7.019   7.444  1.00  0.00     0.010 A 
ATOM     35  C   UNL     1       2.106   7.122   8.500  1.00  0.00    -0.014 A 
BRANCH  35  36
ATOM     36  C   UNL     1       2.621   8.464   8.864  1.00  0.00     0.031 A 
ATOM     37  C   UNL     1       1.650   9.535   9.284  1.00  0.00     0.074 A 
ATOM     38  C   UNL     1       3.930   8.747   8.718  1.00  0.00     0.049 A 
ATOM     39  N   UNL     1       1.874  10.796   9.545  1.00  0.00    -0.248 NA
ATOM     40  C   UNL     1       0.230   9.149   9.377  1.00  0.00     0.031 C 
ATOM     41  C   UNL     1       4.951   7.819   8.226  1.00  0.00     0.029 A 
ATOM     42  N   UNL     1       4.622   9.910   8.944  1.00  0.00    -0.354 N 
ATOM     43  C   UNL     1       0.625  11.360   9.777  1.00  0.00     0.074 A 
ATOM     44  C   UNL     1      -0.357  10.318   9.580  1.00  0.00     0.031 C 
ATOM     45  C   UNL     1       6.139   8.445   8.198  1.00  0.00     0.029 A 
ATOM     46  C   UNL     1       5.962   9.822   8.647  1.00  0.00     0.049 A 
ATOM     47  H   UNL     1       4.198  10.730   9.286  1.00  0.00     0.167 HD
ATOM     48  C   UNL     1       0.322  12.621  10.164  1.00  0.00     0.034 A 
ATOM     49  C   UNL     1       6.935  10.750   8.735  1.00  0.00     0.034 A 
ATOM     50  C   UNL     1       1.310  13.626  10.438  1.00  0.00     0.049 A 
ATOM     51  C   UNL     1       6.587  12.117   9.263  1.00  0.00     0.074 A 
ATOM     52  C   UNL     1       1.124  14.905  10.930  1.00  0.00     0.029 A 
ATOM     53  N   UNL     1       2.674  13.459  10.255  1.00  0.00    -0.354 N 
ATOM     54  N   UNL     1       5.418  12.586   9.630  1.00  0.00    -0.248 NA
ATOM     55  C   UNL     1       7.695  13.066   9.433  1.00  0.00     0.031 C 
ATOM     56  C   UNL     1       2.379  15.513  11.042  1.00  0.00     0.029 A 
ATOM     57  C   UNL     1       3.345  14.607  10.633  1.00  0.00     0.049 A 
ATOM     58  H   UNL     1       3.101  12.644   9.906  1.00  0.00     0.167 HD
ATOM     59  C   UNL     1       5.656  13.868  10.113  1.00  0.00     0.074 A 
ATOM     60  C   UNL     1       7.083  14.093  10.008  1.00  0.00     0.031 C 
ATOM     61  C   UNL     1       4.774  14.783  10.585  1.00  0.00     0.034 A 
BRANCH  48  62
ATOM     62  C   UNL     1      -1.130  12.952  10.384  1.00  0.00     0.023 A 
ATOM     63  C   UNL     1      -1.809  12.393  11.488  1.00  0.00     0.012 A 
ATOM     64  C   UNL     1      -1.815  13.835   9.528  1.00  0.00     0.148 A 
ATOM     65  C   UNL     1      -3.156  12.673  11.712  1.00  0.00     0.002 A 
ATOM     66  C   UNL     1      -3.146  14.146   9.785  1.00  0.00     0.091 A 
ATOM     67  F   UNL     1      -1.163  14.336   8.470  1.00  0.00    -0.205 F 
ATOM     68  C   UNL     1      -3.821  13.557  10.867  1.00  0.00     0.022 A 
BRANCH  66  69
ATOM     69  S   UNL     1      -4.068  15.335   8.803  1.00  0.00     0.127 S 
ATOM     70  O   UNL     1      -4.970  14.462   8.054  1.00  0.00    -0.237 OA
ATOM     71  O   UNL     1      -4.719  16.146   9.832  1.00  0.00    -0.237 OA
ATOM     72  O   UNL     1      -3.079  16.048   8.007  1.00  0.00    -0.744 OA
ENDBRANCH  66  69
ENDBRANCH  48  62
BRANCH  49  73
ATOM     73  C   UNL     1       8.344  10.387   8.414  1.00  0.00     0.023 A 
ATOM     74  C   UNL     1       9.279  10.270   9.461  1.00  0.00     0.012 A 
ATOM     75  C   UNL     1       8.759  10.126   7.094  1.00  0.00     0.148 A 
ATOM     76  C   UNL     1      10.607   9.935   9.199  1.00  0.00     0.002 A 
ATOM     77  C   UNL     1      10.072   9.742   6.844  1.00  0.00     0.091 A 
ATOM     78  F   UNL     1       7.858  10.251   6.108  1.00  0.00    -0.205 F 
ATOM     79  C   UNL     1      11.002   9.662   7.892  1.00  0.00     0.022 A 
BRANCH  77  80
ATOM     80  S   UNL     1      10.635   9.246   5.211  1.00  0.00     0.127 S 
ATOM     81  O   UNL     1      11.451  10.390   4.816  1.00  0.00    -0.237 OA
ATOM     82  O   UNL     1      11.387   8.025   5.506  1.00  0.00    -0.237 OA
ATOM     83  O   UNL     1       9.424   9.027   4.432  1.00  0.00    -0.744 OA
ENDBRANCH  77  80
ENDBRANCH  49  73
BRANCH  61  84
ATOM     84  C   UNL     1       5.324  16.096  11.071  1.00  0.00     0.023 A 
ATOM     85  C   UNL     1       5.779  17.051  10.142  1.00  0.00     0.012 A 
ATOM     86  C   UNL     1       5.310  16.413  12.443  1.00  0.00     0.148 A 
ATOM     87  C   UNL     1       6.243  18.293  10.575  1.00  0.00     0.002 A 
ATOM     88  C   UNL     1       5.729  17.670  12.863  1.00  0.00     0.091 A 
ATOM     89  F   UNL     1       4.892  15.482  13.313  1.00  0.00    -0.205 F 
ATOM     90  C   UNL     1       6.206  18.607  11.931  1.00  0.00     0.022 A 
BRANCH  88  91
ATOM     91  S   UNL     1       5.619  18.188  14.579  1.00  0.00     0.127 S 
ATOM     92  O   UNL     1       7.007  18.058  15.019  1.00  0.00    -0.237 OA
ATOM     93  O   UNL     1       5.143  19.566  14.462  1.00  0.00    -0.237 OA
ATOM     94  O   UNL     1       4.671  17.277  15.208  1.00  0.00    -0.744 OA
ENDBRANCH  88  91
ENDBRANCH  61  84
ENDBRANCH  35  36
ENDBRANCH  27  30
ENDBRANCH  25  26
ENDBRANCH   1  25
TORSDOF 16
