REMARK SMILES Cc1cc(C)c2c(c1)C=C(C(=O)NCCCCNC(=O)c1ccc(-c3c4nc(c(-c5cccc(S(=O)(=O)[O-])c5F)c5ccc([nH]5)c(-c5cccc(S(=O)(=O)[O-])c5F)c5nc(c(-c6cccc(S(=O)(=O)[O-])c6F)c6ccc3[nH]6)C=C5)C=C4)cc1)[C@@H](C(F)(F)F)O2
REMARK SMILES IDX 16 1 15 2 14 3 13 4 11 5 12 6 10 8 1 9 2 10 3 11 8 12 4 13
REMARK SMILES IDX 7 14 5 15 6 16 9 17 89 18 84 19 85 20 86 21 87 22 88 23
REMARK SMILES IDX 17 24 18 25 19 26 20 28 21 29 22 30 83 31 23 32 82 33 24 34
REMARK SMILES IDX 25 35 26 36 76 37 27 38 81 39 75 40 77 41 28 42 80 43 74 44
REMARK SMILES IDX 73 45 29 47 61 48 41 49 60 50 42 51 45 52 59 53 78 54 43 55
REMARK SMILES IDX 44 56 58 58 79 59 46 60 30 61 31 62 39 63 32 64 34 65 40 66
REMARK SMILES IDX 33 67 35 68 36 69 37 70 38 71 62 72 63 73 71 74 64 75 66 76
REMARK SMILES IDX 72 77 65 78 67 79 68 80 69 81 70 82 47 83 48 84 56 85 49 86
REMARK SMILES IDX 51 87 57 88 50 89 52 90 53 91 54 92 55 93
REMARK H PARENT 13 7 18 27 77 46 45 57
REMARK Flexibility Score: inf
ROOT
ATOM      1  C   UNL     1      -1.717   9.127  -5.767  1.00  0.00     0.023 C 
ENDROOT
BRANCH   1   2
ATOM      2  C   UNL     1      -1.553   7.615  -5.594  1.00  0.00     0.023 C 
BRANCH   2   3
ATOM      3  C   UNL     1      -0.102   7.151  -5.502  1.00  0.00     0.116 C 
BRANCH   3   4
ATOM      4  N   UNL     1       0.402   7.205  -4.142  1.00  0.00    -0.352 N 
ATOM      5  C   UNL     1       0.643   6.325  -3.142  1.00  0.00     0.251 C 
ATOM      6  O   UNL     1       1.097   6.817  -2.104  1.00  0.00    -0.270 OA
ATOM      7  H   UNL     1       0.629   8.125  -3.877  1.00  0.00     0.163 HD
BRANCH   5   8
ATOM      8  C   UNL     1       0.406   4.853  -3.212  1.00  0.00     0.067 C 
ATOM      9  C   UNL     1       1.045  -0.231   0.241  1.00  0.00     0.044 C 
ATOM     10  C   UNL     1       0.600   0.582  -0.939  1.00  0.00    -0.050 A 
ATOM     11  C   UNL     1       0.012  -0.033  -2.052  1.00  0.00     0.010 A 
ATOM     12  C   UNL     1       0.798   1.969  -0.947  1.00  0.00     0.015 A 
ATOM     13  C   UNL     1      -0.393   0.723  -3.161  1.00  0.00    -0.008 A 
ATOM     14  C   UNL     1       0.409   2.735  -2.049  1.00  0.00     0.018 A 
ATOM     15  C   UNL     1      -1.023   0.055  -4.349  1.00  0.00     0.048 C 
ATOM     16  C   UNL     1      -0.179   2.107  -3.149  1.00  0.00     0.130 A 
ATOM     17  C   UNL     1       0.582   4.182  -2.058  1.00  0.00     0.025 C 
ATOM     18  O   UNL     1      -0.609   2.819  -4.236  1.00  0.00    -0.475 OA
ATOM     19  C   UNL     1       0.040   4.102  -4.460  1.00  0.00     0.314 C 
BRANCH  19  20
ATOM     20  C   UNL     1       1.236   3.905  -5.410  1.00  0.00     0.429 C 
ATOM     21  F   UNL     1       0.805   3.507  -6.634  1.00  0.00    -0.167 F 
ATOM     22  F   UNL     1       1.942   5.043  -5.603  1.00  0.00    -0.167 F 
ATOM     23  F   UNL     1       2.108   2.970  -4.968  1.00  0.00    -0.167 F 
ENDBRANCH  19  20
ENDBRANCH   5   8
ENDBRANCH   3   4
ENDBRANCH   2   3
ENDBRANCH   1   2
BRANCH   1  24
ATOM     24  C   UNL     1      -0.977   9.738  -6.957  1.00  0.00     0.116 C 
BRANCH  24  25
ATOM     25  N   UNL     1      -1.227   9.055  -8.220  1.00  0.00    -0.352 N 
ATOM     26  C   UNL     1      -1.239   9.598  -9.483  1.00  0.00     0.251 C 
ATOM     27  H   UNL     1      -1.409   8.089  -8.162  1.00  0.00     0.163 HD
ATOM     28  O   UNL     1      -1.538   8.915 -10.457  1.00  0.00    -0.269 OA
BRANCH  26  29
ATOM     29  C   UNL     1      -0.926  11.031  -9.636  1.00  0.00     0.039 A 
ATOM     30  C   UNL     1      -1.869  11.866 -10.238  1.00  0.00     0.014 A 
ATOM     31  C   UNL     1       0.258  11.551  -9.104  1.00  0.00     0.014 A 
ATOM     32  C   UNL     1      -1.657  13.245 -10.242  1.00  0.00     0.010 A 
ATOM     33  C   UNL     1       0.437  12.929  -9.057  1.00  0.00     0.010 A 
ATOM     34  C   UNL     1      -0.520  13.787  -9.619  1.00  0.00    -0.014 A 
BRANCH  34  35
ATOM     35  C   UNL     1      -0.323  15.253  -9.528  1.00  0.00     0.031 A 
ATOM     36  C   UNL     1       0.818  15.903 -10.257  1.00  0.00     0.074 A 
ATOM     37  C   UNL     1      -1.124  15.983  -8.727  1.00  0.00     0.049 A 
ATOM     38  N   UNL     1       1.176  17.160 -10.268  1.00  0.00    -0.248 NA
ATOM     39  C   UNL     1       1.684  15.024 -11.060  1.00  0.00     0.031 C 
ATOM     40  C   UNL     1      -2.217  15.448  -7.912  1.00  0.00     0.029 A 
ATOM     41  N   UNL     1      -1.132  17.327  -8.452  1.00  0.00    -0.354 N 
ATOM     42  C   UNL     1       2.318  17.220 -11.056  1.00  0.00     0.074 A 
ATOM     43  C   UNL     1       2.619  15.868 -11.472  1.00  0.00     0.031 C 
ATOM     44  C   UNL     1      -2.800  16.456  -7.243  1.00  0.00     0.029 A 
ATOM     45  C   UNL     1      -2.111  17.703  -7.562  1.00  0.00     0.049 A 
ATOM     46  H   UNL     1      -0.496  17.963  -8.854  1.00  0.00     0.167 HD
ATOM     47  C   UNL     1       3.028  18.308 -11.434  1.00  0.00     0.034 A 
ATOM     48  C   UNL     1      -2.424  18.918  -7.069  1.00  0.00     0.034 A 
ATOM     49  C   UNL     1       2.692  19.654 -11.061  1.00  0.00     0.049 A 
ATOM     50  C   UNL     1      -1.640  20.116  -7.533  1.00  0.00     0.074 A 
ATOM     51  C   UNL     1       3.304  20.831 -11.454  1.00  0.00     0.029 A 
ATOM     52  N   UNL     1       1.652  20.004 -10.215  1.00  0.00    -0.354 N 
ATOM     53  N   UNL     1      -0.654  20.172  -8.395  1.00  0.00    -0.248 NA
ATOM     54  C   UNL     1      -2.029  21.423  -6.982  1.00  0.00     0.031 C 
ATOM     55  C   UNL     1       2.634  21.894 -10.841  1.00  0.00     0.029 A 
ATOM     56  C   UNL     1       1.602  21.379 -10.072  1.00  0.00     0.049 A 
ATOM     57  H   UNL     1       1.038  19.368  -9.781  1.00  0.00     0.167 HD
ATOM     58  C   UNL     1      -0.322  21.516  -8.511  1.00  0.00     0.074 A 
ATOM     59  C   UNL     1      -1.228  22.246  -7.647  1.00  0.00     0.031 C 
ATOM     60  C   UNL     1       0.658  22.093  -9.250  1.00  0.00     0.034 A 
BRANCH  47  61
ATOM     61  C   UNL     1       4.188  18.093 -12.368  1.00  0.00     0.023 A 
ATOM     62  C   UNL     1       3.928  17.788 -13.720  1.00  0.00     0.012 A 
ATOM     63  C   UNL     1       5.518  18.250 -11.937  1.00  0.00     0.148 A 
ATOM     64  C   UNL     1       4.974  17.616 -14.623  1.00  0.00     0.002 A 
ATOM     65  C   UNL     1       6.556  18.115 -12.853  1.00  0.00     0.091 A 
ATOM     66  F   UNL     1       5.745  18.516 -10.642  1.00  0.00    -0.205 F 
ATOM     67  C   UNL     1       6.286  17.790 -14.193  1.00  0.00     0.022 A 
BRANCH  65  68
ATOM     68  S   UNL     1       8.277  18.389 -12.415  1.00  0.00     0.127 S 
ATOM     69  O   UNL     1       8.804  17.025 -12.428  1.00  0.00    -0.237 OA
ATOM     70  O   UNL     1       8.745  19.234 -13.514  1.00  0.00    -0.237 OA
ATOM     71  O   UNL     1       8.259  19.041 -11.113  1.00  0.00    -0.744 OA
ENDBRANCH  65  68
ENDBRANCH  47  61
BRANCH  48  72
ATOM     72  C   UNL     1      -3.600  19.068  -6.165  1.00  0.00     0.023 A 
ATOM     73  C   UNL     1      -4.763  19.689  -6.660  1.00  0.00     0.012 A 
ATOM     74  C   UNL     1      -3.602  18.552  -4.855  1.00  0.00     0.148 A 
ATOM     75  C   UNL     1      -5.901  19.811  -5.862  1.00  0.00     0.002 A 
ATOM     76  C   UNL     1      -4.756  18.631  -4.082  1.00  0.00     0.091 A 
ATOM     77  F   UNL     1      -2.481  17.977  -4.396  1.00  0.00    -0.205 F 
ATOM     78  C   UNL     1      -5.902  19.272  -4.578  1.00  0.00     0.022 A 
BRANCH  76  79
ATOM     79  S   UNL     1      -4.892  17.844  -2.472  1.00  0.00     0.127 S 
ATOM     80  O   UNL     1      -4.858  18.994  -1.573  1.00  0.00    -0.237 OA
ATOM     81  O   UNL     1      -6.189  17.174  -2.568  1.00  0.00    -0.237 OA
ATOM     82  O   UNL     1      -3.756  16.935  -2.386  1.00  0.00    -0.744 OA
ENDBRANCH  76  79
ENDBRANCH  48  72
BRANCH  60  83
ATOM     83  C   UNL     1       0.814  23.588  -9.171  1.00  0.00     0.023 A 
ATOM     84  C   UNL     1       1.415  24.157  -8.032  1.00  0.00     0.012 A 
ATOM     85  C   UNL     1       0.485  24.410 -10.267  1.00  0.00     0.148 A 
ATOM     86  C   UNL     1       1.674  25.526  -7.978  1.00  0.00     0.002 A 
ATOM     87  C   UNL     1       0.785  25.767 -10.223  1.00  0.00     0.091 A 
ATOM     88  F   UNL     1      -0.104  23.850 -11.334  1.00  0.00    -0.205 F 
ATOM     89  C   UNL     1       1.374  26.327  -9.077  1.00  0.00     0.022 A 
BRANCH  87  90
ATOM     90  S   UNL     1       0.526  26.854 -11.630  1.00  0.00     0.127 S 
ATOM     91  O   UNL     1      -0.655  27.607 -11.211  1.00  0.00    -0.237 OA
ATOM     92  O   UNL     1       1.766  27.630 -11.659  1.00  0.00    -0.237 OA
ATOM     93  O   UNL     1       0.337  25.979 -12.780  1.00  0.00    -0.744 OA
ENDBRANCH  87  90
ENDBRANCH  60  83
ENDBRANCH  34  35
ENDBRANCH  26  29
ENDBRANCH  24  25
ENDBRANCH   1  24
TORSDOF 15
