REMARK SMILES C=C1c2ccccc2C(=O)N1[C@](C)(CC)C(=O)NCCCCNC(=O)c1ccc(-c2c3nc(c(-c4cccc(S(=O)(=O)[O-])c4F)c4ccc([nH]4)c(-c4cccc(S(=O)(=O)[O-])c4F)c4nc(c(-c5cccc(S(=O)(=O)[O-])c5F)c5ccc2[nH]5)C=C4)C=C3)cc1
REMARK SMILES IDX 21 1 20 2 19 3 18 4 16 5 17 6 12 8 13 9 11 10 1 11 2 12 3 13
REMARK SMILES IDX 4 14 8 15 9 16 5 17 7 18 10 19 6 20 14 21 15 22 22 23 23 24
REMARK SMILES IDX 24 25 25 27 26 28 27 29 88 30 28 31 87 32 29 33 30 34 31 35
REMARK SMILES IDX 81 36 32 37 86 38 80 39 82 40 33 41 85 42 79 43 78 44 34 46
REMARK SMILES IDX 66 47 46 48 65 49 47 50 50 51 64 52 83 53 48 54 49 55 63 57
REMARK SMILES IDX 84 58 51 59 35 60 36 61 44 62 37 63 39 64 45 65 38 66 40 67
REMARK SMILES IDX 41 68 42 69 43 70 67 71 68 72 76 73 69 74 71 75 77 76 70 77
REMARK SMILES IDX 72 78 73 79 74 80 75 81 52 82 53 83 61 84 54 85 56 86 62 87
REMARK SMILES IDX 55 88 57 89 58 90 59 91 60 92
REMARK H PARENT 18 7 23 26 82 45 50 56
REMARK Flexibility Score: inf
ROOT
ATOM      1  C   UNL     1       7.911   1.324  -2.314  1.00  0.00     0.023 C 
ENDROOT
BRANCH   1   2
ATOM      2  C   UNL     1       7.031   0.102  -2.051  1.00  0.00     0.023 C 
BRANCH   2   3
ATOM      3  C   UNL     1       6.287   0.152  -0.721  1.00  0.00     0.116 C 
BRANCH   3   4
ATOM      4  N   UNL     1       5.263   1.179  -0.734  1.00  0.00    -0.354 N 
ATOM      5  C   UNL     1       3.920   1.089  -0.492  1.00  0.00     0.246 C 
ATOM      6  O   UNL     1       3.278   2.143  -0.553  1.00  0.00    -0.272 OA
ATOM      7  H   UNL     1       5.586   2.083  -0.950  1.00  0.00     0.163 HD
BRANCH   5   8
ATOM      8  C   UNL     1       3.227  -0.285  -0.236  1.00  0.00     0.123 C 
ATOM      9  C   UNL     1       1.731  -0.053   0.073  1.00  0.00     0.046 C 
BRANCH   8  10
ATOM     10  N   UNL     1       3.819  -1.028   0.925  1.00  0.00    -0.293 N 
ATOM     11  C   UNL     1       4.671   0.781   2.399  1.00  0.00     0.038 C 
ATOM     12  C   UNL     1       4.475  -0.492   2.042  1.00  0.00     0.046 C 
ATOM     13  C   UNL     1       4.888  -1.616   2.886  1.00  0.00     0.010 A 
ATOM     14  C   UNL     1       5.672  -1.700   4.027  1.00  0.00     0.011 A 
ATOM     15  C   UNL     1       4.333  -2.768   2.343  1.00  0.00     0.049 A 
ATOM     16  C   UNL     1       3.625  -2.403   1.110  1.00  0.00     0.259 C 
ATOM     17  C   UNL     1       5.853  -2.955   4.622  1.00  0.00     0.001 A 
ATOM     18  C   UNL     1       4.482  -4.019   2.918  1.00  0.00     0.014 A 
ATOM     19  O   UNL     1       3.009  -3.208   0.441  1.00  0.00    -0.269 OA
ATOM     20  C   UNL     1       5.252  -4.104   4.079  1.00  0.00     0.001 A 
ENDBRANCH   8  10
BRANCH   8  21
ATOM     21  C   UNL     1       3.325  -1.093  -1.582  1.00  0.00     0.035 C 
ATOM     22  C   UNL     1       2.891  -0.343  -2.843  1.00  0.00     0.007 C 
ENDBRANCH   8  21
ENDBRANCH   5   8
ENDBRANCH   3   4
ENDBRANCH   2   3
ENDBRANCH   1   2
BRANCH   1  23
ATOM     23  C   UNL     1       8.961   1.598  -1.242  1.00  0.00     0.116 C 
BRANCH  23  24
ATOM     24  N   UNL     1       9.877   0.481  -1.057  1.00  0.00    -0.352 N 
ATOM     25  C   UNL     1      11.250   0.495  -1.024  1.00  0.00     0.251 C 
ATOM     26  H   UNL     1       9.456  -0.401  -0.939  1.00  0.00     0.163 HD
ATOM     27  O   UNL     1      11.881  -0.557  -1.024  1.00  0.00    -0.269 OA
BRANCH  25  28
ATOM     28  C   UNL     1      11.957   1.792  -1.013  1.00  0.00     0.039 A 
ATOM     29  C   UNL     1      13.009   1.999  -1.908  1.00  0.00     0.014 A 
ATOM     30  C   UNL     1      11.552   2.812  -0.147  1.00  0.00     0.014 A 
ATOM     31  C   UNL     1      13.614   3.255  -1.977  1.00  0.00     0.010 A 
ATOM     32  C   UNL     1      12.099   4.083  -0.277  1.00  0.00     0.010 A 
ATOM     33  C   UNL     1      13.141   4.318  -1.188  1.00  0.00    -0.014 A 
BRANCH  33  34
ATOM     34  C   UNL     1      13.715   5.682  -1.311  1.00  0.00     0.031 A 
ATOM     35  C   UNL     1      14.386   6.331  -0.131  1.00  0.00     0.074 A 
ATOM     36  C   UNL     1      13.561   6.369  -2.461  1.00  0.00     0.049 A 
ATOM     37  N   UNL     1      14.904   7.528  -0.034  1.00  0.00    -0.248 NA
ATOM     38  C   UNL     1      14.462   5.544   1.111  1.00  0.00     0.031 C 
ATOM     39  C   UNL     1      12.861   5.881  -3.651  1.00  0.00     0.029 A 
ATOM     40  N   UNL     1      13.962   7.634  -2.809  1.00  0.00    -0.354 N 
ATOM     41  C   UNL     1      15.335   7.650   1.282  1.00  0.00     0.074 A 
ATOM     42  C   UNL     1      14.984   6.421   1.957  1.00  0.00     0.031 C 
ATOM     43  C   UNL     1      12.890   6.830  -4.600  1.00  0.00     0.029 A 
ATOM     44  C   UNL     1      13.576   8.007  -4.076  1.00  0.00     0.049 A 
ATOM     45  H   UNL     1      14.478   8.220  -2.209  1.00  0.00     0.167 HD
ATOM     46  C   UNL     1      15.989   8.680   1.869  1.00  0.00     0.034 A 
ATOM     47  C   UNL     1      13.744   9.168  -4.738  1.00  0.00     0.034 A 
ATOM     48  C   UNL     1      16.366   9.888   1.186  1.00  0.00     0.049 A 
ATOM     49  C   UNL     1      14.494  10.289  -4.070  1.00  0.00     0.074 A 
ATOM     50  C   UNL     1      17.106  10.953   1.669  1.00  0.00     0.029 A 
ATOM     51  N   UNL     1      16.019  10.202  -0.119  1.00  0.00    -0.354 N 
ATOM     52  N   UNL     1      15.034  10.324  -2.875  1.00  0.00    -0.248 NA
ATOM     53  C   UNL     1      14.690  11.517  -4.853  1.00  0.00     0.031 C 
ATOM     54  C   UNL     1      17.174  11.927   0.668  1.00  0.00     0.029 A 
ATOM     55  C   UNL     1      16.514  11.451  -0.453  1.00  0.00     0.049 A 
ATOM     56  H   UNL     1      15.497   9.622  -0.719  1.00  0.00     0.167 HD
ATOM     57  C   UNL     1      15.663  11.560  -2.777  1.00  0.00     0.074 A 
ATOM     58  C   UNL     1      15.456  12.234  -4.043  1.00  0.00     0.031 C 
ATOM     59  C   UNL     1      16.340  12.093  -1.731  1.00  0.00     0.034 A 
BRANCH  46  60
ATOM     60  C   UNL     1      16.376   8.529   3.318  1.00  0.00     0.023 A 
ATOM     61  C   UNL     1      17.381   7.609   3.682  1.00  0.00     0.012 A 
ATOM     62  C   UNL     1      15.785   9.334   4.311  1.00  0.00     0.148 A 
ATOM     63  C   UNL     1      17.765   7.465   5.015  1.00  0.00     0.002 A 
ATOM     64  C   UNL     1      16.207   9.220   5.631  1.00  0.00     0.091 A 
ATOM     65  F   UNL     1      14.818  10.188   3.950  1.00  0.00    -0.205 F 
ATOM     66  C   UNL     1      17.186   8.277   5.986  1.00  0.00     0.022 A 
BRANCH  64  67
ATOM     67  S   UNL     1      15.585  10.275   6.944  1.00  0.00     0.127 S 
ATOM     68  O   UNL     1      14.811   9.325   7.743  1.00  0.00    -0.237 OA
ATOM     69  O   UNL     1      16.820  10.739   7.575  1.00  0.00    -0.237 OA
ATOM     70  O   UNL     1      14.806  11.317   6.288  1.00  0.00    -0.744 OA
ENDBRANCH  64  67
ENDBRANCH  46  60
BRANCH  47  71
ATOM     71  C   UNL     1      13.235   9.315  -6.131  1.00  0.00     0.023 A 
ATOM     72  C   UNL     1      14.149   9.411  -7.199  1.00  0.00     0.012 A 
ATOM     73  C   UNL     1      11.854   9.341  -6.405  1.00  0.00     0.148 A 
ATOM     74  C   UNL     1      13.697   9.569  -8.510  1.00  0.00     0.002 A 
ATOM     75  C   UNL     1      11.411   9.440  -7.718  1.00  0.00     0.091 A 
ATOM     76  F   UNL     1      11.001   9.256  -5.374  1.00  0.00    -0.205 F 
ATOM     77  C   UNL     1      12.330   9.573  -8.770  1.00  0.00     0.022 A 
BRANCH  75  78
ATOM     78  S   UNL     1       9.674   9.323  -8.161  1.00  0.00     0.127 S 
ATOM     79  O   UNL     1       9.394  10.678  -8.630  1.00  0.00    -0.237 OA
ATOM     80  O   UNL     1       9.700   8.300  -9.207  1.00  0.00    -0.237 OA
ATOM     81  O   UNL     1       8.982   8.922  -6.944  1.00  0.00    -0.744 OA
ENDBRANCH  75  78
ENDBRANCH  47  71
BRANCH  59  82
ATOM     82  C   UNL     1      16.951  13.459  -1.915  1.00  0.00     0.023 A 
ATOM     83  C   UNL     1      16.125  14.599  -1.986  1.00  0.00     0.012 A 
ATOM     84  C   UNL     1      18.351  13.617  -1.947  1.00  0.00     0.148 A 
ATOM     85  C   UNL     1      16.682  15.870  -2.123  1.00  0.00     0.002 A 
ATOM     86  C   UNL     1      18.899  14.891  -2.029  1.00  0.00     0.091 A 
ATOM     87  F   UNL     1      19.119  12.519  -1.895  1.00  0.00    -0.205 F 
ATOM     88  C   UNL     1      18.067  16.017  -2.132  1.00  0.00     0.022 A 
BRANCH  86  89
ATOM     89  S   UNL     1      20.669  15.185  -1.946  1.00  0.00     0.127 S 
ATOM     90  O   UNL     1      20.964  15.613  -3.313  1.00  0.00    -0.237 OA
ATOM     91  O   UNL     1      20.759  16.246  -0.942  1.00  0.00    -0.237 OA
ATOM     92  O   UNL     1      21.271  13.921  -1.546  1.00  0.00    -0.744 OA
ENDBRANCH  86  89
ENDBRANCH  59  82
ENDBRANCH  33  34
ENDBRANCH  25  28
ENDBRANCH  23  24
ENDBRANCH   1  23
TORSDOF 16
