REMARK SMILES C[C@@H]1[C@H](C(=O)NCCCCNC(=O)c2ccc(-c3c4nc(c(-c5cccc(S(=O)(=O)[O-])c5F)c5ccc([nH]5)c(-c5cccc(S(=O)(=O)[O-])c5F)c5nc(c(-c6cccc(S(=O)(=O)[O-])c6F)c6ccc3[nH]6)C=C5)C=C4)cc2)CCN1S(=O)(=O)c1cc(F)cc(F)c1
REMARK SMILES IDX 9 1 8 2 7 3 6 4 4 5 5 6 3 8 1 9 2 10 79 11 77 12 78 13 80 14
REMARK SMILES IDX 81 15 82 16 83 17 84 18 90 19 85 20 88 21 86 22 87 23 89 24
REMARK SMILES IDX 10 25 11 26 12 27 13 29 14 30 15 31 76 32 16 33 75 34 17 35
REMARK SMILES IDX 18 36 19 37 69 38 20 39 74 40 68 41 70 42 21 43 73 44 67 45
REMARK SMILES IDX 66 46 22 48 54 49 34 50 53 51 35 52 38 53 52 54 71 55 36 56
REMARK SMILES IDX 37 57 51 59 72 60 39 61 23 62 24 63 32 64 25 65 27 66 33 67
REMARK SMILES IDX 26 68 28 69 29 70 30 71 31 72 55 73 56 74 64 75 57 76 59 77
REMARK SMILES IDX 65 78 58 79 60 80 61 81 62 82 63 83 40 84 41 85 49 86 42 87
REMARK SMILES IDX 44 88 50 89 43 90 45 91 46 92 47 93 48 94
REMARK H PARENT 6 7 11 28 70 47 38 58
REMARK Flexibility Score: inf
ROOT
ATOM      1  C   UNL     1       3.627   2.681   3.133  1.00  0.00     0.023 C 
ENDROOT
BRANCH   1   2
ATOM      2  C   UNL     1       2.681   1.689   2.492  1.00  0.00     0.023 C 
BRANCH   2   3
ATOM      3  C   UNL     1       1.251   2.168   2.210  1.00  0.00     0.116 C 
BRANCH   3   4
ATOM      4  N   UNL     1       1.105   2.748   0.882  1.00  0.00    -0.356 N 
ATOM      5  C   UNL     1       0.586   2.320  -0.296  1.00  0.00     0.224 C 
ATOM      6  O   UNL     1       0.667   3.122  -1.236  1.00  0.00    -0.275 OA
ATOM      7  H   UNL     1       1.467   3.662   0.826  1.00  0.00     0.163 HD
BRANCH   5   8
ATOM      8  C   UNL     1      -0.049   0.957  -0.576  1.00  0.00     0.098 C 
ATOM      9  C   UNL     1       2.068  -0.256   0.154  1.00  0.00     0.026 C 
ATOM     10  C   UNL     1       0.872  -0.266  -0.756  1.00  0.00     0.082 C 
ATOM     11  N   UNL     1      -0.028  -1.472  -0.614  1.00  0.00    -0.194 NA
ATOM     12  C   UNL     1      -1.161   0.460   0.317  1.00  0.00     0.032 C 
ATOM     13  C   UNL     1      -1.389  -0.947  -0.220  1.00  0.00     0.104 C 
BRANCH  11  14
ATOM     14  S   UNL     1       0.367  -2.882   0.253  1.00  0.00     0.243 S 
ATOM     15  O   UNL     1       0.635  -2.480   1.618  1.00  0.00    -0.207 OA
ATOM     16  O   UNL     1      -0.685  -3.840  -0.030  1.00  0.00    -0.207 OA
BRANCH  14  17
ATOM     17  C   UNL     1       1.857  -3.635  -0.352  1.00  0.00     0.088 A 
ATOM     18  C   UNL     1       2.245  -4.817   0.298  1.00  0.00     0.061 A 
ATOM     19  C   UNL     1       2.684  -3.078  -1.323  1.00  0.00     0.061 A 
ATOM     20  C   UNL     1       3.490  -5.373   0.032  1.00  0.00     0.127 A 
ATOM     21  C   UNL     1       3.953  -3.622  -1.521  1.00  0.00     0.127 A 
ATOM     22  F   UNL     1       3.856  -6.498   0.659  1.00  0.00    -0.207 F 
ATOM     23  C   UNL     1       4.370  -4.763  -0.848  1.00  0.00     0.078 A 
ATOM     24  F   UNL     1       4.804  -3.006  -2.352  1.00  0.00    -0.207 F 
ENDBRANCH  14  17
ENDBRANCH  11  14
ENDBRANCH   5   8
ENDBRANCH   3   4
ENDBRANCH   2   3
ENDBRANCH   1   2
BRANCH   1  25
ATOM     25  C   UNL     1       3.259   3.080   4.544  1.00  0.00     0.116 C 
BRANCH  25  26
ATOM     26  N   UNL     1       3.122   1.962   5.471  1.00  0.00    -0.352 N 
ATOM     27  C   UNL     1       3.523   1.901   6.793  1.00  0.00     0.251 C 
ATOM     28  H   UNL     1       2.692   1.152   5.112  1.00  0.00     0.163 HD
ATOM     29  O   UNL     1       3.398   0.884   7.444  1.00  0.00    -0.269 OA
BRANCH  27  30
ATOM     30  C   UNL     1       4.159   3.106   7.370  1.00  0.00     0.039 A 
ATOM     31  C   UNL     1       5.413   2.991   7.972  1.00  0.00     0.014 A 
ATOM     32  C   UNL     1       3.572   4.356   7.172  1.00  0.00     0.014 A 
ATOM     33  C   UNL     1       6.119   4.150   8.298  1.00  0.00     0.010 A 
ATOM     34  C   UNL     1       4.328   5.498   7.375  1.00  0.00     0.010 A 
ATOM     35  C   UNL     1       5.601   5.410   7.959  1.00  0.00    -0.014 A 
BRANCH  35  36
ATOM     36  C   UNL     1       6.338   6.666   8.235  1.00  0.00     0.031 A 
ATOM     37  C   UNL     1       5.699   7.710   9.111  1.00  0.00     0.074 A 
ATOM     38  C   UNL     1       7.508   6.919   7.614  1.00  0.00     0.049 A 
ATOM     39  N   UNL     1       6.102   8.924   9.379  1.00  0.00    -0.248 NA
ATOM     40  C   UNL     1       4.403   7.363   9.724  1.00  0.00     0.031 C 
ATOM     41  C   UNL     1       8.176   6.031   6.659  1.00  0.00     0.029 A 
ATOM     42  N   UNL     1       8.331   8.015   7.675  1.00  0.00    -0.354 N 
ATOM     43  C   UNL     1       5.085   9.499  10.131  1.00  0.00     0.074 A 
ATOM     44  C   UNL     1       4.024   8.524  10.233  1.00  0.00     0.031 C 
ATOM     45  C   UNL     1       9.314   6.609   6.240  1.00  0.00     0.029 A 
ATOM     46  C   UNL     1       9.447   7.915   6.878  1.00  0.00     0.049 A 
ATOM     47  H   UNL     1       8.140   8.800   8.238  1.00  0.00     0.167 HD
ATOM     48  C   UNL     1       5.054  10.713  10.728  1.00  0.00     0.034 A 
ATOM     49  C   UNL     1      10.466   8.778   6.695  1.00  0.00     0.034 A 
ATOM     50  C   UNL     1       6.157  11.631  10.713  1.00  0.00     0.049 A 
ATOM     51  C   UNL     1      10.469  10.068   7.471  1.00  0.00     0.074 A 
ATOM     52  C   UNL     1       6.282  12.838  11.375  1.00  0.00     0.029 A 
ATOM     53  N   UNL     1       7.336  11.428  10.014  1.00  0.00    -0.354 N 
ATOM     54  N   UNL     1       9.567  10.530   8.305  1.00  0.00    -0.248 NA
ATOM     55  C   UNL     1      11.645  10.936   7.319  1.00  0.00     0.031 C 
ATOM     56  C   UNL     1       7.546  13.362  11.082  1.00  0.00     0.029 A 
ATOM     57  C   UNL     1       8.205  12.479  10.240  1.00  0.00     0.049 A 
ATOM     58  H   UNL     1       7.527  10.651   9.441  1.00  0.00     0.167 HD
ATOM     59  C   UNL     1      10.083  11.719   8.805  1.00  0.00     0.074 A 
ATOM     60  C   UNL     1      11.385  11.898   8.194  1.00  0.00     0.031 C 
ATOM     61  C   UNL     1       9.525  12.595   9.677  1.00  0.00     0.034 A 
BRANCH  48  62
ATOM     62  C   UNL     1       3.824  11.063  11.520  1.00  0.00     0.023 A 
ATOM     63  C   UNL     1       3.577  10.402  12.742  1.00  0.00     0.012 A 
ATOM     64  C   UNL     1       2.924  12.049  11.075  1.00  0.00     0.148 A 
ATOM     65  C   UNL     1       2.432  10.683  13.485  1.00  0.00     0.002 A 
ATOM     66  C   UNL     1       1.807  12.357  11.844  1.00  0.00     0.091 A 
ATOM     67  F   UNL     1       3.158  12.647   9.898  1.00  0.00    -0.205 F 
ATOM     68  C   UNL     1       1.553  11.667  13.041  1.00  0.00     0.022 A 
BRANCH  66  69
ATOM     69  S   UNL     1       0.658  13.662  11.393  1.00  0.00     0.127 S 
ATOM     70  O   UNL     1      -0.473  12.894  10.875  1.00  0.00    -0.237 OA
ATOM     71  O   UNL     1       0.412  14.319  12.677  1.00  0.00    -0.237 OA
ATOM     72  O   UNL     1       1.359  14.487  10.419  1.00  0.00    -0.744 OA
ENDBRANCH  66  69
ENDBRANCH  48  62
BRANCH  49  73
ATOM     73  C   UNL     1      11.622   8.395   5.834  1.00  0.00     0.023 A 
ATOM     74  C   UNL     1      12.848   8.068   6.445  1.00  0.00     0.012 A 
ATOM     75  C   UNL     1      11.511   8.313   4.433  1.00  0.00     0.148 A 
ATOM     76  C   UNL     1      13.952   7.695   5.678  1.00  0.00     0.002 A 
ATOM     77  C   UNL     1      12.601   7.894   3.676  1.00  0.00     0.091 A 
ATOM     78  F   UNL     1      10.341   8.639   3.867  1.00  0.00    -0.205 F 
ATOM     79  C   UNL     1      13.826   7.598   4.295  1.00  0.00     0.022 A 
BRANCH  77  80
ATOM     80  S   UNL     1      12.491   7.620   1.904  1.00  0.00     0.127 S 
ATOM     81  O   UNL     1      13.194   8.786   1.376  1.00  0.00    -0.237 OA
ATOM     82  O   UNL     1      13.199   6.349   1.745  1.00  0.00    -0.237 OA
ATOM     83  O   UNL     1      11.065   7.548   1.611  1.00  0.00    -0.744 OA
ENDBRANCH  77  80
ENDBRANCH  49  73
BRANCH  61  84
ATOM     84  C   UNL     1      10.328  13.807  10.060  1.00  0.00     0.023 A 
ATOM     85  C   UNL     1      10.447  14.877   9.152  1.00  0.00     0.012 A 
ATOM     86  C   UNL     1      10.878  13.926  11.351  1.00  0.00     0.148 A 
ATOM     87  C   UNL     1      11.122  16.040   9.517  1.00  0.00     0.002 A 
ATOM     88  C   UNL     1      11.512  15.105  11.722  1.00  0.00     0.091 A 
ATOM     89  F   UNL     1      10.772  12.886  12.192  1.00  0.00    -0.205 F 
ATOM     90  C   UNL     1      11.642  16.160  10.804  1.00  0.00     0.022 A 
BRANCH  88  91
ATOM     91  S   UNL     1      12.123  15.372  13.390  1.00  0.00     0.127 S 
ATOM     92  O   UNL     1      13.555  15.128  13.226  1.00  0.00    -0.237 OA
ATOM     93  O   UNL     1      11.767  16.770  13.636  1.00  0.00    -0.237 OA
ATOM     94  O   UNL     1      11.411  14.417  14.228  1.00  0.00    -0.744 OA
ENDBRANCH  88  91
ENDBRANCH  61  84
ENDBRANCH  35  36
ENDBRANCH  27  30
ENDBRANCH  25  26
ENDBRANCH   1  25
TORSDOF 16
