REMARK SMILES C[C@H](C[N@H+](C)[C@H]1CC[C@H]([NH3+])CC1)C(=O)NCCCCNC(=O)c1ccc(-c2c3nc(c(-c4cccc(S(=O)(=O)[O-])c4F)c4ccc([nH]4)c(-c4cccc(S(=O)(=O)[O-])c4F)c4nc(c(-c5cccc(S(=O)(=O)[O-])c5F)c5ccc2[nH]5)C=C4)C=C3)cc1
REMARK SMILES IDX 17 1 16 2 15 3 13 4 14 5 2 7 1 8 3 9 4 10 5 11 6 13 7 14
REMARK SMILES IDX 12 15 8 16 11 17 9 18 10 19 18 23 19 24 20 25 21 26 22 28
REMARK SMILES IDX 23 29 24 30 85 31 25 32 84 33 26 34 27 35 28 36 78 37 29 38
REMARK SMILES IDX 83 39 77 40 79 41 30 42 82 43 76 44 75 45 31 47 63 48 43 49
REMARK SMILES IDX 62 50 44 51 47 52 61 53 80 54 45 55 46 56 60 58 81 59 48 60
REMARK SMILES IDX 32 61 33 62 41 63 34 64 36 65 42 66 35 67 37 68 38 69 39 70
REMARK SMILES IDX 40 71 64 72 65 73 73 74 66 75 68 76 74 77 67 78 69 79 70 80
REMARK SMILES IDX 71 81 72 82 49 83 50 84 58 85 51 86 53 87 59 88 52 89 54 90
REMARK SMILES IDX 55 91 56 92 57 93
REMARK H PARENT 15 6 4 12 10 20 10 21 10 22 20 27 79 46 47 57
REMARK Flexibility Score: inf
ROOT
ATOM      1  C   UNL     1      -1.756  -0.848   2.597  1.00  0.00     0.023 C 
ENDROOT
BRANCH   1   2
ATOM      2  C   UNL     1      -1.190  -1.792   1.539  1.00  0.00     0.116 C 
BRANCH   2   3
ATOM      3  N   UNL     1      -1.560  -1.398   0.194  1.00  0.00    -0.356 N 
ATOM      4  C   UNL     1      -0.783  -1.040  -0.865  1.00  0.00     0.228 C 
ATOM      5  O   UNL     1      -1.359  -0.633  -1.880  1.00  0.00    -0.275 OA
ATOM      6  H   UNL     1      -2.529  -1.387   0.018  1.00  0.00     0.163 HD
BRANCH   4   7
ATOM      7  C   UNL     1       0.744  -1.122  -0.847  1.00  0.00     0.130 C 
ATOM      8  C   UNL     1       1.291  -2.466  -0.364  1.00  0.00     0.024 C 
BRANCH   7   9
ATOM      9  C   UNL     1       1.478   0.110  -0.265  1.00  0.00     0.275 C 
BRANCH   9  10
ATOM     10  N   UNL     1       1.096   0.502   1.103  1.00  0.00    -0.334 N 
ATOM     11  C   UNL     1       0.082   1.568   1.046  1.00  0.00     0.332 C 
ATOM     12  H   UNL     1       0.686  -0.322   1.543  1.00  0.00     0.348 HD
BRANCH  10  13
ATOM     13  C   UNL     1       2.231   0.824   2.002  1.00  0.00     0.184 C 
ATOM     14  C   UNL     1       1.925   0.211   3.388  1.00  0.00     0.071 C 
ATOM     15  C   UNL     1       2.586   2.324   2.113  1.00  0.00     0.071 C 
ATOM     16  C   UNL     1       2.989   0.548   4.436  1.00  0.00     0.071 C 
ATOM     17  C   UNL     1       3.640   2.614   3.179  1.00  0.00     0.071 C 
ATOM     18  C   UNL     1       3.196   2.061   4.536  1.00  0.00     0.181 C 
BRANCH  18  19
ATOM     19  N   UNL     1       4.190   2.392   5.555  1.00  0.00    -0.355 N 
ATOM     20  H   UNL     1       5.086   1.975   5.305  1.00  0.00     0.344 HD
ATOM     21  H   UNL     1       3.885   2.027   6.458  1.00  0.00     0.344 HD
ATOM     22  H   UNL     1       4.291   3.405   5.615  1.00  0.00     0.344 HD
ENDBRANCH  18  19
ENDBRANCH  10  13
ENDBRANCH   9  10
ENDBRANCH   7   9
ENDBRANCH   4   7
ENDBRANCH   2   3
ENDBRANCH   1   2
BRANCH   1  23
ATOM     23  C   UNL     1      -3.239  -1.011   2.885  1.00  0.00     0.023 C 
BRANCH  23  24
ATOM     24  C   UNL     1      -3.613  -2.367   3.455  1.00  0.00     0.116 C 
BRANCH  24  25
ATOM     25  N   UNL     1      -2.890  -2.689   4.682  1.00  0.00    -0.352 N 
ATOM     26  C   UNL     1      -3.372  -2.925   5.952  1.00  0.00     0.251 C 
ATOM     27  H   UNL     1      -1.911  -2.746   4.588  1.00  0.00     0.163 HD
ATOM     28  O   UNL     1      -2.608  -3.027   6.897  1.00  0.00    -0.269 OA
BRANCH  26  29
ATOM     29  C   UNL     1      -4.834  -3.023   6.148  1.00  0.00     0.039 A 
ATOM     30  C   UNL     1      -5.438  -2.321   7.192  1.00  0.00     0.014 A 
ATOM     31  C   UNL     1      -5.606  -3.752   5.245  1.00  0.00     0.014 A 
ATOM     32  C   UNL     1      -6.832  -2.277   7.269  1.00  0.00     0.010 A 
ATOM     33  C   UNL     1      -6.983  -3.596   5.245  1.00  0.00     0.010 A 
ATOM     34  C   UNL     1      -7.616  -2.871   6.265  1.00  0.00    -0.014 A 
BRANCH  34  35
ATOM     35  C   UNL     1      -9.097  -2.770   6.250  1.00  0.00     0.031 A 
ATOM     36  C   UNL     1      -9.927  -4.028   6.225  1.00  0.00     0.074 A 
ATOM     37  C   UNL     1      -9.691  -1.565   6.135  1.00  0.00     0.049 A 
ATOM     38  N   UNL     1     -11.217  -4.163   6.067  1.00  0.00    -0.248 NA
ATOM     39  C   UNL     1      -9.204  -5.309   6.335  1.00  0.00     0.031 C 
ATOM     40  C   UNL     1      -8.996  -0.278   6.045  1.00  0.00     0.029 A 
ATOM     41  N   UNL     1     -11.019  -1.228   6.049  1.00  0.00    -0.354 N 
ATOM     42  C   UNL     1     -11.447  -5.532   5.990  1.00  0.00     0.074 A 
ATOM     43  C   UNL     1     -10.161  -6.185   6.075  1.00  0.00     0.031 C 
ATOM     44  C   UNL     1      -9.903   0.708   5.946  1.00  0.00     0.029 A 
ATOM     45  C   UNL     1     -11.240   0.125   5.930  1.00  0.00     0.049 A 
ATOM     46  H   UNL     1     -11.745  -1.892   6.069  1.00  0.00     0.167 HD
ATOM     47  C   UNL     1     -12.626  -6.190   5.902  1.00  0.00     0.034 A 
ATOM     48  C   UNL     1     -12.393   0.817   5.829  1.00  0.00     0.034 A 
ATOM     49  C   UNL     1     -13.905  -5.539   5.928  1.00  0.00     0.049 A 
ATOM     50  C   UNL     1     -13.695   0.064   5.854  1.00  0.00     0.074 A 
ATOM     51  C   UNL     1     -15.161  -6.115   5.966  1.00  0.00     0.029 A 
ATOM     52  N   UNL     1     -14.089  -4.166   5.942  1.00  0.00    -0.354 N 
ATOM     53  N   UNL     1     -13.898  -1.229   5.927  1.00  0.00    -0.248 NA
ATOM     54  C   UNL     1     -14.928   0.864   5.821  1.00  0.00     0.031 C 
ATOM     55  C   UNL     1     -16.108  -5.087   6.002  1.00  0.00     0.029 A 
ATOM     56  C   UNL     1     -15.439  -3.873   5.998  1.00  0.00     0.049 A 
ATOM     57  H   UNL     1     -13.367  -3.498   5.915  1.00  0.00     0.167 HD
ATOM     58  C   UNL     1     -15.276  -1.397   5.983  1.00  0.00     0.074 A 
ATOM     59  C   UNL     1     -15.860  -0.071   5.955  1.00  0.00     0.031 C 
ATOM     60  C   UNL     1     -15.996  -2.545   6.034  1.00  0.00     0.034 A 
BRANCH  47  61
ATOM     61  C   UNL     1     -12.587  -7.695   5.856  1.00  0.00     0.023 A 
ATOM     62  C   UNL     1     -12.231  -8.415   7.015  1.00  0.00     0.012 A 
ATOM     63  C   UNL     1     -12.952  -8.396   4.691  1.00  0.00     0.148 A 
ATOM     64  C   UNL     1     -12.203  -9.808   7.006  1.00  0.00     0.002 A 
ATOM     65  C   UNL     1     -12.967  -9.787   4.703  1.00  0.00     0.091 A 
ATOM     66  F   UNL     1     -13.268  -7.694   3.593  1.00  0.00    -0.205 F 
ATOM     67  C   UNL     1     -12.581 -10.493   5.855  1.00  0.00     0.022 A 
BRANCH  65  68
ATOM     68  S   UNL     1     -13.513 -10.766   3.300  1.00  0.00     0.127 S 
ATOM     69  O   UNL     1     -12.262 -11.393   2.873  1.00  0.00    -0.237 OA
ATOM     70  O   UNL     1     -14.472 -11.681   3.919  1.00  0.00    -0.237 OA
ATOM     71  O   UNL     1     -14.093  -9.825   2.353  1.00  0.00    -0.744 OA
ENDBRANCH  65  68
ENDBRANCH  47  61
BRANCH  48  72
ATOM     72  C   UNL     1     -12.364   2.307   5.809  1.00  0.00     0.023 A 
ATOM     73  C   UNL     1     -12.782   3.011   6.956  1.00  0.00     0.012 A 
ATOM     74  C   UNL     1     -11.883   3.027   4.699  1.00  0.00     0.148 A 
ATOM     75  C   UNL     1     -12.746   4.405   6.989  1.00  0.00     0.002 A 
ATOM     76  C   UNL     1     -11.803   4.415   4.757  1.00  0.00     0.091 A 
ATOM     77  F   UNL     1     -11.496   2.339   3.616  1.00  0.00    -0.205 F 
ATOM     78  C   UNL     1     -12.248   5.106   5.895  1.00  0.00     0.022 A 
BRANCH  76  79
ATOM     79  S   UNL     1     -11.060   5.398   3.450  1.00  0.00     0.127 S 
ATOM     80  O   UNL     1     -12.219   6.107   2.913  1.00  0.00    -0.237 OA
ATOM     81  O   UNL     1     -10.120   6.232   4.199  1.00  0.00    -0.237 OA
ATOM     82  O   UNL     1     -10.431   4.443   2.548  1.00  0.00    -0.744 OA
ENDBRANCH  76  79
ENDBRANCH  48  72
BRANCH  60  83
ATOM     83  C   UNL     1     -17.494  -2.432   6.096  1.00  0.00     0.023 A 
ATOM     84  C   UNL     1     -18.215  -2.085   4.938  1.00  0.00     0.012 A 
ATOM     85  C   UNL     1     -18.190  -2.771   7.273  1.00  0.00     0.148 A 
ATOM     86  C   UNL     1     -19.608  -2.054   4.955  1.00  0.00     0.002 A 
ATOM     87  C   UNL     1     -19.580  -2.782   7.270  1.00  0.00     0.091 A 
ATOM     88  F   UNL     1     -17.483  -3.080   8.370  1.00  0.00    -0.205 F 
ATOM     89  C   UNL     1     -20.290  -2.415   6.116  1.00  0.00     0.022 A 
BRANCH  87  90
ATOM     90  S   UNL     1     -20.535  -3.329   8.690  1.00  0.00     0.127 S 
ATOM     91  O   UNL     1     -21.025  -2.060   9.226  1.00  0.00    -0.237 OA
ATOM     92  O   UNL     1     -21.563  -4.167   8.071  1.00  0.00    -0.237 OA
ATOM     93  O   UNL     1     -19.603  -4.053   9.543  1.00  0.00    -0.744 OA
ENDBRANCH  87  90
ENDBRANCH  60  83
ENDBRANCH  34  35
ENDBRANCH  26  29
ENDBRANCH  24  25
ENDBRANCH  23  24
ENDBRANCH   1  23
TORSDOF 18
