REMARK SMILES O=C(Nc1ccc2c(c1)OCO2)N[C@H]1C=C[C@@H](C(=O)NCCCCNC(=O)c2ccc(-c3c4nc(c(-c5cccc(S(=O)(=O)[O-])c5F)c5ccc([nH]5)c(-c5cccc(S(=O)(=O)[O-])c5F)c5nc(c(-c6cccc(S(=O)(=O)[O-])c6F)c6ccc3[nH]6)C=C5)C=C4)cc2)C1
REMARK SMILES IDX 23 1 22 2 21 3 20 4 18 5 19 6 17 8 14 9 15 10 91 11 16 12
REMARK SMILES IDX 13 13 1 14 2 15 3 16 4 19 5 20 9 21 6 22 8 23 7 24 10 25
REMARK SMILES IDX 12 26 11 27 24 28 25 29 26 30 27 32 28 33 29 34 90 35 30 36
REMARK SMILES IDX 89 37 31 38 32 39 33 40 83 41 34 42 88 43 82 44 84 45 35 46
REMARK SMILES IDX 87 47 81 48 80 49 36 51 68 52 48 53 67 54 49 55 52 56 66 57
REMARK SMILES IDX 85 58 50 59 51 60 65 62 86 63 53 64 37 65 38 66 46 67 39 68
REMARK SMILES IDX 41 69 47 70 40 71 42 72 43 73 44 74 45 75 69 76 70 77 78 78
REMARK SMILES IDX 71 79 73 80 79 81 72 82 74 83 75 84 76 85 77 86 54 87 55 88
REMARK SMILES IDX 63 89 56 90 58 91 64 92 57 93 59 94 60 95 61 96 62 97
REMARK H PARENT 20 7 3 17 13 18 25 31 84 50 52 61
REMARK Flexibility Score: inf
ROOT
ATOM      1  C   UNL     1       3.817   3.772   3.520  1.00  0.00     0.023 C 
ENDROOT
BRANCH   1   2
ATOM      2  C   UNL     1       3.422   3.076   2.220  1.00  0.00     0.023 C 
BRANCH   2   3
ATOM      3  C   UNL     1       1.980   3.312   1.780  1.00  0.00     0.116 C 
BRANCH   3   4
ATOM      4  N   UNL     1       1.786   4.662   1.294  1.00  0.00    -0.356 N 
ATOM      5  C   UNL     1       1.559   5.130   0.037  1.00  0.00     0.227 C 
ATOM      6  O   UNL     1       1.396   6.348  -0.092  1.00  0.00    -0.274 OA
ATOM      7  H   UNL     1       1.825   5.358   1.989  1.00  0.00     0.163 HD
BRANCH   5   8
ATOM      8  C   UNL     1       1.469   4.221  -1.194  1.00  0.00     0.103 C 
ATOM      9  C   UNL     1       2.154   1.896  -1.686  1.00  0.00     0.107 C 
ATOM     10  C   UNL     1       0.697   2.017  -1.397  1.00  0.00    -0.006 C 
ATOM     11  C   UNL     1       2.685   3.330  -1.480  1.00  0.00     0.047 C 
ATOM     12  C   UNL     1       0.318   3.271  -1.135  1.00  0.00    -0.016 C 
BRANCH   9  13
ATOM     13  N   UNL     1       2.889   0.946  -0.861  1.00  0.00    -0.332 N 
ATOM     14  O   UNL     1       1.212  -0.339   0.035  1.00  0.00    -0.248 OA
ATOM     15  C   UNL     1       2.403  -0.089  -0.125  1.00  0.00     0.319 C 
ATOM     16  N   UNL     1       3.309  -0.967   0.394  1.00  0.00    -0.308 N 
ATOM     17  H   UNL     1       2.898  -1.790   0.745  1.00  0.00     0.171 HD
ATOM     18  H   UNL     1       3.865   1.069  -0.833  1.00  0.00     0.165 HD
BRANCH  16  19
ATOM     19  C   UNL     1       4.707  -0.943   0.530  1.00  0.00     0.046 A 
ATOM     20  C   UNL     1       5.465   0.240   0.625  1.00  0.00     0.030 A 
ATOM     21  C   UNL     1       5.353  -2.184   0.605  1.00  0.00     0.076 A 
ATOM     22  C   UNL     1       6.859   0.196   0.743  1.00  0.00     0.053 A 
ATOM     23  C   UNL     1       6.729  -2.199   0.683  1.00  0.00     0.167 A 
ATOM     24  C   UNL     1       7.464  -1.040   0.746  1.00  0.00     0.165 A 
ATOM     25  O   UNL     1       7.513  -3.310   0.685  1.00  0.00    -0.454 OA
ATOM     26  O   UNL     1       8.800  -1.274   0.804  1.00  0.00    -0.454 OA
ATOM     27  C   UNL     1       8.827  -2.713   0.711  1.00  0.00     0.468 C 
ENDBRANCH  16  19
ENDBRANCH   9  13
ENDBRANCH   5   8
ENDBRANCH   3   4
ENDBRANCH   2   3
ENDBRANCH   1   2
BRANCH   1  28
ATOM     28  C   UNL     1       2.990   3.374   4.737  1.00  0.00     0.116 C 
BRANCH  28  29
ATOM     29  N   UNL     1       2.997   1.939   4.988  1.00  0.00    -0.352 N 
ATOM     30  C   UNL     1       3.138   1.272   6.180  1.00  0.00     0.251 C 
ATOM     31  H   UNL     1       2.885   1.369   4.193  1.00  0.00     0.163 HD
ATOM     32  O   UNL     1       3.255   0.049   6.190  1.00  0.00    -0.269 OA
BRANCH  30  33
ATOM     33  C   UNL     1       3.178   2.034   7.446  1.00  0.00     0.039 A 
ATOM     34  C   UNL     1       4.156   1.722   8.392  1.00  0.00     0.014 A 
ATOM     35  C   UNL     1       2.268   3.067   7.688  1.00  0.00     0.014 A 
ATOM     36  C   UNL     1       4.261   2.489   9.554  1.00  0.00     0.010 A 
ATOM     37  C   UNL     1       2.427   3.880   8.805  1.00  0.00     0.010 A 
ATOM     38  C   UNL     1       3.418   3.595   9.754  1.00  0.00    -0.014 A 
BRANCH  38  39
ATOM     39  C   UNL     1       3.570   4.469  10.945  1.00  0.00     0.031 A 
ATOM     40  C   UNL     1       2.451   4.597  11.943  1.00  0.00     0.074 A 
ATOM     41  C   UNL     1       4.686   5.212  11.085  1.00  0.00     0.049 A 
ATOM     42  N   UNL     1       2.395   5.324  13.029  1.00  0.00    -0.248 NA
ATOM     43  C   UNL     1       1.222   3.832  11.672  1.00  0.00     0.031 C 
ATOM     44  C   UNL     1       5.800   5.253  10.135  1.00  0.00     0.029 A 
ATOM     45  N   UNL     1       5.057   6.094  12.068  1.00  0.00    -0.354 N 
ATOM     46  C   UNL     1       1.121   5.133  13.549  1.00  0.00     0.074 A 
ATOM     47  C   UNL     1       0.421   4.253  12.640  1.00  0.00     0.031 C 
ATOM     48  C   UNL     1       6.733   6.106  10.587  1.00  0.00     0.029 A 
ATOM     49  C   UNL     1       6.277   6.689  11.845  1.00  0.00     0.049 A 
ATOM     50  H   UNL     1       4.503   6.284  12.860  1.00  0.00     0.167 HD
ATOM     51  C   UNL     1       0.591   5.617  14.698  1.00  0.00     0.034 A 
ATOM     52  C   UNL     1       6.953   7.600  12.572  1.00  0.00     0.034 A 
ATOM     53  C   UNL     1       1.307   6.451  15.625  1.00  0.00     0.049 A 
ATOM     54  C   UNL     1       6.369   8.070  13.877  1.00  0.00     0.074 A 
ATOM     55  C   UNL     1       0.896   6.911  16.864  1.00  0.00     0.029 A 
ATOM     56  N   UNL     1       2.580   6.957  15.413  1.00  0.00    -0.354 N 
ATOM     57  N   UNL     1       5.235   7.735  14.442  1.00  0.00    -0.248 NA
ATOM     58  C   UNL     1       7.178   9.012  14.664  1.00  0.00     0.031 C 
ATOM     59  C   UNL     1       1.915   7.711  17.393  1.00  0.00     0.029 A 
ATOM     60  C   UNL     1       2.969   7.731  16.493  1.00  0.00     0.049 A 
ATOM     61  H   UNL     1       3.127   6.790  14.612  1.00  0.00     0.167 HD
ATOM     62  C   UNL     1       5.206   8.400  15.663  1.00  0.00     0.074 A 
ATOM     63  C   UNL     1       6.451   9.133  15.767  1.00  0.00     0.031 C 
ATOM     64  C   UNL     1       4.230   8.417  16.605  1.00  0.00     0.034 A 
BRANCH  51  65
ATOM     65  C   UNL     1      -0.815   5.202  15.047  1.00  0.00     0.023 A 
ATOM     66  C   UNL     1      -1.068   3.872  15.442  1.00  0.00     0.012 A 
ATOM     67  C   UNL     1      -1.874   6.131  15.036  1.00  0.00     0.148 A 
ATOM     68  C   UNL     1      -2.356   3.462  15.783  1.00  0.00     0.002 A 
ATOM     69  C   UNL     1      -3.147   5.726  15.421  1.00  0.00     0.091 A 
ATOM     70  F   UNL     1      -1.621   7.385  14.637  1.00  0.00    -0.205 F 
ATOM     71  C   UNL     1      -3.392   4.391  15.782  1.00  0.00     0.022 A 
BRANCH  69  72
ATOM     72  S   UNL     1      -4.533   6.864  15.531  1.00  0.00     0.127 S 
ATOM     73  O   UNL     1      -5.347   6.449  14.389  1.00  0.00    -0.237 OA
ATOM     74  O   UNL     1      -5.103   6.530  16.837  1.00  0.00    -0.237 OA
ATOM     75  O   UNL     1      -3.963   8.200  15.441  1.00  0.00    -0.744 OA
ENDBRANCH  69  72
ENDBRANCH  51  65
BRANCH  52  76
ATOM     76  C   UNL     1       8.296   8.062  12.122  1.00  0.00     0.023 A 
ATOM     77  C   UNL     1       9.441   7.655  12.836  1.00  0.00     0.012 A 
ATOM     78  C   UNL     1       8.451   8.873  10.982  1.00  0.00     0.148 A 
ATOM     79  C   UNL     1      10.712   8.073  12.442  1.00  0.00     0.002 A 
ATOM     80  C   UNL     1       9.725   9.241  10.562  1.00  0.00     0.091 A 
ATOM     81  F   UNL     1       7.350   9.259  10.323  1.00  0.00    -0.205 F 
ATOM     82  C   UNL     1      10.855   8.857  11.301  1.00  0.00     0.022 A 
BRANCH  80  83
ATOM     83  S   UNL     1      10.012  10.136   9.031  1.00  0.00     0.127 S 
ATOM     84  O   UNL     1      10.404  11.454   9.524  1.00  0.00    -0.237 OA
ATOM     85  O   UNL     1      11.093   9.358   8.425  1.00  0.00    -0.237 OA
ATOM     86  O   UNL     1       8.753  10.079   8.302  1.00  0.00    -0.744 OA
ENDBRANCH  80  83
ENDBRANCH  52  76
BRANCH  64  87
ATOM     87  C   UNL     1       4.476   9.239  17.843  1.00  0.00     0.023 A 
ATOM     88  C   UNL     1       4.449  10.646  17.765  1.00  0.00     0.012 A 
ATOM     89  C   UNL     1       4.675   8.620  19.093  1.00  0.00     0.148 A 
ATOM     90  C   UNL     1       4.656  11.424  18.904  1.00  0.00     0.002 A 
ATOM     91  C   UNL     1       4.830   9.402  20.232  1.00  0.00     0.091 A 
ATOM     92  F   UNL     1       4.717   7.281  19.146  1.00  0.00    -0.205 F 
ATOM     93  C   UNL     1       4.835  10.803  20.137  1.00  0.00     0.022 A 
BRANCH  91  94
ATOM     94  S   UNL     1       4.970   8.685  21.874  1.00  0.00     0.127 S 
ATOM     95  O   UNL     1       6.400   8.829  22.141  1.00  0.00    -0.237 OA
ATOM     96  O   UNL     1       4.110   9.560  22.672  1.00  0.00    -0.237 OA
ATOM     97  O   UNL     1       4.487   7.316  21.752  1.00  0.00    -0.744 OA
ENDBRANCH  91  94
ENDBRANCH  64  87
ENDBRANCH  38  39
ENDBRANCH  30  33
ENDBRANCH  28  29
ENDBRANCH   1  28
TORSDOF 16
