REMARK SMILES O=C(NCCCCNC(=O)[C@@]12CN(CC3CC3)C(=O)[C@@H]1CN(c1nc3ccccc3o1)C2)c1ccc(-c2c3nc(c(-c4cccc(S(=O)(=O)[O-])c4F)c4ccc([nH]4)c(-c4cccc(S(=O)(=O)[O-])c4F)c4nc(c(-c5cccc(S(=O)(=O)[O-])c5F)c5ccc2[nH]5)C=C4)C=C3)cc1
REMARK SMILES IDX 5 1 4 2 3 3 1 4 2 5 33 7 34 8 95 9 35 10 94 11 36 12 37 13
REMARK SMILES IDX 38 14 88 15 39 16 93 17 87 18 89 19 40 20 92 21 86 22 85 23
REMARK SMILES IDX 41 25 73 26 53 27 72 28 54 29 57 30 71 31 90 32 55 33 56 34
REMARK SMILES IDX 70 36 91 37 58 38 42 39 43 40 51 41 44 42 46 43 52 44 45 45
REMARK SMILES IDX 47 46 48 47 49 48 50 49 74 50 75 51 83 52 76 53 78 54 84 55
REMARK SMILES IDX 77 56 79 57 80 58 81 59 82 60 59 61 60 62 68 63 61 64 63 65
REMARK SMILES IDX 69 66 62 67 64 68 65 69 66 70 67 71 6 72 7 73 8 74 9 75
REMARK SMILES IDX 10 77 11 78 12 79 20 80 32 81 13 82 18 83 21 84 22 85 19 86
REMARK SMILES IDX 14 87 15 88 16 89 17 90 23 91 24 92 31 93 25 94 30 95 26 96
REMARK SMILES IDX 29 97 27 98 28 99
REMARK H PARENT 3 6 89 24 57 35 8 76
REMARK Flexibility Score: inf
ROOT
ATOM      1  C   UNL     1       4.968   0.251  -2.612  1.00  0.00     0.023 C 
ENDROOT
BRANCH   1   2
ATOM      2  C   UNL     1       4.569   0.051  -1.160  1.00  0.00     0.116 C 
BRANCH   2   3
ATOM      3  N   UNL     1       3.155   0.314  -0.918  1.00  0.00    -0.352 N 
ATOM      4  O   UNL     1       1.179  -0.001   0.144  1.00  0.00    -0.269 OA
ATOM      5  C   UNL     1       2.373  -0.209   0.095  1.00  0.00     0.251 C 
ATOM      6  H   UNL     1       2.710   0.931  -1.544  1.00  0.00     0.163 HD
BRANCH   5   7
ATOM      7  C   UNL     1       3.054  -1.078   1.083  1.00  0.00     0.039 A 
ATOM      8  C   UNL     1       4.203  -0.611   1.720  1.00  0.00     0.014 A 
ATOM      9  C   UNL     1       2.635  -2.400   1.243  1.00  0.00     0.014 A 
ATOM     10  C   UNL     1       5.032  -1.513   2.370  1.00  0.00     0.010 A 
ATOM     11  C   UNL     1       3.422  -3.284   1.989  1.00  0.00     0.010 A 
ATOM     12  C   UNL     1       4.650  -2.859   2.519  1.00  0.00    -0.014 A 
BRANCH  12  13
ATOM     13  C   UNL     1       5.539  -3.764   3.295  1.00  0.00     0.031 A 
ATOM     14  C   UNL     1       6.200  -4.963   2.672  1.00  0.00     0.074 A 
ATOM     15  C   UNL     1       5.790  -3.445   4.580  1.00  0.00     0.049 A 
ATOM     16  N   UNL     1       7.058  -5.793   3.208  1.00  0.00    -0.248 NA
ATOM     17  C   UNL     1       5.853  -5.285   1.278  1.00  0.00     0.031 C 
ATOM     18  C   UNL     1       5.162  -2.335   5.303  1.00  0.00     0.029 A 
ATOM     19  N   UNL     1       6.646  -3.995   5.498  1.00  0.00    -0.354 N 
ATOM     20  C   UNL     1       7.324  -6.755   2.240  1.00  0.00     0.074 A 
ATOM     21  C   UNL     1       6.534  -6.407   1.078  1.00  0.00     0.031 C 
ATOM     22  C   UNL     1       5.694  -2.249   6.528  1.00  0.00     0.029 A 
ATOM     23  C   UNL     1       6.654  -3.332   6.703  1.00  0.00     0.049 A 
ATOM     24  H   UNL     1       7.200  -4.787   5.313  1.00  0.00     0.167 HD
ATOM     25  C   UNL     1       8.160  -7.820   2.311  1.00  0.00     0.034 A 
ATOM     26  C   UNL     1       7.350  -3.569   7.830  1.00  0.00     0.034 A 
ATOM     27  C   UNL     1       8.974  -8.135   3.458  1.00  0.00     0.049 A 
ATOM     28  C   UNL     1       8.321  -4.711   7.851  1.00  0.00     0.074 A 
ATOM     29  C   UNL     1       9.874  -9.176   3.615  1.00  0.00     0.029 A 
ATOM     30  N   UNL     1       8.995  -7.410   4.640  1.00  0.00    -0.354 N 
ATOM     31  N   UNL     1       8.625  -5.547   6.889  1.00  0.00    -0.248 NA
ATOM     32  C   UNL     1       9.059  -4.929   9.101  1.00  0.00     0.031 C 
ATOM     33  C   UNL     1      10.438  -9.079   4.892  1.00  0.00     0.029 A 
ATOM     34  C   UNL     1       9.896  -7.975   5.528  1.00  0.00     0.049 A 
ATOM     35  H   UNL     1       8.450  -6.611   4.821  1.00  0.00     0.167 HD
ATOM     36  C   UNL     1       9.588  -6.396   7.417  1.00  0.00     0.074 A 
ATOM     37  C   UNL     1       9.854  -5.937   8.766  1.00  0.00     0.031 C 
ATOM     38  C   UNL     1      10.171  -7.481   6.852  1.00  0.00     0.034 A 
BRANCH  25  39
ATOM     39  C   UNL     1       8.287  -8.704   1.097  1.00  0.00     0.023 A 
ATOM     40  C   UNL     1       9.051  -8.261  -0.001  1.00  0.00     0.012 A 
ATOM     41  C   UNL     1       7.739 -10.003   1.077  1.00  0.00     0.148 A 
ATOM     42  C   UNL     1       9.255  -9.087  -1.107  1.00  0.00     0.002 A 
ATOM     43  C   UNL     1       7.975 -10.834  -0.015  1.00  0.00     0.091 A 
ATOM     44  F   UNL     1       6.999 -10.401   2.121  1.00  0.00    -0.205 F 
ATOM     45  C   UNL     1       8.727 -10.375  -1.108  1.00  0.00     0.022 A 
BRANCH  43  46
ATOM     46  S   UNL     1       7.398 -12.535  -0.083  1.00  0.00     0.127 S 
ATOM     47  O   UNL     1       6.326 -12.442  -1.073  1.00  0.00    -0.237 OA
ATOM     48  O   UNL     1       8.591 -13.248  -0.540  1.00  0.00    -0.237 OA
ATOM     49  O   UNL     1       6.974 -12.868   1.270  1.00  0.00    -0.744 OA
ENDBRANCH  43  46
ENDBRANCH  25  39
BRANCH  26  50
ATOM     50  C   UNL     1       7.171  -2.668   9.002  1.00  0.00     0.023 A 
ATOM     51  C   UNL     1       8.215  -1.806   9.385  1.00  0.00     0.012 A 
ATOM     52  C   UNL     1       5.941  -2.600   9.684  1.00  0.00     0.148 A 
ATOM     53  C   UNL     1       8.040  -0.902  10.435  1.00  0.00     0.002 A 
ATOM     54  C   UNL     1       5.751  -1.650  10.679  1.00  0.00     0.091 A 
ATOM     55  F   UNL     1       4.963  -3.444   9.325  1.00  0.00    -0.205 F 
ATOM     56  C   UNL     1       6.803  -0.811  11.069  1.00  0.00     0.022 A 
BRANCH  54  57
ATOM     57  S   UNL     1       4.124  -1.369  11.389  1.00  0.00     0.127 S 
ATOM     58  O   UNL     1       4.153  -2.233  12.564  1.00  0.00    -0.237 OA
ATOM     59  O   UNL     1       4.149   0.066  11.677  1.00  0.00    -0.237 OA
ATOM     60  O   UNL     1       3.192  -1.741  10.331  1.00  0.00    -0.744 OA
ENDBRANCH  54  57
ENDBRANCH  26  50
BRANCH  38  61
ATOM     61  C   UNL     1      11.142  -8.250   7.706  1.00  0.00     0.023 A 
ATOM     62  C   UNL     1      10.648  -9.067   8.742  1.00  0.00     0.012 A 
ATOM     63  C   UNL     1      12.528  -8.190   7.471  1.00  0.00     0.148 A 
ATOM     64  C   UNL     1      11.521  -9.786   9.556  1.00  0.00     0.002 A 
ATOM     65  C   UNL     1      13.391  -8.940   8.262  1.00  0.00     0.091 A 
ATOM     66  F   UNL     1      12.981  -7.386   6.498  1.00  0.00    -0.205 F 
ATOM     67  C   UNL     1      12.891  -9.730   9.311  1.00  0.00     0.022 A 
BRANCH  65  68
ATOM     68  S   UNL     1      15.161  -8.975   7.960  1.00  0.00     0.127 S 
ATOM     69  O   UNL     1      15.650  -8.001   8.932  1.00  0.00    -0.237 OA
ATOM     70  O   UNL     1      15.508 -10.365   8.262  1.00  0.00    -0.237 OA
ATOM     71  O   UNL     1      15.323  -8.610   6.558  1.00  0.00    -0.744 OA
ENDBRANCH  65  68
ENDBRANCH  38  61
ENDBRANCH  12  13
ENDBRANCH   5   7
ENDBRANCH   2   3
ENDBRANCH   1   2
BRANCH   1  72
ATOM     72  C   UNL     1       4.967   1.726  -3.004  1.00  0.00     0.023 C 
BRANCH  72  73
ATOM     73  C   UNL     1       6.231   2.471  -2.546  1.00  0.00     0.116 C 
BRANCH  73  74
ATOM     74  N   UNL     1       7.067   2.751  -3.698  1.00  0.00    -0.355 N 
ATOM     75  C   UNL     1       6.963   3.713  -4.655  1.00  0.00     0.230 C 
ATOM     76  H   UNL     1       7.836   2.146  -3.805  1.00  0.00     0.163 HD
ATOM     77  O   UNL     1       7.576   3.500  -5.706  1.00  0.00    -0.274 OA
BRANCH  75  78
ATOM     78  C   UNL     1       6.293   5.060  -4.403  1.00  0.00     0.097 C 
ATOM     79  C   UNL     1       7.266   5.917  -3.602  1.00  0.00     0.139 C 
ATOM     80  C   UNL     1       6.118   5.860  -5.713  1.00  0.00     0.117 C 
ATOM     81  C   UNL     1       4.861   5.086  -3.857  1.00  0.00     0.141 C 
ATOM     82  N   UNL     1       7.052   7.258  -4.092  1.00  0.00    -0.341 N 
ATOM     83  C   UNL     1       6.275   7.288  -5.245  1.00  0.00     0.228 C 
ATOM     84  C   UNL     1       4.723   5.516  -6.223  1.00  0.00     0.136 C 
ATOM     85  N   UNL     1       4.024   5.054  -5.038  1.00  0.00    -0.324 N 
ATOM     86  O   UNL     1       5.837   8.276  -5.809  1.00  0.00    -0.274 OA
BRANCH  82  87
ATOM     87  C   UNL     1       7.510   8.423  -3.363  1.00  0.00     0.123 C 
BRANCH  87  88
ATOM     88  C   UNL     1       8.647   9.155  -4.021  1.00  0.00     0.008 C 
ATOM     89  C   UNL     1       8.995   9.129  -5.495  1.00  0.00     0.006 C 
ATOM     90  C   UNL     1       8.304  10.326  -4.916  1.00  0.00     0.006 C 
ENDBRANCH  87  88
ENDBRANCH  82  87
BRANCH  85  91
ATOM     91  C   UNL     1       2.873   4.361  -5.092  1.00  0.00     0.298 A 
ATOM     92  N   UNL     1       2.201   3.936  -6.141  1.00  0.00    -0.193 NA
ATOM     93  O   UNL     1       2.346   3.974  -3.887  1.00  0.00    -0.423 OA
ATOM     94  C   UNL     1       1.203   3.162  -5.599  1.00  0.00     0.111 A 
ATOM     95  C   UNL     1       1.284   3.193  -4.218  1.00  0.00     0.156 A 
ATOM     96  C   UNL     1       0.202   2.383  -6.194  1.00  0.00     0.032 A 
ATOM     97  C   UNL     1       0.440   2.514  -3.349  1.00  0.00     0.049 A 
ATOM     98  C   UNL     1      -0.664   1.663  -5.353  1.00  0.00     0.003 A 
ATOM     99  C   UNL     1      -0.545   1.731  -3.958  1.00  0.00     0.004 A 
ENDBRANCH  85  91
ENDBRANCH  75  78
ENDBRANCH  73  74
ENDBRANCH  72  73
ENDBRANCH   1  72
TORSDOF 17
