REMARK SMILES COc1ccccc1N1CC[NH+]([C@@H](C(=O)NCCCCNC(=O)c2ccc(-c3c4nc(c(-c5cccc(S(=O)(=O)[O-])c5F)c5ccc([nH]5)c(-c5cccc(S(=O)(=O)[O-])c5F)c5nc(c(-c6cccc(S(=O)(=O)[O-])c6F)c6ccc3[nH]6)C=C5)C=C4)cc2)c2c[nH]c3ccc(OCC#N)cc23)CC1
REMARK SMILES IDX 18 1 17 2 16 3 14 4 15 5 13 7 12 8 9 9 10 10 101 11 11 12
REMARK SMILES IDX 100 13 8 15 3 16 4 17 5 18 7 19 6 20 2 21 1 22 87 23 88 24
REMARK SMILES IDX 99 25 89 26 90 27 98 28 91 30 93 31 92 32 94 33 95 34 96 35
REMARK SMILES IDX 97 36 19 37 20 38 21 39 22 40 23 42 24 43 25 44 86 45 26 46
REMARK SMILES IDX 85 47 27 48 28 49 29 50 79 51 30 52 84 53 78 54 80 55 31 56
REMARK SMILES IDX 83 57 77 58 76 59 32 61 64 62 44 63 63 64 45 65 48 66 62 67
REMARK SMILES IDX 81 68 46 69 47 70 61 72 82 73 49 74 33 75 34 76 42 77 35 78
REMARK SMILES IDX 37 79 43 80 36 81 38 82 39 83 40 84 41 85 65 86 66 87 74 88
REMARK SMILES IDX 67 89 69 90 75 91 68 92 70 93 71 94 72 95 73 96 50 97 51 98
REMARK SMILES IDX 59 99 52 100 54 101 60 102 53 103 55 104 56 105 57 106
REMARK SMILES IDX 58 107
REMARK H PARENT 16 6 12 14 89 29 21 41 80 60 48 71
REMARK Flexibility Score: inf
ROOT
ATOM      1  C   UNL     1       4.134   2.010  -1.659  1.00  0.00     0.023 C 
ENDROOT
BRANCH   1   2
ATOM      2  C   UNL     1       5.473   1.296  -1.264  1.00  0.00     0.116 C 
BRANCH   2   3
ATOM      3  N   UNL     1       5.798   1.108   0.179  1.00  0.00    -0.351 N 
ATOM      4  C   UNL     1       5.864   0.150   1.182  1.00  0.00     0.283 C 
ATOM      5  O   UNL     1       6.440   0.575   2.198  1.00  0.00    -0.268 OA
ATOM      6  H   UNL     1       6.061   1.978   0.558  1.00  0.00     0.163 HD
BRANCH   4   7
ATOM      7  C   UNL     1       5.389  -1.361   1.141  1.00  0.00     0.307 C 
BRANCH   7   8
ATOM      8  N   UNL     1       3.970  -1.719   0.732  1.00  0.00    -0.318 N 
ATOM      9  N   UNL     1       1.980   0.082   1.932  1.00  0.00    -0.357 N 
ATOM     10  C   UNL     1       2.573  -0.997   2.725  1.00  0.00     0.178 C 
ATOM     11  C   UNL     1       2.812   0.522   0.812  1.00  0.00     0.178 C 
ATOM     12  C   UNL     1       2.959  -2.103   1.736  1.00  0.00     0.284 C 
ATOM     13  C   UNL     1       3.293  -0.680  -0.044  1.00  0.00     0.284 C 
ATOM     14  H   UNL     1       4.233  -2.559   0.217  1.00  0.00     0.349 HD
BRANCH   9  15
ATOM     15  C   UNL     1       1.352   1.148   2.575  1.00  0.00     0.080 A 
ATOM     16  C   UNL     1       0.129   1.688   2.123  1.00  0.00     0.142 A 
ATOM     17  C   UNL     1      -0.400   2.817   2.766  1.00  0.00     0.048 A 
ATOM     18  C   UNL     1       0.264   3.431   3.827  1.00  0.00     0.004 A 
ATOM     19  C   UNL     1       2.013   1.794   3.644  1.00  0.00     0.030 A 
ATOM     20  C   UNL     1       1.479   2.923   4.262  1.00  0.00     0.002 A 
BRANCH  16  21
ATOM     21  O   UNL     1      -0.673   1.274   1.089  1.00  0.00    -0.495 OA
ATOM     22  C   UNL     1      -0.363   0.103   0.356  1.00  0.00     0.278 C 
ENDBRANCH  16  21
ENDBRANCH   9  15
ENDBRANCH   7   8
BRANCH   7  23
ATOM     23  C   UNL     1       5.981  -2.329   2.330  1.00  0.00     0.044 A 
ATOM     24  C   UNL     1       6.260  -3.652   1.964  1.00  0.00     0.094 A 
ATOM     25  C   UNL     1       5.544  -2.590   3.728  1.00  0.00     0.013 A 
ATOM     26  N   UNL     1       5.155  -4.339   2.418  1.00  0.00    -0.361 N 
ATOM     27  C   UNL     1       4.803  -3.772   3.629  1.00  0.00     0.046 A 
ATOM     28  C   UNL     1       5.810  -2.183   5.089  1.00  0.00     0.057 A 
ATOM     29  H   UNL     1       4.703  -5.089   1.967  1.00  0.00     0.166 HD
ATOM     30  C   UNL     1       3.906  -4.197   4.612  1.00  0.00     0.030 A 
ATOM     31  C   UNL     1       5.139  -2.838   6.183  1.00  0.00     0.121 A 
ATOM     32  C   UNL     1       4.071  -3.679   5.896  1.00  0.00     0.048 A 
BRANCH  31  33
ATOM     33  O   UNL     1       5.560  -2.653   7.502  1.00  0.00    -0.479 OA
BRANCH  33  34
ATOM     34  C   UNL     1       5.413  -3.796   8.488  1.00  0.00     0.349 C 
BRANCH  34  35
ATOM     35  C   UNL     1       5.989  -5.066   7.883  1.00  0.00     0.104 C 
ATOM     36  N   UNL     1       6.467  -6.119   7.380  1.00  0.00    -0.195 NA
ENDBRANCH  34  35
ENDBRANCH  33  34
ENDBRANCH  31  33
ENDBRANCH   7  23
ENDBRANCH   4   7
ENDBRANCH   2   3
ENDBRANCH   1   2
BRANCH   1  37
ATOM     37  C   UNL     1       3.626   3.139  -0.750  1.00  0.00     0.023 C 
BRANCH  37  38
ATOM     38  C   UNL     1       3.813   4.532  -1.310  1.00  0.00     0.116 C 
BRANCH  38  39
ATOM     39  N   UNL     1       2.892   4.825  -2.400  1.00  0.00    -0.352 N 
ATOM     40  C   UNL     1       2.258   6.013  -2.700  1.00  0.00     0.251 C 
ATOM     41  H   UNL     1       2.696   4.074  -3.005  1.00  0.00     0.163 HD
ATOM     42  O   UNL     1       1.398   6.037  -3.570  1.00  0.00    -0.269 OA
BRANCH  40  43
ATOM     43  C   UNL     1       2.608   7.252  -1.960  1.00  0.00     0.039 A 
ATOM     44  C   UNL     1       1.615   8.205  -1.714  1.00  0.00     0.014 A 
ATOM     45  C   UNL     1       3.916   7.493  -1.534  1.00  0.00     0.014 A 
ATOM     46  C   UNL     1       1.940   9.386  -1.041  1.00  0.00     0.010 A 
ATOM     47  C   UNL     1       4.208   8.599  -0.752  1.00  0.00     0.010 A 
ATOM     48  C   UNL     1       3.241   9.588  -0.555  1.00  0.00    -0.014 A 
BRANCH  48  49
ATOM     49  C   UNL     1       3.645  10.869   0.069  1.00  0.00     0.031 A 
ATOM     50  C   UNL     1       4.721  11.703  -0.583  1.00  0.00     0.074 A 
ATOM     51  C   UNL     1       3.091  11.249   1.235  1.00  0.00     0.049 A 
ATOM     52  N   UNL     1       5.233  12.840  -0.194  1.00  0.00    -0.248 NA
ATOM     53  C   UNL     1       5.332  11.170  -1.816  1.00  0.00     0.031 C 
ATOM     54  C   UNL     1       2.109  10.476   1.998  1.00  0.00     0.029 A 
ATOM     55  N   UNL     1       3.286  12.376   1.989  1.00  0.00    -0.354 N 
ATOM     56  C   UNL     1       6.244  13.132  -1.104  1.00  0.00     0.074 A 
ATOM     57  C   UNL     1       6.316  12.028  -2.031  1.00  0.00     0.031 C 
ATOM     58  C   UNL     1       1.770  11.163   3.101  1.00  0.00     0.029 A 
ATOM     59  C   UNL     1       2.528  12.409   3.136  1.00  0.00     0.049 A 
ATOM     60  H   UNL     1       3.909  13.095   1.734  1.00  0.00     0.167 HD
ATOM     61  C   UNL     1       7.016  14.240  -1.188  1.00  0.00     0.034 A 
ATOM     62  C   UNL     1       2.454  13.345   4.100  1.00  0.00     0.034 A 
ATOM     63  C   UNL     1       6.895  15.356  -0.293  1.00  0.00     0.049 A 
ATOM     64  C   UNL     1       3.272  14.599   3.946  1.00  0.00     0.074 A 
ATOM     65  C   UNL     1       7.559  16.568  -0.330  1.00  0.00     0.029 A 
ATOM     66  N   UNL     1       6.047  15.393   0.804  1.00  0.00    -0.354 N 
ATOM     67  N   UNL     1       4.115  14.924   2.996  1.00  0.00    -0.248 NA
ATOM     68  C   UNL     1       3.093  15.636   4.972  1.00  0.00     0.031 C 
ATOM     69  C   UNL     1       7.133  17.327   0.765  1.00  0.00     0.029 A 
ATOM     70  C   UNL     1       6.173  16.605   1.457  1.00  0.00     0.049 A 
ATOM     71  H   UNL     1       5.445  14.664   1.078  1.00  0.00     0.167 HD
ATOM     72  C   UNL     1       4.535  16.217   3.284  1.00  0.00     0.074 A 
ATOM     73  C   UNL     1       3.835  16.621   4.487  1.00  0.00     0.031 C 
ATOM     74  C   UNL     1       5.426  16.998   2.624  1.00  0.00     0.034 A 
BRANCH  61  75
ATOM     75  C   UNL     1       8.020  14.315  -2.312  1.00  0.00     0.023 A 
ATOM     76  C   UNL     1       7.574  14.433  -3.645  1.00  0.00     0.012 A 
ATOM     77  C   UNL     1       9.403  14.306  -2.047  1.00  0.00     0.148 A 
ATOM     78  C   UNL     1       8.486  14.497  -4.699  1.00  0.00     0.002 A 
ATOM     79  C   UNL     1      10.306  14.424  -3.098  1.00  0.00     0.091 A 
ATOM     80  F   UNL     1       9.810  14.171  -0.777  1.00  0.00    -0.205 F 
ATOM     81  C   UNL     1       9.850  14.504  -4.424  1.00  0.00     0.022 A 
BRANCH  79  82
ATOM     82  S   UNL     1      12.081  14.527  -2.846  1.00  0.00     0.127 S 
ATOM     83  O   UNL     1      12.535  13.262  -3.424  1.00  0.00    -0.237 OA
ATOM     84  O   UNL     1      12.432  15.714  -3.626  1.00  0.00    -0.237 OA
ATOM     85  O   UNL     1      12.278  14.661  -1.409  1.00  0.00    -0.744 OA
ENDBRANCH  79  82
ENDBRANCH  61  75
BRANCH  62  86
ATOM     86  C   UNL     1       1.517  13.167   5.245  1.00  0.00     0.023 A 
ATOM     87  C   UNL     1       0.378  13.990   5.347  1.00  0.00     0.012 A 
ATOM     88  C   UNL     1       1.733  12.171   6.217  1.00  0.00     0.148 A 
ATOM     89  C   UNL     1      -0.507  13.851   6.417  1.00  0.00     0.002 A 
ATOM     90  C   UNL     1       0.818  12.001   7.249  1.00  0.00     0.091 A 
ATOM     91  F   UNL     1       2.825  11.402   6.105  1.00  0.00    -0.205 F 
ATOM     92  C   UNL     1      -0.292  12.852   7.362  1.00  0.00     0.022 A 
BRANCH  90  93
ATOM     93  S   UNL     1       0.944  10.658   8.435  1.00  0.00     0.127 S 
ATOM     94  O   UNL     1       1.292  11.373   9.660  1.00  0.00    -0.237 OA
ATOM     95  O   UNL     1      -0.410  10.104   8.407  1.00  0.00    -0.237 OA
ATOM     96  O   UNL     1       1.968   9.764   7.911  1.00  0.00    -0.744 OA
ENDBRANCH  90  93
ENDBRANCH  62  86
BRANCH  74  97
ATOM     97  C   UNL     1       5.654  18.388   3.154  1.00  0.00     0.023 A 
ATOM     98  C   UNL     1       6.344  18.580   4.367  1.00  0.00     0.012 A 
ATOM     99  C   UNL     1       5.231  19.509   2.412  1.00  0.00     0.148 A 
ATOM    100  C   UNL     1       6.569  19.865   4.856  1.00  0.00     0.002 A 
ATOM    101  C   UNL     1       5.510  20.787   2.877  1.00  0.00     0.091 A 
ATOM    102  F   UNL     1       4.560  19.304   1.269  1.00  0.00    -0.205 F 
ATOM    103  C   UNL     1       6.163  20.967   4.107  1.00  0.00     0.022 A 
BRANCH 101 104
ATOM    104  S   UNL     1       5.120  22.258   1.925  1.00  0.00     0.127 S 
ATOM    105  O   UNL     1       3.978  22.796   2.663  1.00  0.00    -0.237 OA
ATOM    106  O   UNL     1       6.349  23.041   2.047  1.00  0.00    -0.237 OA
ATOM    107  O   UNL     1       4.831  21.796   0.574  1.00  0.00    -0.744 OA
ENDBRANCH 101 104
ENDBRANCH  74  97
ENDBRANCH  48  49
ENDBRANCH  40  43
ENDBRANCH  38  39
ENDBRANCH  37  38
ENDBRANCH   1  37
TORSDOF 21
