REMARK SMILES O=C(NCCCCNC(=O)c1cc(/C=C/c2cc(O)cc(O)c2)ccc1O)c1ccc(-c2c3nc(c(-c4cccc(S(=O)(=O)[O-])c4F)c4ccc([nH]4)c(-c4cccc(S(=O)(=O)[O-])c4F)c4nc(c(-c5cccc(S(=O)(=O)[O-])c5F)c5ccc2[nH]5)C=C4)C=C3)cc1
REMARK SMILES IDX 5 1 4 2 3 3 1 4 2 5 28 7 29 8 90 9 30 10 89 11 31 12 32 13
REMARK SMILES IDX 33 14 83 15 34 16 88 17 82 18 84 19 35 20 87 21 81 22 80 23
REMARK SMILES IDX 36 25 68 26 48 27 67 28 49 29 52 30 66 31 85 32 50 33 51 34
REMARK SMILES IDX 65 36 86 37 53 38 37 39 38 40 46 41 39 42 41 43 47 44 40 45
REMARK SMILES IDX 42 46 43 47 44 48 45 49 69 50 70 51 78 52 71 53 73 54 79 55
REMARK SMILES IDX 72 56 74 57 75 58 76 59 77 60 54 61 55 62 63 63 56 64 58 65
REMARK SMILES IDX 64 66 57 67 59 68 60 69 61 70 62 71 6 72 7 73 8 74 9 75
REMARK SMILES IDX 10 77 11 78 12 79 26 80 13 81 25 82 24 83 27 84 14 86 15 87
REMARK SMILES IDX 16 88 17 89 23 90 18 91 21 92 20 93 19 94 22 96
REMARK H PARENT 3 6 84 24 52 35 8 76 27 85 19 95 22 97
REMARK Flexibility Score: inf
ROOT
ATOM      1  C   UNL     1       4.848   1.157  -2.548  1.00  0.00     0.023 C 
ENDROOT
BRANCH   1   2
ATOM      2  C   UNL     1       4.529   0.954  -1.074  1.00  0.00     0.116 C 
BRANCH   2   3
ATOM      3  N   UNL     1       3.102   0.923  -0.791  1.00  0.00    -0.352 N 
ATOM      4  O   UNL     1       1.163   0.074  -0.013  1.00  0.00    -0.269 OA
ATOM      5  C   UNL     1       2.389   0.007  -0.053  1.00  0.00     0.251 C 
ATOM      6  H   UNL     1       2.575   1.658  -1.181  1.00  0.00     0.163 HD
BRANCH   5   7
ATOM      7  C   UNL     1       3.107  -1.077   0.655  1.00  0.00     0.039 A 
ATOM      8  C   UNL     1       4.257  -0.796   1.395  1.00  0.00     0.014 A 
ATOM      9  C   UNL     1       2.644  -2.391   0.551  1.00  0.00     0.014 A 
ATOM     10  C   UNL     1       5.031  -1.840   1.886  1.00  0.00     0.010 A 
ATOM     11  C   UNL     1       3.377  -3.435   1.128  1.00  0.00     0.010 A 
ATOM     12  C   UNL     1       4.597  -3.172   1.767  1.00  0.00    -0.014 A 
BRANCH  12  13
ATOM     13  C   UNL     1       5.413  -4.247   2.391  1.00  0.00     0.031 A 
ATOM     14  C   UNL     1       6.073  -5.321   1.570  1.00  0.00     0.074 A 
ATOM     15  C   UNL     1       5.588  -4.215   3.727  1.00  0.00     0.049 A 
ATOM     16  N   UNL     1       6.888  -6.267   1.965  1.00  0.00    -0.248 NA
ATOM     17  C   UNL     1       5.783  -5.348   0.128  1.00  0.00     0.031 C 
ATOM     18  C   UNL     1       4.948  -3.257   4.633  1.00  0.00     0.029 A 
ATOM     19  N   UNL     1       6.361  -4.987   4.555  1.00  0.00    -0.354 N 
ATOM     20  C   UNL     1       7.183  -7.019   0.834  1.00  0.00     0.074 A 
ATOM     21  C   UNL     1       6.451  -6.426  -0.265  1.00  0.00     0.031 C 
ATOM     22  C   UNL     1       5.390  -3.467   5.880  1.00  0.00     0.029 A 
ATOM     23  C   UNL     1       6.308  -4.600   5.873  1.00  0.00     0.049 A 
ATOM     24  H   UNL     1       6.902  -5.745   4.236  1.00  0.00     0.167 HD
ATOM     25  C   UNL     1       8.005  -8.091   0.720  1.00  0.00     0.034 A 
ATOM     26  C   UNL     1       6.928  -5.098   6.960  1.00  0.00     0.034 A 
ATOM     27  C   UNL     1       8.762  -8.652   1.809  1.00  0.00     0.049 A 
ATOM     28  C   UNL     1       7.879  -6.245   6.789  1.00  0.00     0.074 A 
ATOM     29  C   UNL     1       9.653  -9.711   1.781  1.00  0.00     0.029 A 
ATOM     30  N   UNL     1       8.724  -8.199   3.119  1.00  0.00    -0.354 N 
ATOM     31  N   UNL     1       8.236  -6.861   5.688  1.00  0.00    -0.248 NA
ATOM     32  C   UNL     1       8.535  -6.750   8.003  1.00  0.00     0.031 C 
ATOM     33  C   UNL     1      10.152  -9.900   3.076  1.00  0.00     0.029 A 
ATOM     34  C   UNL     1       9.575  -8.954   3.908  1.00  0.00     0.049 A 
ATOM     35  H   UNL     1       8.172  -7.449   3.441  1.00  0.00     0.167 HD
ATOM     36  C   UNL     1       9.160  -7.822   6.074  1.00  0.00     0.074 A 
ATOM     37  C   UNL     1       9.344  -7.674   7.504  1.00  0.00     0.031 C 
ATOM     38  C   UNL     1       9.776  -8.766   5.321  1.00  0.00     0.034 A 
BRANCH  25  39
ATOM     39  C   UNL     1       8.186  -8.701  -0.646  1.00  0.00     0.023 A 
ATOM     40  C   UNL     1       9.012  -8.050  -1.584  1.00  0.00     0.012 A 
ATOM     41  C   UNL     1       7.625  -9.953  -0.970  1.00  0.00     0.148 A 
ATOM     42  C   UNL     1       9.267  -8.626  -2.828  1.00  0.00     0.002 A 
ATOM     43  C   UNL     1       7.911 -10.537  -2.200  1.00  0.00     0.091 A 
ATOM     44  F   UNL     1       6.827 -10.547  -0.072  1.00  0.00    -0.205 F 
ATOM     45  C   UNL     1       8.726  -9.873  -3.131  1.00  0.00     0.022 A 
BRANCH  43  46
ATOM     46  S   UNL     1       7.318 -12.170  -2.662  1.00  0.00     0.127 S 
ATOM     47  O   UNL     1       6.318 -11.844  -3.677  1.00  0.00    -0.237 OA
ATOM     48  O   UNL     1       8.530 -12.803  -3.183  1.00  0.00    -0.237 OA
ATOM     49  O   UNL     1       6.798 -12.768  -1.440  1.00  0.00    -0.744 OA
ENDBRANCH  43  46
ENDBRANCH  25  39
BRANCH  26  50
ATOM     50  C   UNL     1       6.703  -4.465   8.289  1.00  0.00     0.023 A 
ATOM     51  C   UNL     1       7.745  -3.742   8.900  1.00  0.00     0.012 A 
ATOM     52  C   UNL     1       5.446  -4.521   8.920  1.00  0.00     0.148 A 
ATOM     53  C   UNL     1       7.543  -3.103  10.124  1.00  0.00     0.002 A 
ATOM     54  C   UNL     1       5.234  -3.829  10.107  1.00  0.00     0.091 A 
ATOM     55  F   UNL     1       4.469  -5.233   8.340  1.00  0.00    -0.205 F 
ATOM     56  C   UNL     1       6.285  -3.133  10.720  1.00  0.00     0.022 A 
BRANCH  54  57
ATOM     57  S   UNL     1       3.591  -3.700  10.822  1.00  0.00     0.127 S 
ATOM     58  O   UNL     1       3.577  -4.822  11.755  1.00  0.00    -0.237 OA
ATOM     59  O   UNL     1       3.622  -2.377  11.450  1.00  0.00    -0.237 OA
ATOM     60  O   UNL     1       2.685  -3.791   9.684  1.00  0.00    -0.744 OA
ENDBRANCH  54  57
ENDBRANCH  26  50
BRANCH  38  61
ATOM     61  C   UNL     1      10.695  -9.718   6.037  1.00  0.00     0.023 A 
ATOM     62  C   UNL     1      10.139 -10.736   6.838  1.00  0.00     0.012 A 
ATOM     63  C   UNL     1      12.092  -9.636   5.891  1.00  0.00     0.148 A 
ATOM     64  C   UNL     1      10.962 -11.637   7.511  1.00  0.00     0.002 A 
ATOM     65  C   UNL     1      12.905 -10.562   6.535  1.00  0.00     0.091 A 
ATOM     66  F   UNL     1      12.604  -8.646   5.146  1.00  0.00    -0.205 F 
ATOM     67  C   UNL     1      12.343 -11.556   7.353  1.00  0.00     0.022 A 
BRANCH  65  68
ATOM     68  S   UNL     1      14.688 -10.570   6.317  1.00  0.00     0.127 S 
ATOM     69  O   UNL     1      15.139  -9.851   7.507  1.00  0.00    -0.237 OA
ATOM     70  O   UNL     1      15.002 -12.000   6.314  1.00  0.00    -0.237 OA
ATOM     71  O   UNL     1      14.928  -9.903   5.044  1.00  0.00    -0.744 OA
ENDBRANCH  65  68
ENDBRANCH  38  61
ENDBRANCH  12  13
ENDBRANCH   5   7
ENDBRANCH   2   3
ENDBRANCH   1   2
BRANCH   1  72
ATOM     72  C   UNL     1       4.345   2.465  -3.154  1.00  0.00     0.023 C 
BRANCH  72  73
ATOM     73  C   UNL     1       4.693   3.725  -2.367  1.00  0.00     0.116 C 
BRANCH  73  74
ATOM     74  N   UNL     1       6.124   3.896  -2.185  1.00  0.00    -0.352 N 
ATOM     75  C   UNL     1       6.915   4.949  -2.569  1.00  0.00     0.255 C 
ATOM     76  H   UNL     1       6.587   3.159  -1.725  1.00  0.00     0.163 HD
ATOM     77  O   UNL     1       8.129   4.920  -2.389  1.00  0.00    -0.269 OA
BRANCH  75  78
ATOM     78  C   UNL     1       6.319   6.082  -3.297  1.00  0.00     0.082 A 
ATOM     79  C   UNL     1       6.761   6.288  -4.611  1.00  0.00     0.025 A 
ATOM     80  C   UNL     1       5.363   6.927  -2.732  1.00  0.00     0.128 A 
ATOM     81  C   UNL     1       6.221   7.315  -5.392  1.00  0.00    -0.025 A 
ATOM     82  C   UNL     1       4.804   7.944  -3.499  1.00  0.00     0.047 A 
ATOM     83  C   UNL     1       5.225   8.127  -4.823  1.00  0.00     0.012 A 
BRANCH  80  84
ATOM     84  O   UNL     1       4.961   6.749  -1.439  1.00  0.00    -0.507 OA
ATOM     85  H   UNL     1       5.337   6.064  -0.921  1.00  0.00     0.293 HD
ENDBRANCH  80  84
BRANCH  81  86
ATOM     86  C   UNL     1       6.637   7.576  -6.783  1.00  0.00     0.009 C 
ATOM     87  C   UNL     1       7.662   6.982  -7.417  1.00  0.00     0.009 C 
BRANCH  87  88
ATOM     88  C   UNL     1       8.058   7.303  -8.795  1.00  0.00    -0.018 A 
ATOM     89  C   UNL     1       8.177   8.629  -9.235  1.00  0.00     0.054 A 
ATOM     90  C   UNL     1       8.398   6.258  -9.665  1.00  0.00     0.054 A 
ATOM     91  C   UNL     1       8.610   8.893 -10.533  1.00  0.00     0.119 A 
ATOM     92  C   UNL     1       8.826   6.545 -10.960  1.00  0.00     0.119 A 
ATOM     93  C   UNL     1       8.931   7.858 -11.402  1.00  0.00     0.092 A 
BRANCH  91  94
ATOM     94  O   UNL     1       8.742  10.173 -10.986  1.00  0.00    -0.508 OA
ATOM     95  H   UNL     1       8.533  10.893 -10.425  1.00  0.00     0.293 HD
ENDBRANCH  91  94
BRANCH  92  96
ATOM     96  O   UNL     1       9.163   5.551 -11.832  1.00  0.00    -0.508 OA
ATOM     97  H   UNL     1       9.448   5.765 -12.699  1.00  0.00     0.293 HD
ENDBRANCH  92  96
ENDBRANCH  87  88
ENDBRANCH  81  86
ENDBRANCH  75  78
ENDBRANCH  73  74
ENDBRANCH  72  73
ENDBRANCH   1  72
TORSDOF 19
