REMARK SMILES Cc1cnn(C2(C(=O)NCCCCNC(=O)c3ccc(-c4c5nc(c(-c6cccc(S(=O)(=O)[O-])c6F)c6ccc([nH]6)c(-c6cccc(S(=O)(=O)[O-])c6F)c6nc(c(-c7cccc(S(=O)(=O)[O-])c7F)c7ccc4[nH]7)C=C6)C=C5)cc3)CCN(C(=O)c3cc4ccccc4[nH]3)CC2)c1
REMARK SMILES IDX 12 1 11 2 10 3 9 4 7 5 8 6 6 8 80 9 95 10 81 11 94 12 82 13
REMARK SMILES IDX 83 14 84 15 5 16 1 17 2 18 3 19 96 20 4 21 85 22 86 23 93 24
REMARK SMILES IDX 87 25 92 26 88 28 91 29 89 30 90 31 13 32 14 33 15 34 16 36
REMARK SMILES IDX 17 37 18 38 79 39 19 40 78 41 20 42 21 43 22 44 72 45 23 46
REMARK SMILES IDX 77 47 71 48 73 49 24 50 76 51 70 52 69 53 25 55 57 56 37 57
REMARK SMILES IDX 56 58 38 59 41 60 55 61 74 62 39 63 40 64 54 66 75 67 42 68
REMARK SMILES IDX 26 69 27 70 35 71 28 72 30 73 36 74 29 75 31 76 32 77 33 78
REMARK SMILES IDX 34 79 58 80 59 81 67 82 60 83 62 84 68 85 61 86 63 87 64 88
REMARK SMILES IDX 65 89 66 90 43 91 44 92 52 93 45 94 47 95 53 96 46 97 48 98
REMARK SMILES IDX 49 99 50 100 51 101
REMARK H PARENT 9 7 93 27 14 35 73 54 41 65
REMARK Flexibility Score: inf
ROOT
ATOM      1  C   UNL     1      -3.216   4.671   7.842  1.00  0.00     0.023 C 
ENDROOT
BRANCH   1   2
ATOM      2  C   UNL     1      -2.418   4.916   6.554  1.00  0.00     0.023 C 
BRANCH   2   3
ATOM      3  C   UNL     1      -1.030   4.262   6.471  1.00  0.00     0.116 C 
BRANCH   3   4
ATOM      4  N   UNL     1      -1.105   2.809   6.408  1.00  0.00    -0.354 N 
ATOM      5  C   UNL     1      -0.855   1.885   5.413  1.00  0.00     0.248 C 
ATOM      6  O   UNL     1      -1.192   0.741   5.721  1.00  0.00    -0.272 OA
ATOM      7  H   UNL     1      -1.394   2.398   7.255  1.00  0.00     0.163 HD
BRANCH   5   8
ATOM      8  C   UNL     1      -0.251   2.312   4.028  1.00  0.00     0.144 C 
ATOM      9  C   UNL     1      -1.291   3.248   3.362  1.00  0.00     0.062 C 
ATOM     10  C   UNL     1       1.132   2.947   4.328  1.00  0.00     0.062 C 
ATOM     11  C   UNL     1      -0.716   4.315   2.450  1.00  0.00     0.123 C 
ATOM     12  C   UNL     1       1.568   4.061   3.389  1.00  0.00     0.123 C 
ATOM     13  N   UNL     1       0.475   4.947   2.990  1.00  0.00    -0.337 N 
ATOM     14  C   UNL     1       0.558   6.343   2.976  1.00  0.00     0.270 C 
ATOM     15  O   UNL     1      -0.444   7.051   2.905  1.00  0.00    -0.267 OA
BRANCH   8  16
ATOM     16  N   UNL     1      -0.025   1.187   3.058  1.00  0.00    -0.257 N 
ATOM     17  C   UNL     1       1.045  -0.330  -0.106  1.00  0.00     0.048 C 
ATOM     18  C   UNL     1       0.525   0.050   1.223  1.00  0.00    -0.013 A 
ATOM     19  C   UNL     1      -0.119  -0.748   2.183  1.00  0.00     0.138 A 
ATOM     20  C   UNL     1       0.562   1.293   1.811  1.00  0.00     0.113 A 
ATOM     21  N   UNL     1      -0.549  -0.040   3.226  1.00  0.00    -0.180 NA
ENDBRANCH   8  16
BRANCH  14  22
ATOM     22  C   UNL     1       1.875   6.933   3.059  1.00  0.00     0.105 A 
ATOM     23  C   UNL     1       3.057   6.593   2.421  1.00  0.00     0.042 A 
ATOM     24  N   UNL     1       2.153   8.038   3.831  1.00  0.00    -0.351 N 
ATOM     25  C   UNL     1       4.100   7.377   2.976  1.00  0.00     0.000 A 
ATOM     26  C   UNL     1       3.507   8.279   3.857  1.00  0.00     0.046 A 
ATOM     27  H   UNL     1       1.477   8.580   4.299  1.00  0.00     0.167 HD
ATOM     28  C   UNL     1       5.499   7.379   2.831  1.00  0.00     0.010 A 
ATOM     29  C   UNL     1       4.250   9.202   4.600  1.00  0.00     0.026 A 
ATOM     30  C   UNL     1       6.259   8.276   3.587  1.00  0.00     0.001 A 
ATOM     31  C   UNL     1       5.641   9.176   4.455  1.00  0.00     0.002 A 
ENDBRANCH  14  22
ENDBRANCH   5   8
ENDBRANCH   3   4
ENDBRANCH   2   3
ENDBRANCH   1   2
BRANCH   1  32
ATOM     32  C   UNL     1      -2.580   5.248   9.096  1.00  0.00     0.116 C 
BRANCH  32  33
ATOM     33  N   UNL     1      -2.420   6.708   9.041  1.00  0.00    -0.352 N 
ATOM     34  C   UNL     1      -1.779   7.545   9.944  1.00  0.00     0.251 C 
ATOM     35  H   UNL     1      -2.821   7.151   8.259  1.00  0.00     0.163 HD
ATOM     36  O   UNL     1      -2.014   8.740   9.978  1.00  0.00    -0.269 OA
BRANCH  34  37
ATOM     37  C   UNL     1      -0.778   6.950  10.848  1.00  0.00     0.039 A 
ATOM     38  C   UNL     1      -0.624   7.346  12.182  1.00  0.00     0.014 A 
ATOM     39  C   UNL     1       0.004   5.939  10.310  1.00  0.00     0.014 A 
ATOM     40  C   UNL     1       0.293   6.662  12.978  1.00  0.00     0.010 A 
ATOM     41  C   UNL     1       0.697   5.117  11.142  1.00  0.00     0.010 A 
ATOM     42  C   UNL     1       0.944   5.548  12.437  1.00  0.00    -0.014 A 
BRANCH  42  43
ATOM     43  C   UNL     1       1.896   4.740  13.176  1.00  0.00     0.031 A 
ATOM     44  C   UNL     1       1.298   3.914  14.251  1.00  0.00     0.074 A 
ATOM     45  C   UNL     1       3.120   4.510  12.649  1.00  0.00     0.049 A 
ATOM     46  N   UNL     1       1.486   4.027  15.524  1.00  0.00    -0.248 NA
ATOM     47  C   UNL     1       0.236   2.961  13.891  1.00  0.00     0.031 C 
ATOM     48  C   UNL     1       3.648   4.989  11.360  1.00  0.00     0.029 A 
ATOM     49  N   UNL     1       4.062   3.614  13.039  1.00  0.00    -0.354 N 
ATOM     50  C   UNL     1       0.769   2.977  16.093  1.00  0.00     0.074 A 
ATOM     51  C   UNL     1      -0.182   2.568  15.096  1.00  0.00     0.031 C 
ATOM     52  C   UNL     1       4.641   4.171  10.955  1.00  0.00     0.029 A 
ATOM     53  C   UNL     1       4.912   3.213  12.009  1.00  0.00     0.049 A 
ATOM     54  H   UNL     1       4.139   3.280  13.961  1.00  0.00     0.167 HD
ATOM     55  C   UNL     1       1.231   2.325  17.198  1.00  0.00     0.034 A 
ATOM     56  C   UNL     1       5.692   2.103  11.998  1.00  0.00     0.034 A 
ATOM     57  C   UNL     1       2.335   3.045  17.795  1.00  0.00     0.049 A 
ATOM     58  C   UNL     1       5.866   1.686  13.413  1.00  0.00     0.074 A 
ATOM     59  C   UNL     1       2.530   4.340  18.235  1.00  0.00     0.029 A 
ATOM     60  N   UNL     1       3.595   2.521  17.608  1.00  0.00    -0.354 N 
ATOM     61  N   UNL     1       6.473   2.421  14.306  1.00  0.00    -0.248 NA
ATOM     62  C   UNL     1       4.943   0.694  13.944  1.00  0.00     0.031 C 
ATOM     63  C   UNL     1       3.844   4.677  17.793  1.00  0.00     0.029 A 
ATOM     64  C   UNL     1       4.407   3.545  17.201  1.00  0.00     0.049 A 
ATOM     65  H   UNL     1       3.861   1.583  17.742  1.00  0.00     0.167 HD
ATOM     66  C   UNL     1       5.666   2.325  15.434  1.00  0.00     0.074 A 
ATOM     67  C   UNL     1       4.809   1.163  15.189  1.00  0.00     0.031 C 
ATOM     68  C   UNL     1       5.533   3.370  16.307  1.00  0.00     0.034 A 
BRANCH  55  69
ATOM     69  C   UNL     1       0.993   0.862  17.531  1.00  0.00     0.023 A 
ATOM     70  C   UNL     1       1.490   0.411  18.777  1.00  0.00     0.012 A 
ATOM     71  C   UNL     1       0.576  -0.136  16.620  1.00  0.00     0.148 A 
ATOM     72  C   UNL     1       1.653  -0.948  19.061  1.00  0.00     0.002 A 
ATOM     73  C   UNL     1       0.667  -1.487  16.937  1.00  0.00     0.091 A 
ATOM     74  F   UNL     1       0.207   0.186  15.381  1.00  0.00    -0.205 F 
ATOM     75  C   UNL     1       1.241  -1.900  18.140  1.00  0.00     0.022 A 
BRANCH  73  76
ATOM     76  S   UNL     1       0.105  -2.760  15.797  1.00  0.00     0.127 S 
ATOM     77  O   UNL     1       1.374  -3.283  15.299  1.00  0.00    -0.237 OA
ATOM     78  O   UNL     1      -0.630  -3.656  16.689  1.00  0.00    -0.237 OA
ATOM     79  O   UNL     1      -0.732  -2.071  14.822  1.00  0.00    -0.744 OA
ENDBRANCH  73  76
ENDBRANCH  55  69
BRANCH  56  80
ATOM     80  C   UNL     1       6.019   1.226  10.844  1.00  0.00     0.023 A 
ATOM     81  C   UNL     1       7.072   0.294  10.941  1.00  0.00     0.012 A 
ATOM     82  C   UNL     1       5.153   1.123   9.729  1.00  0.00     0.148 A 
ATOM     83  C   UNL     1       7.243  -0.709   9.975  1.00  0.00     0.002 A 
ATOM     84  C   UNL     1       5.346   0.148   8.756  1.00  0.00     0.091 A 
ATOM     85  F   UNL     1       4.072   1.911   9.667  1.00  0.00    -0.205 F 
ATOM     86  C   UNL     1       6.381  -0.782   8.882  1.00  0.00     0.022 A 
BRANCH  84  87
ATOM     87  S   UNL     1       4.261   0.031   7.326  1.00  0.00     0.127 S 
ATOM     88  O   UNL     1       5.200  -0.286   6.249  1.00  0.00    -0.237 OA
ATOM     89  O   UNL     1       3.375  -1.060   7.714  1.00  0.00    -0.237 OA
ATOM     90  O   UNL     1       3.641   1.347   7.195  1.00  0.00    -0.744 OA
ENDBRANCH  84  87
ENDBRANCH  56  80
BRANCH  68  91
ATOM     91  C   UNL     1       6.444   4.567  16.161  1.00  0.00     0.023 A 
ATOM     92  C   UNL     1       6.451   5.375  15.004  1.00  0.00     0.012 A 
ATOM     93  C   UNL     1       7.140   5.015  17.296  1.00  0.00     0.148 A 
ATOM     94  C   UNL     1       7.142   6.590  14.974  1.00  0.00     0.002 A 
ATOM     95  C   UNL     1       7.787   6.246  17.280  1.00  0.00     0.091 A 
ATOM     96  F   UNL     1       7.124   4.243  18.393  1.00  0.00    -0.205 F 
ATOM     97  C   UNL     1       7.797   7.033  16.119  1.00  0.00     0.022 A 
BRANCH  95  98
ATOM     98  S   UNL     1       8.530   6.930  18.762  1.00  0.00     0.127 S 
ATOM     99  O   UNL     1       9.954   6.717  18.514  1.00  0.00    -0.237 OA
ATOM    100  O   UNL     1       8.104   8.330  18.713  1.00  0.00    -0.237 OA
ATOM    101  O   UNL     1       7.966   6.178  19.876  1.00  0.00    -0.744 OA
ENDBRANCH  95  98
ENDBRANCH  68  91
ENDBRANCH  42  43
ENDBRANCH  34  37
ENDBRANCH  32  33
ENDBRANCH   1  32
TORSDOF 16
