REMARK SMILES CC1(C)[C@H]2CC[C@]1(C)[C@](O)(CC(=O)NCCCCNC(=O)c1ccc(-c3c4nc(c(-c5cccc(S(=O)(=O)[O-])c5F)c5ccc([nH]5)c(-c5cccc(S(=O)(=O)[O-])c5F)c5nc(c(-c6cccc(S(=O)(=O)[O-])c6F)c6ccc3[nH]6)C=C5)C=C4)cc1)C2
REMARK SMILES IDX 17 1 16 2 15 3 14 4 12 5 13 6 11 8 9 9 1 10 2 11 3 12 4 13
REMARK SMILES IDX 7 14 5 15 85 16 6 17 8 18 10 19 18 21 19 22 20 23 21 25
REMARK SMILES IDX 22 26 23 27 84 28 24 29 83 30 25 31 26 32 27 33 77 34 28 35
REMARK SMILES IDX 82 36 76 37 78 38 29 39 81 40 75 41 74 42 30 44 62 45 42 46
REMARK SMILES IDX 61 47 43 48 46 49 60 50 79 51 44 52 45 53 59 55 80 56 47 57
REMARK SMILES IDX 31 58 32 59 40 60 33 61 35 62 41 63 34 64 36 65 37 66 38 67
REMARK SMILES IDX 39 68 63 69 64 70 72 71 65 72 67 73 73 74 66 75 68 76 69 77
REMARK SMILES IDX 70 78 71 79 48 80 49 81 57 82 50 83 52 84 58 85 51 86 53 87
REMARK SMILES IDX 54 88 55 89 56 90
REMARK H PARENT 14 7 10 20 19 24 78 43 46 54
REMARK Flexibility Score: inf
ROOT
ATOM      1  C   UNL     1      -3.100   6.229   0.985  1.00  0.00     0.023 C 
ENDROOT
BRANCH   1   2
ATOM      2  C   UNL     1      -1.883   5.582   1.632  1.00  0.00     0.023 C 
BRANCH   2   3
ATOM      3  C   UNL     1      -2.108   5.019   3.035  1.00  0.00     0.116 C 
BRANCH   3   4
ATOM      4  N   UNL     1      -3.037   3.902   3.049  1.00  0.00    -0.356 N 
ATOM      5  C   UNL     1      -2.795   2.580   3.279  1.00  0.00     0.222 C 
ATOM      6  O   UNL     1      -3.731   1.782   3.233  1.00  0.00    -0.275 OA
ATOM      7  H   UNL     1      -3.977   4.133   2.867  1.00  0.00     0.163 HD
BRANCH   5   8
ATOM      8  C   UNL     1      -1.395   2.109   3.611  1.00  0.00     0.135 C 
BRANCH   8   9
ATOM      9  C   UNL     1      -0.390   2.045   2.438  1.00  0.00     0.080 C 
ATOM     10  C   UNL     1       1.454  -0.498   0.082  1.00  0.00     0.012 C 
ATOM     11  C   UNL     1       0.875   0.785   0.712  1.00  0.00    -0.024 C 
ATOM     12  C   UNL     1       1.953   1.867   0.479  1.00  0.00     0.012 C 
ATOM     13  C   UNL     1      -0.513   1.158   0.153  1.00  0.00    -0.002 C 
ATOM     14  C   UNL     1       0.290   0.640   2.168  1.00  0.00     0.002 C 
ATOM     15  C   UNL     1      -1.421  -0.011   0.577  1.00  0.00     0.005 C 
ATOM     16  C   UNL     1      -0.923   2.369   1.014  1.00  0.00     0.040 C 
ATOM     17  C   UNL     1      -0.848  -0.405   1.945  1.00  0.00     0.010 C 
ATOM     18  C   UNL     1       1.289   0.190   3.222  1.00  0.00     0.015 C 
BRANCH   9  19
ATOM     19  O   UNL     1       0.623   3.017   2.761  1.00  0.00    -0.389 OA
ATOM     20  H   UNL     1       1.294   3.030   2.061  1.00  0.00     0.211 HD
ENDBRANCH   9  19
ENDBRANCH   8   9
ENDBRANCH   5   8
ENDBRANCH   3   4
ENDBRANCH   2   3
ENDBRANCH   1   2
BRANCH   1  21
ATOM     21  C   UNL     1      -3.628   7.438   1.732  1.00  0.00     0.116 C 
BRANCH  21  22
ATOM     22  N   UNL     1      -2.618   8.476   1.902  1.00  0.00    -0.352 N 
ATOM     23  C   UNL     1      -2.698   9.813   1.599  1.00  0.00     0.251 C 
ATOM     24  H   UNL     1      -1.762   8.178   2.286  1.00  0.00     0.163 HD
ATOM     25  O   UNL     1      -1.700  10.526   1.659  1.00  0.00    -0.269 OA
BRANCH  23  26
ATOM     26  C   UNL     1      -3.997  10.371   1.176  1.00  0.00     0.039 A 
ATOM     27  C   UNL     1      -4.056  11.185   0.043  1.00  0.00     0.014 A 
ATOM     28  C   UNL     1      -5.160  10.031   1.870  1.00  0.00     0.014 A 
ATOM     29  C   UNL     1      -5.300  11.600  -0.436  1.00  0.00     0.010 A 
ATOM     30  C   UNL     1      -6.396  10.358   1.334  1.00  0.00     0.010 A 
ATOM     31  C   UNL     1      -6.479  11.158   0.185  1.00  0.00    -0.014 A 
BRANCH  31  32
ATOM     32  C   UNL     1      -7.820  11.524  -0.332  1.00  0.00     0.031 A 
ATOM     33  C   UNL     1      -8.769  12.294   0.546  1.00  0.00     0.074 A 
ATOM     34  C   UNL     1      -8.222  11.069  -1.535  1.00  0.00     0.049 A 
ATOM     35  N   UNL     1     -10.015  12.620   0.327  1.00  0.00    -0.248 NA
ATOM     36  C   UNL     1      -8.264  12.717   1.865  1.00  0.00     0.031 C 
ATOM     37  C   UNL     1      -7.426  10.232  -2.436  1.00  0.00     0.029 A 
ATOM     38  N   UNL     1      -9.416  11.221  -2.194  1.00  0.00    -0.354 N 
ATOM     39  C   UNL     1     -10.454  13.238   1.492  1.00  0.00     0.074 A 
ATOM     40  C   UNL     1      -9.357  13.205   2.431  1.00  0.00     0.031 C 
ATOM     41  C   UNL     1      -8.150   9.951  -3.532  1.00  0.00     0.029 A 
ATOM     42  C   UNL     1      -9.468  10.564  -3.401  1.00  0.00     0.049 A 
ATOM     43  H   UNL     1     -10.164  11.752  -1.837  1.00  0.00     0.167 HD
ATOM     44  C   UNL     1     -11.651  13.816   1.745  1.00  0.00     0.034 A 
ATOM     45  C   UNL     1     -10.467  10.467  -4.300  1.00  0.00     0.034 A 
ATOM     46  C   UNL     1     -12.710  13.913   0.780  1.00  0.00     0.049 A 
ATOM     47  C   UNL     1     -11.760  11.188  -4.028  1.00  0.00     0.074 A 
ATOM     48  C   UNL     1     -13.920  14.573   0.894  1.00  0.00     0.029 A 
ATOM     49  N   UNL     1     -12.683  13.337  -0.481  1.00  0.00    -0.354 N 
ATOM     50  N   UNL     1     -12.098  11.911  -2.988  1.00  0.00    -0.248 NA
ATOM     51  C   UNL     1     -12.796  11.113  -5.068  1.00  0.00     0.031 C 
ATOM     52  C   UNL     1     -14.629  14.388  -0.298  1.00  0.00     0.029 A 
ATOM     53  C   UNL     1     -13.854  13.625  -1.157  1.00  0.00     0.049 A 
ATOM     54  H   UNL     1     -11.939  12.802  -0.841  1.00  0.00     0.167 HD
ATOM     55  C   UNL     1     -13.368  12.405  -3.262  1.00  0.00     0.074 A 
ATOM     56  C   UNL     1     -13.730  11.916  -4.577  1.00  0.00     0.031 C 
ATOM     57  C   UNL     1     -14.169  13.180  -2.490  1.00  0.00     0.034 A 
BRANCH  44  58
ATOM     58  C   UNL     1     -11.847  14.455   3.094  1.00  0.00     0.023 A 
ATOM     59  C   UNL     1     -11.163  15.650   3.400  1.00  0.00     0.012 A 
ATOM     60  C   UNL     1     -12.733  13.905   4.040  1.00  0.00     0.148 A 
ATOM     61  C   UNL     1     -11.328  16.268   4.638  1.00  0.00     0.002 A 
ATOM     62  C   UNL     1     -12.927  14.551   5.256  1.00  0.00     0.091 A 
ATOM     63  F   UNL     1     -13.355  12.755   3.743  1.00  0.00    -0.205 F 
ATOM     64  C   UNL     1     -12.217  15.725   5.561  1.00  0.00     0.022 A 
BRANCH  62  65
ATOM     65  S   UNL     1     -14.108  13.974   6.480  1.00  0.00     0.127 S 
ATOM     66  O   UNL     1     -13.224  13.431   7.510  1.00  0.00    -0.237 OA
ATOM     67  O   UNL     1     -14.793  15.212   6.856  1.00  0.00    -0.237 OA
ATOM     68  O   UNL     1     -14.949  13.001   5.797  1.00  0.00    -0.744 OA
ENDBRANCH  62  65
ENDBRANCH  44  58
BRANCH  45  69
ATOM     69  C   UNL     1     -10.251   9.731  -5.578  1.00  0.00     0.023 A 
ATOM     70  C   UNL     1     -10.140  10.460  -6.778  1.00  0.00     0.012 A 
ATOM     71  C   UNL     1     -10.119   8.330  -5.612  1.00  0.00     0.148 A 
ATOM     72  C   UNL     1      -9.932   9.806  -7.993  1.00  0.00     0.002 A 
ATOM     73  C   UNL     1      -9.860   7.688  -6.818  1.00  0.00     0.091 A 
ATOM     74  F   UNL     1     -10.240   7.652  -4.462  1.00  0.00    -0.205 F 
ATOM     75  C   UNL     1      -9.782   8.422  -8.012  1.00  0.00     0.022 A 
BRANCH  73  76
ATOM     76  S   UNL     1      -9.524   5.926  -6.916  1.00  0.00     0.127 S 
ATOM     77  O   UNL     1     -10.759   5.418  -7.507  1.00  0.00    -0.237 OA
ATOM     78  O   UNL     1      -8.357   5.887  -7.798  1.00  0.00    -0.237 OA
ATOM     79  O   UNL     1      -9.252   5.505  -5.548  1.00  0.00    -0.744 OA
ENDBRANCH  73  76
ENDBRANCH  45  69
BRANCH  57  80
ATOM     80  C   UNL     1     -15.507  13.578  -3.052  1.00  0.00     0.023 A 
ATOM     81  C   UNL     1     -16.545  12.628  -3.120  1.00  0.00     0.012 A 
ATOM     82  C   UNL     1     -15.762  14.912  -3.425  1.00  0.00     0.148 A 
ATOM     83  C   UNL     1     -17.809  12.994  -3.577  1.00  0.00     0.002 A 
ATOM     84  C   UNL     1     -17.037  15.280  -3.836  1.00  0.00     0.091 A 
ATOM     85  F   UNL     1     -14.755  15.796  -3.371  1.00  0.00    -0.205 F 
ATOM     86  C   UNL     1     -18.059  14.320  -3.922  1.00  0.00     0.022 A 
BRANCH  84  87
ATOM     87  S   UNL     1     -17.472  16.983  -4.206  1.00  0.00     0.127 S 
ATOM     88  O   UNL     1     -17.545  16.961  -5.666  1.00  0.00    -0.237 OA
ATOM     89  O   UNL     1     -18.762  17.130  -3.532  1.00  0.00    -0.237 OA
ATOM     90  O   UNL     1     -16.404  17.799  -3.643  1.00  0.00    -0.744 OA
ENDBRANCH  84  87
ENDBRANCH  57  80
ENDBRANCH  31  32
ENDBRANCH  23  26
ENDBRANCH  21  22
ENDBRANCH   1  21
TORSDOF 16
