REMARK SMILES COc1cccc([C@H]2Oc3ccccc3[C@@H]3CC(c4cccs4)=NN23)c1OCC(=O)NCCCCNC(=O)c1ccc(-c2c3nc(c(-c4cccc(S(=O)(=O)[O-])c4F)c4ccc([nH]4)c(-c4cccc(S(=O)(=O)[O-])c4F)c4nc(c(-c5cccc(S(=O)(=O)[O-])c5F)c5ccc2[nH]5)C=C4)C=C3)cc1
REMARK SMILES IDX 33 1 32 2 31 3 29 4 30 5 28 7 27 8 26 9 3 10 4 11 5 12 7 13
REMARK SMILES IDX 6 14 2 15 1 16 8 17 9 18 25 19 10 20 16 21 24 22 11 23 15 24
REMARK SMILES IDX 17 25 18 26 12 27 14 28 13 29 19 30 20 31 23 32 21 33 22 34
REMARK SMILES IDX 34 35 35 36 36 37 37 38 38 40 39 41 40 42 101 43 41 44
REMARK SMILES IDX 100 45 42 46 43 47 44 48 94 49 45 50 99 51 93 52 95 53 46 54
REMARK SMILES IDX 98 55 92 56 91 57 47 59 79 60 59 61 78 62 60 63 63 64 77 65
REMARK SMILES IDX 96 66 61 67 62 68 76 70 97 71 64 72 48 73 49 74 57 75 50 76
REMARK SMILES IDX 52 77 58 78 51 79 53 80 54 81 55 82 56 83 80 84 81 85 89 86
REMARK SMILES IDX 82 87 84 88 90 89 83 90 85 91 86 92 87 93 88 94 65 95 66 96
REMARK SMILES IDX 74 97 67 98 69 99 75 100 68 101 70 102 71 103 72 104 73 105
REMARK H PARENT 31 6 36 39 95 58 63 69
REMARK Flexibility Score: inf
ROOT
ATOM      1  C   UNL     1       6.824   2.896   3.174  1.00  0.00     0.023 C 
ENDROOT
BRANCH   1   2
ATOM      2  C   UNL     1       6.146   3.975   4.006  1.00  0.00     0.116 C 
BRANCH   2   3
ATOM      3  N   UNL     1       5.248   4.795   3.225  1.00  0.00    -0.353 N 
ATOM      4  C   UNL     1       3.895   4.911   3.370  1.00  0.00     0.257 C 
ATOM      5  O   UNL     1       3.327   5.827   2.769  1.00  0.00    -0.271 OA
ATOM      6  H   UNL     1       5.659   5.331   2.508  1.00  0.00     0.163 HD
BRANCH   4   7
ATOM      7  C   UNL     1       3.147   3.973   4.334  1.00  0.00     0.329 C 
BRANCH   7   8
ATOM      8  O   UNL     1       3.438   2.585   4.307  1.00  0.00    -0.479 OA
BRANCH   8   9
ATOM      9  C   UNL     1       3.208   1.853   3.179  1.00  0.00     0.170 A 
ATOM     10  C   UNL     1       2.361   2.217   2.099  1.00  0.00     0.161 A 
ATOM     11  C   UNL     1       2.200   1.381   0.979  1.00  0.00     0.050 A 
ATOM     12  C   UNL     1       2.901   0.198   0.877  1.00  0.00     0.005 A 
ATOM     13  C   UNL     1       3.888   0.629   3.107  1.00  0.00     0.061 A 
ATOM     14  C   UNL     1       3.725  -0.164   1.925  1.00  0.00     0.014 A 
BRANCH  10  15
ATOM     15  O   UNL     1       1.599   3.359   2.163  1.00  0.00    -0.493 OA
ATOM     16  C   UNL     1       1.651   4.146   0.967  1.00  0.00     0.278 C 
ENDBRANCH  10  15
BRANCH  13  17
ATOM     17  C   UNL     1       4.837  -0.029   4.095  1.00  0.00     0.324 C 
ATOM     18  O   UNL     1       6.139  -0.097   3.395  1.00  0.00    -0.464 OA
ATOM     19  N   UNL     1       5.106   0.234   5.524  1.00  0.00    -0.246 NA
ATOM     20  C   UNL     1       6.689  -1.330   3.678  1.00  0.00     0.128 A 
ATOM     21  C   UNL     1       6.132  -0.763   5.961  1.00  0.00     0.146 C 
ATOM     22  N   UNL     1       4.220   0.532   6.529  1.00  0.00    -0.177 NA
ATOM     23  C   UNL     1       7.159  -2.092   2.625  1.00  0.00     0.047 A 
ATOM     24  C   UNL     1       6.395  -1.848   4.942  1.00  0.00     0.019 A 
ATOM     25  C   UNL     1       5.668  -1.175   7.329  1.00  0.00     0.091 C 
ATOM     26  C   UNL     1       4.679  -0.078   7.586  1.00  0.00     0.080 C 
ATOM     27  C   UNL     1       7.039  -3.467   2.742  1.00  0.00     0.004 A 
ATOM     28  C   UNL     1       6.183  -3.218   5.016  1.00  0.00     0.010 A 
ATOM     29  C   UNL     1       6.465  -4.017   3.896  1.00  0.00     0.001 A 
BRANCH  26  30
ATOM     30  C   UNL     1       4.349   0.180   8.964  1.00  0.00     0.050 A 
ATOM     31  C   UNL     1       5.232   0.617   9.936  1.00  0.00     0.022 A 
ATOM     32  S   UNL     1       2.836  -0.231   9.622  1.00  0.00    -0.142 S 
ATOM     33  C   UNL     1       4.677   0.553  11.244  1.00  0.00     0.012 A 
ATOM     34  C   UNL     1       3.380   0.091  11.220  1.00  0.00     0.065 A 
ENDBRANCH  26  30
ENDBRANCH  13  17
ENDBRANCH   8   9
ENDBRANCH   7   8
ENDBRANCH   4   7
ENDBRANCH   2   3
ENDBRANCH   1   2
BRANCH   1  35
ATOM     35  C   UNL     1       7.762   3.373   2.072  1.00  0.00     0.023 C 
BRANCH  35  36
ATOM     36  C   UNL     1       8.726   4.478   2.469  1.00  0.00     0.116 C 
BRANCH  36  37
ATOM     37  N   UNL     1       9.505   4.161   3.657  1.00  0.00    -0.352 N 
ATOM     38  C   UNL     1      10.847   4.338   3.882  1.00  0.00     0.251 C 
ATOM     39  H   UNL     1       8.999   3.764   4.403  1.00  0.00     0.163 HD
ATOM     40  O   UNL     1      11.360   3.928   4.921  1.00  0.00    -0.269 OA
BRANCH  38  41
ATOM     41  C   UNL     1      11.674   4.986   2.845  1.00  0.00     0.039 A 
ATOM     42  C   UNL     1      12.866   4.371   2.458  1.00  0.00     0.014 A 
ATOM     43  C   UNL     1      11.249   6.163   2.223  1.00  0.00     0.014 A 
ATOM     44  C   UNL     1      13.600   4.902   1.397  1.00  0.00     0.010 A 
ATOM     45  C   UNL     1      11.935   6.638   1.111  1.00  0.00     0.010 A 
ATOM     46  C   UNL     1      13.121   6.018   0.690  1.00  0.00    -0.014 A 
BRANCH  46  47
ATOM     47  C   UNL     1      13.845   6.550  -0.491  1.00  0.00     0.031 A 
ATOM     48  C   UNL     1      14.389   7.953  -0.470  1.00  0.00     0.074 A 
ATOM     49  C   UNL     1      13.941   5.802  -1.609  1.00  0.00     0.049 A 
ATOM     50  N   UNL     1      14.993   8.617  -1.421  1.00  0.00    -0.248 NA
ATOM     51  C   UNL     1      14.210   8.721   0.775  1.00  0.00     0.031 C 
ATOM     52  C   UNL     1      13.387   4.457  -1.780  1.00  0.00     0.029 A 
ATOM     53  N   UNL     1      14.518   6.077  -2.824  1.00  0.00    -0.354 N 
ATOM     54  C   UNL     1      15.235   9.884  -0.904  1.00  0.00     0.074 A 
ATOM     55  C   UNL     1      14.679   9.912   0.430  1.00  0.00     0.031 C 
ATOM     56  C   UNL     1      13.655   4.023  -3.022  1.00  0.00     0.029 A 
ATOM     57  C   UNL     1      14.369   5.068  -3.748  1.00  0.00     0.049 A 
ATOM     58  H   UNL     1      14.993   6.918  -3.016  1.00  0.00     0.167 HD
ATOM     59  C   UNL     1      15.891  10.921  -1.475  1.00  0.00     0.034 A 
ATOM     60  C   UNL     1      14.756   4.999  -5.037  1.00  0.00     0.034 A 
ATOM     61  C   UNL     1      16.480  10.876  -2.786  1.00  0.00     0.049 A 
ATOM     62  C   UNL     1      15.509   6.158  -5.635  1.00  0.00     0.074 A 
ATOM     63  C   UNL     1      17.230  11.848  -3.424  1.00  0.00     0.029 A 
ATOM     64  N   UNL     1      16.384   9.805  -3.660  1.00  0.00    -0.354 N 
ATOM     65  N   UNL     1      15.861   7.290  -5.077  1.00  0.00    -0.248 NA
ATOM     66  C   UNL     1      15.951   6.014  -7.030  1.00  0.00     0.031 C 
ATOM     67  C   UNL     1      17.568  11.372  -4.695  1.00  0.00     0.029 A 
ATOM     68  C   UNL     1      17.056  10.093  -4.835  1.00  0.00     0.049 A 
ATOM     69  H   UNL     1      15.907   8.964  -3.473  1.00  0.00     0.167 HD
ATOM     70  C   UNL     1      16.600   7.974  -6.035  1.00  0.00     0.074 A 
ATOM     71  C   UNL     1      16.663   7.119  -7.202  1.00  0.00     0.031 C 
ATOM     72  C   UNL     1      17.163   9.205  -5.963  1.00  0.00     0.034 A 
BRANCH  59  73
ATOM     73  C   UNL     1      16.062  12.178  -0.663  1.00  0.00     0.023 A 
ATOM     74  C   UNL     1      16.949  12.180   0.433  1.00  0.00     0.012 A 
ATOM     75  C   UNL     1      15.408  13.372  -1.024  1.00  0.00     0.148 A 
ATOM     76  C   UNL     1      17.160  13.340   1.176  1.00  0.00     0.002 A 
ATOM     77  C   UNL     1      15.659  14.537  -0.308  1.00  0.00     0.091 A 
ATOM     78  F   UNL     1      14.555  13.346  -2.058  1.00  0.00    -0.205 F 
ATOM     79  C   UNL     1      16.525  14.520   0.798  1.00  0.00     0.022 A 
BRANCH  77  80
ATOM     80  S   UNL     1      14.957  16.127  -0.761  1.00  0.00     0.127 S 
ATOM     81  O   UNL     1      14.063  16.386   0.367  1.00  0.00    -0.237 OA
ATOM     82  O   UNL     1      16.143  16.982  -0.807  1.00  0.00    -0.237 OA
ATOM     83  O   UNL     1      14.298  15.927  -2.043  1.00  0.00    -0.744 OA
ENDBRANCH  77  80
ENDBRANCH  59  73
BRANCH  60  84
ATOM     84  C   UNL     1      14.494   3.768  -5.838  1.00  0.00     0.023 A 
ATOM     85  C   UNL     1      15.575   2.959  -6.238  1.00  0.00     0.012 A 
ATOM     86  C   UNL     1      13.187   3.397  -6.209  1.00  0.00     0.148 A 
ATOM     87  C   UNL     1      15.366   1.829  -7.029  1.00  0.00     0.002 A 
ATOM     88  C   UNL     1      12.980   2.239  -6.949  1.00  0.00     0.091 A 
ATOM     89  F   UNL     1      12.171   4.185  -5.830  1.00  0.00    -0.205 F 
ATOM     90  C   UNL     1      14.069   1.464  -7.378  1.00  0.00     0.022 A 
BRANCH  88  91
ATOM     91  S   UNL     1      11.335   1.625  -7.331  1.00  0.00     0.127 S 
ATOM     92  O   UNL     1      11.233   1.912  -8.759  1.00  0.00    -0.237 OA
ATOM     93  O   UNL     1      11.456   0.205  -6.995  1.00  0.00    -0.237 OA
ATOM     94  O   UNL     1      10.430   2.369  -6.466  1.00  0.00    -0.744 OA
ENDBRANCH  88  91
ENDBRANCH  60  84
BRANCH  72  95
ATOM     95  C   UNL     1      17.945   9.689  -7.156  1.00  0.00     0.023 A 
ATOM     96  C   UNL     1      17.272  10.065  -8.334  1.00  0.00     0.012 A 
ATOM     97  C   UNL     1      19.344   9.842  -7.079  1.00  0.00     0.148 A 
ATOM     98  C   UNL     1      17.982  10.554  -9.430  1.00  0.00     0.002 A 
ATOM     99  C   UNL     1      20.039  10.379  -8.155  1.00  0.00     0.091 A 
ATOM    100  F   UNL     1      19.968   9.463  -5.954  1.00  0.00    -0.205 F 
ATOM    101  C   UNL     1      19.362  10.723  -9.336  1.00  0.00     0.022 A 
BRANCH  99 102
ATOM    102  S   UNL     1      21.800  10.725  -8.089  1.00  0.00     0.127 S 
ATOM    103  O   UNL     1      22.339   9.696  -8.978  1.00  0.00    -0.237 OA
ATOM    104  O   UNL     1      21.869  12.086  -8.620  1.00  0.00    -0.237 OA
ATOM    105  O   UNL     1      22.183  10.602  -6.689  1.00  0.00    -0.744 OA
ENDBRANCH  99 102
ENDBRANCH  72  95
ENDBRANCH  46  47
ENDBRANCH  38  41
ENDBRANCH  36  37
ENDBRANCH  35  36
ENDBRANCH   1  35
TORSDOF 19
