REMARK SMILES Cc1ccccc1/C=C1\SC(=O)N(CC(=O)Nc2ccccc2C(=O)NCCCCNC(=O)c2ccc(-c3c4nc(c(-c5cccc(S(=O)(=O)[O-])c5F)c5ccc([nH]5)c(-c5cccc(S(=O)(=O)[O-])c5F)c5nc(c(-c6cccc(S(=O)(=O)[O-])c6F)c6ccc3[nH]6)C=C5)C=C4)cc2)C1=O
REMARK SMILES IDX 28 1 27 2 26 3 24 4 25 5 23 7 18 8 19 9 20 10 22 11 21 12
REMARK SMILES IDX 17 13 15 14 16 15 14 17 13 18 8 19 9 20 10 21 97 22 11 23
REMARK SMILES IDX 98 24 12 25 7 26 1 27 2 28 3 29 4 30 6 31 5 32 29 33 30 34
REMARK SMILES IDX 31 35 32 36 33 38 34 39 35 40 96 41 36 42 95 43 37 44 38 45
REMARK SMILES IDX 39 46 89 47 40 48 94 49 88 50 90 51 41 52 93 53 87 54 86 55
REMARK SMILES IDX 42 57 74 58 54 59 73 60 55 61 58 62 72 63 91 64 56 65 57 66
REMARK SMILES IDX 71 68 92 69 59 70 43 71 44 72 52 73 45 74 47 75 53 76 46 77
REMARK SMILES IDX 48 78 49 79 50 80 51 81 75 82 76 83 84 84 77 85 79 86 85 87
REMARK SMILES IDX 78 88 80 89 81 90 82 91 83 92 60 93 61 94 69 95 62 96 64 97
REMARK SMILES IDX 70 98 63 99 65 100 66 101 67 102 68 103
REMARK H PARENT 26 6 17 16 31 37 90 56 58 67
REMARK Flexibility Score: inf
ROOT
ATOM      1  C   UNL     1       3.428   0.367  -3.788  1.00  0.00     0.023 C 
ENDROOT
BRANCH   1   2
ATOM      2  C   UNL     1       2.052   1.054  -3.845  1.00  0.00     0.116 C 
BRANCH   2   3
ATOM      3  N   UNL     1       1.831   2.253  -3.031  1.00  0.00    -0.352 N 
ATOM      4  C   UNL     1       1.714   3.611  -3.294  1.00  0.00     0.253 C 
ATOM      5  O   UNL     1       1.357   4.347  -2.374  1.00  0.00    -0.269 OA
ATOM      6  H   UNL     1       1.747   2.047  -2.072  1.00  0.00     0.163 HD
BRANCH   4   7
ATOM      7  C   UNL     1       2.008   4.244  -4.606  1.00  0.00     0.063 A 
ATOM      8  C   UNL     1       2.511   5.562  -4.751  1.00  0.00     0.054 A 
ATOM      9  C   UNL     1       2.620   6.111  -6.048  1.00  0.00     0.027 A 
ATOM     10  C   UNL     1       2.261   5.392  -7.186  1.00  0.00     0.002 A 
ATOM     11  C   UNL     1       1.535   3.598  -5.763  1.00  0.00     0.016 A 
ATOM     12  C   UNL     1       1.697   4.138  -7.040  1.00  0.00     0.001 A 
BRANCH   8  13
ATOM     13  N   UNL     1       2.615   6.545  -3.745  1.00  0.00    -0.324 N 
ATOM     14  C   UNL     1       3.487   6.785  -2.732  1.00  0.00     0.244 C 
ATOM     15  O   UNL     1       3.420   7.910  -2.214  1.00  0.00    -0.273 OA
ATOM     16  H   UNL     1       1.891   7.210  -3.788  1.00  0.00     0.170 HD
BRANCH  14  17
ATOM     17  C   UNL     1       4.593   5.837  -2.309  1.00  0.00     0.230 C 
BRANCH  17  18
ATOM     18  N   UNL     1       4.142   4.752  -1.483  1.00  0.00    -0.259 N 
ATOM     19  C   UNL     1       1.717   3.524   0.662  1.00  0.00     0.029 C 
ATOM     20  C   UNL     1       2.953   3.629   0.162  1.00  0.00     0.083 C 
ATOM     21  S   UNL     1       3.993   2.428  -0.452  1.00  0.00    -0.022 SA
ATOM     22  C   UNL     1       3.436   4.953  -0.313  1.00  0.00     0.268 C 
ATOM     23  C   UNL     1       4.589   3.487  -1.701  1.00  0.00     0.294 C 
ATOM     24  O   UNL     1       3.233   6.013   0.253  1.00  0.00    -0.268 OA
ATOM     25  O   UNL     1       5.336   3.108  -2.599  1.00  0.00    -0.261 OA
BRANCH  19  26
ATOM     26  C   UNL     1       0.824   2.354   0.759  1.00  0.00    -0.021 A 
ATOM     27  C   UNL     1       2.433   0.680   1.883  1.00  0.00     0.045 C 
ATOM     28  C   UNL     1       1.088   1.132   1.397  1.00  0.00    -0.044 A 
ATOM     29  C   UNL     1       0.029   0.226   1.559  1.00  0.00     0.004 A 
ATOM     30  C   UNL     1      -1.237   0.473   1.034  1.00  0.00     0.000 A 
ATOM     31  C   UNL     1      -0.464   2.574   0.211  1.00  0.00     0.008 A 
ATOM     32  C   UNL     1      -1.480   1.633   0.326  1.00  0.00     0.001 A 
ENDBRANCH  19  26
ENDBRANCH  17  18
ENDBRANCH  14  17
ENDBRANCH   8  13
ENDBRANCH   4   7
ENDBRANCH   2   3
ENDBRANCH   1   2
BRANCH   1  33
ATOM     33  C   UNL     1       3.865  -0.447  -2.561  1.00  0.00     0.023 C 
BRANCH  33  34
ATOM     34  C   UNL     1       2.853  -1.413  -1.983  1.00  0.00     0.116 C 
BRANCH  34  35
ATOM     35  N   UNL     1       2.870  -2.735  -2.614  1.00  0.00    -0.352 N 
ATOM     36  C   UNL     1       2.338  -3.929  -2.122  1.00  0.00     0.251 C 
ATOM     37  H   UNL     1       3.311  -2.788  -3.493  1.00  0.00     0.163 HD
ATOM     38  O   UNL     1       2.774  -4.992  -2.548  1.00  0.00    -0.269 OA
BRANCH  36  39
ATOM     39  C   UNL     1       1.231  -3.872  -1.133  1.00  0.00     0.039 A 
ATOM     40  C   UNL     1       0.622  -4.960  -0.490  1.00  0.00     0.014 A 
ATOM     41  C   UNL     1       0.566  -2.671  -1.052  1.00  0.00     0.014 A 
ATOM     42  C   UNL     1      -0.703  -4.793  -0.006  1.00  0.00     0.010 A 
ATOM     43  C   UNL     1      -0.298  -2.505  -0.028  1.00  0.00     0.010 A 
ATOM     44  C   UNL     1      -1.225  -3.512  -0.025  1.00  0.00    -0.014 A 
BRANCH  44  45
ATOM     45  C   UNL     1      -2.566  -2.948  -0.006  1.00  0.00     0.031 A 
ATOM     46  C   UNL     1      -3.211  -2.643   1.279  1.00  0.00     0.074 A 
ATOM     47  C   UNL     1      -2.902  -2.228  -1.111  1.00  0.00     0.049 A 
ATOM     48  N   UNL     1      -4.346  -2.052   1.384  1.00  0.00    -0.248 NA
ATOM     49  C   UNL     1      -2.575  -2.902   2.561  1.00  0.00     0.031 C 
ATOM     50  C   UNL     1      -3.764  -1.054  -1.239  1.00  0.00     0.029 A 
ATOM     51  N   UNL     1      -2.501  -2.456  -2.429  1.00  0.00    -0.354 N 
ATOM     52  C   UNL     1      -4.483  -1.613   2.682  1.00  0.00     0.074 A 
ATOM     53  C   UNL     1      -3.392  -2.241   3.389  1.00  0.00     0.031 C 
ATOM     54  C   UNL     1      -4.046  -0.845  -2.538  1.00  0.00     0.029 A 
ATOM     55  C   UNL     1      -3.526  -1.983  -3.269  1.00  0.00     0.049 A 
ATOM     56  H   UNL     1      -1.657  -2.872  -2.718  1.00  0.00     0.167 HD
ATOM     57  C   UNL     1      -5.447  -0.681   2.942  1.00  0.00     0.034 A 
ATOM     58  C   UNL     1      -4.271  -2.917  -3.939  1.00  0.00     0.034 A 
ATOM     59  C   UNL     1      -6.258  -0.433   1.724  1.00  0.00     0.049 A 
ATOM     60  C   UNL     1      -5.679  -3.049  -3.368  1.00  0.00     0.074 A 
ATOM     61  C   UNL     1      -6.334   0.574   0.776  1.00  0.00     0.029 A 
ATOM     62  N   UNL     1      -6.960  -1.500   1.184  1.00  0.00    -0.354 N 
ATOM     63  N   UNL     1      -6.201  -2.262  -2.463  1.00  0.00    -0.248 NA
ATOM     64  C   UNL     1      -6.585  -4.132  -3.738  1.00  0.00     0.031 C 
ATOM     65  C   UNL     1      -7.006   0.045  -0.377  1.00  0.00     0.029 A 
ATOM     66  C   UNL     1      -7.382  -1.263  -0.113  1.00  0.00     0.049 A 
ATOM     67  H   UNL     1      -7.138  -2.337   1.671  1.00  0.00     0.167 HD
ATOM     68  C   UNL     1      -7.352  -2.823  -1.972  1.00  0.00     0.074 A 
ATOM     69  C   UNL     1      -7.575  -3.970  -2.844  1.00  0.00     0.031 C 
ATOM     70  C   UNL     1      -8.011  -2.359  -0.859  1.00  0.00     0.034 A 
BRANCH  57  71
ATOM     71  C   UNL     1      -5.624   0.141   4.217  1.00  0.00     0.023 A 
ATOM     72  C   UNL     1      -6.598   1.168   4.180  1.00  0.00     0.012 A 
ATOM     73  C   UNL     1      -4.905   0.033   5.435  1.00  0.00     0.148 A 
ATOM     74  C   UNL     1      -6.811   2.056   5.243  1.00  0.00     0.002 A 
ATOM     75  C   UNL     1      -5.112   0.923   6.499  1.00  0.00     0.091 A 
ATOM     76  F   UNL     1      -4.014  -0.938   5.606  1.00  0.00    -0.205 F 
ATOM     77  C   UNL     1      -6.060   1.941   6.401  1.00  0.00     0.022 A 
BRANCH  75  78
ATOM     78  S   UNL     1      -4.171   0.850   8.040  1.00  0.00     0.127 S 
ATOM     79  O   UNL     1      -3.545   2.172   8.076  1.00  0.00    -0.237 OA
ATOM     80  O   UNL     1      -5.221   0.650   9.038  1.00  0.00    -0.237 OA
ATOM     81  O   UNL     1      -3.234  -0.258   7.904  1.00  0.00    -0.744 OA
ENDBRANCH  75  78
ENDBRANCH  57  71
BRANCH  58  82
ATOM     82  C   UNL     1      -3.372  -4.043  -4.399  1.00  0.00     0.023 A 
ATOM     83  C   UNL     1      -2.307  -3.668  -5.263  1.00  0.00     0.012 A 
ATOM     84  C   UNL     1      -3.226  -5.213  -3.630  1.00  0.00     0.148 A 
ATOM     85  C   UNL     1      -1.060  -4.295  -5.173  1.00  0.00     0.002 A 
ATOM     86  C   UNL     1      -1.989  -5.858  -3.580  1.00  0.00     0.091 A 
ATOM     87  F   UNL     1      -4.262  -5.637  -2.894  1.00  0.00    -0.205 F 
ATOM     88  C   UNL     1      -0.888  -5.359  -4.293  1.00  0.00     0.022 A 
BRANCH  86  89
ATOM     89  S   UNL     1      -1.762  -7.306  -2.538  1.00  0.00     0.127 S 
ATOM     90  O   UNL     1      -2.226  -8.375  -3.417  1.00  0.00    -0.237 OA
ATOM     91  O   UNL     1      -0.322  -7.319  -2.281  1.00  0.00    -0.237 OA
ATOM     92  O   UNL     1      -2.575  -7.048  -1.357  1.00  0.00    -0.744 OA
ENDBRANCH  86  89
ENDBRANCH  58  82
BRANCH  70  93
ATOM     93  C   UNL     1      -9.335  -2.949  -0.387  1.00  0.00     0.023 A 
ATOM     94  C   UNL     1     -10.278  -3.408  -1.330  1.00  0.00     0.012 A 
ATOM     95  C   UNL     1      -9.751  -2.954   0.970  1.00  0.00     0.148 A 
ATOM     96  C   UNL     1     -11.510  -3.949  -0.947  1.00  0.00     0.002 A 
ATOM     97  C   UNL     1     -11.021  -3.388   1.337  1.00  0.00     0.091 A 
ATOM     98  F   UNL     1      -8.909  -2.575   1.934  1.00  0.00    -0.205 F 
ATOM     99  C   UNL     1     -11.887  -3.930   0.387  1.00  0.00     0.022 A 
BRANCH  97 100
ATOM    100  S   UNL     1     -11.670  -3.176   3.002  1.00  0.00     0.127 S 
ATOM    101  O   UNL     1     -12.909  -2.439   2.742  1.00  0.00    -0.237 OA
ATOM    102  O   UNL     1     -11.863  -4.561   3.428  1.00  0.00    -0.237 OA
ATOM    103  O   UNL     1     -10.665  -2.424   3.739  1.00  0.00    -0.744 OA
ENDBRANCH  97 100
ENDBRANCH  70  93
ENDBRANCH  44  45
ENDBRANCH  36  39
ENDBRANCH  34  35
ENDBRANCH  33  34
ENDBRANCH   1  33
TORSDOF 18
