REMARK SMILES O=C(NCCCCNC(=O)[C@@]1(Cc2cn3ccccc3n2)CCC[NH2+]C1)c1ccc(-c2c3nc(c(-c4cccc(S(=O)(=O)[O-])c4F)c4ccc([nH]4)c(-c4cccc(S(=O)(=O)[O-])c4F)c4nc(c(-c5cccc(S(=O)(=O)[O-])c5F)c5ccc2[nH]5)C=C4)C=C3)cc1
REMARK SMILES IDX 5 1 4 2 3 3 1 4 2 5 27 7 28 8 89 9 29 10 88 11 30 12 31 13
REMARK SMILES IDX 32 14 82 15 33 16 87 17 81 18 83 19 34 20 86 21 80 22 79 23
REMARK SMILES IDX 35 25 67 26 47 27 66 28 48 29 51 30 65 31 84 32 49 33 50 34
REMARK SMILES IDX 64 36 85 37 52 38 36 39 37 40 45 41 38 42 40 43 46 44 39 45
REMARK SMILES IDX 41 46 42 47 43 48 44 49 68 50 69 51 77 52 70 53 72 54 78 55
REMARK SMILES IDX 71 56 73 57 74 58 75 59 76 60 53 61 54 62 62 63 55 64 57 65
REMARK SMILES IDX 63 66 56 67 58 68 59 69 60 70 61 71 6 72 7 73 8 74 9 75
REMARK SMILES IDX 10 77 11 78 22 79 26 80 23 81 25 82 24 83 12 86 13 87 14 88
REMARK SMILES IDX 21 89 15 90 20 91 16 92 19 93 17 94 18 95
REMARK H PARENT 3 6 83 24 51 35 8 76 25 84 25 85
REMARK Flexibility Score: inf
ROOT
ATOM      1  C   UNL     1       1.983  -2.652   9.291  1.00  0.00     0.023 C 
ENDROOT
BRANCH   1   2
ATOM      2  C   UNL     1       1.250  -3.262   8.098  1.00  0.00     0.116 C 
BRANCH   2   3
ATOM      3  N   UNL     1       1.256  -4.719   8.078  1.00  0.00    -0.352 N 
ATOM      4  O   UNL     1       0.448  -6.816   8.224  1.00  0.00    -0.269 OA
ATOM      5  C   UNL     1       0.216  -5.616   8.190  1.00  0.00     0.251 C 
ATOM      6  H   UNL     1       2.145  -5.128   7.967  1.00  0.00     0.163 HD
BRANCH   5   7
ATOM      7  C   UNL     1      -1.166  -5.110   8.318  1.00  0.00     0.039 A 
ATOM      8  C   UNL     1      -1.643  -4.124   7.455  1.00  0.00     0.014 A 
ATOM      9  C   UNL     1      -1.972  -5.597   9.349  1.00  0.00     0.014 A 
ATOM     10  C   UNL     1      -2.839  -3.481   7.745  1.00  0.00     0.010 A 
ATOM     11  C   UNL     1      -3.223  -5.019   9.575  1.00  0.00     0.010 A 
ATOM     12  C   UNL     1      -3.643  -3.921   8.809  1.00  0.00    -0.014 A 
BRANCH  12  13
ATOM     13  C   UNL     1      -4.942  -3.252   9.067  1.00  0.00     0.031 A 
ATOM     14  C   UNL     1      -5.216  -2.549  10.368  1.00  0.00     0.074 A 
ATOM     15  C   UNL     1      -5.887  -3.293   8.109  1.00  0.00     0.049 A 
ATOM     16  N   UNL     1      -6.302  -1.927  10.752  1.00  0.00    -0.248 NA
ATOM     17  C   UNL     1      -4.143  -2.551  11.375  1.00  0.00     0.031 C 
ATOM     18  C   UNL     1      -5.750  -3.990   6.827  1.00  0.00     0.029 A 
ATOM     19  N   UNL     1      -7.147  -2.756   8.062  1.00  0.00    -0.354 N 
ATOM     20  C   UNL     1      -6.065  -1.509  12.056  1.00  0.00     0.074 A 
ATOM     21  C   UNL     1      -4.729  -1.948  12.401  1.00  0.00     0.031 C 
ATOM     22  C   UNL     1      -6.874  -3.829   6.117  1.00  0.00     0.029 A 
ATOM     23  C   UNL     1      -7.831  -3.069   6.912  1.00  0.00     0.049 A 
ATOM     24  H   UNL     1      -7.525  -2.200   8.782  1.00  0.00     0.167 HD
ATOM     25  C   UNL     1      -6.880  -0.810  12.883  1.00  0.00     0.034 A 
ATOM     26  C   UNL     1      -9.098  -2.804   6.544  1.00  0.00     0.034 A 
ATOM     27  C   UNL     1      -8.188  -0.336  12.513  1.00  0.00     0.049 A 
ATOM     28  C   UNL     1      -9.965  -1.994   7.461  1.00  0.00     0.074 A 
ATOM     29  C   UNL     1      -9.054   0.458  13.245  1.00  0.00     0.029 A 
ATOM     30  N   UNL     1      -8.823  -0.616  11.312  1.00  0.00    -0.354 N 
ATOM     31  N   UNL     1      -9.670  -1.486   8.633  1.00  0.00    -0.248 NA
ATOM     32  C   UNL     1     -11.326  -1.695   6.997  1.00  0.00     0.031 C 
ATOM     33  C   UNL     1     -10.220   0.640  12.494  1.00  0.00     0.029 A 
ATOM     34  C   UNL     1     -10.075  -0.026  11.288  1.00  0.00     0.049 A 
ATOM     35  H   UNL     1      -8.440  -1.157  10.584  1.00  0.00     0.167 HD
ATOM     36  C   UNL     1     -10.803  -0.795   9.044  1.00  0.00     0.074 A 
ATOM     37  C   UNL     1     -11.779  -0.927   7.980  1.00  0.00     0.031 C 
ATOM     38  C   UNL     1     -11.021  -0.131  10.205  1.00  0.00     0.034 A 
BRANCH  25  39
ATOM     39  C   UNL     1      -6.369  -0.479  14.261  1.00  0.00     0.023 A 
ATOM     40  C   UNL     1      -5.392   0.525  14.419  1.00  0.00     0.012 A 
ATOM     41  C   UNL     1      -6.896  -1.115  15.403  1.00  0.00     0.148 A 
ATOM     42  C   UNL     1      -4.927   0.870  15.688  1.00  0.00     0.002 A 
ATOM     43  C   UNL     1      -6.454  -0.739  16.667  1.00  0.00     0.091 A 
ATOM     44  F   UNL     1      -7.805  -2.086  15.235  1.00  0.00    -0.205 F 
ATOM     45  C   UNL     1      -5.464   0.246  16.811  1.00  0.00     0.022 A 
BRANCH  43  46
ATOM     46  S   UNL     1      -7.145  -1.441  18.170  1.00  0.00     0.127 S 
ATOM     47  O   UNL     1      -6.126  -2.425  18.533  1.00  0.00    -0.237 OA
ATOM     48  O   UNL     1      -7.212  -0.280  19.058  1.00  0.00    -0.237 OA
ATOM     49  O   UNL     1      -8.442  -1.982  17.791  1.00  0.00    -0.744 OA
ENDBRANCH  43  46
ENDBRANCH  25  39
BRANCH  26  50
ATOM     50  C   UNL     1      -9.583  -3.295   5.226  1.00  0.00     0.023 A 
ATOM     51  C   UNL     1      -9.781  -2.383   4.173  1.00  0.00     0.012 A 
ATOM     52  C   UNL     1      -9.741  -4.675   4.984  1.00  0.00     0.148 A 
ATOM     53  C   UNL     1     -10.136  -2.837   2.902  1.00  0.00     0.002 A 
ATOM     54  C   UNL     1     -10.032  -5.123   3.702  1.00  0.00     0.091 A 
ATOM     55  F   UNL     1      -9.560  -5.524   6.005  1.00  0.00    -0.205 F 
ATOM     56  C   UNL     1     -10.245  -4.205   2.663  1.00  0.00     0.022 A 
BRANCH  54  57
ATOM     57  S   UNL     1     -10.024  -6.868   3.276  1.00  0.00     0.127 S 
ATOM     58  O   UNL     1     -11.450  -7.148   3.132  1.00  0.00    -0.237 OA
ATOM     59  O   UNL     1      -9.265  -6.873   2.024  1.00  0.00    -0.237 OA
ATOM     60  O   UNL     1      -9.352  -7.537   4.382  1.00  0.00    -0.744 OA
ENDBRANCH  54  57
ENDBRANCH  26  50
BRANCH  38  61
ATOM     61  C   UNL     1     -12.367   0.514  10.390  1.00  0.00     0.023 A 
ATOM     62  C   UNL     1     -13.486  -0.290  10.684  1.00  0.00     0.012 A 
ATOM     63  C   UNL     1     -12.510   1.914  10.350  1.00  0.00     0.148 A 
ATOM     64  C   UNL     1     -14.733   0.288  10.910  1.00  0.00     0.002 A 
ATOM     65  C   UNL     1     -13.748   2.486  10.618  1.00  0.00     0.091 A 
ATOM     66  F   UNL     1     -11.437   2.659  10.047  1.00  0.00    -0.205 F 
ATOM     67  C   UNL     1     -14.862   1.675  10.890  1.00  0.00     0.022 A 
BRANCH  65  68
ATOM     68  S   UNL     1     -13.986   4.265  10.699  1.00  0.00     0.127 S 
ATOM     69  O   UNL     1     -14.710   4.525   9.456  1.00  0.00    -0.237 OA
ATOM     70  O   UNL     1     -14.787   4.418  11.915  1.00  0.00    -0.237 OA
ATOM     71  O   UNL     1     -12.652   4.844  10.780  1.00  0.00    -0.744 OA
ENDBRANCH  65  68
ENDBRANCH  38  61
ENDBRANCH  12  13
ENDBRANCH   5   7
ENDBRANCH   2   3
ENDBRANCH   1   2
BRANCH   1  72
ATOM     72  C   UNL     1       3.455  -3.023   9.446  1.00  0.00     0.023 C 
BRANCH  72  73
ATOM     73  C   UNL     1       4.253  -3.091   8.154  1.00  0.00     0.116 C 
BRANCH  73  74
ATOM     74  N   UNL     1       4.420  -1.835   7.443  1.00  0.00    -0.355 N 
ATOM     75  C   UNL     1       5.309  -1.495   6.451  1.00  0.00     0.232 C 
ATOM     76  H   UNL     1       3.801  -1.118   7.712  1.00  0.00     0.163 HD
ATOM     77  O   UNL     1       5.120  -0.405   5.904  1.00  0.00    -0.274 OA
BRANCH  75  78
ATOM     78  C   UNL     1       6.526  -2.392   6.081  1.00  0.00     0.104 C 
ATOM     79  C   UNL     1       7.474  -2.386   7.313  1.00  0.00     0.029 C 
ATOM     80  C   UNL     1       6.023  -3.807   5.681  1.00  0.00     0.277 C 
ATOM     81  C   UNL     1       8.329  -3.637   7.470  1.00  0.00     0.063 C 
ATOM     82  N   UNL     1       6.958  -4.918   5.882  1.00  0.00    -0.345 N 
ATOM     83  C   UNL     1       7.550  -4.917   7.213  1.00  0.00     0.260 C 
ATOM     84  H   UNL     1       6.456  -5.796   5.749  1.00  0.00     0.346 HD
ATOM     85  H   UNL     1       7.715  -4.812   5.207  1.00  0.00     0.346 HD
BRANCH  78  86
ATOM     86  C   UNL     1       7.254  -1.722   4.850  1.00  0.00     0.080 C 
BRANCH  86  87
ATOM     87  C   UNL     1       8.340  -2.549   4.232  1.00  0.00     0.061 A 
ATOM     88  C   UNL     1       8.200  -3.638   3.391  1.00  0.00     0.116 A 
ATOM     89  N   UNL     1       9.670  -2.354   4.543  1.00  0.00    -0.234 NA
ATOM     90  N   UNL     1       9.398  -4.294   3.469  1.00  0.00    -0.307 N 
ATOM     91  C   UNL     1      10.290  -3.424   4.082  1.00  0.00     0.136 A 
ATOM     92  C   UNL     1       9.713  -5.601   3.107  1.00  0.00     0.093 A 
ATOM     93  C   UNL     1      11.637  -3.869   4.204  1.00  0.00     0.048 A 
ATOM     94  C   UNL     1      10.963  -6.050   3.311  1.00  0.00     0.018 A 
ATOM     95  C   UNL     1      11.959  -5.129   3.844  1.00  0.00     0.005 A 
ENDBRANCH  86  87
ENDBRANCH  78  86
ENDBRANCH  75  78
ENDBRANCH  73  74
ENDBRANCH  72  73
ENDBRANCH   1  72
TORSDOF 16
