REMARK SMILES CCCc1cc(OCC(=O)NCCCCNC(=O)c2ccc(-c3c4nc(c(-c5cccc(S(=O)(=O)[O-])c5F)c5ccc([nH]5)c(-c5cccc(S(=O)(=O)[O-])c5F)c5nc(c(-c6cccc(S(=O)(=O)[O-])c6F)c6ccc3[nH]6)C=C5)C=C4)cc2)nc(Nc2ccc(C#N)cc2)n1
REMARK SMILES IDX 12 1 11 2 9 3 10 4 8 6 7 7 6 8 4 9 5 10 93 11 83 12 82 13
REMARK SMILES IDX 3 14 2 15 1 16 84 17 85 19 86 20 92 21 87 22 91 23 88 24
REMARK SMILES IDX 89 25 90 26 13 27 14 28 15 29 16 30 17 31 18 33 19 34 20 35
REMARK SMILES IDX 81 36 21 37 80 38 22 39 23 40 24 41 74 42 25 43 79 44 73 45
REMARK SMILES IDX 75 46 26 47 78 48 72 49 71 50 27 52 59 53 39 54 58 55 40 56
REMARK SMILES IDX 43 57 57 58 76 59 41 60 42 61 56 63 77 64 44 65 28 66 29 67
REMARK SMILES IDX 37 68 30 69 32 70 38 71 31 72 33 73 34 74 35 75 36 76 60 77
REMARK SMILES IDX 61 78 69 79 62 80 64 81 70 82 63 83 65 84 66 85 67 86 68 87
REMARK SMILES IDX 45 88 46 89 54 90 47 91 49 92 55 93 48 94 50 95 51 96 52 97
REMARK SMILES IDX 53 98
REMARK H PARENT 11 5 84 18 16 32 75 51 43 62
REMARK Flexibility Score: inf
ROOT
ATOM      1  C   UNL     1       1.183  -6.094  -5.588  1.00  0.00     0.116 C 
ENDROOT
BRANCH   1   2
ATOM      2  N   UNL     1       1.976  -4.886  -5.698  1.00  0.00    -0.353 N 
ATOM      3  C   UNL     1       2.761  -4.308  -4.745  1.00  0.00     0.258 C 
ATOM      4  O   UNL     1       3.424  -3.310  -5.031  1.00  0.00    -0.271 OA
ATOM      5  H   UNL     1       1.944  -4.426  -6.568  1.00  0.00     0.163 HD
BRANCH   3   6
ATOM      6  C   UNL     1       2.820  -4.919  -3.339  1.00  0.00     0.331 C 
BRANCH   6   7
ATOM      7  O   UNL     1       1.595  -5.062  -2.638  1.00  0.00    -0.467 OA
BRANCH   7   8
ATOM      8  C   UNL     1       0.878  -3.929  -2.366  1.00  0.00     0.218 A 
ATOM      9  C   UNL     1       0.447  -1.636  -2.285  1.00  0.00     0.050 A 
ATOM     10  C   UNL     1       1.331  -2.646  -2.570  1.00  0.00     0.092 A 
ATOM     11  N   UNL     1      -0.791  -1.889  -1.837  1.00  0.00    -0.218 NA
ATOM     12  C   UNL     1      -1.141  -3.159  -1.601  1.00  0.00     0.230 A 
ATOM     13  N   UNL     1      -0.336  -4.200  -1.849  1.00  0.00    -0.177 NA
BRANCH   9  14
ATOM     14  C   UNL     1       0.842  -0.192  -2.448  1.00  0.00     0.056 C 
BRANCH  14  15
ATOM     15  C   UNL     1       0.393   0.694  -1.279  1.00  0.00     0.003 C 
ATOM     16  C   UNL     1       0.957   0.247   0.065  1.00  0.00     0.004 C 
ENDBRANCH  14  15
ENDBRANCH   9  14
BRANCH  12  17
ATOM     17  N   UNL     1      -2.346  -3.414  -0.948  1.00  0.00    -0.324 N 
ATOM     18  H   UNL     1      -2.518  -4.353  -0.708  1.00  0.00     0.170 HD
BRANCH  17  19
ATOM     19  C   UNL     1      -3.341  -2.496  -0.594  1.00  0.00     0.041 A 
ATOM     20  C   UNL     1      -3.835  -2.472   0.716  1.00  0.00     0.027 A 
ATOM     21  C   UNL     1      -3.771  -1.500  -1.483  1.00  0.00     0.027 A 
ATOM     22  C   UNL     1      -4.729  -1.475   1.125  1.00  0.00     0.021 A 
ATOM     23  C   UNL     1      -4.681  -0.514  -1.088  1.00  0.00     0.021 A 
ATOM     24  C   UNL     1      -5.155  -0.493   0.223  1.00  0.00     0.052 A 
BRANCH  24  25
ATOM     25  C   UNL     1      -6.055   0.535   0.652  1.00  0.00     0.099 C 
ATOM     26  N   UNL     1      -6.781   1.361   1.031  1.00  0.00    -0.192 NA
ENDBRANCH  24  25
ENDBRANCH  17  19
ENDBRANCH  12  17
ENDBRANCH   7   8
ENDBRANCH   6   7
ENDBRANCH   3   6
ENDBRANCH   1   2
BRANCH   1  27
ATOM     27  C   UNL     1      -0.316  -5.819  -5.677  1.00  0.00     0.023 C 
BRANCH  27  28
ATOM     28  C   UNL     1      -0.783  -5.220  -7.005  1.00  0.00     0.023 C 
BRANCH  28  29
ATOM     29  C   UNL     1      -0.363  -5.988  -8.255  1.00  0.00     0.116 C 
BRANCH  29  30
ATOM     30  N   UNL     1      -0.864  -7.355  -8.277  1.00  0.00    -0.352 N 
ATOM     31  C   UNL     1      -1.587  -7.999  -9.255  1.00  0.00     0.251 C 
ATOM     32  H   UNL     1      -0.657  -7.895  -7.480  1.00  0.00     0.163 HD
ATOM     33  O   UNL     1      -2.051  -9.116  -9.042  1.00  0.00    -0.269 OA
BRANCH  31  34
ATOM     34  C   UNL     1      -1.831  -7.327 -10.549  1.00  0.00     0.039 A 
ATOM     35  C   UNL     1      -3.132  -7.289 -11.055  1.00  0.00     0.014 A 
ATOM     36  C   UNL     1      -0.789  -6.699 -11.236  1.00  0.00     0.014 A 
ATOM     37  C   UNL     1      -3.405  -6.540 -12.203  1.00  0.00     0.010 A 
ATOM     38  C   UNL     1      -1.077  -5.893 -12.335  1.00  0.00     0.010 A 
ATOM     39  C   UNL     1      -2.390  -5.790 -12.820  1.00  0.00    -0.014 A 
BRANCH  39  40
ATOM     40  C   UNL     1      -2.687  -4.849 -13.932  1.00  0.00     0.031 A 
ATOM     41  C   UNL     1      -2.054  -5.042 -15.283  1.00  0.00     0.074 A 
ATOM     42  C   UNL     1      -3.455  -3.765 -13.696  1.00  0.00     0.049 A 
ATOM     43  N   UNL     1      -2.106  -4.266 -16.335  1.00  0.00    -0.248 NA
ATOM     44  C   UNL     1      -1.242  -6.255 -15.473  1.00  0.00     0.031 C 
ATOM     45  C   UNL     1      -4.089  -3.438 -12.416  1.00  0.00     0.029 A 
ATOM     46  N   UNL     1      -3.808  -2.719 -14.514  1.00  0.00    -0.354 N 
ATOM     47  C   UNL     1      -1.322  -4.882 -17.302  1.00  0.00     0.074 A 
ATOM     48  C   UNL     1      -0.776  -6.080 -16.701  1.00  0.00     0.031 C 
ATOM     49  C   UNL     1      -4.751  -2.276 -12.534  1.00  0.00     0.029 A 
ATOM     50  C   UNL     1      -4.547  -1.747 -13.878  1.00  0.00     0.049 A 
ATOM     51  H   UNL     1      -3.557  -2.670 -15.464  1.00  0.00     0.167 HD
ATOM     52  C   UNL     1      -1.097  -4.500 -18.582  1.00  0.00     0.034 A 
ATOM     53  C   UNL     1      -4.984  -0.549 -14.315  1.00  0.00     0.034 A 
ATOM     54  C   UNL     1      -1.650  -3.314 -19.181  1.00  0.00     0.049 A 
ATOM     55  C   UNL     1      -4.676  -0.130 -15.729  1.00  0.00     0.074 A 
ATOM     56  C   UNL     1      -1.517  -2.870 -20.485  1.00  0.00     0.029 A 
ATOM     57  N   UNL     1      -2.425  -2.376 -18.517  1.00  0.00    -0.354 N 
ATOM     58  N   UNL     1      -4.043  -0.790 -16.667  1.00  0.00    -0.248 NA
ATOM     59  C   UNL     1      -5.166   1.190 -16.153  1.00  0.00     0.031 C 
ATOM     60  C   UNL     1      -2.175  -1.643 -20.598  1.00  0.00     0.029 A 
ATOM     61  C   UNL     1      -2.760  -1.345 -19.379  1.00  0.00     0.049 A 
ATOM     62  H   UNL     1      -2.696  -2.434 -17.573  1.00  0.00     0.167 HD
ATOM     63  C   UNL     1      -4.092   0.016 -17.799  1.00  0.00     0.074 A 
ATOM     64  C   UNL     1      -4.842   1.200 -17.438  1.00  0.00     0.031 C 
ATOM     65  C   UNL     1      -3.551  -0.196 -19.023  1.00  0.00     0.034 A 
BRANCH  52  66
ATOM     66  C   UNL     1      -0.243  -5.393 -19.445  1.00  0.00     0.023 A 
ATOM     67  C   UNL     1      -0.748  -6.639 -19.868  1.00  0.00     0.012 A 
ATOM     68  C   UNL     1       1.017  -4.964 -19.907  1.00  0.00     0.148 A 
ATOM     69  C   UNL     1      -0.001  -7.458 -20.714  1.00  0.00     0.002 A 
ATOM     70  C   UNL     1       1.735  -5.765 -20.788  1.00  0.00     0.091 A 
ATOM     71  F   UNL     1       1.484  -3.781 -19.484  1.00  0.00    -0.205 F 
ATOM     72  C   UNL     1       1.233  -7.016 -21.183  1.00  0.00     0.022 A 
BRANCH  70  73
ATOM     73  S   UNL     1       3.298  -5.257 -21.511  1.00  0.00     0.127 S 
ATOM     74  O   UNL     1       4.219  -6.242 -20.943  1.00  0.00    -0.237 OA
ATOM     75  O   UNL     1       3.039  -5.419 -22.942  1.00  0.00    -0.237 OA
ATOM     76  O   UNL     1       3.518  -3.884 -21.079  1.00  0.00    -0.744 OA
ENDBRANCH  70  73
ENDBRANCH  52  66
BRANCH  53  77
ATOM     77  C   UNL     1      -5.767   0.351 -13.419  1.00  0.00     0.023 A 
ATOM     78  C   UNL     1      -7.107   0.653 -13.735  1.00  0.00     0.012 A 
ATOM     79  C   UNL     1      -5.185   0.937 -12.278  1.00  0.00     0.148 A 
ATOM     80  C   UNL     1      -7.832   1.564 -12.966  1.00  0.00     0.002 A 
ATOM     81  C   UNL     1      -5.933   1.796 -11.481  1.00  0.00     0.091 A 
ATOM     82  F   UNL     1      -3.907   0.646 -11.997  1.00  0.00    -0.205 F 
ATOM     83  C   UNL     1      -7.248   2.130 -11.837  1.00  0.00     0.022 A 
BRANCH  81  84
ATOM     84  S   UNL     1      -5.303   2.475  -9.943  1.00  0.00     0.127 S 
ATOM     85  O   UNL     1      -5.167   3.891 -10.275  1.00  0.00    -0.237 OA
ATOM     86  O   UNL     1      -6.386   2.160  -9.011  1.00  0.00    -0.237 OA
ATOM     87  O   UNL     1      -4.058   1.766  -9.679  1.00  0.00    -0.744 OA
ENDBRANCH  81  84
ENDBRANCH  53  77
BRANCH  65  88
ATOM     88  C   UNL     1      -3.784   0.849 -20.085  1.00  0.00     0.023 A 
ATOM     89  C   UNL     1      -3.147   2.102 -19.994  1.00  0.00     0.012 A 
ATOM     90  C   UNL     1      -4.579   0.557 -21.212  1.00  0.00     0.148 A 
ATOM     91  C   UNL     1      -3.325   3.062 -20.990  1.00  0.00     0.002 A 
ATOM     92  C   UNL     1      -4.707   1.497 -22.227  1.00  0.00     0.091 A 
ATOM     93  F   UNL     1      -5.185  -0.637 -21.274  1.00  0.00    -0.205 F 
ATOM     94  C   UNL     1      -4.093   2.755 -22.110  1.00  0.00     0.022 A 
BRANCH  92  95
ATOM     95  S   UNL     1      -5.596   1.163 -23.751  1.00  0.00     0.127 S 
ATOM     96  O   UNL     1      -6.709   2.107 -23.660  1.00  0.00    -0.237 OA
ATOM     97  O   UNL     1      -4.597   1.492 -24.767  1.00  0.00    -0.237 OA
ATOM     98  O   UNL     1      -5.974  -0.243 -23.700  1.00  0.00    -0.744 OA
ENDBRANCH  92  95
ENDBRANCH  65  88
ENDBRANCH  39  40
ENDBRANCH  31  34
ENDBRANCH  29  30
ENDBRANCH  28  29
ENDBRANCH  27  28
ENDBRANCH   1  27
TORSDOF 21
