REMARK SMILES CCCCCC[C@@H](C)N1C[C@H](C(=O)NCCCCNC(=O)c2ccc(-c3c4nc(c(-c5cccc(S(=O)(=O)[O-])c5F)c5ccc([nH]5)c(-c5cccc(S(=O)(=O)[O-])c5F)c5nc(c(-c6cccc(S(=O)(=O)[O-])c6F)c6ccc3[nH]6)C=C5)C=C4)cc2)CC1=O
REMARK SMILES IDX 15 1 14 2 12 3 13 4 11 6 9 7 10 8 86 9 85 10 87 11 7 12 8 13
REMARK SMILES IDX 6 14 5 15 4 16 3 17 2 18 1 19 16 20 17 21 18 22 19 23 20 24
REMARK SMILES IDX 21 26 22 27 23 28 84 29 24 30 83 31 25 32 26 33 27 34 77 35
REMARK SMILES IDX 28 36 82 37 76 38 78 39 29 40 81 41 75 42 74 43 30 45 62 46
REMARK SMILES IDX 42 47 61 48 43 49 46 50 60 51 79 52 44 53 45 54 59 56 80 57
REMARK SMILES IDX 47 58 31 59 32 60 40 61 33 62 35 63 41 64 34 65 36 66 37 67
REMARK SMILES IDX 38 68 39 69 63 70 64 71 72 72 65 73 67 74 73 75 66 76 68 77
REMARK SMILES IDX 69 78 70 79 71 80 48 81 49 82 57 83 50 84 52 85 58 86 51 87
REMARK SMILES IDX 53 88 54 89 55 90 56 91
REMARK H PARENT 14 5 19 25 78 44 46 55
REMARK Flexibility Score: inf
ROOT
ATOM      1  C   UNL     1      -3.252  -2.542   8.249  1.00  0.00     0.116 C 
ENDROOT
BRANCH   1   2
ATOM      2  N   UNL     1      -3.999  -1.488   7.590  1.00  0.00    -0.356 N 
ATOM      3  C   UNL     1      -3.717  -0.162   7.460  1.00  0.00     0.225 C 
ATOM      4  O   UNL     1      -4.593   0.575   7.009  1.00  0.00    -0.275 OA
ATOM      5  H   UNL     1      -4.842  -1.776   7.171  1.00  0.00     0.163 HD
BRANCH   3   6
ATOM      6  C   UNL     1      -2.325   0.347   7.788  1.00  0.00     0.107 C 
ATOM      7  N   UNL     1      -1.712   1.874   6.096  1.00  0.00    -0.339 N 
ATOM      8  C   UNL     1      -1.533   0.492   6.501  1.00  0.00     0.133 C 
ATOM      9  C   UNL     1      -2.140   2.648   7.174  1.00  0.00     0.223 C 
ATOM     10  C   UNL     1      -2.364   1.751   8.363  1.00  0.00     0.115 C 
ATOM     11  O   UNL     1      -2.248   3.865   7.236  1.00  0.00    -0.275 OA
BRANCH   7  12
ATOM     12  C   UNL     1      -1.196   2.381   4.802  1.00  0.00     0.082 C 
ATOM     13  C   UNL     1      -1.517   3.859   4.544  1.00  0.00     0.031 C 
BRANCH  12  14
ATOM     14  C   UNL     1      -1.682   1.514   3.611  1.00  0.00     0.025 C 
BRANCH  14  15
ATOM     15  C   UNL     1      -1.112   1.889   2.233  1.00  0.00     0.002 C 
BRANCH  15  16
ATOM     16  C   UNL     1       0.417   1.843   2.137  1.00  0.00     0.000 C 
BRANCH  16  17
ATOM     17  C   UNL     1       1.032   0.450   2.313  1.00  0.00    -0.000 C 
BRANCH  17  18
ATOM     18  C   UNL     1       0.603  -0.587   1.271  1.00  0.00    -0.003 C 
ATOM     19  C   UNL     1       0.967  -0.196  -0.154  1.00  0.00     0.004 C 
ENDBRANCH  17  18
ENDBRANCH  16  17
ENDBRANCH  15  16
ENDBRANCH  14  15
ENDBRANCH  12  14
ENDBRANCH   7  12
ENDBRANCH   3   6
ENDBRANCH   1   2
BRANCH   1  20
ATOM     20  C   UNL     1      -3.806  -2.814   9.648  1.00  0.00     0.023 C 
BRANCH  20  21
ATOM     21  C   UNL     1      -5.237  -3.369   9.668  1.00  0.00     0.023 C 
BRANCH  21  22
ATOM     22  C   UNL     1      -5.465  -4.629   8.835  1.00  0.00     0.116 C 
BRANCH  22  23
ATOM     23  N   UNL     1      -4.584  -5.720   9.215  1.00  0.00    -0.352 N 
ATOM     24  C   UNL     1      -4.863  -7.054   9.382  1.00  0.00     0.251 C 
ATOM     25  H   UNL     1      -3.648  -5.465   9.378  1.00  0.00     0.163 HD
ATOM     26  O   UNL     1      -3.998  -7.790   9.850  1.00  0.00    -0.269 OA
BRANCH  24  27
ATOM     27  C   UNL     1      -6.193  -7.602   9.030  1.00  0.00     0.039 A 
ATOM     28  C   UNL     1      -6.768  -8.546   9.885  1.00  0.00     0.014 A 
ATOM     29  C   UNL     1      -6.867  -7.218   7.867  1.00  0.00     0.014 A 
ATOM     30  C   UNL     1      -8.034  -9.062   9.601  1.00  0.00     0.010 A 
ATOM     31  C   UNL     1      -8.163  -7.676   7.625  1.00  0.00     0.010 A 
ATOM     32  C   UNL     1      -8.761  -8.607   8.487  1.00  0.00    -0.014 A 
BRANCH  32  33
ATOM     33  C   UNL     1     -10.151  -9.084   8.253  1.00  0.00     0.031 A 
ATOM     34  C   UNL     1     -10.509  -9.867   7.016  1.00  0.00     0.074 A 
ATOM     35  C   UNL     1     -11.107  -8.785   9.156  1.00  0.00     0.049 A 
ATOM     36  N   UNL     1     -11.658 -10.401   6.686  1.00  0.00    -0.248 NA
ATOM     37  C   UNL     1      -9.452 -10.064   6.011  1.00  0.00     0.031 C 
ATOM     38  C   UNL     1     -10.912  -7.959  10.352  1.00  0.00     0.029 A 
ATOM     39  N   UNL     1     -12.433  -9.134   9.212  1.00  0.00    -0.354 N 
ATOM     40  C   UNL     1     -11.467 -10.985   5.439  1.00  0.00     0.074 A 
ATOM     41  C   UNL     1     -10.104 -10.700   5.047  1.00  0.00     0.031 C 
ATOM     42  C   UNL     1     -12.066  -7.888  11.033  1.00  0.00     0.029 A 
ATOM     43  C   UNL     1     -13.091  -8.635  10.313  1.00  0.00     0.049 A 
ATOM     44  H   UNL     1     -12.873  -9.689   8.528  1.00  0.00     0.167 HD
ATOM     45  C   UNL     1     -12.333 -11.722   4.702  1.00  0.00     0.034 A 
ATOM     46  C   UNL     1     -14.375  -8.764  10.700  1.00  0.00     0.034 A 
ATOM     47  C   UNL     1     -13.683 -12.024   5.101  1.00  0.00     0.049 A 
ATOM     48  C   UNL     1     -15.304  -9.610   9.871  1.00  0.00     0.074 A 
ATOM     49  C   UNL     1     -14.618 -12.809   4.448  1.00  0.00     0.029 A 
ATOM     50  N   UNL     1     -14.294 -11.553   6.252  1.00  0.00    -0.354 N 
ATOM     51  N   UNL     1     -15.054 -10.283   8.775  1.00  0.00    -0.248 NA
ATOM     52  C   UNL     1     -16.683  -9.748  10.359  1.00  0.00     0.031 C 
ATOM     53  C   UNL     1     -15.803 -12.792   5.193  1.00  0.00     0.029 A 
ATOM     54  C   UNL     1     -15.594 -12.027   6.328  1.00  0.00     0.049 A 
ATOM     55  H   UNL     1     -13.867 -10.967   6.919  1.00  0.00     0.167 HD
ATOM     56  C   UNL     1     -16.232 -10.953   8.464  1.00  0.00     0.074 A 
ATOM     57  C   UNL     1     -17.181 -10.635   9.511  1.00  0.00     0.031 C 
ATOM     58  C   UNL     1     -16.513 -11.743   7.398  1.00  0.00     0.034 A 
BRANCH  45  59
ATOM     59  C   UNL     1     -11.832 -12.316   3.409  1.00  0.00     0.023 A 
ATOM     60  C   UNL     1     -10.911 -13.384   3.453  1.00  0.00     0.012 A 
ATOM     61  C   UNL     1     -12.335 -11.890   2.164  1.00  0.00     0.148 A 
ATOM     62  C   UNL     1     -10.480 -14.001   2.279  1.00  0.00     0.002 A 
ATOM     63  C   UNL     1     -11.935 -12.540   1.002  1.00  0.00     0.091 A 
ATOM     64  F   UNL     1     -13.198 -10.865   2.141  1.00  0.00    -0.205 F 
ATOM     65  C   UNL     1     -11.001 -13.588   1.057  1.00  0.00     0.022 A 
BRANCH  63  66
ATOM     66  S   UNL     1     -12.602 -12.142  -0.618  1.00  0.00     0.127 S 
ATOM     67  O   UNL     1     -11.418 -11.629  -1.307  1.00  0.00    -0.237 OA
ATOM     68  O   UNL     1     -13.062 -13.448  -1.089  1.00  0.00    -0.237 OA
ATOM     69  O   UNL     1     -13.658 -11.165  -0.392  1.00  0.00    -0.744 OA
ENDBRANCH  63  66
ENDBRANCH  45  59
BRANCH  46  70
ATOM     70  C   UNL     1     -14.856  -8.125  11.959  1.00  0.00     0.023 A 
ATOM     71  C   UNL     1     -15.263  -8.932  13.041  1.00  0.00     0.012 A 
ATOM     72  C   UNL     1     -14.937  -6.725  12.082  1.00  0.00     0.148 A 
ATOM     73  C   UNL     1     -15.796  -8.359  14.196  1.00  0.00     0.002 A 
ATOM     74  C   UNL     1     -15.408  -6.159  13.260  1.00  0.00     0.091 A 
ATOM     75  F   UNL     1     -14.557  -5.972  11.040  1.00  0.00    -0.205 F 
ATOM     76  C   UNL     1     -15.861  -6.973  14.309  1.00  0.00     0.022 A 
BRANCH  74  77
ATOM     77  S   UNL     1     -15.397  -4.385  13.539  1.00  0.00     0.127 S 
ATOM     78  O   UNL     1     -16.814  -4.054  13.413  1.00  0.00    -0.237 OA
ATOM     79  O   UNL     1     -14.860  -4.294  14.897  1.00  0.00    -0.237 OA
ATOM     80  O   UNL     1     -14.520  -3.837  12.513  1.00  0.00    -0.744 OA
ENDBRANCH  74  77
ENDBRANCH  46  70
BRANCH  58  81
ATOM     81  C   UNL     1     -17.891 -12.352   7.336  1.00  0.00     0.023 A 
ATOM     82  C   UNL     1     -19.016 -11.532   7.113  1.00  0.00     0.012 A 
ATOM     83  C   UNL     1     -18.070 -13.742   7.480  1.00  0.00     0.148 A 
ATOM     84  C   UNL     1     -20.299 -12.076   7.095  1.00  0.00     0.002 A 
ATOM     85  C   UNL     1     -19.347 -14.285   7.403  1.00  0.00     0.091 A 
ATOM     86  F   UNL     1     -16.992 -14.508   7.707  1.00  0.00    -0.205 F 
ATOM     87  C   UNL     1     -20.464 -13.452   7.231  1.00  0.00     0.022 A 
BRANCH  85  88
ATOM     88  S   UNL     1     -19.645 -16.055   7.469  1.00  0.00     0.127 S 
ATOM     89  O   UNL     1     -20.210 -16.213   8.808  1.00  0.00    -0.237 OA
ATOM     90  O   UNL     1     -20.601 -16.249   6.377  1.00  0.00    -0.237 OA
ATOM     91  O   UNL     1     -18.350 -16.686   7.255  1.00  0.00    -0.744 OA
ENDBRANCH  85  88
ENDBRANCH  58  81
ENDBRANCH  32  33
ENDBRANCH  24  27
ENDBRANCH  22  23
ENDBRANCH  21  22
ENDBRANCH  20  21
ENDBRANCH   1  20
TORSDOF 20
