REMARK SMILES O=C(NCCCCNC(=O)c1ccc(S(=O)(=O)NCC[NH+]2CCCC2)c(F)c1)c1ccc(-c2c3nc(c(-c4cccc(S(=O)(=O)[O-])c4F)c4ccc([nH]4)c(-c4cccc(S(=O)(=O)[O-])c4F)c4nc(c(-c5cccc(S(=O)(=O)[O-])c5F)c5ccc2[nH]5)C=C4)C=C3)cc1
REMARK SMILES IDX 6 1 5 2 4 3 3 4 1 5 2 6 29 8 30 9 91 10 31 11 90 12 32 13
REMARK SMILES IDX 33 14 34 15 84 16 35 17 89 18 83 19 85 20 36 21 88 22 82 23
REMARK SMILES IDX 81 24 37 26 69 27 49 28 68 29 50 30 53 31 67 32 86 33 51 34
REMARK SMILES IDX 52 35 66 37 87 38 54 39 38 40 39 41 47 42 40 43 42 44 48 45
REMARK SMILES IDX 41 46 43 47 44 48 45 49 46 50 70 51 71 52 79 53 72 54 74 55
REMARK SMILES IDX 80 56 73 57 75 58 76 59 77 60 78 61 55 62 56 63 64 64 57 65
REMARK SMILES IDX 59 66 65 67 58 68 60 69 61 70 62 71 63 72 7 73 8 74 9 75
REMARK SMILES IDX 10 77 11 78 12 79 28 80 13 81 26 82 14 83 27 84 15 85 16 86
REMARK SMILES IDX 17 87 18 88 19 90 20 91 21 92 22 93 25 94 23 96 24 97
REMARK H PARENT 3 7 85 25 53 36 8 76 18 89 21 95
REMARK Flexibility Score: inf
ROOT
ATOM      1  C   UNL     1       4.415   3.926   0.296  1.00  0.00     0.023 C 
ENDROOT
BRANCH   1   2
ATOM      2  C   UNL     1       4.889   2.686  -0.457  1.00  0.00     0.023 C 
BRANCH   2   3
ATOM      3  C   UNL     1       4.532   1.350   0.182  1.00  0.00     0.116 C 
BRANCH   3   4
ATOM      4  N   UNL     1       3.099   1.133   0.281  1.00  0.00    -0.352 N 
ATOM      5  O   UNL     1       1.133   0.101  -0.080  1.00  0.00    -0.269 OA
ATOM      6  C   UNL     1       2.358   0.046  -0.122  1.00  0.00     0.251 C 
ATOM      7  H   UNL     1       2.587   1.866   0.694  1.00  0.00     0.163 HD
BRANCH   6   8
ATOM      8  C   UNL     1       3.038  -1.166  -0.631  1.00  0.00     0.039 A 
ATOM      9  C   UNL     1       4.147  -1.699   0.033  1.00  0.00     0.014 A 
ATOM     10  C   UNL     1       2.548  -1.786  -1.784  1.00  0.00     0.014 A 
ATOM     11  C   UNL     1       4.838  -2.771  -0.524  1.00  0.00     0.010 A 
ATOM     12  C   UNL     1       3.200  -2.909  -2.302  1.00  0.00     0.010 A 
ATOM     13  C   UNL     1       4.363  -3.396  -1.689  1.00  0.00    -0.014 A 
BRANCH  13  14
ATOM     14  C   UNL     1       5.039  -4.622  -2.181  1.00  0.00     0.031 A 
ATOM     15  C   UNL     1       5.776  -4.647  -3.488  1.00  0.00     0.074 A 
ATOM     16  C   UNL     1       4.987  -5.727  -1.412  1.00  0.00     0.049 A 
ATOM     17  N   UNL     1       6.459  -5.626  -4.023  1.00  0.00    -0.248 NA
ATOM     18  C   UNL     1       5.742  -3.423  -4.304  1.00  0.00     0.031 C 
ATOM     19  C   UNL     1       4.265  -5.826  -0.142  1.00  0.00     0.029 A 
ATOM     20  N   UNL     1       5.551  -6.966  -1.572  1.00  0.00    -0.354 N 
ATOM     21  C   UNL     1       6.916  -5.151  -5.246  1.00  0.00     0.074 A 
ATOM     22  C   UNL     1       6.423  -3.796  -5.380  1.00  0.00     0.031 C 
ATOM     23  C   UNL     1       4.466  -7.041   0.384  1.00  0.00     0.029 A 
ATOM     24  C   UNL     1       5.290  -7.824  -0.531  1.00  0.00     0.049 A 
ATOM     25  H   UNL     1       6.092  -7.216  -2.356  1.00  0.00     0.167 HD
ATOM     26  C   UNL     1       7.693  -5.781  -6.160  1.00  0.00     0.034 A 
ATOM     27  C   UNL     1       5.671  -9.100  -0.327  1.00  0.00     0.034 A 
ATOM     28  C   UNL     1       8.201  -7.119  -6.005  1.00  0.00     0.049 A 
ATOM     29  C   UNL     1       6.551  -9.766  -1.343  1.00  0.00     0.074 A 
ATOM     30  C   UNL     1       9.024  -7.830  -6.861  1.00  0.00     0.029 A 
ATOM     31  N   UNL     1       7.939  -7.948  -4.924  1.00  0.00    -0.354 N 
ATOM     32  N   UNL     1       7.055  -9.266  -2.445  1.00  0.00    -0.248 NA
ATOM     33  C   UNL     1       6.934 -11.160  -1.082  1.00  0.00     0.031 C 
ATOM     34  C   UNL     1       9.253  -9.092  -6.301  1.00  0.00     0.029 A 
ATOM     35  C   UNL     1       8.582  -9.163  -5.090  1.00  0.00     0.049 A 
ATOM     36  H   UNL     1       7.378  -7.708  -4.151  1.00  0.00     0.167 HD
ATOM     37  C   UNL     1       7.827 -10.275  -3.004  1.00  0.00     0.074 A 
ATOM     38  C   UNL     1       7.744 -11.409  -2.104  1.00  0.00     0.031 C 
ATOM     39  C   UNL     1       8.525 -10.268  -4.166  1.00  0.00     0.034 A 
BRANCH  26  40
ATOM     40  C   UNL     1       8.094  -5.011  -7.391  1.00  0.00     0.023 A 
ATOM     41  C   UNL     1       9.097  -4.026  -7.288  1.00  0.00     0.012 A 
ATOM     42  C   UNL     1       7.548  -5.311  -8.654  1.00  0.00     0.148 A 
ATOM     43  C   UNL     1       9.535  -3.337  -8.418  1.00  0.00     0.002 A 
ATOM     44  C   UNL     1       8.015  -4.643  -9.783  1.00  0.00     0.091 A 
ATOM     45  F   UNL     1       6.577  -6.231  -8.732  1.00  0.00    -0.205 F 
ATOM     46  C   UNL     1       9.004  -3.652  -9.666  1.00  0.00     0.022 A 
BRANCH  44  47
ATOM     47  S   UNL     1       7.434  -5.041 -11.436  1.00  0.00     0.127 S 
ATOM     48  O   UNL     1       6.447  -3.988 -11.665  1.00  0.00    -0.237 OA
ATOM     49  O   UNL     1       8.652  -4.917 -12.239  1.00  0.00    -0.237 OA
ATOM     50  O   UNL     1       6.909  -6.397 -11.350  1.00  0.00    -0.744 OA
ENDBRANCH  44  47
ENDBRANCH  26  40
BRANCH  27  51
ATOM     51  C   UNL     1       5.282  -9.770   0.944  1.00  0.00     0.023 A 
ATOM     52  C   UNL     1       6.257  -9.972   1.938  1.00  0.00     0.012 A 
ATOM     53  C   UNL     1       3.936 -10.080   1.225  1.00  0.00     0.148 A 
ATOM     54  C   UNL     1       5.899 -10.466   3.192  1.00  0.00     0.002 A 
ATOM     55  C   UNL     1       3.578 -10.513   2.495  1.00  0.00     0.091 A 
ATOM     56  F   UNL     1       3.027  -9.889   0.258  1.00  0.00    -0.205 F 
ATOM     57  C   UNL     1       4.560 -10.718   3.477  1.00  0.00     0.022 A 
BRANCH  55  58
ATOM     58  S   UNL     1       1.864 -10.703   3.002  1.00  0.00     0.127 S 
ATOM     59  O   UNL     1       1.763 -12.149   3.179  1.00  0.00    -0.237 OA
ATOM     60  O   UNL     1       1.830  -9.925   4.242  1.00  0.00    -0.237 OA
ATOM     61  O   UNL     1       1.068 -10.142   1.920  1.00  0.00    -0.744 OA
ENDBRANCH  55  58
ENDBRANCH  27  51
BRANCH  39  62
ATOM     62  C   UNL     1       9.260 -11.525  -4.545  1.00  0.00     0.023 A 
ATOM     63  C   UNL     1       8.536 -12.617  -5.062  1.00  0.00     0.012 A 
ATOM     64  C   UNL     1      10.665 -11.590  -4.484  1.00  0.00     0.148 A 
ATOM     65  C   UNL     1       9.199 -13.763  -5.497  1.00  0.00     0.002 A 
ATOM     66  C   UNL     1      11.322 -12.721  -4.955  1.00  0.00     0.091 A 
ATOM     67  F   UNL     1      11.333 -10.549  -3.967  1.00  0.00    -0.205 F 
ATOM     68  C   UNL     1      10.590 -13.811  -5.456  1.00  0.00     0.022 A 
BRANCH  66  69
ATOM     69  S   UNL     1      13.114 -12.828  -5.019  1.00  0.00     0.127 S 
ATOM     70  O   UNL     1      13.404 -13.671  -3.861  1.00  0.00    -0.237 OA
ATOM     71  O   UNL     1      13.347 -13.470  -6.314  1.00  0.00    -0.237 OA
ATOM     72  O   UNL     1      13.595 -11.455  -4.936  1.00  0.00    -0.744 OA
ENDBRANCH  66  69
ENDBRANCH  39  62
ENDBRANCH  13  14
ENDBRANCH   6   8
ENDBRANCH   3   4
ENDBRANCH   2   3
ENDBRANCH   1   2
BRANCH   1  73
ATOM     73  C   UNL     1       4.776   3.984   1.778  1.00  0.00     0.116 C 
BRANCH  73  74
ATOM     74  N   UNL     1       6.207   3.882   2.028  1.00  0.00    -0.352 N 
ATOM     75  C   UNL     1       7.046   4.700   2.745  1.00  0.00     0.251 C 
ATOM     76  H   UNL     1       6.644   3.101   1.617  1.00  0.00     0.163 HD
ATOM     77  O   UNL     1       8.256   4.497   2.746  1.00  0.00    -0.269 OA
BRANCH  75  78
ATOM     78  C   UNL     1       6.512   5.866   3.478  1.00  0.00     0.042 A 
ATOM     79  C   UNL     1       5.383   5.766   4.295  1.00  0.00     0.015 A 
ATOM     80  C   UNL     1       7.164   7.095   3.332  1.00  0.00     0.054 A 
ATOM     81  C   UNL     1       4.812   6.923   4.823  1.00  0.00     0.026 A 
ATOM     82  C   UNL     1       6.614   8.241   3.900  1.00  0.00     0.144 A 
ATOM     83  C   UNL     1       5.410   8.170   4.586  1.00  0.00     0.118 A 
ATOM     84  F   UNL     1       7.263   9.398   3.716  1.00  0.00    -0.205 F 
BRANCH  83  85
ATOM     85  S   UNL     1       4.468   9.594   5.026  1.00  0.00     0.243 S 
ATOM     86  O   UNL     1       3.143   9.387   4.487  1.00  0.00    -0.207 OA
ATOM     87  O   UNL     1       4.675   9.804   6.443  1.00  0.00    -0.207 OA
BRANCH  85  88
ATOM     88  N   UNL     1       5.130  10.919   4.261  1.00  0.00    -0.205 NA
ATOM     89  H   UNL     1       6.112  10.944   4.532  1.00  0.00     0.141 HD
BRANCH  88  90
ATOM     90  C   UNL     1       5.104  11.071   2.803  1.00  0.00     0.160 C 
BRANCH  90  91
ATOM     91  C   UNL     1       3.756  11.519   2.216  1.00  0.00     0.278 C 
BRANCH  91  92
ATOM     92  N   UNL     1       3.014  12.595   2.899  1.00  0.00    -0.334 N 
ATOM     93  C   UNL     1       1.878  13.021   2.058  1.00  0.00     0.262 C 
ATOM     94  C   UNL     1       3.776  13.819   3.164  1.00  0.00     0.262 C 
ATOM     95  H   UNL     1       2.749  12.181   3.793  1.00  0.00     0.348 HD
ATOM     96  C   UNL     1       2.448  14.114   1.171  1.00  0.00     0.067 C 
ATOM     97  C   UNL     1       3.416  14.835   2.087  1.00  0.00     0.067 C 
ENDBRANCH  91  92
ENDBRANCH  90  91
ENDBRANCH  88  90
ENDBRANCH  85  88
ENDBRANCH  83  85
ENDBRANCH  75  78
ENDBRANCH  73  74
ENDBRANCH   1  73
TORSDOF 19
