REMARK SMILES O=C(/C=C/c1ccc(O)cc1)NC[C@@H]1CC[C@H](C(=O)NCCCCNC(=O)c2ccc(-c3c4nc(c(-c5cccc(S(=O)(=O)[O-])c5F)c5ccc([nH]5)c(-c5cccc(S(=O)(=O)[O-])c5F)c5nc(c(-c6cccc(S(=O)(=O)[O-])c6F)c6ccc3[nH]6)C=C5)C=C4)cc2)O1
REMARK SMILES IDX 21 1 20 2 18 3 19 4 17 6 14 7 15 8 91 9 16 10 13 11 12 12
REMARK SMILES IDX 1 13 2 14 3 16 4 17 5 18 6 19 11 20 7 21 10 22 8 23 9 24
REMARK SMILES IDX 22 26 23 27 24 28 25 29 26 30 27 32 28 33 29 34 90 35 30 36
REMARK SMILES IDX 89 37 31 38 32 39 33 40 83 41 34 42 88 43 82 44 84 45 35 46
REMARK SMILES IDX 87 47 81 48 80 49 36 51 68 52 48 53 67 54 49 55 52 56 66 57
REMARK SMILES IDX 85 58 50 59 51 60 65 62 86 63 53 64 37 65 38 66 46 67 39 68
REMARK SMILES IDX 41 69 47 70 40 71 42 72 43 73 44 74 45 75 69 76 70 77 78 78
REMARK SMILES IDX 71 79 73 80 79 81 72 82 74 83 75 84 76 85 77 86 54 87 55 88
REMARK SMILES IDX 63 89 56 90 58 91 64 92 57 93 59 94 60 95 61 96 62 97
REMARK H PARENT 20 5 12 15 9 25 25 31 84 50 52 61
REMARK Flexibility Score: inf
ROOT
ATOM      1  C   UNL     1       0.212  -4.951   0.422  1.00  0.00     0.116 C 
ENDROOT
BRANCH   1   2
ATOM      2  N   UNL     1       0.632  -6.268   0.002  1.00  0.00    -0.354 N 
ATOM      3  C   UNL     1       1.669  -6.634  -0.807  1.00  0.00     0.249 C 
ATOM      4  O   UNL     1       1.856  -7.841  -0.987  1.00  0.00    -0.272 OA
ATOM      5  H   UNL     1       0.091  -7.012   0.351  1.00  0.00     0.163 HD
BRANCH   3   6
ATOM      6  C   UNL     1       2.560  -5.592  -1.526  1.00  0.00     0.207 C 
ATOM      7  C   UNL     1       2.951  -3.289  -1.282  1.00  0.00     0.138 C 
ATOM      8  C   UNL     1       1.876  -3.431  -2.348  1.00  0.00     0.037 C 
ATOM      9  O   UNL     1       3.131  -4.589  -0.690  1.00  0.00    -0.363 OA
ATOM     10  C   UNL     1       1.872  -4.903  -2.693  1.00  0.00     0.045 C 
BRANCH   7  11
ATOM     11  C   UNL     1       2.594  -2.303  -0.157  1.00  0.00     0.148 C 
BRANCH  11  12
ATOM     12  N   UNL     1       3.243  -1.017  -0.264  1.00  0.00    -0.350 N 
ATOM     13  O   UNL     1       1.313   0.174  -0.597  1.00  0.00    -0.270 OA
ATOM     14  C   UNL     1       2.524   0.139  -0.409  1.00  0.00     0.244 C 
ATOM     15  H   UNL     1       4.226  -0.971  -0.231  1.00  0.00     0.163 HD
BRANCH  14  16
ATOM     16  C   UNL     1       3.282   1.411  -0.297  1.00  0.00     0.072 C 
ATOM     17  C   UNL     1       4.618   1.529  -0.282  1.00  0.00     0.014 C 
BRANCH  17  18
ATOM     18  C   UNL     1       5.309   2.821  -0.247  1.00  0.00    -0.025 A 
ATOM     19  C   UNL     1       4.916   3.867   0.598  1.00  0.00     0.012 A 
ATOM     20  C   UNL     1       6.433   2.989  -1.066  1.00  0.00     0.012 A 
ATOM     21  C   UNL     1       5.620   5.075   0.600  1.00  0.00     0.047 A 
ATOM     22  C   UNL     1       7.134   4.194  -1.066  1.00  0.00     0.047 A 
ATOM     23  C   UNL     1       6.720   5.228  -0.237  1.00  0.00     0.115 A 
BRANCH  23  24
ATOM     24  O   UNL     1       7.430   6.391  -0.273  1.00  0.00    -0.508 OA
ATOM     25  H   UNL     1       7.180   7.110   0.273  1.00  0.00     0.293 HD
ENDBRANCH  23  24
ENDBRANCH  17  18
ENDBRANCH  14  16
ENDBRANCH  11  12
ENDBRANCH   7  11
ENDBRANCH   3   6
ENDBRANCH   1   2
BRANCH   1  26
ATOM     26  C   UNL     1      -1.011  -4.454  -0.345  1.00  0.00     0.023 C 
BRANCH  26  27
ATOM     27  C   UNL     1      -2.342  -4.777   0.333  1.00  0.00     0.023 C 
BRANCH  27  28
ATOM     28  C   UNL     1      -2.537  -4.124   1.698  1.00  0.00     0.116 C 
BRANCH  28  29
ATOM     29  N   UNL     1      -2.499  -2.668   1.672  1.00  0.00    -0.352 N 
ATOM     30  C   UNL     1      -3.152  -1.798   2.515  1.00  0.00     0.251 C 
ATOM     31  H   UNL     1      -1.942  -2.260   0.970  1.00  0.00     0.163 HD
ATOM     32  O   UNL     1      -3.107  -0.586   2.322  1.00  0.00    -0.269 OA
BRANCH  30  33
ATOM     33  C   UNL     1      -3.947  -2.344   3.635  1.00  0.00     0.039 A 
ATOM     34  C   UNL     1      -5.265  -1.913   3.803  1.00  0.00     0.014 A 
ATOM     35  C   UNL     1      -3.406  -3.315   4.482  1.00  0.00     0.014 A 
ATOM     36  C   UNL     1      -6.060  -2.501   4.789  1.00  0.00     0.010 A 
ATOM     37  C   UNL     1      -4.224  -3.956   5.406  1.00  0.00     0.010 A 
ATOM     38  C   UNL     1      -5.554  -3.546   5.580  1.00  0.00    -0.014 A 
BRANCH  38  39
ATOM     39  C   UNL     1      -6.395  -4.213   6.606  1.00  0.00     0.031 A 
ATOM     40  C   UNL     1      -6.010  -4.138   8.059  1.00  0.00     0.074 A 
ATOM     41  C   UNL     1      -7.452  -4.957   6.225  1.00  0.00     0.049 A 
ATOM     42  N   UNL     1      -6.596  -4.678   9.096  1.00  0.00    -0.248 NA
ATOM     43  C   UNL     1      -4.785  -3.389   8.387  1.00  0.00     0.031 C 
ATOM     44  C   UNL     1      -7.867  -5.194   4.841  1.00  0.00     0.029 A 
ATOM     45  N   UNL     1      -8.356  -5.673   6.970  1.00  0.00    -0.354 N 
ATOM     46  C   UNL     1      -5.791  -4.373  10.187  1.00  0.00     0.074 A 
ATOM     47  C   UNL     1      -4.654  -3.638   9.681  1.00  0.00     0.031 C 
ATOM     48  C   UNL     1      -8.947  -5.992   4.837  1.00  0.00     0.029 A 
ATOM     49  C   UNL     1      -9.293  -6.336   6.213  1.00  0.00     0.049 A 
ATOM     50  H   UNL     1      -8.336  -5.708   7.953  1.00  0.00     0.167 HD
ATOM     51  C   UNL     1      -5.997  -4.646  11.497  1.00  0.00     0.034 A 
ATOM     52  C   UNL     1     -10.320  -7.125   6.587  1.00  0.00     0.034 A 
ATOM     53  C   UNL     1      -7.161  -5.319  12.002  1.00  0.00     0.049 A 
ATOM     54  C   UNL     1     -10.583  -7.332   8.054  1.00  0.00     0.074 A 
ATOM     55  C   UNL     1      -7.521  -5.549  13.318  1.00  0.00     0.029 A 
ATOM     56  N   UNL     1      -8.158  -5.870  11.212  1.00  0.00    -0.354 N 
ATOM     57  N   UNL     1      -9.910  -6.880   9.085  1.00  0.00    -0.248 NA
ATOM     58  C   UNL     1     -11.774  -8.117   8.412  1.00  0.00     0.031 C 
ATOM     59  C   UNL     1      -8.732  -6.251  13.322  1.00  0.00     0.029 A 
ATOM     60  C   UNL     1      -9.134  -6.441  12.009  1.00  0.00     0.049 A 
ATOM     61  H   UNL     1      -8.169  -5.858  10.227  1.00  0.00     0.167 HD
ATOM     62  C   UNL     1     -10.614  -7.292  10.211  1.00  0.00     0.074 A 
ATOM     63  C   UNL     1     -11.777  -8.013   9.734  1.00  0.00     0.031 C 
ATOM     64  C   UNL     1     -10.317  -7.103  11.520  1.00  0.00     0.034 A 
BRANCH  51  65
ATOM     65  C   UNL     1      -4.966  -4.152  12.480  1.00  0.00     0.023 A 
ATOM     66  C   UNL     1      -4.855  -2.768  12.731  1.00  0.00     0.012 A 
ATOM     67  C   UNL     1      -4.134  -5.048  13.176  1.00  0.00     0.148 A 
ATOM     68  C   UNL     1      -3.903  -2.281  13.625  1.00  0.00     0.002 A 
ATOM     69  C   UNL     1      -3.219  -4.559  14.101  1.00  0.00     0.091 A 
ATOM     70  F   UNL     1      -4.235  -6.358  12.908  1.00  0.00    -0.205 F 
ATOM     71  C   UNL     1      -3.092  -3.176  14.317  1.00  0.00     0.022 A 
BRANCH  69  72
ATOM     72  S   UNL     1      -2.186  -5.638  15.100  1.00  0.00     0.127 S 
ATOM     73  O   UNL     1      -0.885  -5.485  14.451  1.00  0.00    -0.237 OA
ATOM     74  O   UNL     1      -2.283  -5.022  16.424  1.00  0.00    -0.237 OA
ATOM     75  O   UNL     1      -2.786  -6.961  15.005  1.00  0.00    -0.744 OA
ENDBRANCH  69  72
ENDBRANCH  51  65
BRANCH  52  76
ATOM     76  C   UNL     1     -11.232  -7.690   5.553  1.00  0.00     0.023 A 
ATOM     77  C   UNL     1     -12.534  -7.167   5.423  1.00  0.00     0.012 A 
ATOM     78  C   UNL     1     -10.808  -8.704   4.673  1.00  0.00     0.148 A 
ATOM     79  C   UNL     1     -13.407  -7.663   4.455  1.00  0.00     0.002 A 
ATOM     80  C   UNL     1     -11.666  -9.158   3.676  1.00  0.00     0.091 A 
ATOM     81  F   UNL     1      -9.569  -9.194   4.818  1.00  0.00    -0.205 F 
ATOM     82  C   UNL     1     -12.971  -8.650   3.576  1.00  0.00     0.022 A 
BRANCH  80  83
ATOM     83  S   UNL     1     -11.148 -10.331   2.418  1.00  0.00     0.127 S 
ATOM     84  O   UNL     1     -11.899 -11.525   2.796  1.00  0.00    -0.237 OA
ATOM     85  O   UNL     1     -11.605  -9.678   1.190  1.00  0.00    -0.237 OA
ATOM     86  O   UNL     1      -9.700 -10.427   2.543  1.00  0.00    -0.744 OA
ENDBRANCH  80  83
ENDBRANCH  52  76
BRANCH  64  87
ATOM     87  C   UNL     1     -11.279  -7.650  12.541  1.00  0.00     0.023 A 
ATOM     88  C   UNL     1     -11.344  -9.039  12.768  1.00  0.00     0.012 A 
ATOM     89  C   UNL     1     -12.061  -6.783  13.329  1.00  0.00     0.148 A 
ATOM     90  C   UNL     1     -12.197  -9.558  13.742  1.00  0.00     0.002 A 
ATOM     91  C   UNL     1     -12.873  -7.304  14.329  1.00  0.00     0.091 A 
ATOM     92  F   UNL     1     -12.002  -5.465  13.084  1.00  0.00    -0.205 F 
ATOM     93  C   UNL     1     -12.951  -8.691  14.530  1.00  0.00     0.022 A 
BRANCH  91  94
ATOM     94  S   UNL     1     -13.800  -6.250  15.451  1.00  0.00     0.127 S 
ATOM     95  O   UNL     1     -15.151  -6.343  14.901  1.00  0.00    -0.237 OA
ATOM     96  O   UNL     1     -13.618  -6.924  16.738  1.00  0.00    -0.237 OA
ATOM     97  O   UNL     1     -13.174  -4.937  15.369  1.00  0.00    -0.744 OA
ENDBRANCH  91  94
ENDBRANCH  64  87
ENDBRANCH  38  39
ENDBRANCH  30  33
ENDBRANCH  28  29
ENDBRANCH  27  28
ENDBRANCH  26  27
ENDBRANCH   1  26
TORSDOF 19
