REMARK SMILES C#CC[N@H+](CC(=O)NCCCCNC(=O)c1ccc(-c2c3nc(c(-c4cccc(S(=O)(=O)[O-])c4F)c4ccc([nH]4)c(-c4cccc(S(=O)(=O)[O-])c4F)c4nc(c(-c5cccc(S(=O)(=O)[O-])c5F)c5ccc2[nH]5)C=C4)C=C3)cc1)[C@H](C)[C@@H](C)O
REMARK SMILES IDX 10 1 9 2 8 3 6 4 7 5 5 7 4 8 3 10 2 11 1 12 79 13 80 14
REMARK SMILES IDX 81 15 82 16 83 17 11 19 12 20 13 21 14 22 15 24 16 25 17 26
REMARK SMILES IDX 78 27 18 28 77 29 19 30 20 31 21 32 71 33 22 34 76 35 70 36
REMARK SMILES IDX 72 37 23 38 75 39 69 40 68 41 24 43 56 44 36 45 55 46 37 47
REMARK SMILES IDX 40 48 54 49 73 50 38 51 39 52 53 54 74 55 41 56 25 57 26 58
REMARK SMILES IDX 34 59 27 60 29 61 35 62 28 63 30 64 31 65 32 66 33 67 57 68
REMARK SMILES IDX 58 69 66 70 59 71 61 72 67 73 60 74 62 75 63 76 64 77 65 78
REMARK SMILES IDX 42 79 43 80 51 81 44 82 46 83 52 84 45 85 47 86 48 87 49 88
REMARK SMILES IDX 50 89
REMARK H PARENT 8 6 4 9 83 18 13 23 72 42 40 53
REMARK Flexibility Score: inf
ROOT
ATOM      1  C   UNL     1      -2.302   3.520   2.488  1.00  0.00     0.023 C 
ENDROOT
BRANCH   1   2
ATOM      2  C   UNL     1      -3.614   3.015   1.866  1.00  0.00     0.116 C 
BRANCH   2   3
ATOM      3  N   UNL     1      -4.092   3.898   0.812  1.00  0.00    -0.351 N 
ATOM      4  C   UNL     1      -4.057   3.780  -0.557  1.00  0.00     0.275 C 
ATOM      5  O   UNL     1      -4.469   4.734  -1.222  1.00  0.00    -0.269 OA
ATOM      6  H   UNL     1      -4.515   4.726   1.137  1.00  0.00     0.163 HD
BRANCH   4   7
ATOM      7  C   UNL     1      -3.572   2.480  -1.238  1.00  0.00     0.364 C 
BRANCH   7   8
ATOM      8  N   UNL     1      -2.096   2.416  -1.568  1.00  0.00    -0.313 N 
ATOM      9  H   UNL     1      -1.819   3.116  -2.256  1.00  0.00     0.349 HD
BRANCH   8  10
ATOM     10  C   UNL     1      -1.339   2.722  -0.352  1.00  0.00     0.354 C 
BRANCH  10  11
ATOM     11  C   UNL     1       0.122   2.833  -0.341  1.00  0.00    -0.047 C 
ATOM     12  C   UNL     1       1.302   2.937  -0.151  1.00  0.00     0.010 C 
ENDBRANCH  10  11
ENDBRANCH   8  10
BRANCH   8  13
ATOM     13  C   UNL     1      -1.777   1.103  -2.227  1.00  0.00     0.210 C 
ATOM     14  C   UNL     1      -2.309  -0.131  -1.475  1.00  0.00     0.078 C 
BRANCH  13  15
ATOM     15  C   UNL     1      -0.273   0.966  -2.615  1.00  0.00     0.169 C 
ATOM     16  C   UNL     1       0.076  -0.210  -3.513  1.00  0.00     0.045 C 
BRANCH  15  17
ATOM     17  O   UNL     1       0.137   2.145  -3.319  1.00  0.00    -0.387 OA
ATOM     18  H   UNL     1      -0.360   2.215  -4.149  1.00  0.00     0.211 HD
ENDBRANCH  15  17
ENDBRANCH  13  15
ENDBRANCH   8  13
ENDBRANCH   7   8
ENDBRANCH   4   7
ENDBRANCH   2   3
ENDBRANCH   1   2
BRANCH   1  19
ATOM     19  C   UNL     1      -2.445   4.590   3.552  1.00  0.00     0.023 C 
BRANCH  19  20
ATOM     20  C   UNL     1      -3.095   4.096   4.822  1.00  0.00     0.116 C 
BRANCH  20  21
ATOM     21  N   UNL     1      -2.400   2.955   5.407  1.00  0.00    -0.352 N 
ATOM     22  C   UNL     1      -2.048   2.746   6.717  1.00  0.00     0.251 C 
ATOM     23  H   UNL     1      -2.150   2.239   4.779  1.00  0.00     0.163 HD
ATOM     24  O   UNL     1      -1.325   1.803   7.019  1.00  0.00    -0.269 OA
BRANCH  22  25
ATOM     25  C   UNL     1      -2.530   3.692   7.741  1.00  0.00     0.039 A 
ATOM     26  C   UNL     1      -1.643   4.143   8.717  1.00  0.00     0.014 A 
ATOM     27  C   UNL     1      -3.838   4.180   7.687  1.00  0.00     0.014 A 
ATOM     28  C   UNL     1      -2.062   5.128   9.607  1.00  0.00     0.010 A 
ATOM     29  C   UNL     1      -4.203   5.255   8.480  1.00  0.00     0.010 A 
ATOM     30  C   UNL     1      -3.332   5.719   9.471  1.00  0.00    -0.014 A 
BRANCH  30  31
ATOM     31  C   UNL     1      -3.751   6.817  10.372  1.00  0.00     0.031 A 
ATOM     32  C   UNL     1      -4.962   6.662  11.250  1.00  0.00     0.074 A 
ATOM     33  C   UNL     1      -3.051   7.968  10.371  1.00  0.00     0.049 A 
ATOM     34  N   UNL     1      -5.422   7.478  12.162  1.00  0.00    -0.248 NA
ATOM     35  C   UNL     1      -5.785   5.453  11.067  1.00  0.00     0.031 C 
ATOM     36  C   UNL     1      -1.930   8.277   9.478  1.00  0.00     0.029 A 
ATOM     37  N   UNL     1      -3.176   9.092  11.145  1.00  0.00    -0.354 N 
ATOM     38  C   UNL     1      -6.591   6.898  12.637  1.00  0.00     0.074 A 
ATOM     39  C   UNL     1      -6.804   5.689  11.877  1.00  0.00     0.031 C 
ATOM     40  C   UNL     1      -1.443   9.488   9.785  1.00  0.00     0.029 A 
ATOM     41  C   UNL     1      -2.235  10.056  10.871  1.00  0.00     0.049 A 
ATOM     42  H   UNL     1      -3.874   9.199  11.831  1.00  0.00     0.167 HD
ATOM     43  C   UNL     1      -7.398   7.315  13.640  1.00  0.00     0.034 A 
ATOM     44  C   UNL     1      -2.030  11.259  11.438  1.00  0.00     0.034 A 
ATOM     45  C   UNL     1      -7.162   8.507  14.407  1.00  0.00     0.049 A 
ATOM     46  C   UNL     1      -2.900  11.670  12.592  1.00  0.00     0.074 A 
ATOM     47  C   UNL     1      -7.863   8.977  15.502  1.00  0.00     0.029 A 
ATOM     48  N   UNL     1      -6.159   9.428  14.147  1.00  0.00    -0.354 N 
ATOM     49  N   UNL     1      -3.899  11.024  13.144  1.00  0.00    -0.248 NA
ATOM     50  C   UNL     1      -2.584  12.953  13.232  1.00  0.00     0.031 C 
ATOM     51  C   UNL     1      -7.311  10.207  15.877  1.00  0.00     0.029 A 
ATOM     52  C   UNL     1      -6.230  10.473  15.051  1.00  0.00     0.049 A 
ATOM     53  H   UNL     1      -5.493   9.349  13.426  1.00  0.00     0.167 HD
ATOM     54  C   UNL     1      -4.310  11.805  14.217  1.00  0.00     0.074 A 
ATOM     55  C   UNL     1      -3.430  12.956  14.253  1.00  0.00     0.031 C 
ATOM     56  C   UNL     1      -5.327  11.596  15.089  1.00  0.00     0.034 A 
BRANCH  43  57
ATOM     57  C   UNL     1      -8.589   6.458  13.983  1.00  0.00     0.023 A 
ATOM     58  C   UNL     1      -8.400   5.185  14.563  1.00  0.00     0.012 A 
ATOM     59  C   UNL     1      -9.899   6.931  13.773  1.00  0.00     0.148 A 
ATOM     60  C   UNL     1      -9.492   4.383  14.891  1.00  0.00     0.002 A 
ATOM     61  C   UNL     1     -10.982   6.148  14.152  1.00  0.00     0.091 A 
ATOM     62  F   UNL     1     -10.060   8.130  13.197  1.00  0.00    -0.205 F 
ATOM     63  C   UNL     1     -10.782   4.869  14.697  1.00  0.00     0.022 A 
BRANCH  61  64
ATOM     64  S   UNL     1     -12.680   6.717  14.023  1.00  0.00     0.127 S 
ATOM     65  O   UNL     1     -13.205   5.843  12.975  1.00  0.00    -0.237 OA
ATOM     66  O   UNL     1     -13.197   6.441  15.363  1.00  0.00    -0.237 OA
ATOM     67  O   UNL     1     -12.607   8.130  13.677  1.00  0.00    -0.744 OA
ENDBRANCH  61  64
ENDBRANCH  43  57
BRANCH  44  68
ATOM     68  C   UNL     1      -0.915  12.125  10.963  1.00  0.00     0.023 A 
ATOM     69  C   UNL     1       0.203  12.350  11.789  1.00  0.00     0.012 A 
ATOM     70  C   UNL     1      -0.948  12.701   9.679  1.00  0.00     0.148 A 
ATOM     71  C   UNL     1       1.251  13.165  11.359  1.00  0.00     0.002 A 
ATOM     72  C   UNL     1       0.125  13.461   9.234  1.00  0.00     0.091 A 
ATOM     73  F   UNL     1      -2.025  12.478   8.912  1.00  0.00    -0.205 F 
ATOM     74  C   UNL     1       1.217  13.712  10.079  1.00  0.00     0.022 A 
BRANCH  72  75
ATOM     75  S   UNL     1       0.227  14.088   7.554  1.00  0.00     0.127 S 
ATOM     76  O   UNL     1       0.106  15.528   7.765  1.00  0.00    -0.237 OA
ATOM     77  O   UNL     1       1.556  13.632   7.146  1.00  0.00    -0.237 OA
ATOM     78  O   UNL     1      -0.871  13.460   6.832  1.00  0.00    -0.744 OA
ENDBRANCH  72  75
ENDBRANCH  44  68
BRANCH  56  79
ATOM     79  C   UNL     1      -5.514  12.612  16.186  1.00  0.00     0.023 A 
ATOM     80  C   UNL     1      -5.954  13.916  15.881  1.00  0.00     0.012 A 
ATOM     81  C   UNL     1      -5.278  12.259  17.529  1.00  0.00     0.148 A 
ATOM     82  C   UNL     1      -6.096  14.869  16.889  1.00  0.00     0.002 A 
ATOM     83  C   UNL     1      -5.481  13.196  18.534  1.00  0.00     0.091 A 
ATOM     84  F   UNL     1      -4.846  11.019  17.800  1.00  0.00    -0.205 F 
ATOM     85  C   UNL     1      -5.869  14.507  18.214  1.00  0.00     0.022 A 
BRANCH  83  86
ATOM     86  S   UNL     1      -5.314  12.785  20.273  1.00  0.00     0.127 S 
ATOM     87  O   UNL     1      -4.054  13.443  20.615  1.00  0.00    -0.237 OA
ATOM     88  O   UNL     1      -6.505  13.407  20.854  1.00  0.00    -0.237 OA
ATOM     89  O   UNL     1      -5.301  11.330  20.342  1.00  0.00    -0.744 OA
ENDBRANCH  83  86
ENDBRANCH  56  79
ENDBRANCH  30  31
ENDBRANCH  22  25
ENDBRANCH  20  21
ENDBRANCH  19  20
ENDBRANCH   1  19
TORSDOF 20
