REMARK SMILES Cc1c(Cc2nc(C(C)(C)C)cs2)cccc1C(=O)NCCCCNC(=O)c1ccc(-c2c3nc(c(-c4cccc(S(=O)(=O)[O-])c4F)c4ccc([nH]4)c(-c4cccc(S(=O)(=O)[O-])c4F)c4nc(c(-c5cccc(S(=O)(=O)[O-])c5F)c5ccc2[nH]5)C=C4)C=C3)cc1
REMARK SMILES IDX 22 1 21 2 20 3 18 4 19 5 17 7 1 8 2 9 3 10 14 11 16 12 15 13
REMARK SMILES IDX 4 14 5 15 6 16 13 17 7 18 12 19 8 20 9 21 10 22 11 23 23 24
REMARK SMILES IDX 24 25 25 26 26 27 27 29 28 30 29 31 90 32 30 33 89 34 31 35
REMARK SMILES IDX 32 36 33 37 83 38 34 39 88 40 82 41 84 42 35 43 87 44 81 45
REMARK SMILES IDX 80 46 36 48 68 49 48 50 67 51 49 52 52 53 66 54 85 55 50 56
REMARK SMILES IDX 51 57 65 59 86 60 53 61 37 62 38 63 46 64 39 65 41 66 47 67
REMARK SMILES IDX 40 68 42 69 43 70 44 71 45 72 69 73 70 74 78 75 71 76 73 77
REMARK SMILES IDX 79 78 72 79 74 80 75 81 76 82 77 83 54 84 55 85 63 86 56 87
REMARK SMILES IDX 58 88 64 89 57 90 59 91 60 92 61 93 62 94
REMARK H PARENT 20 6 25 28 84 47 52 58
REMARK Flexibility Score: inf
ROOT
ATOM      1  C   UNL     1       4.080   1.631  -1.403  1.00  0.00     0.023 C 
ENDROOT
BRANCH   1   2
ATOM      2  C   UNL     1       3.445   1.924  -0.036  1.00  0.00     0.116 C 
BRANCH   2   3
ATOM      3  N   UNL     1       2.194   2.633  -0.208  1.00  0.00    -0.352 N 
ATOM      4  C   UNL     1       0.885   2.284  -0.406  1.00  0.00     0.251 C 
ATOM      5  O   UNL     1       0.144   3.238  -0.680  1.00  0.00    -0.269 OA
ATOM      6  H   UNL     1       2.315   3.610  -0.174  1.00  0.00     0.163 HD
BRANCH   4   7
ATOM      7  C   UNL     1       0.242   0.926  -0.235  1.00  0.00     0.043 A 
ATOM      8  C   UNL     1       2.001  -0.664  -1.217  1.00  0.00     0.045 C 
ATOM      9  C   UNL     1       0.742  -0.381  -0.463  1.00  0.00    -0.035 A 
ATOM     10  C   UNL     1      -0.042  -1.514  -0.105  1.00  0.00    -0.037 A 
ATOM     11  C   UNL     1      -1.399  -1.341   0.212  1.00  0.00     0.004 A 
ATOM     12  C   UNL     1      -1.121   1.035   0.135  1.00  0.00     0.014 A 
ATOM     13  C   UNL     1      -1.945  -0.074   0.305  1.00  0.00     0.001 A 
BRANCH  10  14
ATOM     14  C   UNL     1       0.535  -2.929  -0.072  1.00  0.00     0.103 C 
BRANCH  14  15
ATOM     15  C   UNL     1       0.316  -3.593   1.253  1.00  0.00     0.097 A 
ATOM     16  N   UNL     1      -0.820  -4.158   1.590  1.00  0.00    -0.245 NA
ATOM     17  S   UNL     1       1.531  -3.601   2.464  1.00  0.00    -0.127 S 
ATOM     18  C   UNL     1      -0.812  -4.494   2.929  1.00  0.00     0.057 A 
ATOM     19  C   UNL     1       0.413  -4.314   3.551  1.00  0.00     0.091 A 
BRANCH  18  20
ATOM     20  C   UNL     1      -2.104  -4.998   3.540  1.00  0.00     0.005 C 
ATOM     21  C   UNL     1      -1.974  -6.493   3.869  1.00  0.00     0.017 C 
ATOM     22  C   UNL     1      -2.438  -4.205   4.817  1.00  0.00     0.017 C 
ATOM     23  C   UNL     1      -3.282  -4.814   2.554  1.00  0.00     0.017 C 
ENDBRANCH  18  20
ENDBRANCH  14  15
ENDBRANCH  10  14
ENDBRANCH   4   7
ENDBRANCH   2   3
ENDBRANCH   1   2
BRANCH   1  24
ATOM     24  C   UNL     1       4.787   2.761  -2.155  1.00  0.00     0.023 C 
BRANCH  24  25
ATOM     25  C   UNL     1       6.205   3.069  -1.718  1.00  0.00     0.116 C 
BRANCH  25  26
ATOM     26  N   UNL     1       7.061   1.886  -1.784  1.00  0.00    -0.352 N 
ATOM     27  C   UNL     1       8.258   1.637  -1.141  1.00  0.00     0.251 C 
ATOM     28  H   UNL     1       6.739   1.164  -2.370  1.00  0.00     0.163 HD
ATOM     29  O   UNL     1       9.069   0.893  -1.676  1.00  0.00    -0.269 OA
BRANCH  27  30
ATOM     30  C   UNL     1       8.481   2.198   0.204  1.00  0.00     0.039 A 
ATOM     31  C   UNL     1       9.739   2.229   0.818  1.00  0.00     0.014 A 
ATOM     32  C   UNL     1       7.351   2.535   0.934  1.00  0.00     0.014 A 
ATOM     33  C   UNL     1       9.809   2.449   2.194  1.00  0.00     0.010 A 
ATOM     34  C   UNL     1       7.459   3.076   2.168  1.00  0.00     0.010 A 
ATOM     35  C   UNL     1       8.634   2.787   2.851  1.00  0.00    -0.014 A 
BRANCH  35  36
ATOM     36  C   UNL     1       8.357   2.665   4.269  1.00  0.00     0.031 A 
ATOM     37  C   UNL     1       8.612   3.814   5.136  1.00  0.00     0.074 A 
ATOM     38  C   UNL     1       7.378   1.754   4.512  1.00  0.00     0.049 A 
ATOM     39  N   UNL     1       8.382   3.833   6.400  1.00  0.00    -0.248 NA
ATOM     40  C   UNL     1       9.161   5.062   4.620  1.00  0.00     0.031 C 
ATOM     41  C   UNL     1       6.281   1.846   5.461  1.00  0.00     0.029 A 
ATOM     42  N   UNL     1       7.112   0.552   3.838  1.00  0.00    -0.354 N 
ATOM     43  C   UNL     1       8.378   5.162   6.769  1.00  0.00     0.074 A 
ATOM     44  C   UNL     1       9.071   5.839   5.702  1.00  0.00     0.031 C 
ATOM     45  C   UNL     1       5.655   0.655   5.509  1.00  0.00     0.029 A 
ATOM     46  C   UNL     1       6.470  -0.284   4.754  1.00  0.00     0.049 A 
ATOM     47  H   UNL     1       7.335   0.340   2.902  1.00  0.00     0.167 HD
ATOM     48  C   UNL     1       7.592   5.539   7.819  1.00  0.00     0.034 A 
ATOM     49  C   UNL     1       7.102  -1.379   5.282  1.00  0.00     0.034 A 
ATOM     50  C   UNL     1       6.968   4.345   8.438  1.00  0.00     0.049 A 
ATOM     51  C   UNL     1       7.406  -1.198   6.765  1.00  0.00     0.074 A 
ATOM     52  C   UNL     1       5.684   3.825   8.405  1.00  0.00     0.029 A 
ATOM     53  N   UNL     1       7.779   3.330   8.945  1.00  0.00    -0.354 N 
ATOM     54  N   UNL     1       7.159  -0.103   7.433  1.00  0.00    -0.248 NA
ATOM     55  C   UNL     1       8.007  -2.220   7.617  1.00  0.00     0.031 C 
ATOM     56  C   UNL     1       5.759   2.447   8.771  1.00  0.00     0.029 A 
ATOM     57  C   UNL     1       7.076   2.137   9.069  1.00  0.00     0.049 A 
ATOM     58  H   UNL     1       8.727   3.444   9.185  1.00  0.00     0.167 HD
ATOM     59  C   UNL     1       7.681  -0.177   8.692  1.00  0.00     0.074 A 
ATOM     60  C   UNL     1       8.118  -1.562   8.787  1.00  0.00     0.031 C 
ATOM     61  C   UNL     1       7.764   0.919   9.513  1.00  0.00     0.034 A 
BRANCH  48  62
ATOM     62  C   UNL     1       7.136   6.964   8.146  1.00  0.00     0.023 A 
ATOM     63  C   UNL     1       6.178   7.103   9.177  1.00  0.00     0.012 A 
ATOM     64  C   UNL     1       7.509   8.174   7.505  1.00  0.00     0.148 A 
ATOM     65  C   UNL     1       5.591   8.333   9.511  1.00  0.00     0.002 A 
ATOM     66  C   UNL     1       6.933   9.405   7.840  1.00  0.00     0.091 A 
ATOM     67  F   UNL     1       8.433   8.177   6.551  1.00  0.00    -0.205 F 
ATOM     68  C   UNL     1       5.963   9.486   8.837  1.00  0.00     0.022 A 
BRANCH  66  69
ATOM     69  S   UNL     1       7.377  10.949   7.011  1.00  0.00     0.127 S 
ATOM     70  O   UNL     1       6.087  11.395   6.482  1.00  0.00    -0.237 OA
ATOM     71  O   UNL     1       7.894  11.757   8.114  1.00  0.00    -0.237 OA
ATOM     72  O   UNL     1       8.361  10.608   5.989  1.00  0.00    -0.744 OA
ENDBRANCH  66  69
ENDBRANCH  48  62
BRANCH  49  73
ATOM     73  C   UNL     1       7.961  -2.087   4.275  1.00  0.00     0.023 A 
ATOM     74  C   UNL     1       7.277  -2.731   3.214  1.00  0.00     0.012 A 
ATOM     75  C   UNL     1       9.307  -1.718   4.085  1.00  0.00     0.148 A 
ATOM     76  C   UNL     1       7.859  -2.845   1.949  1.00  0.00     0.002 A 
ATOM     77  C   UNL     1       9.871  -1.811   2.811  1.00  0.00     0.091 A 
ATOM     78  F   UNL     1       9.972  -1.183   5.116  1.00  0.00    -0.205 F 
ATOM     79  C   UNL     1       9.136  -2.337   1.735  1.00  0.00     0.022 A 
BRANCH  77  80
ATOM     80  S   UNL     1      11.485  -1.107   2.433  1.00  0.00     0.127 S 
ATOM     81  O   UNL     1      12.333  -2.294   2.438  1.00  0.00    -0.237 OA
ATOM     82  O   UNL     1      11.273  -0.511   1.117  1.00  0.00    -0.237 OA
ATOM     83  O   UNL     1      11.732  -0.136   3.493  1.00  0.00    -0.744 OA
ENDBRANCH  77  80
ENDBRANCH  49  73
BRANCH  61  84
ATOM     84  C   UNL     1       8.533   0.962  10.821  1.00  0.00     0.023 A 
ATOM     85  C   UNL     1       9.594   0.082  11.105  1.00  0.00     0.012 A 
ATOM     86  C   UNL     1       8.308   2.009  11.753  1.00  0.00     0.148 A 
ATOM     87  C   UNL     1      10.346   0.187  12.281  1.00  0.00     0.002 A 
ATOM     88  C   UNL     1       9.145   2.189  12.848  1.00  0.00     0.091 A 
ATOM     89  F   UNL     1       7.261   2.833  11.597  1.00  0.00    -0.205 F 
ATOM     90  C   UNL     1      10.140   1.257  13.139  1.00  0.00     0.022 A 
BRANCH  88  91
ATOM     91  S   UNL     1       9.089   3.710  13.807  1.00  0.00     0.127 S 
ATOM     92  O   UNL     1       8.198   3.344  14.905  1.00  0.00    -0.237 OA
ATOM     93  O   UNL     1      10.491   3.890  14.192  1.00  0.00    -0.237 OA
ATOM     94  O   UNL     1       8.594   4.721  12.882  1.00  0.00    -0.744 OA
ENDBRANCH  88  91
ENDBRANCH  61  84
ENDBRANCH  35  36
ENDBRANCH  27  30
ENDBRANCH  25  26
ENDBRANCH  24  25
ENDBRANCH   1  24
TORSDOF 17
