REMARK SMILES COc1ccc(N[C@]2(Br)C(=O)NC(=O)N[C@@H]2C(=O)NCCCCNC(=O)c2ccc(-c3c4nc(c(-c5cccc(S(=O)(=O)[O-])c5F)c5ccc([nH]5)c(-c5cccc(S(=O)(=O)[O-])c5F)c5nc(c(-c6cccc(S(=O)(=O)[O-])c6F)c6ccc3[nH]6)C=C5)C=C4)cc2)cc1
REMARK SMILES IDX 21 1 20 2 19 3 17 4 18 5 16 7 8 8 10 9 9 10 11 11 12 12
REMARK SMILES IDX 15 13 13 14 14 17 7 18 6 20 3 21 4 22 91 23 5 24 90 25 2 26
REMARK SMILES IDX 1 27 22 28 23 29 24 30 25 31 26 33 27 34 28 35 89 36 29 37
REMARK SMILES IDX 88 38 30 39 31 40 32 41 82 42 33 43 87 44 81 45 83 46 34 47
REMARK SMILES IDX 86 48 80 49 79 50 35 52 67 53 47 54 66 55 48 56 51 57 65 58
REMARK SMILES IDX 84 59 49 60 50 61 64 63 85 64 52 65 36 66 37 67 45 68 38 69
REMARK SMILES IDX 40 70 46 71 39 72 41 73 42 74 43 75 44 76 68 77 69 78 77 79
REMARK SMILES IDX 70 80 72 81 78 82 71 83 73 84 74 85 75 86 76 87 53 88 54 89
REMARK SMILES IDX 62 90 55 91 57 92 63 93 56 94 58 95 59 96 60 97 61 98
REMARK H PARENT 19 6 12 15 15 16 7 19 24 32 83 51 51 62
REMARK Flexibility Score: inf
ROOT
ATOM      1  C   UNL     1      -0.862   8.353  -4.100  1.00  0.00     0.023 C 
ENDROOT
BRANCH   1   2
ATOM      2  C   UNL     1      -0.064   8.796  -2.878  1.00  0.00     0.116 C 
BRANCH   2   3
ATOM      3  N   UNL     1      -0.966   9.372  -1.912  1.00  0.00    -0.354 N 
ATOM      4  C   UNL     1      -1.469   8.897  -0.750  1.00  0.00     0.246 C 
ATOM      5  O   UNL     1      -2.571   9.358  -0.421  1.00  0.00    -0.273 OA
ATOM      6  H   UNL     1      -1.273  10.279  -2.141  1.00  0.00     0.163 HD
BRANCH   4   7
ATOM      7  C   UNL     1      -0.850   7.799   0.113  1.00  0.00     0.219 C 
ATOM      8  C   UNL     1       0.646   7.762   0.427  1.00  0.00     0.202 C 
ATOM      9  C   UNL     1       1.386   6.812  -0.555  1.00  0.00     0.267 C 
ATOM     10  Br  UNL     1       0.846   6.676   2.143  1.00  0.00    -0.048 Br
ATOM     11  O   UNL     1       2.603   6.874  -0.756  1.00  0.00    -0.271 OA
ATOM     12  N   UNL     1       0.649   5.853  -1.209  1.00  0.00    -0.275 N 
ATOM     13  N   UNL     1      -1.398   6.547  -0.414  1.00  0.00    -0.322 N 
ATOM     14  C   UNL     1      -0.697   5.665  -1.159  1.00  0.00     0.322 C 
ATOM     15  H   UNL     1       1.154   5.229  -1.779  1.00  0.00     0.174 HD
ATOM     16  H   UNL     1      -2.337   6.334  -0.211  1.00  0.00     0.166 HD
ATOM     17  O   UNL     1      -1.244   4.749  -1.758  1.00  0.00    -0.248 OA
BRANCH   8  18
ATOM     18  N   UNL     1       1.471   8.964   0.665  1.00  0.00    -0.360 N 
ATOM     19  H   UNL     1       2.398   8.874   0.347  1.00  0.00     0.162 HD
BRANCH  18  20
ATOM     20  C   UNL     1       1.202  10.184   1.244  1.00  0.00     0.036 A 
ATOM     21  C   UNL     1       0.792  12.740   2.415  1.00  0.00     0.119 A 
ATOM     22  C   UNL     1      -0.074  12.266   1.450  1.00  0.00     0.048 A 
ATOM     23  C   UNL     1       1.856  11.950   2.829  1.00  0.00     0.048 A 
ATOM     24  C   UNL     1       0.147  11.012   0.873  1.00  0.00     0.029 A 
ATOM     25  C   UNL     1       2.053  10.684   2.246  1.00  0.00     0.029 A 
BRANCH  21  26
ATOM     26  O   UNL     1       0.522  13.955   2.973  1.00  0.00    -0.497 OA
ATOM     27  C   UNL     1       1.449  14.948   2.536  1.00  0.00     0.278 C 
ENDBRANCH  21  26
ENDBRANCH  18  20
ENDBRANCH   8  18
ENDBRANCH   4   7
ENDBRANCH   2   3
ENDBRANCH   1   2
BRANCH   1  28
ATOM     28  C   UNL     1      -1.192   9.507  -5.048  1.00  0.00     0.023 C 
BRANCH  28  29
ATOM     29  C   UNL     1       0.028  10.150  -5.699  1.00  0.00     0.116 C 
BRANCH  29  30
ATOM     30  N   UNL     1       0.858   9.185  -6.411  1.00  0.00    -0.352 N 
ATOM     31  C   UNL     1       1.394   9.290  -7.669  1.00  0.00     0.251 C 
ATOM     32  H   UNL     1       1.058   8.352  -5.926  1.00  0.00     0.163 HD
ATOM     33  O   UNL     1       1.945   8.329  -8.198  1.00  0.00    -0.269 OA
BRANCH  31  34
ATOM     34  C   UNL     1       1.272  10.575  -8.378  1.00  0.00     0.039 A 
ATOM     35  C   UNL     1       0.713  10.599  -9.656  1.00  0.00     0.014 A 
ATOM     36  C   UNL     1       1.643  11.758  -7.732  1.00  0.00     0.014 A 
ATOM     37  C   UNL     1       0.469  11.828 -10.268  1.00  0.00     0.010 A 
ATOM     38  C   UNL     1       1.324  12.978  -8.310  1.00  0.00     0.010 A 
ATOM     39  C   UNL     1       0.743  13.025  -9.586  1.00  0.00    -0.014 A 
BRANCH  39  40
ATOM     40  C   UNL     1       0.431  14.344 -10.189  1.00  0.00     0.031 A 
ATOM     41  C   UNL     1       1.542  15.317 -10.474  1.00  0.00     0.074 A 
ATOM     42  C   UNL     1      -0.854  14.698 -10.389  1.00  0.00     0.049 A 
ATOM     43  N   UNL     1       1.469  16.534 -10.944  1.00  0.00    -0.248 NA
ATOM     44  C   UNL     1       2.912  14.879 -10.154  1.00  0.00     0.031 C 
ATOM     45  C   UNL     1      -2.021  13.877 -10.059  1.00  0.00     0.029 A 
ATOM     46  N   UNL     1      -1.394  15.853 -10.895  1.00  0.00    -0.354 N 
ATOM     47  C   UNL     1       2.770  17.020 -10.937  1.00  0.00     0.074 A 
ATOM     48  C   UNL     1       3.608  15.983 -10.377  1.00  0.00     0.031 C 
ATOM     49  C   UNL     1      -3.138  14.550 -10.381  1.00  0.00     0.029 A 
ATOM     50  C   UNL     1      -2.769  15.856 -10.918  1.00  0.00     0.049 A 
ATOM     51  H   UNL     1      -0.848  16.609 -11.211  1.00  0.00     0.167 HD
ATOM     52  C   UNL     1       3.234  18.207 -11.392  1.00  0.00     0.034 A 
ATOM     53  C   UNL     1      -3.633  16.803 -11.332  1.00  0.00     0.034 A 
ATOM     54  C   UNL     1       2.405  19.206 -12.008  1.00  0.00     0.049 A 
ATOM     55  C   UNL     1      -3.086  18.083 -11.906  1.00  0.00     0.074 A 
ATOM     56  C   UNL     1       2.786  20.398 -12.595  1.00  0.00     0.029 A 
ATOM     57  N   UNL     1       1.025  19.127 -12.117  1.00  0.00    -0.354 N 
ATOM     58  N   UNL     1      -1.837  18.455 -12.050  1.00  0.00    -0.248 NA
ATOM     59  C   UNL     1      -4.065  19.057 -12.411  1.00  0.00     0.031 C 
ATOM     60  C   UNL     1       1.634  21.047 -13.052  1.00  0.00     0.029 A 
ATOM     61  C   UNL     1       0.537  20.250 -12.762  1.00  0.00     0.049 A 
ATOM     62  H   UNL     1       0.474  18.382 -11.785  1.00  0.00     0.167 HD
ATOM     63  C   UNL     1      -1.877  19.686 -12.694  1.00  0.00     0.074 A 
ATOM     64  C   UNL     1      -3.275  19.987 -12.931  1.00  0.00     0.031 C 
ATOM     65  C   UNL     1      -0.853  20.503 -13.042  1.00  0.00     0.034 A 
BRANCH  52  66
ATOM     66  C   UNL     1       4.716  18.456 -11.305  1.00  0.00     0.023 A 
ATOM     67  C   UNL     1       5.589  17.745 -12.155  1.00  0.00     0.012 A 
ATOM     68  C   UNL     1       5.244  19.418 -10.422  1.00  0.00     0.148 A 
ATOM     69  C   UNL     1       6.965  17.958 -12.101  1.00  0.00     0.002 A 
ATOM     70  C   UNL     1       6.614  19.657 -10.406  1.00  0.00     0.091 A 
ATOM     71  F   UNL     1       4.403  20.067  -9.605  1.00  0.00    -0.205 F 
ATOM     72  C   UNL     1       7.476  18.920 -11.235  1.00  0.00     0.022 A 
BRANCH  70  73
ATOM     73  S   UNL     1       7.362  20.929  -9.381  1.00  0.00     0.127 S 
ATOM     74  O   UNL     1       8.030  20.127  -8.357  1.00  0.00    -0.237 OA
ATOM     75  O   UNL     1       8.265  21.591 -10.323  1.00  0.00    -0.237 OA
ATOM     76  O   UNL     1       6.263  21.759  -8.909  1.00  0.00    -0.744 OA
ENDBRANCH  70  73
ENDBRANCH  52  66
BRANCH  53  77
ATOM     77  C   UNL     1      -5.099  16.539 -11.304  1.00  0.00     0.023 A 
ATOM     78  C   UNL     1      -5.785  16.337 -12.518  1.00  0.00     0.012 A 
ATOM     79  C   UNL     1      -5.810  16.452 -10.092  1.00  0.00     0.148 A 
ATOM     80  C   UNL     1      -7.157  16.087 -12.528  1.00  0.00     0.002 A 
ATOM     81  C   UNL     1      -7.167  16.150 -10.106  1.00  0.00     0.091 A 
ATOM     82  F   UNL     1      -5.143  16.658  -8.948  1.00  0.00    -0.205 F 
ATOM     83  C   UNL     1      -7.846  15.983 -11.323  1.00  0.00     0.022 A 
BRANCH  81  84
ATOM     84  S   UNL     1      -8.104  15.869  -8.599  1.00  0.00     0.127 S 
ATOM     85  O   UNL     1      -8.912  17.083  -8.518  1.00  0.00    -0.237 OA
ATOM     86  O   UNL     1      -8.849  14.653  -8.926  1.00  0.00    -0.237 OA
ATOM     87  O   UNL     1      -7.109  15.696  -7.549  1.00  0.00    -0.744 OA
ENDBRANCH  81  84
ENDBRANCH  53  77
BRANCH  65  88
ATOM     88  C   UNL     1      -1.194  21.788 -13.747  1.00  0.00     0.023 A 
ATOM     89  C   UNL     1      -1.768  22.850 -13.021  1.00  0.00     0.012 A 
ATOM     90  C   UNL     1      -0.869  21.972 -15.105  1.00  0.00     0.148 A 
ATOM     91  C   UNL     1      -2.041  24.067 -13.644  1.00  0.00     0.002 A 
ATOM     92  C   UNL     1      -1.100  23.203 -15.707  1.00  0.00     0.091 A 
ATOM     93  F   UNL     1      -0.341  20.942 -15.783  1.00  0.00    -0.205 F 
ATOM     94  C   UNL     1      -1.695  24.248 -14.982  1.00  0.00     0.022 A 
BRANCH  92  95
ATOM     95  S   UNL     1      -0.597  23.553 -17.396  1.00  0.00     0.127 S 
ATOM     96  O   UNL     1      -1.876  23.511 -18.102  1.00  0.00    -0.237 OA
ATOM     97  O   UNL     1      -0.009  24.888 -17.277  1.00  0.00    -0.237 OA
ATOM     98  O   UNL     1       0.352  22.507 -17.753  1.00  0.00    -0.744 OA
ENDBRANCH  92  95
ENDBRANCH  65  88
ENDBRANCH  39  40
ENDBRANCH  31  34
ENDBRANCH  29  30
ENDBRANCH  28  29
ENDBRANCH   1  28
TORSDOF 17
