REMARK SMILES O=C(NCCCCNC(=O)[C@@H]1CCCC[C@@H]1C(=O)Nc1nc(-c2ccc(Cl)c(Cl)c2)cs1)c1ccc(-c2c3nc(c(-c4cccc(S(=O)(=O)[O-])c4F)c4ccc([nH]4)c(-c4cccc(S(=O)(=O)[O-])c4F)c4nc(c(-c5cccc(S(=O)(=O)[O-])c5F)c5ccc2[nH]5)C=C4)C=C3)cc1
REMARK SMILES IDX 5 1 4 2 3 3 1 4 2 5 33 7 34 8 95 9 35 10 94 11 36 12 37 13
REMARK SMILES IDX 38 14 88 15 39 16 93 17 87 18 89 19 40 20 92 21 86 22 85 23
REMARK SMILES IDX 41 25 73 26 53 27 72 28 54 29 57 30 71 31 90 32 55 33 56 34
REMARK SMILES IDX 70 36 91 37 58 38 42 39 43 40 51 41 44 42 46 43 52 44 45 45
REMARK SMILES IDX 47 46 48 47 49 48 50 49 74 50 75 51 83 52 76 53 78 54 84 55
REMARK SMILES IDX 77 56 79 57 80 58 81 59 82 60 59 61 60 62 68 63 61 64 63 65
REMARK SMILES IDX 69 66 62 67 64 68 65 69 66 70 67 71 6 72 7 73 8 74 9 75
REMARK SMILES IDX 10 77 11 78 12 79 16 80 13 81 15 82 14 83 17 84 18 85 19 86
REMARK SMILES IDX 20 88 21 89 32 90 22 91 31 92 23 93 24 94 30 95 25 96 28 97
REMARK SMILES IDX 26 98 29 99 27 100
REMARK H PARENT 3 6 89 24 57 35 8 76 19 87
REMARK Flexibility Score: inf
ROOT
ATOM      1  C   UNL     1       4.717  -1.716   2.181  1.00  0.00     0.023 C 
ENDROOT
BRANCH   1   2
ATOM      2  C   UNL     1       4.456  -1.125   0.801  1.00  0.00     0.116 C 
BRANCH   2   3
ATOM      3  N   UNL     1       3.041  -1.060   0.476  1.00  0.00    -0.352 N 
ATOM      4  O   UNL     1       1.081  -0.076  -0.030  1.00  0.00    -0.269 OA
ATOM      5  C   UNL     1       2.304   0.012   0.032  1.00  0.00     0.251 C 
ATOM      6  H   UNL     1       2.541  -1.901   0.590  1.00  0.00     0.163 HD
BRANCH   5   7
ATOM      7  C   UNL     1       2.987   1.271  -0.337  1.00  0.00     0.039 A 
ATOM      8  C   UNL     1       4.139   1.252  -1.128  1.00  0.00     0.014 A 
ATOM      9  C   UNL     1       2.472   2.486   0.120  1.00  0.00     0.014 A 
ATOM     10  C   UNL     1       4.850   2.426  -1.349  1.00  0.00     0.010 A 
ATOM     11  C   UNL     1       3.148   3.675  -0.164  1.00  0.00     0.010 A 
ATOM     12  C   UNL     1       4.362   3.651  -0.871  1.00  0.00    -0.014 A 
BRANCH  12  13
ATOM     13  C   UNL     1       5.104   4.905  -1.157  1.00  0.00     0.031 A 
ATOM     14  C   UNL     1       5.714   5.714  -0.046  1.00  0.00     0.074 A 
ATOM     15  C   UNL     1       5.211   5.320  -2.434  1.00  0.00     0.049 A 
ATOM     16  N   UNL     1       6.379   6.839  -0.118  1.00  0.00    -0.248 NA
ATOM     17  C   UNL     1       5.555   5.200   1.324  1.00  0.00     0.031 C 
ATOM     18  C   UNL     1       4.630   4.637  -3.592  1.00  0.00     0.029 A 
ATOM     19  N   UNL     1       5.832   6.418  -2.972  1.00  0.00    -0.354 N 
ATOM     20  C   UNL     1       6.681   7.190   1.192  1.00  0.00     0.074 A 
ATOM     21  C   UNL     1       6.123   6.160   2.043  1.00  0.00     0.031 C 
ATOM     22  C   UNL     1       4.928   5.326  -4.703  1.00  0.00     0.029 A 
ATOM     23  C   UNL     1       5.680   6.520  -4.334  1.00  0.00     0.049 A 
ATOM     24  H   UNL     1       6.337   7.071  -2.434  1.00  0.00     0.167 HD
ATOM     25  C   UNL     1       7.373   8.264   1.644  1.00  0.00     0.034 A 
ATOM     26  C   UNL     1       6.084   7.476  -5.192  1.00  0.00     0.034 A 
ATOM     27  C   UNL     1       7.960   9.264   0.792  1.00  0.00     0.049 A 
ATOM     28  C   UNL     1       6.867   8.645  -4.666  1.00  0.00     0.074 A 
ATOM     29  C   UNL     1       8.734  10.354   1.151  1.00  0.00     0.029 A 
ATOM     30  N   UNL     1       7.833   9.303  -0.588  1.00  0.00    -0.354 N 
ATOM     31  N   UNL     1       7.252   8.891  -3.437  1.00  0.00    -0.248 NA
ATOM     32  C   UNL     1       7.296   9.652  -5.645  1.00  0.00     0.031 C 
ATOM     33  C   UNL     1       9.065  11.059  -0.011  1.00  0.00     0.029 A 
ATOM     34  C   UNL     1       8.508  10.401  -1.096  1.00  0.00     0.049 A 
ATOM     35  H   UNL     1       7.336   8.647  -1.128  1.00  0.00     0.167 HD
ATOM     36  C   UNL     1       7.988  10.067  -3.498  1.00  0.00     0.074 A 
ATOM     37  C   UNL     1       8.016  10.470  -4.889  1.00  0.00     0.031 C 
ATOM     38  C   UNL     1       8.572  10.761  -2.490  1.00  0.00     0.034 A 
BRANCH  25  39
ATOM     39  C   UNL     1       7.577   8.392   3.131  1.00  0.00     0.023 A 
ATOM     40  C   UNL     1       8.514   7.561   3.776  1.00  0.00     0.012 A 
ATOM     41  C   UNL     1       6.894   9.372   3.877  1.00  0.00     0.148 A 
ATOM     42  C   UNL     1       8.750   7.684   5.145  1.00  0.00     0.002 A 
ATOM     43  C   UNL     1       7.160   9.514   5.235  1.00  0.00     0.091 A 
ATOM     44  F   UNL     1       5.988  10.138   3.253  1.00  0.00    -0.205 F 
ATOM     45  C   UNL     1       8.081   8.666   5.872  1.00  0.00     0.022 A 
BRANCH  43  46
ATOM     46  S   UNL     1       6.399  10.797   6.237  1.00  0.00     0.127 S 
ATOM     47  O   UNL     1       5.384  10.038   6.966  1.00  0.00    -0.237 OA
ATOM     48  O   UNL     1       7.519  11.260   7.057  1.00  0.00    -0.237 OA
ATOM     49  O   UNL     1       5.893  11.785   5.295  1.00  0.00    -0.744 OA
ENDBRANCH  43  46
ENDBRANCH  25  39
BRANCH  26  50
ATOM     50  C   UNL     1       5.793   7.328  -6.645  1.00  0.00     0.023 A 
ATOM     51  C   UNL     1       6.845   7.036  -7.533  1.00  0.00     0.012 A 
ATOM     52  C   UNL     1       4.476   7.408  -7.139  1.00  0.00     0.148 A 
ATOM     53  C   UNL     1       6.593   6.842  -8.892  1.00  0.00     0.002 A 
ATOM     54  C   UNL     1       4.225   7.159  -8.483  1.00  0.00     0.091 A 
ATOM     55  F   UNL     1       3.491   7.705  -6.279  1.00  0.00    -0.205 F 
ATOM     56  C   UNL     1       5.283   6.890  -9.364  1.00  0.00     0.022 A 
BRANCH  54  57
ATOM     57  S   UNL     1       2.557   7.061  -9.142  1.00  0.00     0.127 S 
ATOM     58  O   UNL     1       2.452   8.319  -9.876  1.00  0.00    -0.237 OA
ATOM     59  O   UNL     1       2.630   5.863  -9.980  1.00  0.00    -0.237 OA
ATOM     60  O   UNL     1       1.687   6.925  -7.981  1.00  0.00    -0.744 OA
ENDBRANCH  54  57
ENDBRANCH  26  50
BRANCH  38  61
ATOM     61  C   UNL     1       9.312  12.020  -2.852  1.00  0.00     0.023 A 
ATOM     62  C   UNL     1       8.587  13.181  -3.182  1.00  0.00     0.012 A 
ATOM     63  C   UNL     1      10.718  12.073  -2.795  1.00  0.00     0.148 A 
ATOM     64  C   UNL     1       9.252  14.371  -3.476  1.00  0.00     0.002 A 
ATOM     65  C   UNL     1      11.372  13.273  -3.047  1.00  0.00     0.091 A 
ATOM     66  F   UNL     1      11.391  10.950  -2.501  1.00  0.00    -0.205 F 
ATOM     67  C   UNL     1      10.642  14.420  -3.397  1.00  0.00     0.022 A 
BRANCH  65  68
ATOM     68  S   UNL     1      13.153  13.445  -2.881  1.00  0.00     0.127 S 
ATOM     69  O   UNL     1      13.585  13.437  -4.277  1.00  0.00    -0.237 OA
ATOM     70  O   UNL     1      13.283  14.739  -2.210  1.00  0.00    -0.237 OA
ATOM     71  O   UNL     1      13.588  12.308  -2.081  1.00  0.00    -0.744 OA
ENDBRANCH  65  68
ENDBRANCH  38  61
ENDBRANCH  12  13
ENDBRANCH   5   7
ENDBRANCH   2   3
ENDBRANCH   1   2
BRANCH   1  72
ATOM     72  C   UNL     1       4.268  -3.166   2.358  1.00  0.00     0.023 C 
BRANCH  72  73
ATOM     73  C   UNL     1       4.880  -4.150   1.364  1.00  0.00     0.116 C 
BRANCH  73  74
ATOM     74  N   UNL     1       6.323  -4.234   1.513  1.00  0.00    -0.356 N 
ATOM     75  C   UNL     1       7.118  -5.296   1.829  1.00  0.00     0.223 C 
ATOM     76  H   UNL     1       6.803  -3.388   1.360  1.00  0.00     0.163 HD
ATOM     77  O   UNL     1       8.312  -5.080   2.034  1.00  0.00    -0.275 OA
BRANCH  75  78
ATOM     78  C   UNL     1       6.484  -6.667   2.020  1.00  0.00     0.091 C 
ATOM     79  C   UNL     1       6.224  -6.851   3.520  1.00  0.00     0.014 C 
ATOM     80  C   UNL     1       7.240  -7.843   1.377  1.00  0.00     0.091 C 
ATOM     81  C   UNL     1       5.489  -8.154   3.798  1.00  0.00     0.001 C 
ATOM     82  C   UNL     1       6.583  -9.190   1.764  1.00  0.00     0.014 C 
ATOM     83  C   UNL     1       6.264  -9.344   3.252  1.00  0.00     0.001 C 
BRANCH  80  84
ATOM     84  C   UNL     1       8.742  -7.899   1.654  1.00  0.00     0.230 C 
ATOM     85  O   UNL     1       9.179  -8.434   2.680  1.00  0.00    -0.274 OA
ATOM     86  N   UNL     1       9.654  -7.455   0.746  1.00  0.00    -0.302 N 
ATOM     87  H   UNL     1      10.587  -7.723   0.910  1.00  0.00     0.172 HD
BRANCH  86  88
ATOM     88  C   UNL     1       9.442  -6.687  -0.360  1.00  0.00     0.189 A 
ATOM     89  N   UNL     1       8.341  -6.140  -0.811  1.00  0.00    -0.220 NA
ATOM     90  S   UNL     1      10.872  -6.357  -1.238  1.00  0.00    -0.105 S 
ATOM     91  C   UNL     1       8.664  -5.275  -1.838  1.00  0.00     0.084 A 
ATOM     92  C   UNL     1       9.981  -5.302  -2.253  1.00  0.00     0.097 A 
BRANCH  91  93
ATOM     93  C   UNL     1       7.703  -4.343  -2.385  1.00  0.00     0.003 A 
ATOM     94  C   UNL     1       7.643  -3.041  -1.871  1.00  0.00     0.012 A 
ATOM     95  C   UNL     1       6.861  -4.717  -3.435  1.00  0.00     0.032 A 
ATOM     96  C   UNL     1       6.760  -2.110  -2.421  1.00  0.00     0.023 A 
ATOM     97  C   UNL     1       5.974  -3.784  -3.984  1.00  0.00     0.060 A 
ATOM     98  C   UNL     1       5.926  -2.478  -3.479  1.00  0.00     0.059 A 
ATOM     99  Cl  UNL     1       4.974  -4.307  -5.292  1.00  0.00    -0.083 Cl
ATOM    100  Cl  UNL     1       4.865  -1.277  -4.121  1.00  0.00    -0.083 Cl
ENDBRANCH  91  93
ENDBRANCH  86  88
ENDBRANCH  80  84
ENDBRANCH  75  78
ENDBRANCH  73  74
ENDBRANCH  72  73
ENDBRANCH   1  72
TORSDOF 17
