REMARK SMILES O=C(NCCCCNC(=O)[C@H]1Cc2c([nH]c3ccccc23)[C@H](c2c[nH]c3ccccc23)[NH2+]1)c1ccc(-c2c3nc(c(-c4cccc(S(=O)(=O)[O-])c4F)c4ccc([nH]4)c(-c4cccc(S(=O)(=O)[O-])c4F)c4nc(c(-c5cccc(S(=O)(=O)[O-])c5F)c5ccc2[nH]5)C=C4)C=C3)cc1
REMARK SMILES IDX 4 1 3 2 1 3 2 4 33 6 34 7 95 8 35 9 94 10 36 11 37 12 38 13
REMARK SMILES IDX 88 14 39 15 93 16 87 17 89 18 40 19 92 20 86 21 85 22 41 24
REMARK SMILES IDX 73 25 53 26 72 27 54 28 57 29 71 30 90 31 55 32 56 33 70 35
REMARK SMILES IDX 91 36 58 37 42 38 43 39 51 40 44 41 46 42 52 43 45 44 47 45
REMARK SMILES IDX 48 46 49 47 50 48 74 49 75 50 83 51 76 52 78 53 84 54 77 55
REMARK SMILES IDX 79 56 80 57 81 58 82 59 59 60 60 61 68 62 61 63 63 64 69 65
REMARK SMILES IDX 62 66 64 67 65 68 66 69 67 70 5 71 6 72 7 73 8 74 9 75 10 77
REMARK SMILES IDX 11 78 12 79 32 80 13 81 22 82 14 85 21 86 15 87 16 88 20 89
REMARK SMILES IDX 17 91 19 92 18 93 23 94 24 95 31 96 25 97 26 98 30 99 27 101
REMARK SMILES IDX 29 102 28 103
REMARK H PARENT 3 5 89 23 57 34 8 76 32 83 32 84 15 90 25 100
REMARK Flexibility Score: inf
ROOT
ATOM      1  C   UNL     1       4.463  -1.372  -0.126  1.00  0.00     0.116 C 
ENDROOT
BRANCH   1   2
ATOM      2  N   UNL     1       3.046  -1.126  -0.344  1.00  0.00    -0.352 N 
ATOM      3  O   UNL     1       1.084  -0.032  -0.187  1.00  0.00    -0.269 OA
ATOM      4  C   UNL     1       2.304  -0.008  -0.042  1.00  0.00     0.251 C 
ATOM      5  H   UNL     1       2.549  -1.862  -0.768  1.00  0.00     0.163 HD
BRANCH   4   6
ATOM      6  C   UNL     1       2.970   1.200   0.495  1.00  0.00     0.039 A 
ATOM      7  C   UNL     1       4.154   1.679  -0.070  1.00  0.00     0.014 A 
ATOM      8  C   UNL     1       2.408   1.853   1.596  1.00  0.00     0.014 A 
ATOM      9  C   UNL     1       4.854   2.707   0.556  1.00  0.00     0.010 A 
ATOM     10  C   UNL     1       3.074   2.937   2.177  1.00  0.00     0.010 A 
ATOM     11  C   UNL     1       4.326   3.343   1.692  1.00  0.00    -0.014 A 
BRANCH  11  12
ATOM     12  C   UNL     1       5.091   4.442   2.338  1.00  0.00     0.031 A 
ATOM     13  C   UNL     1       5.628   4.300   3.737  1.00  0.00     0.074 A 
ATOM     14  C   UNL     1       5.315   5.576   1.645  1.00  0.00     0.049 A 
ATOM     15  N   UNL     1       6.368   5.135   4.422  1.00  0.00    -0.248 NA
ATOM     16  C   UNL     1       5.286   3.070   4.469  1.00  0.00     0.031 C 
ATOM     17  C   UNL     1       4.808   5.853   0.300  1.00  0.00     0.029 A 
ATOM     18  N   UNL     1       6.030   6.701   1.970  1.00  0.00    -0.354 N 
ATOM     19  C   UNL     1       6.543   4.557   5.674  1.00  0.00     0.074 A 
ATOM     20  C   UNL     1       5.825   3.301   5.659  1.00  0.00     0.031 C 
ATOM     21  C   UNL     1       5.256   7.052  -0.100  1.00  0.00     0.029 A 
ATOM     22  C   UNL     1       6.049   7.646   0.971  1.00  0.00     0.049 A 
ATOM     23  H   UNL     1       6.485   6.820   2.834  1.00  0.00     0.167 HD
ATOM     24  C   UNL     1       7.253   5.019   6.732  1.00  0.00     0.034 A 
ATOM     25  C   UNL     1       6.643   8.853   0.917  1.00  0.00     0.034 A 
ATOM     26  C   UNL     1       8.012   6.242   6.726  1.00  0.00     0.049 A 
ATOM     27  C   UNL     1       7.466   9.316   2.086  1.00  0.00     0.074 A 
ATOM     28  C   UNL     1       8.826   6.753   7.722  1.00  0.00     0.029 A 
ATOM     29  N   UNL     1       8.050   7.146   5.676  1.00  0.00    -0.354 N 
ATOM     30  N   UNL     1       7.735   8.688   3.205  1.00  0.00    -0.248 NA
ATOM     31  C   UNL     1       8.092  10.641   1.973  1.00  0.00     0.031 C 
ATOM     32  C   UNL     1       9.349   7.973   7.277  1.00  0.00     0.029 A 
ATOM     33  C   UNL     1       8.869   8.215   6.000  1.00  0.00     0.049 A 
ATOM     34  H   UNL     1       7.567   7.043   4.825  1.00  0.00     0.167 HD
ATOM     35  C   UNL     1       8.587   9.525   3.915  1.00  0.00     0.074 A 
ATOM     36  C   UNL     1       8.805  10.696   3.091  1.00  0.00     0.031 C 
ATOM     37  C   UNL     1       9.125   9.347   5.147  1.00  0.00     0.034 A 
BRANCH  24  38
ATOM     38  C   UNL     1       7.284   4.173   7.978  1.00  0.00     0.023 A 
ATOM     39  C   UNL     1       8.071   3.004   8.004  1.00  0.00     0.012 A 
ATOM     40  C   UNL     1       6.589   4.562   9.140  1.00  0.00     0.148 A 
ATOM     41  C   UNL     1       8.143   2.221   9.156  1.00  0.00     0.002 A 
ATOM     42  C   UNL     1       6.695   3.796  10.296  1.00  0.00     0.091 A 
ATOM     43  F   UNL     1       5.824   5.663   9.092  1.00  0.00    -0.205 F 
ATOM     44  C   UNL     1       7.464   2.622  10.303  1.00  0.00     0.022 A 
BRANCH  42  45
ATOM     45  S   UNL     1       5.911   4.281  11.839  1.00  0.00     0.127 S 
ATOM     46  O   UNL     1       4.716   3.438  11.842  1.00  0.00    -0.237 OA
ATOM     47  O   UNL     1       6.918   3.911  12.835  1.00  0.00    -0.237 OA
ATOM     48  O   UNL     1       5.677   5.714  11.726  1.00  0.00    -0.744 OA
ENDBRANCH  42  45
ENDBRANCH  24  38
BRANCH  25  49
ATOM     49  C   UNL     1       6.548   9.664  -0.328  1.00  0.00     0.023 A 
ATOM     50  C   UNL     1       7.689   9.812  -1.140  1.00  0.00     0.012 A 
ATOM     51  C   UNL     1       5.329  10.232  -0.744  1.00  0.00     0.148 A 
ATOM     52  C   UNL     1       7.622  10.526  -2.336  1.00  0.00     0.002 A 
ATOM     53  C   UNL     1       5.256  10.895  -1.964  1.00  0.00     0.091 A 
ATOM     54  F   UNL     1       4.258  10.094   0.051  1.00  0.00    -0.205 F 
ATOM     55  C   UNL     1       6.404  11.056  -2.754  1.00  0.00     0.022 A 
BRANCH  53  56
ATOM     56  S   UNL     1       3.700  11.483  -2.642  1.00  0.00     0.127 S 
ATOM     57  O   UNL     1       3.816  12.926  -2.450  1.00  0.00    -0.237 OA
ATOM     58  O   UNL     1       3.786  11.037  -4.034  1.00  0.00    -0.237 OA
ATOM     59  O   UNL     1       2.661  10.819  -1.866  1.00  0.00    -0.744 OA
ENDBRANCH  53  56
ENDBRANCH  25  49
BRANCH  37  60
ATOM     60  C   UNL     1      10.028  10.430   5.673  1.00  0.00     0.023 A 
ATOM     61  C   UNL     1       9.470  11.642   6.125  1.00  0.00     0.012 A 
ATOM     62  C   UNL     1      11.417  10.225   5.781  1.00  0.00     0.148 A 
ATOM     63  C   UNL     1      10.285  12.645   6.650  1.00  0.00     0.002 A 
ATOM     64  C   UNL     1      12.217  11.212   6.344  1.00  0.00     0.091 A 
ATOM     65  F   UNL     1      11.934   9.075   5.322  1.00  0.00    -0.205 F 
ATOM     66  C   UNL     1      11.655  12.426   6.770  1.00  0.00     0.022 A 
BRANCH  64  67
ATOM     67  S   UNL     1      13.977  10.967   6.614  1.00  0.00     0.127 S 
ATOM     68  O   UNL     1      14.556  11.664   5.468  1.00  0.00    -0.237 OA
ATOM     69  O   UNL     1      14.195  11.627   7.902  1.00  0.00    -0.237 OA
ATOM     70  O   UNL     1      14.171   9.524   6.643  1.00  0.00    -0.744 OA
ENDBRANCH  64  67
ENDBRANCH  37  60
ENDBRANCH  11  12
ENDBRANCH   4   6
ENDBRANCH   1   2
BRANCH   1  71
ATOM     71  C   UNL     1       4.745  -2.741   0.484  1.00  0.00     0.023 C 
BRANCH  71  72
ATOM     72  C   UNL     1       4.299  -3.939  -0.357  1.00  0.00     0.023 C 
BRANCH  72  73
ATOM     73  C   UNL     1       4.848  -3.967  -1.782  1.00  0.00     0.116 C 
BRANCH  73  74
ATOM     74  N   UNL     1       6.299  -4.038  -1.804  1.00  0.00    -0.351 N 
ATOM     75  C   UNL     1       7.115  -5.082  -2.144  1.00  0.00     0.278 C 
ATOM     76  H   UNL     1       6.763  -3.213  -1.534  1.00  0.00     0.163 HD
ATOM     77  O   UNL     1       8.330  -4.931  -2.001  1.00  0.00    -0.268 OA
BRANCH  75  78
ATOM     78  C   UNL     1       6.486  -6.380  -2.673  1.00  0.00     0.277 C 
ATOM     79  C   UNL     1       6.190  -6.207  -4.180  1.00  0.00     0.114 C 
ATOM     80  N   UNL     1       7.387  -7.540  -2.418  1.00  0.00    -0.324 N 
ATOM     81  C   UNL     1       5.776  -7.520  -4.745  1.00  0.00    -0.006 A 
ATOM     82  C   UNL     1       6.777  -8.831  -2.754  1.00  0.00     0.264 C 
ATOM     83  H   UNL     1       7.635  -7.546  -1.428  1.00  0.00     0.347 HD
ATOM     84  H   UNL     1       8.204  -7.426  -3.017  1.00  0.00     0.347 HD
ATOM     85  C   UNL     1       6.062  -8.697  -4.078  1.00  0.00     0.083 A 
ATOM     86  C   UNL     1       5.095  -7.841  -5.946  1.00  0.00     0.003 A 
ATOM     87  N   UNL     1       5.615  -9.727  -4.861  1.00  0.00    -0.353 N 
ATOM     88  C   UNL     1       5.001  -9.234  -5.993  1.00  0.00     0.046 A 
ATOM     89  C   UNL     1       4.552  -7.087  -7.003  1.00  0.00     0.010 A 
ATOM     90  H   UNL     1       5.717 -10.682  -4.646  1.00  0.00     0.166 HD
ATOM     91  C   UNL     1       4.381  -9.909  -7.052  1.00  0.00     0.026 A 
ATOM     92  C   UNL     1       3.926  -7.747  -8.066  1.00  0.00     0.001 A 
ATOM     93  C   UNL     1       3.843  -9.138  -8.087  1.00  0.00     0.002 A 
BRANCH  82  94
ATOM     94  C   UNL     1       5.896  -9.405  -1.648  1.00  0.00     0.041 A 
ATOM     95  C   UNL     1       5.346 -10.683  -1.712  1.00  0.00     0.093 A 
ATOM     96  C   UNL     1       5.482  -8.879  -0.357  1.00  0.00     0.009 A 
ATOM     97  N   UNL     1       4.573 -10.902  -0.610  1.00  0.00    -0.361 N 
ATOM     98  C   UNL     1       4.632  -9.823   0.232  1.00  0.00     0.046 A 
ATOM     99  C   UNL     1       5.728  -7.703   0.393  1.00  0.00     0.011 A 
ATOM    100  H   UNL     1       4.048 -11.717  -0.444  1.00  0.00     0.166 HD
ATOM    101  C   UNL     1       3.999  -9.635   1.469  1.00  0.00     0.026 A 
ATOM    102  C   UNL     1       5.105  -7.496   1.632  1.00  0.00     0.001 A 
ATOM    103  C   UNL     1       4.243  -8.448   2.157  1.00  0.00     0.002 A 
ENDBRANCH  82  94
ENDBRANCH  75  78
ENDBRANCH  73  74
ENDBRANCH  72  73
ENDBRANCH  71  72
ENDBRANCH   1  71
TORSDOF 15
