REMARK SMILES CC1(C)[C@@](C)(C(=O)NCCCCNC(=O)c2ccc(-c3c4nc(c(-c5cccc(S(=O)(=O)[O-])c5F)c5ccc([nH]5)c(-c5cccc(S(=O)(=O)[O-])c5F)c5nc(c(-c6cccc(S(=O)(=O)[O-])c6F)c6ccc3[nH]6)C=C5)C=C4)cc2)CC[C@]1(C)C(=O)Nc1ccc(Cl)cc1Cl
REMARK SMILES IDX 11 1 10 2 9 3 8 4 6 5 7 6 4 8 1 9 2 10 3 11 81 12 5 13 79 14
REMARK SMILES IDX 80 15 82 16 83 17 84 18 85 19 86 21 87 22 92 23 88 24 91 25
REMARK SMILES IDX 93 26 89 27 90 28 12 29 13 30 14 31 15 33 16 34 17 35 78 36
REMARK SMILES IDX 18 37 77 38 19 39 20 40 21 41 71 42 22 43 76 44 70 45 72 46
REMARK SMILES IDX 23 47 75 48 69 49 68 50 24 52 56 53 36 54 55 55 37 56 40 57
REMARK SMILES IDX 54 58 73 59 38 60 39 61 53 63 74 64 41 65 25 66 26 67 34 68
REMARK SMILES IDX 27 69 29 70 35 71 28 72 30 73 31 74 32 75 33 76 57 77 58 78
REMARK SMILES IDX 66 79 59 80 61 81 67 82 60 83 62 84 63 85 64 86 65 87 42 88
REMARK SMILES IDX 43 89 51 90 44 91 46 92 52 93 45 94 47 95 48 96 49 97 50 98
REMARK H PARENT 8 7 85 20 13 32 72 51 40 62
REMARK Flexibility Score: inf
ROOT
ATOM      1  C   UNL     1       4.155  -2.232  -0.832  1.00  0.00     0.023 C 
ENDROOT
BRANCH   1   2
ATOM      2  C   UNL     1       2.914  -1.824  -0.069  1.00  0.00     0.023 C 
BRANCH   2   3
ATOM      3  C   UNL     1       3.158  -1.174   1.306  1.00  0.00     0.116 C 
BRANCH   3   4
ATOM      4  N   UNL     1       3.544   0.232   1.229  1.00  0.00    -0.356 N 
ATOM      5  C   UNL     1       2.948   1.421   1.543  1.00  0.00     0.226 C 
ATOM      6  O   UNL     1       3.653   2.417   1.341  1.00  0.00    -0.274 OA
ATOM      7  H   UNL     1       4.450   0.352   0.862  1.00  0.00     0.163 HD
BRANCH   5   8
ATOM      8  C   UNL     1       1.504   1.579   2.149  1.00  0.00     0.052 C 
ATOM      9  C   UNL     1       0.570   0.099   0.318  1.00  0.00     0.013 C 
ATOM     10  C   UNL     1       0.273   1.280   1.194  1.00  0.00    -0.007 C 
ATOM     11  C   UNL     1      -0.982   0.956   2.045  1.00  0.00     0.013 C 
ATOM     12  C   UNL     1       0.047   2.574   0.305  1.00  0.00     0.053 C 
ATOM     13  C   UNL     1       1.507   0.809   3.494  1.00  0.00     0.022 C 
ATOM     14  C   UNL     1       1.235   3.075   2.479  1.00  0.00     0.018 C 
ATOM     15  C   UNL     1       0.418   3.693   1.331  1.00  0.00     0.018 C 
ATOM     16  C   UNL     1       1.008   2.759  -0.886  1.00  0.00     0.022 C 
BRANCH  12  17
ATOM     17  C   UNL     1      -1.438   2.764  -0.216  1.00  0.00     0.230 C 
ATOM     18  O   UNL     1      -2.106   3.735   0.170  1.00  0.00    -0.274 OA
ATOM     19  N   UNL     1      -2.134   1.889  -1.021  1.00  0.00    -0.324 N 
ATOM     20  H   UNL     1      -3.105   2.047  -1.016  1.00  0.00     0.170 HD
BRANCH  19  21
ATOM     21  C   UNL     1      -1.752   0.818  -1.850  1.00  0.00     0.060 A 
ATOM     22  C   UNL     1      -1.000   1.068  -3.000  1.00  0.00     0.029 A 
ATOM     23  C   UNL     1      -2.141  -0.513  -1.572  1.00  0.00     0.066 A 
ATOM     24  C   UNL     1      -0.508   0.005  -3.767  1.00  0.00     0.023 A 
ATOM     25  C   UNL     1      -1.583  -1.577  -2.292  1.00  0.00     0.043 A 
ATOM     26  Cl  UNL     1      -3.166  -0.911  -0.239  1.00  0.00    -0.082 Cl
ATOM     27  C   UNL     1      -0.754  -1.310  -3.377  1.00  0.00     0.042 A 
ATOM     28  Cl  UNL     1      -0.023  -2.610  -4.232  1.00  0.00    -0.084 Cl
ENDBRANCH  19  21
ENDBRANCH  12  17
ENDBRANCH   5   8
ENDBRANCH   3   4
ENDBRANCH   2   3
ENDBRANCH   1   2
BRANCH   1  29
ATOM     29  C   UNL     1       4.887  -3.396  -0.206  1.00  0.00     0.116 C 
BRANCH  29  30
ATOM     30  N   UNL     1       4.051  -4.584  -0.052  1.00  0.00    -0.352 N 
ATOM     31  C   UNL     1       4.325  -5.882  -0.423  1.00  0.00     0.251 C 
ATOM     32  H   UNL     1       3.175  -4.438   0.374  1.00  0.00     0.163 HD
ATOM     33  O   UNL     1       3.474  -6.751  -0.345  1.00  0.00    -0.269 OA
BRANCH  31  34
ATOM     34  C   UNL     1       5.673  -6.177  -0.948  1.00  0.00     0.039 A 
ATOM     35  C   UNL     1       5.805  -6.872  -2.150  1.00  0.00     0.014 A 
ATOM     36  C   UNL     1       6.788  -5.646  -0.298  1.00  0.00     0.014 A 
ATOM     37  C   UNL     1       7.064  -6.962  -2.744  1.00  0.00     0.010 A 
ATOM     38  C   UNL     1       8.002  -5.616  -0.958  1.00  0.00     0.010 A 
ATOM     39  C   UNL     1       8.162  -6.295  -2.174  1.00  0.00    -0.014 A 
BRANCH  39  40
ATOM     40  C   UNL     1       9.503  -6.306  -2.803  1.00  0.00     0.031 A 
ATOM     41  C   UNL     1      10.674  -6.848  -2.029  1.00  0.00     0.074 A 
ATOM     42  C   UNL     1       9.686  -5.729  -4.006  1.00  0.00     0.049 A 
ATOM     43  N   UNL     1      11.940  -6.863  -2.351  1.00  0.00    -0.248 NA
ATOM     44  C   UNL     1      10.392  -7.401  -0.692  1.00  0.00     0.031 C 
ATOM     45  C   UNL     1       8.645  -5.079  -4.806  1.00  0.00     0.029 A 
ATOM     46  N   UNL     1      10.823  -5.577  -4.758  1.00  0.00    -0.354 N 
ATOM     47  C   UNL     1      12.603  -7.371  -1.240  1.00  0.00     0.074 A 
ATOM     48  C   UNL     1      11.610  -7.594  -0.215  1.00  0.00     0.031 C 
ATOM     49  C   UNL     1       9.187  -4.623  -5.948  1.00  0.00     0.029 A 
ATOM     50  C   UNL     1      10.615  -4.920  -5.948  1.00  0.00     0.049 A 
ATOM     51  H   UNL     1      11.706  -5.906  -4.471  1.00  0.00     0.167 HD
ATOM     52  C   UNL     1      13.915  -7.672  -1.099  1.00  0.00     0.034 A 
ATOM     53  C   UNL     1      11.481  -4.605  -6.931  1.00  0.00     0.034 A 
ATOM     54  C   UNL     1      14.879  -7.520  -2.151  1.00  0.00     0.049 A 
ATOM     55  C   UNL     1      12.921  -5.016  -6.785  1.00  0.00     0.074 A 
ATOM     56  C   UNL     1      16.208  -7.899  -2.163  1.00  0.00     0.029 A 
ATOM     57  N   UNL     1      14.612  -6.945  -3.385  1.00  0.00    -0.354 N 
ATOM     58  N   UNL     1      13.502  -5.650  -5.795  1.00  0.00    -0.248 NA
ATOM     59  C   UNL     1      13.817  -4.703  -7.907  1.00  0.00     0.031 C 
ATOM     60  C   UNL     1      16.750  -7.538  -3.402  1.00  0.00     0.029 A 
ATOM     61  C   UNL     1      15.752  -6.951  -4.167  1.00  0.00     0.049 A 
ATOM     62  H   UNL     1      13.739  -6.584  -3.662  1.00  0.00     0.167 HD
ATOM     63  C   UNL     1      14.822  -5.843  -6.186  1.00  0.00     0.074 A 
ATOM     64  C   UNL     1      14.948  -5.274  -7.513  1.00  0.00     0.031 C 
ATOM     65  C   UNL     1      15.841  -6.425  -5.505  1.00  0.00     0.034 A 
BRANCH  52  66
ATOM     66  C   UNL     1      14.350  -8.259   0.218  1.00  0.00     0.023 A 
ATOM     67  C   UNL     1      13.925  -9.557   0.576  1.00  0.00     0.012 A 
ATOM     68  C   UNL     1      15.175  -7.537   1.101  1.00  0.00     0.148 A 
ATOM     69  C   UNL     1      14.268 -10.104   1.812  1.00  0.00     0.002 A 
ATOM     70  C   UNL     1      15.554  -8.110   2.310  1.00  0.00     0.091 A 
ATOM     71  F   UNL     1      15.547  -6.295   0.761  1.00  0.00    -0.205 F 
ATOM     72  C   UNL     1      15.089  -9.384   2.674  1.00  0.00     0.022 A 
BRANCH  70  73
ATOM     73  S   UNL     1      16.675  -7.291   3.449  1.00  0.00     0.127 S 
ATOM     74  O   UNL     1      15.753  -6.802   4.473  1.00  0.00    -0.237 OA
ATOM     75  O   UNL     1      17.537  -8.392   3.882  1.00  0.00    -0.237 OA
ATOM     76  O   UNL     1      17.354  -6.267   2.668  1.00  0.00    -0.744 OA
ENDBRANCH  70  73
ENDBRANCH  52  66
BRANCH  53  77
ATOM     77  C   UNL     1      10.981  -3.965  -8.180  1.00  0.00     0.023 A 
ATOM     78  C   UNL     1      10.914  -4.732  -9.359  1.00  0.00     0.012 A 
ATOM     79  C   UNL     1      10.520  -2.634  -8.199  1.00  0.00     0.148 A 
ATOM     80  C   UNL     1      10.420  -4.181 -10.541  1.00  0.00     0.002 A 
ATOM     81  C   UNL     1       9.982  -2.106  -9.368  1.00  0.00     0.091 A 
ATOM     82  F   UNL     1      10.595  -1.920  -7.067  1.00  0.00    -0.205 F 
ATOM     83  C   UNL     1       9.945  -2.873 -10.544  1.00  0.00     0.022 A 
BRANCH  81  84
ATOM     84  S   UNL     1       9.230  -0.476  -9.440  1.00  0.00     0.127 S 
ATOM     85  O   UNL     1      10.156   0.243 -10.311  1.00  0.00    -0.237 OA
ATOM     86  O   UNL     1       7.927  -0.773 -10.036  1.00  0.00    -0.237 OA
ATOM     87  O   UNL     1       9.169  -0.008  -8.062  1.00  0.00    -0.744 OA
ENDBRANCH  81  84
ENDBRANCH  53  77
BRANCH  65  88
ATOM     88  C   UNL     1      17.178  -6.506  -6.190  1.00  0.00     0.023 A 
ATOM     89  C   UNL     1      17.963  -5.344  -6.327  1.00  0.00     0.012 A 
ATOM     90  C   UNL     1      17.693  -7.746  -6.616  1.00  0.00     0.148 A 
ATOM     91  C   UNL     1      19.230  -5.411  -6.904  1.00  0.00     0.002 A 
ATOM     92  C   UNL     1      18.976  -7.812  -7.146  1.00  0.00     0.091 A 
ATOM     93  F   UNL     1      16.922  -8.836  -6.493  1.00  0.00    -0.205 F 
ATOM     94  C   UNL     1      19.741  -6.645  -7.301  1.00  0.00     0.022 A 
BRANCH  92  95
ATOM     95  S   UNL     1      19.750  -9.371  -7.590  1.00  0.00     0.127 S 
ATOM     96  O   UNL     1      19.698  -9.324  -9.050  1.00  0.00    -0.237 OA
ATOM     97  O   UNL     1      21.091  -9.225  -7.022  1.00  0.00    -0.237 OA
ATOM     98  O   UNL     1      18.943 -10.411  -6.966  1.00  0.00    -0.744 OA
ENDBRANCH  92  95
ENDBRANCH  65  88
ENDBRANCH  39  40
ENDBRANCH  31  34
ENDBRANCH  29  30
ENDBRANCH   1  29
TORSDOF 16
