REMARK SMILES CCc1ccsc1CNC(=O)N1[C@H]2CC[C@@H]1[C@H](C(=O)NCCCCNC(=O)c1ccc(-c3c4nc(c(-c5cccc(S(=O)(=O)[O-])c5F)c5ccc([nH]5)c(-c5cccc(S(=O)(=O)[O-])c5F)c5nc(c(-c6cccc(S(=O)(=O)[O-])c6F)c6ccc3[nH]6)C=C5)C=C4)cc1)C2
REMARK SMILES IDX 22 1 21 2 20 3 18 4 19 5 17 7 12 8 13 9 16 10 14 11 91 12
REMARK SMILES IDX 15 13 10 14 9 15 11 17 8 18 7 19 3 20 4 21 5 22 6 23 2 24
REMARK SMILES IDX 1 25 23 26 24 27 25 28 26 29 27 31 28 32 29 33 90 34 30 35
REMARK SMILES IDX 89 36 31 37 32 38 33 39 83 40 34 41 88 42 82 43 84 44 35 45
REMARK SMILES IDX 87 46 81 47 80 48 36 50 68 51 48 52 67 53 49 54 52 55 66 56
REMARK SMILES IDX 85 57 50 58 51 59 65 61 86 62 53 63 37 64 38 65 46 66 39 67
REMARK SMILES IDX 41 68 47 69 40 70 42 71 43 72 44 73 45 74 69 75 70 76 78 77
REMARK SMILES IDX 71 78 73 79 79 80 72 81 74 82 75 83 76 84 77 85 54 86 55 87
REMARK SMILES IDX 63 88 56 89 58 90 64 91 57 92 59 93 60 94 61 95 62 96
REMARK H PARENT 20 6 9 16 25 30 84 49 52 60
REMARK Flexibility Score: inf
ROOT
ATOM      1  C   UNL     1       1.959   9.720   1.164  1.00  0.00     0.023 C 
ENDROOT
BRANCH   1   2
ATOM      2  C   UNL     1       2.855   8.490   1.035  1.00  0.00     0.116 C 
BRANCH   2   3
ATOM      3  N   UNL     1       3.145   7.923   2.330  1.00  0.00    -0.356 N 
ATOM      4  C   UNL     1       2.682   6.830   2.973  1.00  0.00     0.225 C 
ATOM      5  O   UNL     1       3.029   6.714   4.155  1.00  0.00    -0.275 OA
ATOM      6  H   UNL     1       3.811   8.433   2.845  1.00  0.00     0.163 HD
BRANCH   4   7
ATOM      7  C   UNL     1       1.787   5.763   2.369  1.00  0.00     0.103 C 
ATOM      8  N   UNL     1      -0.125   4.760   1.708  1.00  0.00    -0.318 N 
ATOM      9  C   UNL     1       0.579   4.975   0.454  1.00  0.00     0.088 C 
ATOM     10  C   UNL     1       0.262   5.970   2.413  1.00  0.00     0.099 C 
ATOM     11  C   UNL     1      -0.004   6.338   0.045  1.00  0.00     0.027 C 
ATOM     12  C   UNL     1       2.025   5.173   0.959  1.00  0.00     0.040 C 
ATOM     13  C   UNL     1      -0.262   7.005   1.412  1.00  0.00     0.028 C 
BRANCH   8  14
ATOM     14  C   UNL     1      -1.259   4.067   1.960  1.00  0.00     0.318 C 
ATOM     15  N   UNL     1      -1.329   2.777   1.561  1.00  0.00    -0.333 N 
ATOM     16  H   UNL     1      -2.229   2.378   1.562  1.00  0.00     0.165 HD
ATOM     17  O   UNL     1      -2.197   4.535   2.603  1.00  0.00    -0.249 OA
BRANCH  15  18
ATOM     18  C   UNL     1      -0.261   1.907   1.134  1.00  0.00     0.165 C 
BRANCH  18  19
ATOM     19  C   UNL     1       0.369   1.151   2.274  1.00  0.00     0.027 A 
ATOM     20  C   UNL     1       0.774  -0.180   2.282  1.00  0.00    -0.033 A 
ATOM     21  C   UNL     1       1.429  -0.517   3.514  1.00  0.00     0.016 A 
ATOM     22  C   UNL     1       1.513   0.545   4.381  1.00  0.00     0.065 A 
ATOM     23  S   UNL     1       0.810   1.950   3.730  1.00  0.00    -0.147 S 
BRANCH  20  24
ATOM     24  C   UNL     1       0.582  -1.154   1.153  1.00  0.00     0.033 C 
ATOM     25  C   UNL     1       1.469  -0.855  -0.048  1.00  0.00     0.009 C 
ENDBRANCH  20  24
ENDBRANCH  18  19
ENDBRANCH  15  18
ENDBRANCH   8  14
ENDBRANCH   4   7
ENDBRANCH   2   3
ENDBRANCH   1   2
BRANCH   1  26
ATOM     26  C   UNL     1       2.691  11.042   1.333  1.00  0.00     0.023 C 
BRANCH  26  27
ATOM     27  C   UNL     1       3.642  11.395   0.202  1.00  0.00     0.116 C 
BRANCH  27  28
ATOM     28  N   UNL     1       3.036  11.362  -1.122  1.00  0.00    -0.352 N 
ATOM     29  C   UNL     1       3.340  12.171  -2.199  1.00  0.00     0.251 C 
ATOM     30  H   UNL     1       2.331  10.689  -1.265  1.00  0.00     0.163 HD
ATOM     31  O   UNL     1       2.719  12.088  -3.250  1.00  0.00    -0.269 OA
BRANCH  29  32
ATOM     32  C   UNL     1       4.410  13.171  -2.019  1.00  0.00     0.039 A 
ATOM     33  C   UNL     1       4.112  14.522  -2.201  1.00  0.00     0.014 A 
ATOM     34  C   UNL     1       5.651  12.769  -1.523  1.00  0.00     0.014 A 
ATOM     35  C   UNL     1       5.044  15.484  -1.806  1.00  0.00     0.010 A 
ATOM     36  C   UNL     1       6.531  13.726  -1.041  1.00  0.00     0.010 A 
ATOM     37  C   UNL     1       6.242  15.092  -1.185  1.00  0.00    -0.014 A 
BRANCH  37  38
ATOM     38  C   UNL     1       7.227  16.087  -0.693  1.00  0.00     0.031 A 
ATOM     39  C   UNL     1       8.619  16.088  -1.267  1.00  0.00     0.074 A 
ATOM     40  C   UNL     1       6.911  16.907   0.329  1.00  0.00     0.049 A 
ATOM     41  N   UNL     1       9.659  16.792  -0.907  1.00  0.00    -0.248 NA
ATOM     42  C   UNL     1       8.889  15.138  -2.361  1.00  0.00     0.031 C 
ATOM     43  C   UNL     1       5.626  16.935   1.033  1.00  0.00     0.029 A 
ATOM     44  N   UNL     1       7.659  17.860   0.973  1.00  0.00    -0.354 N 
ATOM     45  C   UNL     1      10.712  16.337  -1.692  1.00  0.00     0.074 A 
ATOM     46  C   UNL     1      10.198  15.264  -2.514  1.00  0.00     0.031 C 
ATOM     47  C   UNL     1       5.672  17.869   1.999  1.00  0.00     0.029 A 
ATOM     48  C   UNL     1       6.993  18.489   1.999  1.00  0.00     0.049 A 
ATOM     49  H   UNL     1       8.587  18.075   0.723  1.00  0.00     0.167 HD
ATOM     50  C   UNL     1      11.982  16.798  -1.758  1.00  0.00     0.034 A 
ATOM     51  C   UNL     1       7.402  19.462   2.837  1.00  0.00     0.034 A 
ATOM     52  C   UNL     1      12.463  17.921  -1.004  1.00  0.00     0.049 A 
ATOM     53  C   UNL     1       8.791  20.023   2.675  1.00  0.00     0.074 A 
ATOM     54  C   UNL     1      13.704  18.529  -1.062  1.00  0.00     0.029 A 
ATOM     55  N   UNL     1      11.714  18.620  -0.071  1.00  0.00    -0.354 N 
ATOM     56  N   UNL     1       9.725  19.679   1.821  1.00  0.00    -0.248 NA
ATOM     57  C   UNL     1       9.168  21.135   3.561  1.00  0.00     0.031 C 
ATOM     58  C   UNL     1      13.702  19.603  -0.166  1.00  0.00     0.029 A 
ATOM     59  C   UNL     1      12.460  19.664   0.445  1.00  0.00     0.049 A 
ATOM     60  H   UNL     1      10.789  18.405   0.187  1.00  0.00     0.167 HD
ATOM     61  C   UNL     1      10.781  20.556   2.038  1.00  0.00     0.074 A 
ATOM     62  C   UNL     1      10.365  21.460   3.091  1.00  0.00     0.031 C 
ATOM     63  C   UNL     1      11.995  20.600   1.435  1.00  0.00     0.034 A 
BRANCH  50  64
ATOM     64  C   UNL     1      12.909  16.141  -2.744  1.00  0.00     0.023 A 
ATOM     65  C   UNL     1      12.722  16.374  -4.123  1.00  0.00     0.012 A 
ATOM     66  C   UNL     1      13.980  15.334  -2.318  1.00  0.00     0.148 A 
ATOM     67  C   UNL     1      13.563  15.783  -5.064  1.00  0.00     0.002 A 
ATOM     68  C   UNL     1      14.841  14.783  -3.261  1.00  0.00     0.091 A 
ATOM     69  F   UNL     1      14.127  15.104  -1.006  1.00  0.00    -0.205 F 
ATOM     70  C   UNL     1      14.627  14.997  -4.633  1.00  0.00     0.022 A 
BRANCH  68  71
ATOM     71  S   UNL     1      16.284  13.815  -2.806  1.00  0.00     0.127 S 
ATOM     72  O   UNL     1      15.868  12.467  -3.190  1.00  0.00    -0.237 OA
ATOM     73  O   UNL     1      17.325  14.396  -3.655  1.00  0.00    -0.237 OA
ATOM     74  O   UNL     1      16.476  14.029  -1.379  1.00  0.00    -0.744 OA
ENDBRANCH  68  71
ENDBRANCH  50  64
BRANCH  51  75
ATOM     75  C   UNL     1       6.457  20.043   3.833  1.00  0.00     0.023 A 
ATOM     76  C   UNL     1       5.966  21.349   3.628  1.00  0.00     0.012 A 
ATOM     77  C   UNL     1       6.029  19.321   4.963  1.00  0.00     0.148 A 
ATOM     78  C   UNL     1       5.097  21.937   4.547  1.00  0.00     0.002 A 
ATOM     79  C   UNL     1       5.122  19.896   5.849  1.00  0.00     0.091 A 
ATOM     80  F   UNL     1       6.516  18.087   5.152  1.00  0.00    -0.205 F 
ATOM     81  C   UNL     1       4.668  21.209   5.652  1.00  0.00     0.022 A 
BRANCH  79  82
ATOM     82  S   UNL     1       4.426  18.977   7.227  1.00  0.00     0.127 S 
ATOM     83  O   UNL     1       5.216  19.473   8.349  1.00  0.00    -0.237 OA
ATOM     84  O   UNL     1       3.029  19.413   7.215  1.00  0.00    -0.237 OA
ATOM     85  O   UNL     1       4.612  17.573   6.882  1.00  0.00    -0.744 OA
ENDBRANCH  79  82
ENDBRANCH  51  75
BRANCH  63  86
ATOM     86  C   UNL     1      12.948  21.683   1.858  1.00  0.00     0.023 A 
ATOM     87  C   UNL     1      13.623  21.575   3.089  1.00  0.00     0.012 A 
ATOM     88  C   UNL     1      13.246  22.754   0.994  1.00  0.00     0.148 A 
ATOM     89  C   UNL     1      14.563  22.532   3.466  1.00  0.00     0.002 A 
ATOM     90  C   UNL     1      14.216  23.680   1.357  1.00  0.00     0.091 A 
ATOM     91  F   UNL     1      12.576  22.850  -0.164  1.00  0.00    -0.205 F 
ATOM     92  C   UNL     1      14.869  23.576   2.595  1.00  0.00     0.022 A 
BRANCH  90  93
ATOM     93  S   UNL     1      14.736  24.999   0.253  1.00  0.00     0.127 S 
ATOM     94  O   UNL     1      14.040  26.153   0.817  1.00  0.00    -0.237 OA
ATOM     95  O   UNL     1      16.188  25.011   0.439  1.00  0.00    -0.237 OA
ATOM     96  O   UNL     1      14.306  24.593  -1.079  1.00  0.00    -0.744 OA
ENDBRANCH  90  93
ENDBRANCH  63  86
ENDBRANCH  37  38
ENDBRANCH  29  32
ENDBRANCH  27  28
ENDBRANCH  26  27
ENDBRANCH   1  26
TORSDOF 18
