REMARK SMILES CCc1cc2c(C)cc(=O)oc2cc1O[C@H](C)C(=O)NCCCCNC(=O)c1ccc(-c2c3nc(c(-c4cccc(S(=O)(=O)[O-])c4F)c4ccc([nH]4)c(-c4cccc(S(=O)(=O)[O-])c4F)c4nc(c(-c5cccc(S(=O)(=O)[O-])c5F)c5ccc2[nH]5)C=C4)C=C3)cc1
REMARK SMILES IDX 22 1 21 2 20 3 18 4 19 5 16 7 17 8 15 9 14 10 3 11 4 12 5 13
REMARK SMILES IDX 13 14 6 15 12 16 7 17 8 18 11 19 9 20 10 21 2 22 1 23 23 24
REMARK SMILES IDX 24 25 25 26 26 27 27 29 28 30 29 31 90 32 30 33 89 34 31 35
REMARK SMILES IDX 32 36 33 37 83 38 34 39 88 40 82 41 84 42 35 43 87 44 81 45
REMARK SMILES IDX 80 46 36 48 68 49 48 50 67 51 49 52 52 53 66 54 85 55 50 56
REMARK SMILES IDX 51 57 65 59 86 60 53 61 37 62 38 63 46 64 39 65 41 66 47 67
REMARK SMILES IDX 40 68 42 69 43 70 44 71 45 72 69 73 70 74 78 75 71 76 73 77
REMARK SMILES IDX 79 78 72 79 74 80 75 81 76 82 77 83 54 84 55 85 63 86 56 87
REMARK SMILES IDX 58 88 64 89 57 90 59 91 60 92 61 93 62 94
REMARK H PARENT 20 6 25 28 84 47 52 58
REMARK Flexibility Score: inf
ROOT
ATOM      1  C   UNL     1       0.281  -3.046   3.728  1.00  0.00     0.023 C 
ENDROOT
BRANCH   1   2
ATOM      2  C   UNL     1       0.458  -4.385   3.022  1.00  0.00     0.116 C 
BRANCH   2   3
ATOM      3  N   UNL     1      -0.804  -4.863   2.496  1.00  0.00    -0.353 N 
ATOM      4  C   UNL     1      -1.047  -5.542   1.342  1.00  0.00     0.260 C 
ATOM      5  O   UNL     1      -2.210  -5.872   1.094  1.00  0.00    -0.271 OA
ATOM      6  H   UNL     1      -1.595  -4.670   3.050  1.00  0.00     0.163 HD
BRANCH   4   7
ATOM      7  C   UNL     1       0.098  -5.895   0.359  1.00  0.00     0.258 C 
ATOM      8  C   UNL     1       0.541  -4.588  -0.322  1.00  0.00     0.064 C 
BRANCH   7   9
ATOM      9  O   UNL     1       1.282  -6.611   0.692  1.00  0.00    -0.480 OA
BRANCH   9  10
ATOM     10  C   UNL     1       1.375  -7.423   1.787  1.00  0.00     0.127 A 
ATOM     11  C   UNL     1       2.687  -7.767   2.188  1.00  0.00    -0.005 A 
ATOM     12  C   UNL     1       2.880  -8.409   3.431  1.00  0.00     0.019 A 
ATOM     13  C   UNL     1       1.803  -8.719   4.268  1.00  0.00     0.021 A 
ATOM     14  C   UNL     1       0.298  -7.868   2.545  1.00  0.00     0.094 A 
ATOM     15  C   UNL     1       1.942  -9.308   5.606  1.00  0.00    -0.033 A 
ATOM     16  C   UNL     1       0.526  -8.434   3.798  1.00  0.00     0.142 A 
ATOM     17  C   UNL     1       3.259  -9.861   6.059  1.00  0.00     0.045 C 
ATOM     18  C   UNL     1       0.860  -9.332   6.397  1.00  0.00     0.098 A 
ATOM     19  O   UNL     1      -0.611  -8.600   4.611  1.00  0.00    -0.423 OA
ATOM     20  C   UNL     1      -0.459  -8.838   5.967  1.00  0.00     0.336 A 
ATOM     21  O   UNL     1      -1.367  -8.685   6.767  1.00  0.00    -0.246 OA
BRANCH  11  22
ATOM     22  C   UNL     1       3.867  -7.382   1.312  1.00  0.00     0.036 C 
ATOM     23  C   UNL     1       5.131  -8.221   1.480  1.00  0.00     0.009 C 
ENDBRANCH  11  22
ENDBRANCH   9  10
ENDBRANCH   7   9
ENDBRANCH   4   7
ENDBRANCH   2   3
ENDBRANCH   1   2
BRANCH   1  24
ATOM     24  C   UNL     1      -0.507  -3.130   5.038  1.00  0.00     0.023 C 
BRANCH  24  25
ATOM     25  C   UNL     1       0.100  -4.051   6.090  1.00  0.00     0.116 C 
BRANCH  25  26
ATOM     26  N   UNL     1       1.442  -3.638   6.477  1.00  0.00    -0.352 N 
ATOM     27  C   UNL     1       1.925  -3.340   7.728  1.00  0.00     0.251 C 
ATOM     28  H   UNL     1       2.092  -3.561   5.741  1.00  0.00     0.163 HD
ATOM     29  O   UNL     1       3.030  -2.821   7.855  1.00  0.00    -0.269 OA
BRANCH  27  30
ATOM     30  C   UNL     1       1.095  -3.634   8.914  1.00  0.00     0.039 A 
ATOM     31  C   UNL     1       0.942  -2.656   9.899  1.00  0.00     0.014 A 
ATOM     32  C   UNL     1       0.451  -4.869   9.036  1.00  0.00     0.014 A 
ATOM     33  C   UNL     1       0.091  -2.897  10.979  1.00  0.00     0.010 A 
ATOM     34  C   UNL     1      -0.459  -5.072  10.067  1.00  0.00     0.010 A 
ATOM     35  C   UNL     1      -0.641  -4.094  11.056  1.00  0.00    -0.014 A 
BRANCH  35  36
ATOM     36  C   UNL     1      -1.601  -4.341  12.162  1.00  0.00     0.031 A 
ATOM     37  C   UNL     1      -1.379  -5.485  13.114  1.00  0.00     0.074 A 
ATOM     38  C   UNL     1      -2.711  -3.583  12.264  1.00  0.00     0.049 A 
ATOM     39  N   UNL     1      -2.119  -5.879  14.118  1.00  0.00    -0.248 NA
ATOM     40  C   UNL     1      -0.179  -6.311  12.896  1.00  0.00     0.031 C 
ATOM     41  C   UNL     1      -3.078  -2.493  11.358  1.00  0.00     0.029 A 
ATOM     42  N   UNL     1      -3.746  -3.628  13.164  1.00  0.00    -0.354 N 
ATOM     43  C   UNL     1      -1.497  -7.012  14.628  1.00  0.00     0.074 A 
ATOM     44  C   UNL     1      -0.341  -7.268  13.797  1.00  0.00     0.031 C 
ATOM     45  C   UNL     1      -4.246  -1.964  11.756  1.00  0.00     0.029 A 
ATOM     46  C   UNL     1      -4.728  -2.695  12.923  1.00  0.00     0.049 A 
ATOM     47  H   UNL     1      -3.783  -4.268  13.911  1.00  0.00     0.167 HD
ATOM     48  C   UNL     1      -1.834  -7.755  15.709  1.00  0.00     0.034 A 
ATOM     49  C   UNL     1      -5.887  -2.459  13.569  1.00  0.00     0.034 A 
ATOM     50  C   UNL     1      -2.969  -7.480  16.549  1.00  0.00     0.049 A 
ATOM     51  C   UNL     1      -6.231  -3.287  14.778  1.00  0.00     0.074 A 
ATOM     52  C   UNL     1      -3.357  -8.124  17.710  1.00  0.00     0.029 A 
ATOM     53  N   UNL     1      -3.905  -6.484  16.313  1.00  0.00    -0.354 N 
ATOM     54  N   UNL     1      -5.548  -4.256  15.338  1.00  0.00    -0.248 NA
ATOM     55  C   UNL     1      -7.488  -2.963  15.467  1.00  0.00     0.031 C 
ATOM     56  C   UNL     1      -4.544  -7.536  18.160  1.00  0.00     0.029 A 
ATOM     57  C   UNL     1      -4.875  -6.502  17.300  1.00  0.00     0.049 A 
ATOM     58  H   UNL     1      -3.882  -5.857  15.554  1.00  0.00     0.167 HD
ATOM     59  C   UNL     1      -6.269  -4.629  16.466  1.00  0.00     0.074 A 
ATOM     60  C   UNL     1      -7.433  -3.768  16.520  1.00  0.00     0.031 C 
ATOM     61  C   UNL     1      -6.000  -5.604  17.370  1.00  0.00     0.034 A 
BRANCH  48  62
ATOM     62  C   UNL     1      -0.932  -8.907  16.072  1.00  0.00     0.023 A 
ATOM     63  C   UNL     1       0.364  -8.647  16.566  1.00  0.00     0.012 A 
ATOM     64  C   UNL     1      -1.372 -10.241  15.963  1.00  0.00     0.148 A 
ATOM     65  C   UNL     1       1.222  -9.693  16.903  1.00  0.00     0.002 A 
ATOM     66  C   UNL     1      -0.528 -11.277  16.346  1.00  0.00     0.091 A 
ATOM     67  F   UNL     1      -2.598 -10.473  15.473  1.00  0.00    -0.205 F 
ATOM     68  C   UNL     1       0.773 -11.006  16.802  1.00  0.00     0.022 A 
BRANCH  66  69
ATOM     69  S   UNL     1      -1.038 -12.999  16.331  1.00  0.00     0.127 S 
ATOM     70  O   UNL     1      -0.253 -13.530  15.217  1.00  0.00    -0.237 OA
ATOM     71  O   UNL     1      -0.606 -13.459  17.652  1.00  0.00    -0.237 OA
ATOM     72  O   UNL     1      -2.480 -12.990  16.133  1.00  0.00    -0.744 OA
ENDBRANCH  66  69
ENDBRANCH  48  62
BRANCH  49  73
ATOM     73  C   UNL     1      -6.772  -1.342  13.132  1.00  0.00     0.023 A 
ATOM     74  C   UNL     1      -6.902  -0.205  13.954  1.00  0.00     0.012 A 
ATOM     75  C   UNL     1      -7.467  -1.386  11.908  1.00  0.00     0.148 A 
ATOM     76  C   UNL     1      -7.735   0.851  13.583  1.00  0.00     0.002 A 
ATOM     77  C   UNL     1      -8.252  -0.307  11.518  1.00  0.00     0.091 A 
ATOM     78  F   UNL     1      -7.336  -2.479  11.143  1.00  0.00    -0.205 F 
ATOM     79  C   UNL     1      -8.402   0.804  12.362  1.00  0.00     0.022 A 
BRANCH  77  80
ATOM     80  S   UNL     1      -9.048  -0.221   9.910  1.00  0.00     0.127 S 
ATOM     81  O   UNL     1     -10.460  -0.315  10.271  1.00  0.00    -0.237 OA
ATOM     82  O   UNL     1      -8.620   1.095   9.434  1.00  0.00    -0.237 OA
ATOM     83  O   UNL     1      -8.516  -1.340   9.146  1.00  0.00    -0.744 OA
ENDBRANCH  77  80
ENDBRANCH  49  73
BRANCH  61  84
ATOM     84  C   UNL     1      -6.952  -5.766  18.527  1.00  0.00     0.023 A 
ATOM     85  C   UNL     1      -8.238  -6.299  18.314  1.00  0.00     0.012 A 
ATOM     86  C   UNL     1      -6.543  -5.451  19.839  1.00  0.00     0.148 A 
ATOM     87  C   UNL     1      -9.117  -6.480  19.382  1.00  0.00     0.002 A 
ATOM     88  C   UNL     1      -7.403  -5.684  20.904  1.00  0.00     0.091 A 
ATOM     89  F   UNL     1      -5.321  -4.928  20.020  1.00  0.00    -0.205 F 
ATOM     90  C   UNL     1      -8.695  -6.185  20.677  1.00  0.00     0.022 A 
BRANCH  88  91
ATOM     91  S   UNL     1      -6.912  -5.429  22.613  1.00  0.00     0.127 S 
ATOM     92  O   UNL     1      -7.687  -4.243  22.972  1.00  0.00    -0.237 OA
ATOM     93  O   UNL     1      -7.360  -6.667  23.252  1.00  0.00    -0.237 OA
ATOM     94  O   UNL     1      -5.467  -5.249  22.594  1.00  0.00    -0.744 OA
ENDBRANCH  88  91
ENDBRANCH  61  84
ENDBRANCH  35  36
ENDBRANCH  27  30
ENDBRANCH  25  26
ENDBRANCH  24  25
ENDBRANCH   1  24
TORSDOF 17
