REMARK SMILES CCCOc1ccccc1/C=C1\SC(=S)N([C@@H](C(=O)NCCCCNC(=O)c2ccc(-c3c4nc(c(-c5cccc(S(=O)(=O)[O-])c5F)c5ccc([nH]5)c(-c5cccc(S(=O)(=O)[O-])c5F)c5nc(c(-c6cccc(S(=O)(=O)[O-])c6F)c6ccc3[nH]6)C=C5)C=C4)cc2)C(C)C)C1=O
REMARK SMILES IDX 21 1 20 2 18 3 19 4 17 6 16 7 11 8 12 9 13 10 94 11 14 12
REMARK SMILES IDX 95 13 15 14 10 15 5 16 6 17 7 18 9 19 8 20 4 21 3 22 2 23
REMARK SMILES IDX 1 24 91 25 92 26 93 27 22 28 23 29 24 30 25 31 26 32 27 34
REMARK SMILES IDX 28 35 29 36 90 37 30 38 89 39 31 40 32 41 33 42 83 43 34 44
REMARK SMILES IDX 88 45 82 46 84 47 35 48 87 49 81 50 80 51 36 53 68 54 48 55
REMARK SMILES IDX 67 56 49 57 52 58 66 59 85 60 50 61 51 62 65 64 86 65 53 66
REMARK SMILES IDX 37 67 38 68 46 69 39 70 41 71 47 72 40 73 42 74 43 75 44 76
REMARK SMILES IDX 45 77 69 78 70 79 78 80 71 81 73 82 79 83 72 84 74 85 75 86
REMARK SMILES IDX 76 87 77 88 54 89 55 90 63 91 56 92 58 93 64 94 57 95 59 96
REMARK SMILES IDX 60 97 61 98 62 99
REMARK H PARENT 20 5 25 33 84 52 52 63
REMARK Flexibility Score: inf
ROOT
ATOM      1  C   UNL     1      -4.562   1.161   2.646  1.00  0.00     0.116 C 
ENDROOT
BRANCH   1   2
ATOM      2  N   UNL     1      -3.633   1.908   3.463  1.00  0.00    -0.354 N 
ATOM      3  C   UNL     1      -2.689   2.835   3.122  1.00  0.00     0.243 C 
ATOM      4  O   UNL     1      -2.100   3.377   4.060  1.00  0.00    -0.273 OA
ATOM      5  H   UNL     1      -3.690   1.717   4.427  1.00  0.00     0.163 HD
BRANCH   3   6
ATOM      6  C   UNL     1      -2.506   3.290   1.643  1.00  0.00     0.184 C 
BRANCH   6   7
ATOM      7  N   UNL     1      -2.320   2.115   0.758  1.00  0.00    -0.280 N 
ATOM      8  C   UNL     1      -0.235  -0.740   0.049  1.00  0.00     0.033 C 
ATOM      9  C   UNL     1      -1.229   0.157   0.020  1.00  0.00     0.081 C 
ATOM     10  S   UNL     1      -2.443   0.393  -1.163  1.00  0.00    -0.054 SA
ATOM     11  C   UNL     1      -1.298   1.225   1.051  1.00  0.00     0.266 C 
ATOM     12  C   UNL     1      -3.007   1.883  -0.419  1.00  0.00     0.149 C 
ATOM     13  O   UNL     1      -0.519   1.306   1.988  1.00  0.00    -0.268 OA
ATOM     14  S   UNL     1      -4.208   2.802  -1.129  1.00  0.00    -0.052 S 
BRANCH   8  15
ATOM     15  C   UNL     1       0.228  -1.568  -1.074  1.00  0.00     0.018 A 
ATOM     16  C   UNL     1       0.638  -0.982  -2.288  1.00  0.00     0.126 A 
ATOM     17  C   UNL     1       1.151  -1.765  -3.321  1.00  0.00     0.047 A 
ATOM     18  C   UNL     1       1.331  -3.133  -3.127  1.00  0.00     0.004 A 
ATOM     19  C   UNL     1       0.433  -2.939  -0.884  1.00  0.00     0.012 A 
ATOM     20  C   UNL     1       0.983  -3.717  -1.908  1.00  0.00     0.001 A 
BRANCH  16  21
ATOM     21  O   UNL     1       0.459   0.362  -2.499  1.00  0.00    -0.493 OA
BRANCH  21  22
ATOM     22  C   UNL     1       1.668   1.130  -2.429  1.00  0.00     0.229 C 
BRANCH  22  23
ATOM     23  C   UNL     1       1.756   1.877  -1.096  1.00  0.00     0.038 C 
ATOM     24  C   UNL     1       2.579   1.135  -0.051  1.00  0.00     0.007 C 
ENDBRANCH  22  23
ENDBRANCH  21  22
ENDBRANCH  16  21
ENDBRANCH   8  15
ENDBRANCH   6   7
BRANCH   6  25
ATOM     25  C   UNL     1      -1.381   4.361   1.466  1.00  0.00     0.015 C 
ATOM     26  C   UNL     1      -1.124   4.712  -0.007  1.00  0.00     0.010 C 
ATOM     27  C   UNL     1      -1.718   5.675   2.191  1.00  0.00     0.010 C 
ENDBRANCH   6  25
ENDBRANCH   3   6
ENDBRANCH   1   2
BRANCH   1  28
ATOM     28  C   UNL     1      -4.091  -0.274   2.420  1.00  0.00     0.023 C 
BRANCH  28  29
ATOM     29  C   UNL     1      -4.146  -1.165   3.658  1.00  0.00     0.023 C 
BRANCH  29  30
ATOM     30  C   UNL     1      -5.522  -1.275   4.293  1.00  0.00     0.116 C 
BRANCH  30  31
ATOM     31  N   UNL     1      -6.545  -1.724   3.357  1.00  0.00    -0.352 N 
ATOM     32  C   UNL     1      -7.611  -2.557   3.606  1.00  0.00     0.251 C 
ATOM     33  H   UNL     1      -6.464  -1.389   2.435  1.00  0.00     0.163 HD
ATOM     34  O   UNL     1      -8.328  -2.945   2.696  1.00  0.00    -0.269 OA
BRANCH  32  35
ATOM     35  C   UNL     1      -7.840  -3.000   4.995  1.00  0.00     0.039 A 
ATOM     36  C   UNL     1      -7.944  -4.366   5.261  1.00  0.00     0.014 A 
ATOM     37  C   UNL     1      -7.861  -2.064   6.032  1.00  0.00     0.014 A 
ATOM     38  C   UNL     1      -8.002  -4.800   6.585  1.00  0.00     0.010 A 
ATOM     39  C   UNL     1      -7.836  -2.503   7.348  1.00  0.00     0.010 A 
ATOM     40  C   UNL     1      -7.912  -3.874   7.638  1.00  0.00    -0.014 A 
BRANCH  40  41
ATOM     41  C   UNL     1      -7.890  -4.311   9.055  1.00  0.00     0.031 A 
ATOM     42  C   UNL     1      -8.988  -3.878   9.986  1.00  0.00     0.074 A 
ATOM     43  C   UNL     1      -6.834  -5.006   9.522  1.00  0.00     0.049 A 
ATOM     44  N   UNL     1      -9.107  -4.085  11.271  1.00  0.00    -0.248 NA
ATOM     45  C   UNL     1     -10.079  -3.077   9.404  1.00  0.00     0.031 C 
ATOM     46  C   UNL     1      -5.667  -5.408   8.734  1.00  0.00     0.029 A 
ATOM     47  N   UNL     1      -6.558  -5.471  10.783  1.00  0.00    -0.354 N 
ATOM     48  C   UNL     1     -10.258  -3.409  11.657  1.00  0.00     0.074 A 
ATOM     49  C   UNL     1     -10.781  -2.753  10.479  1.00  0.00     0.031 C 
ATOM     50  C   UNL     1      -4.803  -6.062   9.528  1.00  0.00     0.029 A 
ATOM     51  C   UNL     1      -5.340  -6.103  10.884  1.00  0.00     0.049 A 
ATOM     52  H   UNL     1      -7.173  -5.363  11.544  1.00  0.00     0.167 HD
ATOM     53  C   UNL     1     -10.846  -3.366  12.875  1.00  0.00     0.034 A 
ATOM     54  C   UNL     1      -4.726  -6.650  11.951  1.00  0.00     0.034 A 
ATOM     55  C   UNL     1     -10.353  -4.067  14.028  1.00  0.00     0.049 A 
ATOM     56  C   UNL     1      -5.429  -6.637  13.282  1.00  0.00     0.074 A 
ATOM     57  C   UNL     1     -10.926  -4.170  15.282  1.00  0.00     0.029 A 
ATOM     58  N   UNL     1      -9.168  -4.785  14.068  1.00  0.00    -0.354 N 
ATOM     59  N   UNL     1      -6.601  -6.135  13.590  1.00  0.00    -0.248 NA
ATOM     60  C   UNL     1      -4.745  -7.297  14.403  1.00  0.00     0.031 C 
ATOM     61  C   UNL     1     -10.079  -4.940  16.086  1.00  0.00     0.029 A 
ATOM     62  C   UNL     1      -8.988  -5.331  15.326  1.00  0.00     0.049 A 
ATOM     63  H   UNL     1      -8.545  -4.890  13.312  1.00  0.00     0.167 HD
ATOM     64  C   UNL     1      -6.811  -6.449  14.928  1.00  0.00     0.074 A 
ATOM     65  C   UNL     1      -5.653  -7.203  15.366  1.00  0.00     0.031 C 
ATOM     66  C   UNL     1      -7.858  -6.130  15.727  1.00  0.00     0.034 A 
BRANCH  53  67
ATOM     67  C   UNL     1     -12.128  -2.586  13.004  1.00  0.00     0.023 A 
ATOM     68  C   UNL     1     -13.306  -3.088  12.414  1.00  0.00     0.012 A 
ATOM     69  C   UNL     1     -12.181  -1.389  13.745  1.00  0.00     0.148 A 
ATOM     70  C   UNL     1     -14.510  -2.395  12.529  1.00  0.00     0.002 A 
ATOM     71  C   UNL     1     -13.395  -0.727  13.892  1.00  0.00     0.091 A 
ATOM     72  F   UNL     1     -11.046  -0.914  14.277  1.00  0.00    -0.205 F 
ATOM     73  C   UNL     1     -14.556  -1.222  13.276  1.00  0.00     0.022 A 
BRANCH  71  74
ATOM     74  S   UNL     1     -13.575   0.750  14.899  1.00  0.00     0.127 S 
ATOM     75  O   UNL     1     -13.753   1.782  13.879  1.00  0.00    -0.237 OA
ATOM     76  O   UNL     1     -14.777   0.448  15.677  1.00  0.00    -0.237 OA
ATOM     77  O   UNL     1     -12.354   0.849  15.685  1.00  0.00    -0.744 OA
ENDBRANCH  71  74
ENDBRANCH  53  67
BRANCH  54  78
ATOM     78  C   UNL     1      -3.408  -7.326  11.787  1.00  0.00     0.023 A 
ATOM     79  C   UNL     1      -3.338  -8.730  11.887  1.00  0.00     0.012 A 
ATOM     80  C   UNL     1      -2.235  -6.600  11.504  1.00  0.00     0.148 A 
ATOM     81  C   UNL     1      -2.121  -9.395  11.741  1.00  0.00     0.002 A 
ATOM     82  C   UNL     1      -1.035  -7.273  11.306  1.00  0.00     0.091 A 
ATOM     83  F   UNL     1      -2.319  -5.264  11.425  1.00  0.00    -0.205 F 
ATOM     84  C   UNL     1      -0.972  -8.669  11.440  1.00  0.00     0.022 A 
BRANCH  82  85
ATOM     85  S   UNL     1       0.465  -6.432  10.787  1.00  0.00     0.127 S 
ATOM     86  O   UNL     1       1.268  -6.472  12.006  1.00  0.00    -0.237 OA
ATOM     87  O   UNL     1       0.941  -7.298   9.707  1.00  0.00    -0.237 OA
ATOM     88  O   UNL     1       0.039  -5.110  10.349  1.00  0.00    -0.744 OA
ENDBRANCH  82  85
ENDBRANCH  54  78
BRANCH  66  89
ATOM     89  C   UNL     1      -7.828  -6.620  17.150  1.00  0.00     0.023 A 
ATOM     90  C   UNL     1      -6.964  -6.010  18.080  1.00  0.00     0.012 A 
ATOM     91  C   UNL     1      -8.717  -7.623  17.583  1.00  0.00     0.148 A 
ATOM     92  C   UNL     1      -6.966  -6.410  19.416  1.00  0.00     0.002 A 
ATOM     93  C   UNL     1      -8.747  -7.983  18.925  1.00  0.00     0.091 A 
ATOM     94  F   UNL     1      -9.518  -8.203  16.677  1.00  0.00    -0.205 F 
ATOM     95  C   UNL     1      -7.865  -7.386  19.840  1.00  0.00     0.022 A 
BRANCH  93  96
ATOM     96  S   UNL     1      -9.938  -9.159  19.578  1.00  0.00     0.127 S 
ATOM     97  O   UNL     1      -9.097 -10.330  19.822  1.00  0.00    -0.237 OA
ATOM     98  O   UNL     1     -10.411  -8.485  20.788  1.00  0.00    -0.237 OA
ATOM     99  O   UNL     1     -10.950  -9.320  18.543  1.00  0.00    -0.744 OA
ENDBRANCH  93  96
ENDBRANCH  66  89
ENDBRANCH  40  41
ENDBRANCH  32  35
ENDBRANCH  30  31
ENDBRANCH  29  30
ENDBRANCH  28  29
ENDBRANCH   1  28
TORSDOF 20
