REMARK SMILES CC1=C(C(=O)NCCCCNC(=O)c2ccc(-c3c4nc(c(-c5cccc(S(=O)(=O)[O-])c5F)c5ccc([nH]5)c(-c5cccc(S(=O)(=O)[O-])c5F)c5nc(c(-c6cccc(S(=O)(=O)[O-])c6F)c6ccc3[nH]6)C=C5)C=C4)cc2)N2C(=O)[C@@H](NC(=O)c3ccn(C)n3)[C@H]2SC1
REMARK SMILES IDX 9 1 8 2 7 3 6 4 4 5 5 6 3 8 1 9 2 10 92 11 77 12 91 13 78 14
REMARK SMILES IDX 90 15 79 16 80 17 81 18 82 19 83 21 84 22 85 23 89 24 86 25
REMARK SMILES IDX 87 26 88 27 10 28 11 29 12 30 13 32 14 33 15 34 76 35 16 36
REMARK SMILES IDX 75 37 17 38 18 39 19 40 69 41 20 42 74 43 68 44 70 45 21 46
REMARK SMILES IDX 73 47 67 48 66 49 22 51 54 52 34 53 53 54 35 55 38 56 52 57
REMARK SMILES IDX 71 58 36 59 37 60 51 62 72 63 39 64 23 65 24 66 32 67 25 68
REMARK SMILES IDX 27 69 33 70 26 71 28 72 29 73 30 74 31 75 55 76 56 77 64 78
REMARK SMILES IDX 57 79 59 80 65 81 58 82 60 83 61 84 62 85 63 86 40 87 41 88
REMARK SMILES IDX 49 89 42 90 44 91 50 92 43 93 45 94 46 95 47 96 48 97
REMARK H PARENT 6 7 81 20 11 31 70 50 38 61
REMARK Flexibility Score: inf
ROOT
ATOM      1  C   UNL     1       3.369  -5.330   2.219  1.00  0.00     0.023 C 
ENDROOT
BRANCH   1   2
ATOM      2  C   UNL     1       3.091  -3.847   2.445  1.00  0.00     0.023 C 
BRANCH   2   3
ATOM      3  C   UNL     1       2.695  -3.030   1.224  1.00  0.00     0.116 C 
BRANCH   3   4
ATOM      4  N   UNL     1       1.469  -3.405   0.553  1.00  0.00    -0.351 N 
ATOM      5  C   UNL     1       0.646  -2.634  -0.227  1.00  0.00     0.268 C 
ATOM      6  O   UNL     1      -0.227  -3.178  -0.904  1.00  0.00    -0.268 OA
ATOM      7  H   UNL     1       1.188  -4.341   0.671  1.00  0.00     0.163 HD
BRANCH   5   8
ATOM      8  C   UNL     1       0.759  -1.124  -0.231  1.00  0.00     0.110 C 
ATOM      9  C   UNL     1       3.179  -0.954  -0.961  1.00  0.00     0.043 C 
ATOM     10  C   UNL     1       1.888  -0.394  -0.424  1.00  0.00    -0.034 C 
ATOM     11  C   UNL     1       1.978   1.113  -0.174  1.00  0.00     0.104 C 
ATOM     12  N   UNL     1      -0.419  -0.444  -0.218  1.00  0.00    -0.290 N 
ATOM     13  S   UNL     1       0.409   1.952   0.243  1.00  0.00    -0.129 SA
ATOM     14  C   UNL     1      -1.723  -0.616   0.068  1.00  0.00     0.253 C 
ATOM     15  C   UNL     1      -0.536   0.858  -0.836  1.00  0.00     0.181 C 
ATOM     16  O   UNL     1      -2.353  -1.466   0.654  1.00  0.00    -0.272 OA
ATOM     17  C   UNL     1      -2.059   0.709  -0.675  1.00  0.00     0.206 C 
BRANCH  17  18
ATOM     18  N   UNL     1      -2.795   1.779   0.035  1.00  0.00    -0.336 N 
ATOM     19  C   UNL     1      -3.796   2.580  -0.486  1.00  0.00     0.272 C 
ATOM     20  H   UNL     1      -2.546   1.937   0.974  1.00  0.00     0.164 HD
ATOM     21  O   UNL     1      -4.178   3.555   0.159  1.00  0.00    -0.267 OA
BRANCH  19  22
ATOM     22  C   UNL     1      -4.341   2.228  -1.810  1.00  0.00     0.150 A 
ATOM     23  C   UNL     1      -4.861   0.968  -2.228  1.00  0.00     0.056 A 
ATOM     24  N   UNL     1      -4.368   3.109  -2.829  1.00  0.00    -0.168 NA
ATOM     25  C   UNL     1      -5.152   1.114  -3.563  1.00  0.00     0.109 A 
ATOM     26  N   UNL     1      -4.881   2.415  -3.860  1.00  0.00    -0.275 N 
ATOM     27  C   UNL     1      -5.072   3.050  -5.142  1.00  0.00     0.173 C 
ENDBRANCH  19  22
ENDBRANCH  17  18
ENDBRANCH   5   8
ENDBRANCH   3   4
ENDBRANCH   2   3
ENDBRANCH   1   2
BRANCH   1  28
ATOM     28  C   UNL     1       4.266  -5.687   1.037  1.00  0.00     0.116 C 
BRANCH  28  29
ATOM     29  N   UNL     1       5.616  -5.142   1.129  1.00  0.00    -0.352 N 
ATOM     30  C   UNL     1       6.826  -5.787   1.260  1.00  0.00     0.251 C 
ATOM     31  H   UNL     1       5.671  -4.160   1.091  1.00  0.00     0.163 HD
ATOM     32  O   UNL     1       7.853  -5.130   1.413  1.00  0.00    -0.269 OA
BRANCH  30  33
ATOM     33  C   UNL     1       6.887  -7.265   1.256  1.00  0.00     0.039 A 
ATOM     34  C   UNL     1       7.620  -7.918   2.251  1.00  0.00     0.014 A 
ATOM     35  C   UNL     1       6.195  -8.008   0.299  1.00  0.00     0.014 A 
ATOM     36  C   UNL     1       7.572  -9.312   2.344  1.00  0.00     0.010 A 
ATOM     37  C   UNL     1       6.065  -9.385   0.456  1.00  0.00     0.010 A 
ATOM     38  C   UNL     1       6.750 -10.056   1.480  1.00  0.00    -0.014 A 
BRANCH  38  39
ATOM     39  C   UNL     1       6.583 -11.526   1.640  1.00  0.00     0.031 A 
ATOM     40  C   UNL     1       6.949 -12.460   0.515  1.00  0.00     0.074 A 
ATOM     41  C   UNL     1       6.023 -12.020   2.764  1.00  0.00     0.049 A 
ATOM     42  N   UNL     1       6.821 -13.760   0.449  1.00  0.00    -0.248 NA
ATOM     43  C   UNL     1       7.506 -11.852  -0.705  1.00  0.00     0.031 C 
ATOM     44  C   UNL     1       5.550 -11.220   3.897  1.00  0.00     0.029 A 
ATOM     45  N   UNL     1       5.732 -13.312   3.130  1.00  0.00    -0.354 N 
ATOM     46  C   UNL     1       7.245 -14.120  -0.825  1.00  0.00     0.074 A 
ATOM     47  C   UNL     1       7.596 -12.898  -1.514  1.00  0.00     0.031 C 
ATOM     48  C   UNL     1       5.043 -12.037   4.834  1.00  0.00     0.029 A 
ATOM     49  C   UNL     1       5.112 -13.414   4.355  1.00  0.00     0.049 A 
ATOM     50  H   UNL     1       5.947 -14.091   2.569  1.00  0.00     0.167 HD
ATOM     51  C   UNL     1       7.362 -15.355  -1.366  1.00  0.00     0.034 A 
ATOM     52  C   UNL     1       4.639 -14.491   5.013  1.00  0.00     0.034 A 
ATOM     53  C   UNL     1       7.043 -16.573  -0.670  1.00  0.00     0.049 A 
ATOM     54  C   UNL     1       4.794 -15.855   4.395  1.00  0.00     0.074 A 
ATOM     55  C   UNL     1       7.207 -17.876  -1.103  1.00  0.00     0.029 A 
ATOM     56  N   UNL     1       6.480 -16.638   0.594  1.00  0.00    -0.354 N 
ATOM     57  N   UNL     1       5.341 -16.185   3.251  1.00  0.00    -0.248 NA
ATOM     58  C   UNL     1       4.296 -16.999   5.173  1.00  0.00     0.031 C 
ATOM     59  C   UNL     1       6.702 -18.730  -0.118  1.00  0.00     0.029 A 
ATOM     60  C   UNL     1       6.272 -17.960   0.950  1.00  0.00     0.049 A 
ATOM     61  H   UNL     1       6.260 -15.860   1.156  1.00  0.00     0.167 HD
ATOM     62  C   UNL     1       5.291 -17.573   3.190  1.00  0.00     0.074 A 
ATOM     63  C   UNL     1       4.678 -18.023   4.422  1.00  0.00     0.031 C 
ATOM     64  C   UNL     1       5.706 -18.399   2.199  1.00  0.00     0.034 A 
BRANCH  51  65
ATOM     65  C   UNL     1       7.893 -15.459  -2.773  1.00  0.00     0.023 A 
ATOM     66  C   UNL     1       9.244 -15.153  -3.037  1.00  0.00     0.012 A 
ATOM     67  C   UNL     1       7.072 -15.918  -3.821  1.00  0.00     0.148 A 
ATOM     68  C   UNL     1       9.759 -15.264  -4.327  1.00  0.00     0.002 A 
ATOM     69  C   UNL     1       7.606 -16.076  -5.095  1.00  0.00     0.091 A 
ATOM     70  F   UNL     1       5.786 -16.188  -3.555  1.00  0.00    -0.205 F 
ATOM     71  C   UNL     1       8.944 -15.736  -5.352  1.00  0.00     0.022 A 
BRANCH  69  72
ATOM     72  S   UNL     1       6.665 -16.755  -6.465  1.00  0.00     0.127 S 
ATOM     73  O   UNL     1       6.554 -15.595  -7.349  1.00  0.00    -0.237 OA
ATOM     74  O   UNL     1       7.553 -17.810  -6.952  1.00  0.00    -0.237 OA
ATOM     75  O   UNL     1       5.409 -17.227  -5.899  1.00  0.00    -0.744 OA
ENDBRANCH  69  72
ENDBRANCH  51  65
BRANCH  52  76
ATOM     76  C   UNL     1       4.006 -14.334   6.356  1.00  0.00     0.023 A 
ATOM     77  C   UNL     1       4.651 -14.855   7.495  1.00  0.00     0.012 A 
ATOM     78  C   UNL     1       2.772 -13.675   6.508  1.00  0.00     0.148 A 
ATOM     79  C   UNL     1       4.058 -14.759   8.755  1.00  0.00     0.002 A 
ATOM     80  C   UNL     1       2.215 -13.530   7.773  1.00  0.00     0.091 A 
ATOM     81  F   UNL     1       2.170 -13.194   5.411  1.00  0.00    -0.205 F 
ATOM     82  C   UNL     1       2.845 -14.089   8.895  1.00  0.00     0.022 A 
BRANCH  80  83
ATOM     83  S   UNL     1       0.723 -12.575   8.066  1.00  0.00     0.127 S 
ATOM     84  O   UNL     1      -0.224 -13.614   8.465  1.00  0.00    -0.237 OA
ATOM     85  O   UNL     1       1.147 -11.681   9.144  1.00  0.00    -0.237 OA
ATOM     86  O   UNL     1       0.430 -11.904   6.807  1.00  0.00    -0.744 OA
ENDBRANCH  80  83
ENDBRANCH  52  76
BRANCH  64  87
ATOM     87  C   UNL     1       5.567 -19.884   2.417  1.00  0.00     0.023 A 
ATOM     88  C   UNL     1       4.294 -20.487   2.406  1.00  0.00     0.012 A 
ATOM     89  C   UNL     1       6.714 -20.692   2.554  1.00  0.00     0.148 A 
ATOM     90  C   UNL     1       4.163 -21.867   2.564  1.00  0.00     0.002 A 
ATOM     91  C   UNL     1       6.578 -22.071   2.655  1.00  0.00     0.091 A 
ATOM     92  F   UNL     1       7.915 -20.097   2.577  1.00  0.00    -0.205 F 
ATOM     93  C   UNL     1       5.303 -22.659   2.675  1.00  0.00     0.022 A 
BRANCH  91  94
ATOM     94  S   UNL     1       7.991 -23.179   2.699  1.00  0.00     0.127 S 
ATOM     95  O   UNL     1       7.919 -23.698   4.064  1.00  0.00    -0.237 OA
ATOM     96  O   UNL     1       7.653 -24.150   1.659  1.00  0.00    -0.237 OA
ATOM     97  O   UNL     1       9.159 -22.358   2.408  1.00  0.00    -0.744 OA
ENDBRANCH  91  94
ENDBRANCH  64  87
ENDBRANCH  38  39
ENDBRANCH  30  33
ENDBRANCH  28  29
ENDBRANCH   1  28
TORSDOF 16
