REMARK SMILES Cc1ccc(NC(=O)[C@H]2CC(Cl)=CC[C@@H]2C(=O)NCCCCNC(=O)c2ccc(-c3c4nc(c(-c5cccc(S(=O)(=O)[O-])c5F)c5ccc([nH]5)c(-c5cccc(S(=O)(=O)[O-])c5F)c5nc(c(-c6cccc(S(=O)(=O)[O-])c6F)c6ccc3[nH]6)C=C5)C=C4)cc2)cc1[N+](=O)[O-]
REMARK SMILES IDX 20 1 19 2 18 3 16 4 17 5 15 7 9 8 10 9 11 10 14 11 12 12
REMARK SMILES IDX 13 13 7 14 6 15 8 17 5 18 1 19 2 20 3 21 90 22 4 23 89 24
REMARK SMILES IDX 91 25 92 26 93 27 21 28 22 29 23 30 24 31 25 33 26 34 27 35
REMARK SMILES IDX 88 36 28 37 87 38 29 39 30 40 31 41 81 42 32 43 86 44 80 45
REMARK SMILES IDX 82 46 33 47 85 48 79 49 78 50 34 52 66 53 46 54 65 55 47 56
REMARK SMILES IDX 50 57 64 58 83 59 48 60 49 61 63 63 84 64 51 65 35 66 36 67
REMARK SMILES IDX 44 68 37 69 39 70 45 71 38 72 40 73 41 74 42 75 43 76 67 77
REMARK SMILES IDX 68 78 76 79 69 80 71 81 77 82 70 83 72 84 73 85 74 86 75 87
REMARK SMILES IDX 52 88 53 89 61 90 54 91 56 92 62 93 55 94 57 95 58 96 59 97
REMARK SMILES IDX 60 98
REMARK H PARENT 18 6 6 16 23 32 82 51 50 62
REMARK Flexibility Score: inf
ROOT
ATOM      1  C   UNL     1      -3.624   1.530  -0.988  1.00  0.00     0.023 C 
ENDROOT
BRANCH   1   2
ATOM      2  C   UNL     1      -3.298   0.582  -2.151  1.00  0.00     0.116 C 
BRANCH   2   3
ATOM      3  N   UNL     1      -2.102  -0.227  -1.962  1.00  0.00    -0.356 N 
ATOM      4  C   UNL     1      -1.901  -1.557  -1.775  1.00  0.00     0.224 C 
ATOM      5  O   UNL     1      -0.736  -1.962  -1.832  1.00  0.00    -0.275 OA
ATOM      6  H   UNL     1      -1.268   0.297  -1.971  1.00  0.00     0.163 HD
BRANCH   4   7
ATOM      7  C   UNL     1      -3.037  -2.519  -1.426  1.00  0.00     0.095 C 
ATOM      8  C   UNL     1      -2.983  -2.825   0.090  1.00  0.00     0.097 C 
ATOM      9  C   UNL     1      -3.935  -3.970   0.476  1.00  0.00     0.062 C 
ATOM     10  C   UNL     1      -3.654  -5.192  -0.333  1.00  0.00     0.015 C 
ATOM     11  C   UNL     1      -2.836  -3.824  -2.261  1.00  0.00     0.043 C 
ATOM     12  Cl  UNL     1      -3.942  -6.709   0.431  1.00  0.00    -0.089 Cl
ATOM     13  C   UNL     1      -3.152  -5.125  -1.570  1.00  0.00    -0.010 C 
BRANCH   8  14
ATOM     14  C   UNL     1      -3.351  -1.632   0.955  1.00  0.00     0.228 C 
ATOM     15  N   UNL     1      -2.439  -0.819   1.563  1.00  0.00    -0.326 N 
ATOM     16  H   UNL     1      -2.849  -0.139   2.145  1.00  0.00     0.169 HD
ATOM     17  O   UNL     1      -4.542  -1.321   1.088  1.00  0.00    -0.274 OA
BRANCH  15  18
ATOM     18  C   UNL     1      -1.035  -0.751   1.530  1.00  0.00     0.048 A 
ATOM     19  C   UNL     1       3.039  -0.132   0.218  1.00  0.00     0.052 C 
ATOM     20  C   UNL     1       1.670  -0.283   0.817  1.00  0.00     0.027 A 
ATOM     21  C   UNL     1       1.150  -1.581   0.899  1.00  0.00     0.012 A 
ATOM     22  C   UNL     1       0.842   0.760   1.250  1.00  0.00     0.274 A 
ATOM     23  C   UNL     1      -0.178  -1.811   1.275  1.00  0.00     0.027 A 
ATOM     24  C   UNL     1      -0.478   0.520   1.670  1.00  0.00     0.112 A 
BRANCH  22  25
ATOM     25  N   UNL     1       1.253   2.159   1.188  1.00  0.00     0.063 N 
ATOM     26  O   UNL     1       0.976   2.866   2.167  1.00  0.00    -0.258 OA
ATOM     27  O   UNL     1       1.795   2.554   0.150  1.00  0.00    -0.258 OA
ENDBRANCH  22  25
ENDBRANCH  15  18
ENDBRANCH   8  14
ENDBRANCH   4   7
ENDBRANCH   2   3
ENDBRANCH   1   2
BRANCH   1  28
ATOM     28  C   UNL     1      -2.453   2.310  -0.396  1.00  0.00     0.023 C 
BRANCH  28  29
ATOM     29  C   UNL     1      -1.964   3.517  -1.187  1.00  0.00     0.116 C 
BRANCH  29  30
ATOM     30  N   UNL     1      -2.043   4.750  -0.393  1.00  0.00    -0.352 N 
ATOM     31  C   UNL     1      -1.320   5.930  -0.502  1.00  0.00     0.251 C 
ATOM     32  H   UNL     1      -2.714   4.738   0.328  1.00  0.00     0.163 HD
ATOM     33  O   UNL     1      -1.465   6.839   0.308  1.00  0.00    -0.269 OA
BRANCH  31  34
ATOM     34  C   UNL     1      -0.459   6.094  -1.688  1.00  0.00     0.039 A 
ATOM     35  C   UNL     1      -0.979   6.900  -2.704  1.00  0.00     0.014 A 
ATOM     36  C   UNL     1       0.465   5.093  -1.954  1.00  0.00     0.014 A 
ATOM     37  C   UNL     1      -0.855   6.477  -4.017  1.00  0.00     0.010 A 
ATOM     38  C   UNL     1       0.519   4.620  -3.244  1.00  0.00     0.010 A 
ATOM     39  C   UNL     1      -0.219   5.262  -4.248  1.00  0.00    -0.014 A 
BRANCH  39  40
ATOM     40  C   UNL     1      -0.168   4.614  -5.540  1.00  0.00     0.031 A 
ATOM     41  C   UNL     1       0.962   4.979  -6.409  1.00  0.00     0.074 A 
ATOM     42  C   UNL     1      -1.040   3.628  -5.846  1.00  0.00     0.049 A 
ATOM     43  N   UNL     1       1.018   4.748  -7.670  1.00  0.00    -0.248 NA
ATOM     44  C   UNL     1       2.116   5.708  -5.897  1.00  0.00     0.031 C 
ATOM     45  C   UNL     1      -0.919   2.659  -6.928  1.00  0.00     0.029 A 
ATOM     46  N   UNL     1      -2.338   3.428  -5.355  1.00  0.00    -0.354 N 
ATOM     47  C   UNL     1       2.303   5.039  -8.082  1.00  0.00     0.074 A 
ATOM     48  C   UNL     1       2.906   5.727  -6.971  1.00  0.00     0.031 C 
ATOM     49  C   UNL     1      -2.138   2.174  -7.214  1.00  0.00     0.029 A 
ATOM     50  C   UNL     1      -3.092   2.958  -6.448  1.00  0.00     0.049 A 
ATOM     51  H   UNL     1      -2.656   3.584  -4.436  1.00  0.00     0.167 HD
ATOM     52  C   UNL     1       2.733   4.521  -9.266  1.00  0.00     0.034 A 
ATOM     53  C   UNL     1      -4.155   3.635  -6.980  1.00  0.00     0.034 A 
ATOM     54  C   UNL     1       1.607   3.879  -9.963  1.00  0.00     0.049 A 
ATOM     55  C   UNL     1      -3.941   4.011  -8.440  1.00  0.00     0.074 A 
ATOM     56  C   UNL     1       1.157   2.569 -10.021  1.00  0.00     0.029 A 
ATOM     57  N   UNL     1       0.568   4.671 -10.438  1.00  0.00    -0.354 N 
ATOM     58  N   UNL     1      -2.803   3.885  -9.067  1.00  0.00    -0.248 NA
ATOM     59  C   UNL     1      -4.980   4.562  -9.307  1.00  0.00     0.031 C 
ATOM     60  C   UNL     1      -0.205   2.594 -10.434  1.00  0.00     0.029 A 
ATOM     61  C   UNL     1      -0.568   3.910 -10.671  1.00  0.00     0.049 A 
ATOM     62  H   UNL     1       0.630   5.642 -10.588  1.00  0.00     0.167 HD
ATOM     63  C   UNL     1      -2.894   4.405 -10.332  1.00  0.00     0.074 A 
ATOM     64  C   UNL     1      -4.301   4.751 -10.455  1.00  0.00     0.031 C 
ATOM     65  C   UNL     1      -1.796   4.550 -11.142  1.00  0.00     0.034 A 
BRANCH  52  66
ATOM     66  C   UNL     1       4.186   4.327  -9.679  1.00  0.00     0.023 A 
ATOM     67  C   UNL     1       4.430   3.405 -10.723  1.00  0.00     0.012 A 
ATOM     68  C   UNL     1       5.341   4.903  -9.094  1.00  0.00     0.148 A 
ATOM     69  C   UNL     1       5.720   3.016 -11.105  1.00  0.00     0.002 A 
ATOM     70  C   UNL     1       6.631   4.491  -9.448  1.00  0.00     0.091 A 
ATOM     71  F   UNL     1       5.224   5.903  -8.223  1.00  0.00    -0.205 F 
ATOM     72  C   UNL     1       6.823   3.541 -10.451  1.00  0.00     0.022 A 
BRANCH  70  73
ATOM     73  S   UNL     1       8.114   5.108  -8.624  1.00  0.00     0.127 S 
ATOM     74  O   UNL     1       8.750   3.870  -8.169  1.00  0.00    -0.237 OA
ATOM     75  O   UNL     1       8.817   5.787  -9.711  1.00  0.00    -0.237 OA
ATOM     76  O   UNL     1       7.658   5.976  -7.544  1.00  0.00    -0.744 OA
ENDBRANCH  70  73
ENDBRANCH  52  66
BRANCH  53  77
ATOM     77  C   UNL     1      -4.923   4.416  -5.965  1.00  0.00     0.023 A 
ATOM     78  C   UNL     1      -5.525   3.665  -4.924  1.00  0.00     0.012 A 
ATOM     79  C   UNL     1      -4.707   5.790  -5.771  1.00  0.00     0.148 A 
ATOM     80  C   UNL     1      -5.728   4.223  -3.662  1.00  0.00     0.002 A 
ATOM     81  C   UNL     1      -4.923   6.342  -4.508  1.00  0.00     0.091 A 
ATOM     82  F   UNL     1      -4.222   6.514  -6.787  1.00  0.00    -0.205 F 
ATOM     83  C   UNL     1      -5.380   5.548  -3.442  1.00  0.00     0.022 A 
BRANCH  81  84
ATOM     84  S   UNL     1      -4.507   8.051  -4.135  1.00  0.00     0.127 S 
ATOM     85  O   UNL     1      -5.804   8.704  -4.277  1.00  0.00    -0.237 OA
ATOM     86  O   UNL     1      -4.018   7.955  -2.761  1.00  0.00    -0.237 OA
ATOM     87  O   UNL     1      -3.490   8.409  -5.112  1.00  0.00    -0.744 OA
ENDBRANCH  81  84
ENDBRANCH  53  77
BRANCH  65  88
ATOM     88  C   UNL     1      -1.748   5.322 -12.453  1.00  0.00     0.023 A 
ATOM     89  C   UNL     1      -2.703   6.295 -12.799  1.00  0.00     0.012 A 
ATOM     90  C   UNL     1      -0.627   5.204 -13.322  1.00  0.00     0.148 A 
ATOM     91  C   UNL     1      -2.589   7.069 -13.962  1.00  0.00     0.002 A 
ATOM     92  C   UNL     1      -0.451   6.068 -14.399  1.00  0.00     0.091 A 
ATOM     93  F   UNL     1       0.276   4.232 -13.125  1.00  0.00    -0.205 F 
ATOM     94  C   UNL     1      -1.448   6.977 -14.746  1.00  0.00     0.022 A 
BRANCH  92  95
ATOM     95  S   UNL     1       1.129   6.170 -15.254  1.00  0.00     0.127 S 
ATOM     96  O   UNL     1       0.911   5.293 -16.402  1.00  0.00    -0.237 OA
ATOM     97  O   UNL     1       1.214   7.595 -15.583  1.00  0.00    -0.237 OA
ATOM     98  O   UNL     1       2.115   5.725 -14.279  1.00  0.00    -0.744 OA
ENDBRANCH  92  95
ENDBRANCH  65  88
ENDBRANCH  39  40
ENDBRANCH  31  34
ENDBRANCH  29  30
ENDBRANCH  28  29
ENDBRANCH   1  28
TORSDOF 17
