REMARK SMILES Cc1ccc(-c2cc(C(=O)NCCCCNC(=O)c3ccc(-c4c5nc(c(-c6cccc(S(=O)(=O)[O-])c6F)c6ccc([nH]6)c(-c6cccc(S(=O)(=O)[O-])c6F)c6nc(c(-c7cccc(S(=O)(=O)[O-])c7F)c7ccc4[nH]7)C=C6)C=C5)cc3)c3cc(C)ccc3n2)c(C)c1
REMARK SMILES IDX 14 1 13 2 12 3 11 4 9 5 10 6 8 8 6 9 7 10 89 11 88 12 82 13
REMARK SMILES IDX 87 14 83 15 86 16 84 17 85 18 5 19 1 20 2 21 3 22 92 23 4 24
REMARK SMILES IDX 90 25 91 26 15 27 16 28 17 29 18 31 19 32 20 33 81 34 21 35
REMARK SMILES IDX 80 36 22 37 23 38 24 39 74 40 25 41 79 42 73 43 75 44 26 45
REMARK SMILES IDX 78 46 72 47 71 48 27 50 59 51 39 52 58 53 40 54 43 55 57 56
REMARK SMILES IDX 76 57 41 58 42 59 56 61 77 62 44 63 28 64 29 65 37 66 30 67
REMARK SMILES IDX 32 68 38 69 31 70 33 71 34 72 35 73 36 74 60 75 61 76 69 77
REMARK SMILES IDX 62 78 64 79 70 80 63 81 65 82 66 83 67 84 68 85 45 86 46 87
REMARK SMILES IDX 54 88 47 89 49 90 55 91 48 92 50 93 51 94 52 95 53 96
REMARK H PARENT 11 7 16 30 75 49 43 60
REMARK Flexibility Score: inf
ROOT
ATOM      1  C   UNL     1      -7.046  -7.843   1.551  1.00  0.00     0.023 C 
ENDROOT
BRANCH   1   2
ATOM      2  C   UNL     1      -6.190  -7.158   0.489  1.00  0.00     0.023 C 
BRANCH   2   3
ATOM      3  C   UNL     1      -5.976  -5.660   0.637  1.00  0.00     0.116 C 
BRANCH   3   4
ATOM      4  N   UNL     1      -5.296  -5.196   1.834  1.00  0.00    -0.352 N 
ATOM      5  C   UNL     1      -4.598  -4.022   2.062  1.00  0.00     0.252 C 
ATOM      6  O   UNL     1      -4.168  -3.806   3.195  1.00  0.00    -0.269 OA
ATOM      7  H   UNL     1      -5.337  -5.811   2.601  1.00  0.00     0.163 HD
BRANCH   5   8
ATOM      8  C   UNL     1      -4.243  -3.057   0.975  1.00  0.00     0.051 A 
ATOM      9  C   UNL     1      -2.489  -1.788  -0.053  1.00  0.00     0.072 A 
ATOM     10  C   UNL     1      -2.930  -2.569   1.003  1.00  0.00     0.043 A 
ATOM     11  N   UNL     1      -3.238  -1.597  -1.164  1.00  0.00    -0.248 NA
ATOM     12  C   UNL     1      -4.505  -2.037  -1.177  1.00  0.00     0.072 A 
ATOM     13  C   UNL     1      -5.104  -2.658  -0.070  1.00  0.00     0.013 A 
ATOM     14  C   UNL     1      -5.250  -1.887  -2.338  1.00  0.00     0.029 A 
ATOM     15  C   UNL     1      -6.501  -2.859  -0.093  1.00  0.00     0.014 A 
ATOM     16  C   UNL     1      -6.580  -2.308  -2.420  1.00  0.00     0.005 A 
ATOM     17  C   UNL     1      -7.227  -2.776  -1.282  1.00  0.00    -0.050 A 
ATOM     18  C   UNL     1      -8.616  -3.340  -1.350  1.00  0.00     0.044 C 
BRANCH   9  19
ATOM     19  C   UNL     1      -1.213  -1.057  -0.022  1.00  0.00     0.003 A 
ATOM     20  C   UNL     1       2.578   1.054   0.014  1.00  0.00     0.044 C 
ATOM     21  C   UNL     1       1.276   0.310   0.007  1.00  0.00    -0.051 A 
ATOM     22  C   UNL     1       1.234  -1.085  -0.014  1.00  0.00     0.004 A 
ATOM     23  C   UNL     1       0.073   1.021   0.019  1.00  0.00     0.007 A 
ATOM     24  C   UNL     1       0.006  -1.758  -0.029  1.00  0.00     0.011 A 
ATOM     25  C   UNL     1      -1.169   0.358   0.018  1.00  0.00    -0.041 A 
ATOM     26  C   UNL     1      -2.410   1.215   0.024  1.00  0.00     0.045 C 
ENDBRANCH   9  19
ENDBRANCH   5   8
ENDBRANCH   3   4
ENDBRANCH   2   3
ENDBRANCH   1   2
BRANCH   1  27
ATOM     27  C   UNL     1      -8.315  -7.130   2.011  1.00  0.00     0.116 C 
BRANCH  27  28
ATOM     28  N   UNL     1      -9.283  -6.859   0.956  1.00  0.00    -0.352 N 
ATOM     29  C   UNL     1     -10.611  -7.211   0.851  1.00  0.00     0.251 C 
ATOM     30  H   UNL     1      -8.931  -6.342   0.196  1.00  0.00     0.163 HD
ATOM     31  O   UNL     1     -11.237  -6.893  -0.159  1.00  0.00    -0.269 OA
BRANCH  29  32
ATOM     32  C   UNL     1     -11.278  -8.000   1.914  1.00  0.00     0.039 A 
ATOM     33  C   UNL     1     -12.107  -9.065   1.546  1.00  0.00     0.014 A 
ATOM     34  C   UNL     1     -11.088  -7.711   3.266  1.00  0.00     0.014 A 
ATOM     35  C   UNL     1     -12.674  -9.882   2.530  1.00  0.00     0.010 A 
ATOM     36  C   UNL     1     -11.565  -8.587   4.239  1.00  0.00     0.010 A 
ATOM     37  C   UNL     1     -12.377  -9.675   3.887  1.00  0.00    -0.014 A 
BRANCH  37  38
ATOM     38  C   UNL     1     -12.924 -10.567   4.946  1.00  0.00     0.031 A 
ATOM     39  C   UNL     1     -13.815 -10.008   6.027  1.00  0.00     0.074 A 
ATOM     40  C   UNL     1     -12.572 -11.869   4.979  1.00  0.00     0.049 A 
ATOM     41  N   UNL     1     -14.383 -10.624   7.031  1.00  0.00    -0.248 NA
ATOM     42  C   UNL     1     -14.076  -8.559   5.994  1.00  0.00     0.031 C 
ATOM     43  C   UNL     1     -11.649 -12.523   4.049  1.00  0.00     0.029 A 
ATOM     44  N   UNL     1     -12.942 -12.876   5.838  1.00  0.00    -0.354 N 
ATOM     45  C   UNL     1     -15.038  -9.638   7.762  1.00  0.00     0.074 A 
ATOM     46  C   UNL     1     -14.746  -8.376   7.121  1.00  0.00     0.031 C 
ATOM     47  C   UNL     1     -11.550 -13.824   4.367  1.00  0.00     0.029 A 
ATOM     48  C   UNL     1     -12.381 -14.095   5.535  1.00  0.00     0.049 A 
ATOM     49  H   UNL     1     -13.552 -12.738   6.598  1.00  0.00     0.167 HD
ATOM     50  C   UNL     1     -15.846  -9.768   8.842  1.00  0.00     0.034 A 
ATOM     51  C   UNL     1     -12.533 -15.299   6.123  1.00  0.00     0.034 A 
ATOM     52  C   UNL     1     -16.171 -11.027   9.454  1.00  0.00     0.049 A 
ATOM     53  C   UNL     1     -13.473 -15.429   7.292  1.00  0.00     0.074 A 
ATOM     54  C   UNL     1     -17.032 -11.278  10.508  1.00  0.00     0.029 A 
ATOM     55  N   UNL     1     -15.648 -12.251   9.066  1.00  0.00    -0.354 N 
ATOM     56  N   UNL     1     -14.202 -14.507   7.874  1.00  0.00    -0.248 NA
ATOM     57  C   UNL     1     -13.647 -16.776   7.855  1.00  0.00     0.031 C 
ATOM     58  C   UNL     1     -17.017 -12.654  10.767  1.00  0.00     0.029 A 
ATOM     59  C   UNL     1     -16.169 -13.262   9.855  1.00  0.00     0.049 A 
ATOM     60  H   UNL     1     -15.001 -12.382   8.336  1.00  0.00     0.167 HD
ATOM     61  C   UNL     1     -14.959 -15.169   8.834  1.00  0.00     0.074 A 
ATOM     62  C   UNL     1     -14.608 -16.572   8.746  1.00  0.00     0.031 C 
ATOM     63  C   UNL     1     -15.857 -14.662   9.715  1.00  0.00     0.034 A 
BRANCH  50  64
ATOM     64  C   UNL     1     -16.481  -8.511   9.385  1.00  0.00     0.023 A 
ATOM     65  C   UNL     1     -17.460  -7.842   8.620  1.00  0.00     0.012 A 
ATOM     66  C   UNL     1     -16.130  -8.000  10.649  1.00  0.00     0.148 A 
ATOM     67  C   UNL     1     -18.038  -6.658   9.077  1.00  0.00     0.002 A 
ATOM     68  C   UNL     1     -16.748  -6.847  11.121  1.00  0.00     0.091 A 
ATOM     69  F   UNL     1     -15.184  -8.634  11.357  1.00  0.00    -0.205 F 
ATOM     70  C   UNL     1     -17.688  -6.166  10.330  1.00  0.00     0.022 A 
BRANCH  68  71
ATOM     71  S   UNL     1     -16.429  -6.179  12.758  1.00  0.00     0.127 S 
ATOM     72  O   UNL     1     -15.620  -5.002  12.444  1.00  0.00    -0.237 OA
ATOM     73  O   UNL     1     -17.778  -5.881  13.239  1.00  0.00    -0.237 OA
ATOM     74  O   UNL     1     -15.745  -7.234  13.492  1.00  0.00    -0.744 OA
ENDBRANCH  68  71
ENDBRANCH  50  64
BRANCH  51  75
ATOM     75  C   UNL     1     -11.868 -16.503   5.545  1.00  0.00     0.023 A 
ATOM     76  C   UNL     1     -12.657 -17.477   4.900  1.00  0.00     0.012 A 
ATOM     77  C   UNL     1     -10.474 -16.683   5.609  1.00  0.00     0.148 A 
ATOM     78  C   UNL     1     -12.074 -18.625   4.362  1.00  0.00     0.002 A 
ATOM     79  C   UNL     1      -9.893 -17.803   5.024  1.00  0.00     0.091 A 
ATOM     80  F   UNL     1      -9.742 -15.748   6.232  1.00  0.00    -0.205 F 
ATOM     81  C   UNL     1     -10.693 -18.784   4.416  1.00  0.00     0.022 A 
BRANCH  79  82
ATOM     82  S   UNL     1      -8.114 -18.037   4.935  1.00  0.00     0.127 S 
ATOM     83  O   UNL     1      -7.917 -19.176   5.829  1.00  0.00    -0.237 OA
ATOM     84  O   UNL     1      -7.920 -18.326   3.514  1.00  0.00    -0.237 OA
ATOM     85  O   UNL     1      -7.529 -16.779   5.378  1.00  0.00    -0.744 OA
ENDBRANCH  79  82
ENDBRANCH  51  75
BRANCH  63  86
ATOM     86  C   UNL     1     -16.576 -15.633  10.616  1.00  0.00     0.023 A 
ATOM     87  C   UNL     1     -15.885 -16.272  11.664  1.00  0.00     0.012 A 
ATOM     88  C   UNL     1     -17.956 -15.867  10.456  1.00  0.00     0.148 A 
ATOM     89  C   UNL     1     -16.546 -17.163  12.510  1.00  0.00     0.002 A 
ATOM     90  C   UNL     1     -18.620 -16.714  11.335  1.00  0.00     0.091 A 
ATOM     91  F   UNL     1     -18.595 -15.266   9.441  1.00  0.00    -0.205 F 
ATOM     92  C   UNL     1     -17.914 -17.375  12.353  1.00  0.00     0.022 A 
BRANCH  90  93
ATOM     93  S   UNL     1     -20.398 -16.962  11.265  1.00  0.00     0.127 S 
ATOM     94  O   UNL     1     -20.491 -18.279  10.640  1.00  0.00    -0.237 OA
ATOM     95  O   UNL     1     -20.773 -16.930  12.679  1.00  0.00    -0.237 OA
ATOM     96  O   UNL     1     -20.922 -15.853  10.480  1.00  0.00    -0.744 OA
ENDBRANCH  90  93
ENDBRANCH  63  86
ENDBRANCH  37  38
ENDBRANCH  29  32
ENDBRANCH  27  28
ENDBRANCH   1  27
TORSDOF 15
