REMARK SMILES O=C(CCN1C(=O)c2ccc(NC(=O)c3cc4ccccc4o3)cc2C1=O)NCCCCNC(=O)c1ccc(-c2c3nc(c(-c4cccc(S(=O)(=O)[O-])c4F)c4ccc([nH]4)c(-c4cccc(S(=O)(=O)[O-])c4F)c4nc(c(-c5cccc(S(=O)(=O)[O-])c5F)c5ccc2[nH]5)C=C4)C=C3)cc1
REMARK SMILES IDX 30 1 29 2 28 3 1 4 2 5 3 7 4 8 5 9 6 10 26 11 7 12 8 13
REMARK SMILES IDX 25 14 27 15 9 16 24 17 10 18 11 19 12 20 13 21 14 23 15 24
REMARK SMILES IDX 16 25 23 26 17 27 22 28 18 29 21 30 19 31 20 32 31 33 32 34
REMARK SMILES IDX 33 35 34 36 35 38 36 39 37 40 98 41 38 42 97 43 39 44 40 45
REMARK SMILES IDX 41 46 91 47 42 48 96 49 90 50 92 51 43 52 95 53 89 54 88 55
REMARK SMILES IDX 44 57 76 58 56 59 75 60 57 61 60 62 74 63 93 64 58 65 59 66
REMARK SMILES IDX 73 68 94 69 61 70 45 71 46 72 54 73 47 74 49 75 55 76 48 77
REMARK SMILES IDX 50 78 51 79 52 80 53 81 77 82 78 83 86 84 79 85 81 86 87 87
REMARK SMILES IDX 80 88 82 89 83 90 84 91 85 92 62 93 63 94 71 95 64 96 66 97
REMARK SMILES IDX 72 98 65 99 67 100 68 101 69 102 70 103
REMARK H PARENT 28 6 12 22 33 37 92 56 60 67
REMARK Flexibility Score: inf
ROOT
ATOM      1  C   UNL     1       2.026  -3.518   1.240  1.00  0.00     0.023 C 
ENDROOT
BRANCH   1   2
ATOM      2  C   UNL     1       1.683  -2.052   1.509  1.00  0.00     0.116 C 
BRANCH   2   3
ATOM      3  N   UNL     1       2.254  -1.167   0.518  1.00  0.00    -0.356 N 
ATOM      4  O   UNL     1       0.808   0.586   0.830  1.00  0.00    -0.275 OA
ATOM      5  C   UNL     1       1.794   0.104   0.281  1.00  0.00     0.221 C 
ATOM      6  H   UNL     1       3.014  -1.494  -0.015  1.00  0.00     0.163 HD
BRANCH   5   7
ATOM      7  C   UNL     1       2.627   0.890  -0.710  1.00  0.00     0.122 C 
BRANCH   7   8
ATOM      8  C   UNL     1       3.790   1.599  -0.027  1.00  0.00     0.139 C 
BRANCH   8   9
ATOM      9  N   UNL     1       4.938   0.804   0.400  1.00  0.00    -0.274 N 
ATOM     10  C   UNL     1       5.263  -0.483   0.073  1.00  0.00     0.261 C 
ATOM     11  C   UNL     1       5.883   1.345   1.232  1.00  0.00     0.261 C 
ATOM     12  O   UNL     1       4.686  -1.258  -0.669  1.00  0.00    -0.269 OA
ATOM     13  C   UNL     1       6.438  -0.850   0.861  1.00  0.00     0.053 A 
ATOM     14  C   UNL     1       6.825   0.275   1.542  1.00  0.00     0.055 A 
ATOM     15  O   UNL     1       5.943   2.475   1.676  1.00  0.00    -0.269 OA
ATOM     16  C   UNL     1       7.084  -2.053   1.059  1.00  0.00     0.017 A 
ATOM     17  C   UNL     1       7.876   0.271   2.433  1.00  0.00     0.040 A 
ATOM     18  C   UNL     1       8.136  -2.080   1.995  1.00  0.00     0.027 A 
ATOM     19  C   UNL     1       8.541  -0.921   2.701  1.00  0.00     0.042 A 
BRANCH  19  20
ATOM     20  N   UNL     1       9.547  -1.079   3.679  1.00  0.00    -0.319 N 
ATOM     21  C   UNL     1      10.220  -0.211   4.531  1.00  0.00     0.291 C 
ATOM     22  H   UNL     1       9.837  -2.014   3.781  1.00  0.00     0.170 HD
ATOM     23  O   UNL     1      10.956  -0.724   5.373  1.00  0.00    -0.265 OA
BRANCH  21  24
ATOM     24  C   UNL     1      10.120   1.214   4.346  1.00  0.00     0.193 A 
ATOM     25  C   UNL     1      10.967   2.095   3.700  1.00  0.00     0.065 A 
ATOM     26  O   UNL     1       8.997   1.877   4.769  1.00  0.00    -0.451 OA
ATOM     27  C   UNL     1      10.218   3.282   3.487  1.00  0.00     0.021 A 
ATOM     28  C   UNL     1       9.019   3.101   4.165  1.00  0.00     0.135 A 
ATOM     29  C   UNL     1      10.389   4.450   2.725  1.00  0.00     0.012 A 
ATOM     30  C   UNL     1       7.945   3.986   4.109  1.00  0.00     0.048 A 
ATOM     31  C   UNL     1       9.309   5.340   2.613  1.00  0.00     0.001 A 
ATOM     32  C   UNL     1       8.106   5.103   3.284  1.00  0.00     0.004 A 
ENDBRANCH  21  24
ENDBRANCH  19  20
ENDBRANCH   8   9
ENDBRANCH   7   8
ENDBRANCH   5   7
ENDBRANCH   2   3
ENDBRANCH   1   2
BRANCH   1  33
ATOM     33  C   UNL     1       3.511  -3.890   1.351  1.00  0.00     0.023 C 
BRANCH  33  34
ATOM     34  C   UNL     1       4.145  -3.713   2.730  1.00  0.00     0.116 C 
BRANCH  34  35
ATOM     35  N   UNL     1       3.647  -4.682   3.691  1.00  0.00    -0.352 N 
ATOM     36  C   UNL     1       4.331  -5.605   4.446  1.00  0.00     0.251 C 
ATOM     37  H   UNL     1       2.671  -4.677   3.821  1.00  0.00     0.163 HD
ATOM     38  O   UNL     1       3.704  -6.472   5.049  1.00  0.00    -0.269 OA
BRANCH  36  39
ATOM     39  C   UNL     1       5.813  -5.580   4.531  1.00  0.00     0.039 A 
ATOM     40  C   UNL     1       6.514  -6.788   4.452  1.00  0.00     0.014 A 
ATOM     41  C   UNL     1       6.515  -4.394   4.748  1.00  0.00     0.014 A 
ATOM     42  C   UNL     1       7.913  -6.797   4.526  1.00  0.00     0.010 A 
ATOM     43  C   UNL     1       7.915  -4.403   4.772  1.00  0.00     0.010 A 
ATOM     44  C   UNL     1       8.640  -5.600   4.645  1.00  0.00    -0.014 A 
BRANCH  44  45
ATOM     45  C   UNL     1      10.136  -5.593   4.600  1.00  0.00     0.031 A 
ATOM     46  C   UNL     1      10.960  -5.016   5.728  1.00  0.00     0.074 A 
ATOM     47  C   UNL     1      10.779  -6.042   3.499  1.00  0.00     0.049 A 
ATOM     48  N   UNL     1      12.262  -4.902   5.822  1.00  0.00    -0.248 NA
ATOM     49  C   UNL     1      10.228  -4.467   6.879  1.00  0.00     0.031 C 
ATOM     50  C   UNL     1      10.131  -6.552   2.288  1.00  0.00     0.029 A 
ATOM     51  N   UNL     1      12.122  -6.123   3.209  1.00  0.00    -0.354 N 
ATOM     52  C   UNL     1      12.504  -4.235   7.019  1.00  0.00     0.074 A 
ATOM     53  C   UNL     1      11.209  -3.934   7.593  1.00  0.00     0.031 C 
ATOM     54  C   UNL     1      11.072  -6.908   1.399  1.00  0.00     0.029 A 
ATOM     55  C   UNL     1      12.392  -6.620   1.953  1.00  0.00     0.049 A 
ATOM     56  H   UNL     1      12.825  -5.851   3.841  1.00  0.00     0.167 HD
ATOM     57  C   UNL     1      13.685  -3.929   7.613  1.00  0.00     0.034 A 
ATOM     58  C   UNL     1      13.560  -6.819   1.308  1.00  0.00     0.034 A 
ATOM     59  C   UNL     1      14.980  -4.261   7.078  1.00  0.00     0.049 A 
ATOM     60  C   UNL     1      14.860  -6.506   1.998  1.00  0.00     0.074 A 
ATOM     61  C   UNL     1      16.223  -4.076   7.660  1.00  0.00     0.029 A 
ATOM     62  N   UNL     1      15.205  -4.831   5.836  1.00  0.00    -0.354 N 
ATOM     63  N   UNL     1      15.060  -6.032   3.203  1.00  0.00    -0.248 NA
ATOM     64  C   UNL     1      16.098  -6.787   1.253  1.00  0.00     0.031 C 
ATOM     65  C   UNL     1      17.201  -4.505   6.756  1.00  0.00     0.029 A 
ATOM     66  C   UNL     1      16.566  -4.994   5.628  1.00  0.00     0.049 A 
ATOM     67  H   UNL     1      14.502  -5.084   5.195  1.00  0.00     0.167 HD
ATOM     68  C   UNL     1      16.441  -5.994   3.373  1.00  0.00     0.074 A 
ATOM     69  C   UNL     1      17.028  -6.513   2.157  1.00  0.00     0.031 C 
ATOM     70  C   UNL     1      17.154  -5.556   4.440  1.00  0.00     0.034 A 
BRANCH  57  71
ATOM     71  C   UNL     1      13.636  -3.243   8.958  1.00  0.00     0.023 A 
ATOM     72  C   UNL     1      13.179  -3.960  10.084  1.00  0.00     0.012 A 
ATOM     73  C   UNL     1      14.104  -1.924   9.125  1.00  0.00     0.148 A 
ATOM     74  C   UNL     1      13.139  -3.361  11.342  1.00  0.00     0.002 A 
ATOM     75  C   UNL     1      14.108  -1.351  10.392  1.00  0.00     0.091 A 
ATOM     76  F   UNL     1      14.539  -1.257   8.047  1.00  0.00    -0.205 F 
ATOM     77  C   UNL     1      13.611  -2.062  11.497  1.00  0.00     0.022 A 
BRANCH  75  78
ATOM     78  S   UNL     1      14.786   0.281  10.722  1.00  0.00     0.127 S 
ATOM     79  O   UNL     1      13.580   1.047  11.031  1.00  0.00    -0.237 OA
ATOM     80  O   UNL     1      15.654   0.025  11.872  1.00  0.00    -0.237 OA
ATOM     81  O   UNL     1      15.489   0.680   9.510  1.00  0.00    -0.744 OA
ENDBRANCH  75  78
ENDBRANCH  57  71
BRANCH  58  82
ATOM     82  C   UNL     1      13.561  -7.390  -0.071  1.00  0.00     0.023 A 
ATOM     83  C   UNL     1      14.058  -8.691  -0.288  1.00  0.00     0.012 A 
ATOM     84  C   UNL     1      13.065  -6.654  -1.163  1.00  0.00     0.148 A 
ATOM     85  C   UNL     1      14.095  -9.233  -1.573  1.00  0.00     0.002 A 
ATOM     86  C   UNL     1      13.049  -7.222  -2.431  1.00  0.00     0.091 A 
ATOM     87  F   UNL     1      12.607  -5.415  -0.937  1.00  0.00    -0.205 F 
ATOM     88  C   UNL     1      13.582  -8.504  -2.643  1.00  0.00     0.022 A 
BRANCH  86  89
ATOM     89  S   UNL     1      12.285  -6.410  -3.839  1.00  0.00     0.127 S 
ATOM     90  O   UNL     1      13.443  -6.110  -4.676  1.00  0.00    -0.237 OA
ATOM     91  O   UNL     1      11.407  -7.463  -4.351  1.00  0.00    -0.237 OA
ATOM     92  O   UNL     1      11.583  -5.256  -3.294  1.00  0.00    -0.744 OA
ENDBRANCH  86  89
ENDBRANCH  58  82
BRANCH  70  93
ATOM     93  C   UNL     1      18.658  -5.655   4.375  1.00  0.00     0.023 A 
ATOM     94  C   UNL     1      19.387  -4.801   3.523  1.00  0.00     0.012 A 
ATOM     95  C   UNL     1      19.355  -6.546   5.216  1.00  0.00     0.148 A 
ATOM     96  C   UNL     1      20.781  -4.857   3.483  1.00  0.00     0.002 A 
ATOM     97  C   UNL     1      20.745  -6.561   5.209  1.00  0.00     0.091 A 
ATOM     98  F   UNL     1      18.646  -7.365   6.007  1.00  0.00    -0.205 F 
ATOM     99  C   UNL     1      21.459  -5.726   4.334  1.00  0.00     0.022 A 
BRANCH  97 100
ATOM    100  S   UNL     1      21.707  -7.578   6.335  1.00  0.00     0.127 S 
ATOM    101  O   UNL     1      22.274  -8.573   5.426  1.00  0.00    -0.237 OA
ATOM    102  O   UNL     1      22.675  -6.618   6.868  1.00  0.00    -0.237 OA
ATOM    103  O   UNL     1      20.764  -8.096   7.316  1.00  0.00    -0.744 OA
ENDBRANCH  97 100
ENDBRANCH  70  93
ENDBRANCH  44  45
ENDBRANCH  36  39
ENDBRANCH  34  35
ENDBRANCH  33  34
ENDBRANCH   1  33
TORSDOF 18
