REMARK SMILES C[N@@H+](CCCCC(=O)NCCCCNC(=O)c1ccc(-c2c3nc(c(-c4cccc(S(=O)(=O)[O-])c4F)c4ccc([nH]4)c(-c4cccc(S(=O)(=O)[O-])c4F)c4nc(c(-c5cccc(S(=O)(=O)[O-])c5F)c5ccc2[nH]5)C=C4)C=C3)cc1)CC(C)(C)O
REMARK SMILES IDX 7 1 8 2 9 3 6 5 5 6 4 7 3 8 2 9 1 10 80 12 81 13 82 14 83 15
REMARK SMILES IDX 84 16 10 18 11 19 12 20 13 21 14 22 15 23 16 25 17 26 18 27
REMARK SMILES IDX 79 28 19 29 78 30 20 31 21 32 22 33 72 34 23 35 77 36 71 37
REMARK SMILES IDX 73 38 24 39 76 40 70 41 69 42 25 44 57 45 37 46 56 47 38 48
REMARK SMILES IDX 41 49 55 50 74 51 39 52 40 53 54 55 75 56 42 57 26 58 27 59
REMARK SMILES IDX 35 60 28 61 30 62 36 63 29 64 31 65 32 66 33 67 34 68 58 69
REMARK SMILES IDX 59 70 67 71 60 72 62 73 68 74 61 75 63 76 64 77 65 78 66 79
REMARK SMILES IDX 43 80 44 81 52 82 45 83 47 84 53 85 46 86 48 87 49 88 50 89
REMARK SMILES IDX 51 90
REMARK H PARENT 9 4 2 11 84 17 14 24 73 43 41 54
REMARK Flexibility Score: inf
ROOT
ATOM      1  C   UNL     1      -3.738  -2.287   3.245  1.00  0.00     0.219 C 
ATOM      2  O   UNL     1      -4.247  -3.329   3.658  1.00  0.00    -0.275 OA
ATOM      3  N   UNL     1      -4.542  -1.341   2.685  1.00  0.00    -0.356 N 
ATOM      4  H   UNL     1      -5.506  -1.542   2.707  1.00  0.00     0.163 HD
ENDROOT
BRANCH   1   5
ATOM      5  C   UNL     1      -2.244  -2.052   3.370  1.00  0.00     0.100 C 
BRANCH   5   6
ATOM      6  C   UNL     1      -1.446  -2.525   2.151  1.00  0.00     0.016 C 
BRANCH   6   7
ATOM      7  C   UNL     1      -1.100  -1.432   1.134  1.00  0.00     0.062 C 
BRANCH   7   8
ATOM      8  C   UNL     1      -0.157  -0.327   1.617  1.00  0.00     0.262 C 
BRANCH   8   9
ATOM      9  N   UNL     1       1.251  -0.425   1.228  1.00  0.00    -0.335 N 
ATOM     10  C   UNL     1       1.478  -0.113  -0.170  1.00  0.00     0.332 C 
ATOM     11  H   UNL     1       1.731   0.333   1.714  1.00  0.00     0.347 HD
BRANCH   9  12
ATOM     12  C   UNL     1       1.956  -1.594   1.769  1.00  0.00     0.296 C 
BRANCH  12  13
ATOM     13  C   UNL     1       2.150  -2.941   0.986  1.00  0.00     0.108 C 
ATOM     14  C   UNL     1       3.215  -2.849  -0.108  1.00  0.00     0.048 C 
ATOM     15  C   UNL     1       2.550  -4.025   1.998  1.00  0.00     0.048 C 
BRANCH  13  16
ATOM     16  O   UNL     1       0.942  -3.385   0.373  1.00  0.00    -0.385 OA
ATOM     17  H   UNL     1       0.649  -2.728  -0.278  1.00  0.00     0.211 HD
ENDBRANCH  13  16
ENDBRANCH  12  13
ENDBRANCH   9  12
ENDBRANCH   8   9
ENDBRANCH   7   8
ENDBRANCH   6   7
ENDBRANCH   5   6
ENDBRANCH   1   5
BRANCH   3  18
ATOM     18  C   UNL     1      -4.188  -0.082   2.061  1.00  0.00     0.116 C 
BRANCH  18  19
ATOM     19  C   UNL     1      -4.217  -0.198   0.534  1.00  0.00     0.023 C 
BRANCH  19  20
ATOM     20  C   UNL     1      -5.540   0.133  -0.131  1.00  0.00     0.023 C 
BRANCH  20  21
ATOM     21  C   UNL     1      -6.013   1.554   0.103  1.00  0.00     0.116 C 
BRANCH  21  22
ATOM     22  N   UNL     1      -5.067   2.593  -0.299  1.00  0.00    -0.352 N 
ATOM     23  C   UNL     1      -5.385   3.887  -0.657  1.00  0.00     0.251 C 
ATOM     24  H   UNL     1      -4.114   2.347  -0.317  1.00  0.00     0.163 HD
ATOM     25  O   UNL     1      -4.532   4.686  -1.024  1.00  0.00    -0.269 OA
BRANCH  23  26
ATOM     26  C   UNL     1      -6.815   4.249  -0.632  1.00  0.00     0.039 A 
ATOM     27  C   UNL     1      -7.455   4.552  -1.835  1.00  0.00     0.014 A 
ATOM     28  C   UNL     1      -7.540   4.035   0.541  1.00  0.00     0.014 A 
ATOM     29  C   UNL     1      -8.849   4.549  -1.877  1.00  0.00     0.010 A 
ATOM     30  C   UNL     1      -8.919   3.918   0.465  1.00  0.00     0.010 A 
ATOM     31  C   UNL     1      -9.590   4.179  -0.741  1.00  0.00    -0.014 A 
BRANCH  31  32
ATOM     32  C   UNL     1     -11.069   4.064  -0.776  1.00  0.00     0.031 A 
ATOM     33  C   UNL     1     -11.895   4.909   0.158  1.00  0.00     0.074 A 
ATOM     34  C   UNL     1     -11.661   3.133  -1.552  1.00  0.00     0.049 A 
ATOM     35  N   UNL     1     -13.186   4.896   0.357  1.00  0.00    -0.248 NA
ATOM     36  C   UNL     1     -11.166   5.857   1.019  1.00  0.00     0.031 C 
ATOM     37  C   UNL     1     -10.966   2.178  -2.419  1.00  0.00     0.029 A 
ATOM     38  N   UNL     1     -12.987   2.821  -1.718  1.00  0.00    -0.354 N 
ATOM     39  C   UNL     1     -13.413   5.783   1.402  1.00  0.00     0.074 A 
ATOM     40  C   UNL     1     -12.125   6.280   1.828  1.00  0.00     0.031 C 
ATOM     41  C   UNL     1     -11.872   1.404  -3.041  1.00  0.00     0.029 A 
ATOM     42  C   UNL     1     -13.209   1.790  -2.603  1.00  0.00     0.049 A 
ATOM     43  H   UNL     1     -13.713   3.291  -1.248  1.00  0.00     0.167 HD
ATOM     44  C   UNL     1     -14.590   6.189   1.930  1.00  0.00     0.034 A 
ATOM     45  C   UNL     1     -14.363   1.231  -3.020  1.00  0.00     0.034 A 
ATOM     46  C   UNL     1     -15.870   5.773   1.432  1.00  0.00     0.049 A 
ATOM     47  C   UNL     1     -15.665   1.778  -2.498  1.00  0.00     0.074 A 
ATOM     48  C   UNL     1     -17.124   6.220   1.803  1.00  0.00     0.029 A 
ATOM     49  N   UNL     1     -16.057   4.821   0.443  1.00  0.00    -0.354 N 
ATOM     50  N   UNL     1     -15.866   2.748  -1.637  1.00  0.00    -0.248 NA
ATOM     51  C   UNL     1     -16.900   1.185  -3.031  1.00  0.00     0.031 C 
ATOM     52  C   UNL     1     -18.073   5.535   1.035  1.00  0.00     0.029 A 
ATOM     53  C   UNL     1     -17.406   4.667   0.184  1.00  0.00     0.049 A 
ATOM     54  H   UNL     1     -15.335   4.327  -0.010  1.00  0.00     0.167 HD
ATOM     55  C   UNL     1     -17.244   2.905  -1.554  1.00  0.00     0.074 A 
ATOM     56  C   UNL     1     -17.830   1.944  -2.467  1.00  0.00     0.031 C 
ATOM     57  C   UNL     1     -17.963   3.754  -0.779  1.00  0.00     0.034 A 
BRANCH  44  58
ATOM     58  C   UNL     1     -14.540   7.197   3.045  1.00  0.00     0.023 A 
ATOM     59  C   UNL     1     -14.164   8.527   2.760  1.00  0.00     0.012 A 
ATOM     60  C   UNL     1     -14.890   6.845   4.362  1.00  0.00     0.148 A 
ATOM     61  C   UNL     1     -14.094   9.479   3.775  1.00  0.00     0.002 A 
ATOM     62  C   UNL     1     -14.862   7.812   5.361  1.00  0.00     0.091 A 
ATOM     63  F   UNL     1     -15.219   5.571   4.620  1.00  0.00    -0.205 F 
ATOM     64  C   UNL     1     -14.453   9.124   5.072  1.00  0.00     0.022 A 
BRANCH  62  65
ATOM     65  S   UNL     1     -15.380   7.472   7.047  1.00  0.00     0.127 S 
ATOM     66  O   UNL     1     -14.096   7.425   7.746  1.00  0.00    -0.237 OA
ATOM     67  O   UNL     1     -16.202   8.642   7.360  1.00  0.00    -0.237 OA
ATOM     68  O   UNL     1     -16.113   6.215   6.993  1.00  0.00    -0.744 OA
ENDBRANCH  62  65
ENDBRANCH  44  58
BRANCH  45  69
ATOM     69  C   UNL     1     -14.345   0.168  -4.066  1.00  0.00     0.023 A 
ATOM     70  C   UNL     1     -14.793   0.481  -5.365  1.00  0.00     0.012 A 
ATOM     71  C   UNL     1     -13.870  -1.131  -3.801  1.00  0.00     0.148 A 
ATOM     72  C   UNL     1     -14.799  -0.485  -6.372  1.00  0.00     0.002 A 
ATOM     73  C   UNL     1     -13.832  -2.076  -4.822  1.00  0.00     0.091 A 
ATOM     74  F   UNL     1     -13.460  -1.417  -2.557  1.00  0.00    -0.205 F 
ATOM     75  C   UNL     1     -14.310  -1.760  -6.103  1.00  0.00     0.022 A 
BRANCH  73  76
ATOM     76  S   UNL     1     -13.103  -3.703  -4.598  1.00  0.00     0.127 S 
ATOM     77  O   UNL     1     -14.287  -4.554  -4.522  1.00  0.00    -0.237 OA
ATOM     78  O   UNL     1     -12.312  -3.855  -5.820  1.00  0.00    -0.237 OA
ATOM     79  O   UNL     1     -12.308  -3.606  -3.381  1.00  0.00    -0.744 OA
ENDBRANCH  73  76
ENDBRANCH  45  69
BRANCH  57  80
ATOM     80  C   UNL     1     -19.462   3.715  -0.900  1.00  0.00     0.023 A 
ATOM     81  C   UNL     1     -20.177   2.652  -0.316  1.00  0.00     0.012 A 
ATOM     82  C   UNL     1     -20.163   4.777  -1.502  1.00  0.00     0.148 A 
ATOM     83  C   UNL     1     -21.571   2.636  -0.349  1.00  0.00     0.002 A 
ATOM     84  C   UNL     1     -21.553   4.776  -1.493  1.00  0.00     0.091 A 
ATOM     85  F   UNL     1     -19.461   5.769  -2.071  1.00  0.00    -0.205 F 
ATOM     86  C   UNL     1     -22.258   3.703  -0.925  1.00  0.00     0.022 A 
BRANCH  84  87
ATOM     87  S   UNL     1     -22.513   6.157  -2.124  1.00  0.00     0.127 S 
ATOM     88  O   UNL     1     -22.968   5.640  -3.413  1.00  0.00    -0.237 OA
ATOM     89  O   UNL     1     -23.565   6.295  -1.116  1.00  0.00    -0.237 OA
ATOM     90  O   UNL     1     -21.592   7.284  -2.187  1.00  0.00    -0.744 OA
ENDBRANCH  84  87
ENDBRANCH  57  80
ENDBRANCH  31  32
ENDBRANCH  23  26
ENDBRANCH  21  22
ENDBRANCH  20  21
ENDBRANCH  19  20
ENDBRANCH  18  19
ENDBRANCH   3  18
TORSDOF 21
