REMARK SMILES Cc1cc(F)ccc1S(=O)(=O)N1CCO[C@H](CC(=O)NCCCCNC(=O)c2ccc(-c3c4nc(c(-c5cccc(S(=O)(=O)[O-])c5F)c5ccc([nH]5)c(-c5cccc(S(=O)(=O)[O-])c5F)c5nc(c(-c6cccc(S(=O)(=O)[O-])c6F)c6ccc3[nH]6)C=C5)C=C4)cc2)C1
REMARK SMILES IDX 22 1 21 2 20 3 18 4 19 5 17 7 16 8 12 9 13 10 91 11 14 12
REMARK SMILES IDX 15 13 9 14 10 15 11 16 8 17 1 18 2 19 3 20 4 21 7 22 5 23
REMARK SMILES IDX 6 24 23 25 24 26 25 27 26 28 27 30 28 31 29 32 90 33 30 34
REMARK SMILES IDX 89 35 31 36 32 37 33 38 83 39 34 40 88 41 82 42 84 43 35 44
REMARK SMILES IDX 87 45 81 46 80 47 36 49 68 50 48 51 67 52 49 53 52 54 66 55
REMARK SMILES IDX 85 56 50 57 51 58 65 60 86 61 53 62 37 63 38 64 46 65 39 66
REMARK SMILES IDX 41 67 47 68 40 69 42 70 43 71 44 72 45 73 69 74 70 75 78 76
REMARK SMILES IDX 71 77 73 78 79 79 72 80 74 81 75 82 76 83 77 84 54 85 55 86
REMARK SMILES IDX 63 87 56 88 58 89 64 90 57 91 59 92 60 93 61 94 62 95
REMARK H PARENT 20 6 25 29 84 48 52 59
REMARK Flexibility Score: inf
ROOT
ATOM      1  C   UNL     1       5.097   4.415  -3.164  1.00  0.00     0.023 C 
ENDROOT
BRANCH   1   2
ATOM      2  C   UNL     1       3.645   4.050  -2.877  1.00  0.00     0.116 C 
BRANCH   2   3
ATOM      3  N   UNL     1       3.156   3.091  -3.846  1.00  0.00    -0.356 N 
ATOM      4  C   UNL     1       3.065   1.742  -3.710  1.00  0.00     0.222 C 
ATOM      5  O   UNL     1       2.834   1.036  -4.689  1.00  0.00    -0.275 OA
ATOM      6  H   UNL     1       2.852   3.461  -4.706  1.00  0.00     0.163 HD
BRANCH   4   7
ATOM      7  C   UNL     1       3.214   1.141  -2.342  1.00  0.00     0.133 C 
BRANCH   7   8
ATOM      8  C   UNL     1       4.634   0.624  -2.089  1.00  0.00     0.142 C 
ATOM      9  N   UNL     1       3.927  -0.554  -0.091  1.00  0.00    -0.193 NA
ATOM     10  C   UNL     1       4.823   0.233   0.783  1.00  0.00     0.131 C 
ATOM     11  C   UNL     1       4.542  -0.758  -1.427  1.00  0.00     0.135 C 
ATOM     12  C   UNL     1       5.143   1.582   0.106  1.00  0.00     0.177 C 
ATOM     13  O   UNL     1       5.461   1.506  -1.292  1.00  0.00    -0.375 OA
BRANCH   9  14
ATOM     14  S   UNL     1       2.880  -1.690   0.557  1.00  0.00     0.243 S 
ATOM     15  O   UNL     1       3.028  -1.694   1.995  1.00  0.00    -0.207 OA
ATOM     16  O   UNL     1       3.042  -2.905  -0.217  1.00  0.00    -0.207 OA
BRANCH  14  17
ATOM     17  C   UNL     1       1.201  -1.092   0.241  1.00  0.00     0.085 A 
ATOM     18  C   UNL     1       1.609   1.333   1.024  1.00  0.00     0.046 C 
ATOM     19  C   UNL     1       0.759   0.227   0.489  1.00  0.00    -0.028 A 
ATOM     20  C   UNL     1      -0.604   0.533   0.297  1.00  0.00     0.044 A 
ATOM     21  C   UNL     1      -1.506  -0.445  -0.096  1.00  0.00     0.123 A 
ATOM     22  C   UNL     1       0.268  -2.065  -0.171  1.00  0.00     0.025 A 
ATOM     23  F   UNL     1      -2.802  -0.132  -0.223  1.00  0.00    -0.207 F 
ATOM     24  C   UNL     1      -1.083  -1.743  -0.327  1.00  0.00     0.040 A 
ENDBRANCH  14  17
ENDBRANCH   9  14
ENDBRANCH   7   8
ENDBRANCH   4   7
ENDBRANCH   2   3
ENDBRANCH   1   2
BRANCH   1  25
ATOM     25  C   UNL     1       5.294   5.163  -4.483  1.00  0.00     0.023 C 
BRANCH  25  26
ATOM     26  C   UNL     1       4.467   6.434  -4.619  1.00  0.00     0.116 C 
BRANCH  26  27
ATOM     27  N   UNL     1       4.757   7.410  -3.576  1.00  0.00    -0.352 N 
ATOM     28  C   UNL     1       4.832   8.776  -3.705  1.00  0.00     0.251 C 
ATOM     29  H   UNL     1       4.917   7.048  -2.675  1.00  0.00     0.163 HD
ATOM     30  O   UNL     1       5.212   9.478  -2.775  1.00  0.00    -0.269 OA
BRANCH  28  31
ATOM     31  C   UNL     1       4.475   9.373  -5.006  1.00  0.00     0.039 A 
ATOM     32  C   UNL     1       5.413  10.162  -5.675  1.00  0.00     0.014 A 
ATOM     33  C   UNL     1       3.247   9.062  -5.596  1.00  0.00     0.014 A 
ATOM     34  C   UNL     1       5.144  10.590  -6.976  1.00  0.00     0.010 A 
ATOM     35  C   UNL     1       3.012   9.434  -6.913  1.00  0.00     0.010 A 
ATOM     36  C   UNL     1       3.958  10.197  -7.617  1.00  0.00    -0.014 A 
BRANCH  36  37
ATOM     37  C   UNL     1       3.669  10.556  -9.027  1.00  0.00     0.031 A 
ATOM     38  C   UNL     1       2.475  11.412  -9.344  1.00  0.00     0.074 A 
ATOM     39  C   UNL     1       4.395  10.007 -10.021  1.00  0.00     0.049 A 
ATOM     40  N   UNL     1       1.952  11.703 -10.505  1.00  0.00    -0.248 NA
ATOM     41  C   UNL     1       1.752  11.989  -8.197  1.00  0.00     0.031 C 
ATOM     42  C   UNL     1       5.537   9.108  -9.841  1.00  0.00     0.029 A 
ATOM     43  N   UNL     1       4.252  10.091 -11.384  1.00  0.00    -0.354 N 
ATOM     44  C   UNL     1       0.815  12.451 -10.230  1.00  0.00     0.074 A 
ATOM     45  C   UNL     1       0.709  12.551  -8.790  1.00  0.00     0.031 C 
ATOM     46  C   UNL     1       5.982   8.715 -11.046  1.00  0.00     0.029 A 
ATOM     47  C   UNL     1       5.137   9.302 -12.082  1.00  0.00     0.049 A 
ATOM     48  H   UNL     1       3.579  10.661 -11.822  1.00  0.00     0.167 HD
ATOM     49  C   UNL     1      -0.051  13.025 -11.098  1.00  0.00     0.034 A 
ATOM     50  C   UNL     1       5.244   9.062 -13.404  1.00  0.00     0.034 A 
ATOM     51  C   UNL     1       0.092  12.971 -12.526  1.00  0.00     0.049 A 
ATOM     52  C   UNL     1       4.293   9.747 -14.350  1.00  0.00     0.074 A 
ATOM     53  C   UNL     1      -0.678  13.597 -13.490  1.00  0.00     0.029 A 
ATOM     54  N   UNL     1       1.068  12.251 -13.196  1.00  0.00    -0.354 N 
ATOM     55  N   UNL     1       3.311  10.571 -14.076  1.00  0.00    -0.248 NA
ATOM     56  C   UNL     1       4.483   9.496 -15.786  1.00  0.00     0.031 C 
ATOM     57  C   UNL     1      -0.175  13.242 -14.746  1.00  0.00     0.029 A 
ATOM     58  C   UNL     1       0.920  12.413 -14.562  1.00  0.00     0.049 A 
ATOM     59  H   UNL     1       1.764  11.705 -12.764  1.00  0.00     0.167 HD
ATOM     60  C   UNL     1       2.794  10.969 -15.304  1.00  0.00     0.074 A 
ATOM     61  C   UNL     1       3.578  10.304 -16.324  1.00  0.00     0.031 C 
ATOM     62  C   UNL     1       1.755  11.801 -15.563  1.00  0.00     0.034 A 
BRANCH  49  63
ATOM     63  C   UNL     1      -1.199  13.812 -10.525  1.00  0.00     0.023 A 
ATOM     64  C   UNL     1      -0.951  15.060  -9.918  1.00  0.00     0.012 A 
ATOM     65  C   UNL     1      -2.524  13.348 -10.636  1.00  0.00     0.148 A 
ATOM     66  C   UNL     1      -1.999  15.819  -9.400  1.00  0.00     0.002 A 
ATOM     67  C   UNL     1      -3.568  14.132 -10.158  1.00  0.00     0.091 A 
ATOM     68  F   UNL     1      -2.739  12.149 -11.195  1.00  0.00    -0.205 F 
ATOM     69  C   UNL     1      -3.307  15.361  -9.530  1.00  0.00     0.022 A 
BRANCH  67  70
ATOM     70  S   UNL     1      -5.292  13.664 -10.347  1.00  0.00     0.127 S 
ATOM     71  O   UNL     1      -5.647  13.288  -8.980  1.00  0.00    -0.237 OA
ATOM     72  O   UNL     1      -5.901  14.911 -10.813  1.00  0.00    -0.237 OA
ATOM     73  O   UNL     1      -5.309  12.581 -11.320  1.00  0.00    -0.744 OA
ENDBRANCH  67  70
ENDBRANCH  49  63
BRANCH  50  74
ATOM     74  C   UNL     1       6.331   8.181 -13.917  1.00  0.00     0.023 A 
ATOM     75  C   UNL     1       7.402   8.756 -14.630  1.00  0.00     0.012 A 
ATOM     76  C   UNL     1       6.332   6.793 -13.679  1.00  0.00     0.148 A 
ATOM     77  C   UNL     1       8.437   7.961 -15.123  1.00  0.00     0.002 A 
ATOM     78  C   UNL     1       7.394   6.015 -14.126  1.00  0.00     0.091 A 
ATOM     79  F   UNL     1       5.299   6.263 -13.009  1.00  0.00    -0.205 F 
ATOM     80  C   UNL     1       8.439   6.594 -14.863  1.00  0.00     0.022 A 
BRANCH  78  81
ATOM     81  S   UNL     1       7.545   4.270 -13.724  1.00  0.00     0.127 S 
ATOM     82  O   UNL     1       7.255   3.641 -15.010  1.00  0.00    -0.237 OA
ATOM     83  O   UNL     1       8.940   4.178 -13.293  1.00  0.00    -0.237 OA
ATOM     84  O   UNL     1       6.574   4.029 -12.665  1.00  0.00    -0.744 OA
ENDBRANCH  78  81
ENDBRANCH  50  74
BRANCH  62  85
ATOM     85  C   UNL     1       1.425  12.094 -17.001  1.00  0.00     0.023 A 
ATOM     86  C   UNL     1       0.760  11.126 -17.779  1.00  0.00     0.012 A 
ATOM     87  C   UNL     1       1.670  13.372 -17.543  1.00  0.00     0.148 A 
ATOM     88  C   UNL     1       0.358  11.420 -19.081  1.00  0.00     0.002 A 
ATOM     89  C   UNL     1       1.225  13.673 -18.824  1.00  0.00     0.091 A 
ATOM     90  F   UNL     1       2.319  14.271 -16.789  1.00  0.00    -0.205 F 
ATOM     91  C   UNL     1       0.578  12.696 -19.598  1.00  0.00     0.022 A 
BRANCH  89  92
ATOM     92  S   UNL     1       1.374  15.316 -19.536  1.00  0.00     0.127 S 
ATOM     93  O   UNL     1       2.378  15.099 -20.576  1.00  0.00    -0.237 OA
ATOM     94  O   UNL     1       0.020  15.560 -20.034  1.00  0.00    -0.237 OA
ATOM     95  O   UNL     1       1.786  16.191 -18.447  1.00  0.00    -0.744 OA
ENDBRANCH  89  92
ENDBRANCH  62  85
ENDBRANCH  36  37
ENDBRANCH  28  31
ENDBRANCH  26  27
ENDBRANCH  25  26
ENDBRANCH   1  25
TORSDOF 17
