REMARK SMILES Cc1cccc([C@@H](CC(=O)NCCCCNC(=O)c2ccc(-c3c4nc(c(-c5cccc(S(=O)(=O)[O-])c5F)c5ccc([nH]5)c(-c5cccc(S(=O)(=O)[O-])c5F)c5nc(c(-c6cccc(S(=O)(=O)[O-])c6F)c6ccc3[nH]6)C=C5)C=C4)cc2)NC(=O)OC(C)(C)C)c1
REMARK SMILES IDX 13 1 12 2 11 3 9 4 10 5 8 7 7 8 6 9 1 10 2 11 3 12 90 13
REMARK SMILES IDX 4 14 5 15 82 16 83 17 84 19 85 20 86 21 87 22 88 23 89 24
REMARK SMILES IDX 14 25 15 26 16 27 17 28 18 30 19 31 20 32 81 33 21 34 80 35
REMARK SMILES IDX 22 36 23 37 24 38 74 39 25 40 79 41 73 42 75 43 26 44 78 45
REMARK SMILES IDX 72 46 71 47 27 49 59 50 39 51 58 52 40 53 43 54 57 55 76 56
REMARK SMILES IDX 41 57 42 58 56 60 77 61 44 62 28 63 29 64 37 65 30 66 32 67
REMARK SMILES IDX 38 68 31 69 33 70 34 71 35 72 36 73 60 74 61 75 69 76 62 77
REMARK SMILES IDX 64 78 70 79 63 80 65 81 66 82 67 83 68 84 45 85 46 86 54 87
REMARK SMILES IDX 47 88 49 89 55 90 48 91 50 92 51 93 52 94 53 95
REMARK H PARENT 11 6 82 18 16 29 75 48 43 59
REMARK Flexibility Score: inf
ROOT
ATOM      1  C   UNL     1      -2.397  -1.126  -0.319  1.00  0.00     0.023 C 
ENDROOT
BRANCH   1   2
ATOM      2  C   UNL     1      -2.680  -0.575  -1.714  1.00  0.00     0.116 C 
BRANCH   2   3
ATOM      3  N   UNL     1      -3.733   0.423  -1.645  1.00  0.00    -0.356 N 
ATOM      4  C   UNL     1      -3.652   1.711  -1.204  1.00  0.00     0.222 C 
ATOM      5  O   UNL     1      -4.701   2.278  -0.887  1.00  0.00    -0.275 OA
ATOM      6  H   UNL     1      -4.620   0.132  -1.956  1.00  0.00     0.163 HD
BRANCH   4   7
ATOM      7  C   UNL     1      -2.322   2.450  -1.140  1.00  0.00     0.130 C 
BRANCH   7   8
ATOM      8  C   UNL     1      -1.674   2.639   0.251  1.00  0.00     0.125 C 
BRANCH   8   9
ATOM      9  C   UNL     1      -0.648   1.578   0.659  1.00  0.00    -0.025 A 
ATOM     10  C   UNL     1       2.862   0.446  -0.368  1.00  0.00     0.044 C 
ATOM     11  C   UNL     1       1.517   0.485   0.296  1.00  0.00    -0.051 A 
ATOM     12  C   UNL     1       1.174  -0.505   1.221  1.00  0.00     0.003 A 
ATOM     13  C   UNL     1       0.586   1.493  -0.012  1.00  0.00     0.009 A 
ATOM     14  C   UNL     1      -0.008  -0.399   1.943  1.00  0.00     0.001 A 
ATOM     15  C   UNL     1      -0.881   0.666   1.704  1.00  0.00     0.006 A 
ENDBRANCH   8   9
BRANCH   8  16
ATOM     16  N   UNL     1      -2.663   2.874   1.290  1.00  0.00    -0.314 N 
ATOM     17  C   UNL     1      -2.593   3.794   2.294  1.00  0.00     0.408 C 
ATOM     18  H   UNL     1      -3.468   2.309   1.267  1.00  0.00     0.167 HD
ATOM     19  O   UNL     1      -3.393   3.800   3.204  1.00  0.00    -0.225 OA
BRANCH  17  20
ATOM     20  O   UNL     1      -1.563   4.660   2.123  1.00  0.00    -0.444 OA
BRANCH  20  21
ATOM     21  C   UNL     1      -1.344   5.732   3.067  1.00  0.00     0.106 C 
ATOM     22  C   UNL     1      -2.563   6.658   3.164  1.00  0.00     0.056 C 
ATOM     23  C   UNL     1      -0.926   5.173   4.430  1.00  0.00     0.056 C 
ATOM     24  C   UNL     1      -0.173   6.534   2.478  1.00  0.00     0.056 C 
ENDBRANCH  20  21
ENDBRANCH  17  20
ENDBRANCH   8  16
ENDBRANCH   7   8
ENDBRANCH   4   7
ENDBRANCH   2   3
ENDBRANCH   1   2
BRANCH   1  25
ATOM     25  C   UNL     1      -3.258  -2.245   0.270  1.00  0.00     0.023 C 
BRANCH  25  26
ATOM     26  C   UNL     1      -2.889  -3.652  -0.171  1.00  0.00     0.116 C 
BRANCH  26  27
ATOM     27  N   UNL     1      -1.513  -4.043   0.206  1.00  0.00    -0.352 N 
ATOM     28  C   UNL     1      -0.688  -5.018  -0.359  1.00  0.00     0.251 C 
ATOM     29  H   UNL     1      -1.123  -3.545   0.961  1.00  0.00     0.163 HD
ATOM     30  O   UNL     1       0.209  -5.522   0.303  1.00  0.00    -0.269 OA
BRANCH  28  31
ATOM     31  C   UNL     1      -0.892  -5.330  -1.784  1.00  0.00     0.039 A 
ATOM     32  C   UNL     1      -0.629  -6.528  -2.454  1.00  0.00     0.014 A 
ATOM     33  C   UNL     1      -1.383  -4.253  -2.487  1.00  0.00     0.014 A 
ATOM     34  C   UNL     1      -0.868  -6.572  -3.832  1.00  0.00     0.010 A 
ATOM     35  C   UNL     1      -2.069  -4.484  -3.619  1.00  0.00     0.010 A 
ATOM     36  C   UNL     1      -1.558  -5.504  -4.397  1.00  0.00    -0.014 A 
BRANCH  36  37
ATOM     37  C   UNL     1      -1.731  -5.161  -5.791  1.00  0.00     0.031 A 
ATOM     38  C   UNL     1      -2.689  -5.908  -6.590  1.00  0.00     0.074 A 
ATOM     39  C   UNL     1      -1.279  -3.920  -6.109  1.00  0.00     0.049 A 
ATOM     40  N   UNL     1      -2.694  -5.904  -7.870  1.00  0.00    -0.248 NA
ATOM     41  C   UNL     1      -3.738  -6.726  -5.989  1.00  0.00     0.031 C 
ATOM     42  C   UNL     1      -1.768  -2.955  -7.080  1.00  0.00     0.029 A 
ATOM     43  N   UNL     1      -0.276  -3.201  -5.476  1.00  0.00    -0.354 N 
ATOM     44  C   UNL     1      -3.927  -6.389  -8.239  1.00  0.00     0.074 A 
ATOM     45  C   UNL     1      -4.457  -7.049  -7.068  1.00  0.00     0.031 C 
ATOM     46  C   UNL     1      -0.900  -1.922  -7.150  1.00  0.00     0.029 A 
ATOM     47  C   UNL     1       0.258  -2.259  -6.334  1.00  0.00     0.049 A 
ATOM     48  H   UNL     1       0.015  -3.343  -4.546  1.00  0.00     0.167 HD
ATOM     49  C   UNL     1      -4.484  -5.941  -9.396  1.00  0.00     0.034 A 
ATOM     50  C   UNL     1       1.535  -2.479  -6.780  1.00  0.00     0.034 A 
ATOM     51  C   UNL     1      -3.632  -4.892  -9.992  1.00  0.00     0.049 A 
ATOM     52  C   UNL     1       1.533  -2.934  -8.229  1.00  0.00     0.074 A 
ATOM     53  C   UNL     1      -3.701  -3.506  -9.977  1.00  0.00     0.029 A 
ATOM     54  N   UNL     1      -2.333  -5.202 -10.383  1.00  0.00    -0.354 N 
ATOM     55  N   UNL     1       0.458  -3.241  -8.902  1.00  0.00    -0.248 NA
ATOM     56  C   UNL     1       2.731  -3.027  -9.049  1.00  0.00     0.031 C 
ATOM     57  C   UNL     1      -2.420  -2.990 -10.329  1.00  0.00     0.029 A 
ATOM     58  C   UNL     1      -1.570  -4.057 -10.569  1.00  0.00     0.049 A 
ATOM     59  H   UNL     1      -1.997  -6.119 -10.511  1.00  0.00     0.167 HD
ATOM     60  C   UNL     1       0.774  -3.655 -10.166  1.00  0.00     0.074 A 
ATOM     61  C   UNL     1       2.212  -3.428 -10.225  1.00  0.00     0.031 C 
ATOM     62  C   UNL     1      -0.178  -4.169 -11.015  1.00  0.00     0.034 A 
BRANCH  49  63
ATOM     63  C   UNL     1      -5.936  -6.163  -9.766  1.00  0.00     0.023 A 
ATOM     64  C   UNL     1      -6.556  -5.194 -10.584  1.00  0.00     0.012 A 
ATOM     65  C   UNL     1      -6.744  -7.257  -9.369  1.00  0.00     0.148 A 
ATOM     66  C   UNL     1      -7.910  -5.251 -10.923  1.00  0.00     0.002 A 
ATOM     67  C   UNL     1      -8.114  -7.282  -9.654  1.00  0.00     0.091 A 
ATOM     68  F   UNL     1      -6.180  -8.316  -8.775  1.00  0.00    -0.205 F 
ATOM     69  C   UNL     1      -8.698  -6.279 -10.433  1.00  0.00     0.022 A 
BRANCH  67  70
ATOM     70  S   UNL     1      -9.226  -8.534  -8.986  1.00  0.00     0.127 S 
ATOM     71  O   UNL     1     -10.351  -7.726  -8.506  1.00  0.00    -0.237 OA
ATOM     72  O   UNL     1      -9.526  -9.350 -10.159  1.00  0.00    -0.237 OA
ATOM     73  O   UNL     1      -8.484  -9.199  -7.921  1.00  0.00    -0.744 OA
ENDBRANCH  67  70
ENDBRANCH  49  63
BRANCH  50  74
ATOM     74  C   UNL     1       2.410  -3.015  -5.665  1.00  0.00     0.023 A 
ATOM     75  C   UNL     1       2.520  -2.185  -4.516  1.00  0.00     0.012 A 
ATOM     76  C   UNL     1       2.651  -4.394  -5.513  1.00  0.00     0.148 A 
ATOM     77  C   UNL     1       2.618  -2.739  -3.236  1.00  0.00     0.002 A 
ATOM     78  C   UNL     1       2.786  -4.935  -4.229  1.00  0.00     0.091 A 
ATOM     79  F   UNL     1       2.683  -5.168  -6.605  1.00  0.00    -0.205 F 
ATOM     80  C   UNL     1       2.701  -4.119  -3.090  1.00  0.00     0.022 A 
BRANCH  78  81
ATOM     81  S   UNL     1       2.986  -6.707  -3.986  1.00  0.00     0.127 S 
ATOM     82  O   UNL     1       4.432  -6.859  -4.125  1.00  0.00    -0.237 OA
ATOM     83  O   UNL     1       2.488  -6.920  -2.627  1.00  0.00    -0.237 OA
ATOM     84  O   UNL     1       2.168  -7.318  -5.023  1.00  0.00    -0.744 OA
ENDBRANCH  78  81
ENDBRANCH  50  74
BRANCH  62  85
ATOM     85  C   UNL     1       0.078  -4.843 -12.361  1.00  0.00     0.023 A 
ATOM     86  C   UNL     1       1.364  -5.163 -12.824  1.00  0.00     0.012 A 
ATOM     87  C   UNL     1      -1.002  -5.280 -13.183  1.00  0.00     0.148 A 
ATOM     88  C   UNL     1       1.580  -5.835 -14.033  1.00  0.00     0.002 A 
ATOM     89  C   UNL     1      -0.789  -6.063 -14.312  1.00  0.00     0.091 A 
ATOM     90  F   UNL     1      -2.258  -4.902 -12.913  1.00  0.00    -0.205 F 
ATOM     91  C   UNL     1       0.504  -6.314 -14.761  1.00  0.00     0.022 A 
BRANCH  89  92
ATOM     92  S   UNL     1      -2.144  -6.887 -15.158  1.00  0.00     0.127 S 
ATOM     93  O   UNL     1      -2.316  -6.042 -16.338  1.00  0.00    -0.237 OA
ATOM     94  O   UNL     1      -1.574  -8.208 -15.431  1.00  0.00    -0.237 OA
ATOM     95  O   UNL     1      -3.251  -6.898 -14.213  1.00  0.00    -0.744 OA
ENDBRANCH  89  92
ENDBRANCH  62  85
ENDBRANCH  36  37
ENDBRANCH  28  31
ENDBRANCH  26  27
ENDBRANCH  25  26
ENDBRANCH   1  25
TORSDOF 19
