REMARK SMILES O=C(CSc1nnc(-c2cccc(C(F)(F)F)c2F)o1)NCCCCNC(=O)c1ccc(-c2c3nc(c(-c4cccc(S(=O)(=O)[O-])c4F)c4ccc([nH]4)c(-c4cccc(S(=O)(=O)[O-])c4F)c4nc(c(-c5cccc(S(=O)(=O)[O-])c5F)c5ccc2[nH]5)C=C4)C=C3)cc1
REMARK SMILES IDX 23 1 22 2 21 3 1 4 2 5 3 7 4 8 5 9 6 10 20 11 7 12 8 13 9 14
REMARK SMILES IDX 10 15 18 16 11 17 13 18 19 19 12 20 14 21 15 22 16 23 17 24
REMARK SMILES IDX 24 25 25 26 26 27 27 28 28 30 29 31 30 32 91 33 31 34 90 35
REMARK SMILES IDX 32 36 33 37 34 38 84 39 35 40 89 41 83 42 85 43 36 44 88 45
REMARK SMILES IDX 82 46 81 47 37 49 69 50 49 51 68 52 50 53 53 54 67 55 86 56
REMARK SMILES IDX 51 57 52 58 66 60 87 61 54 62 38 63 39 64 47 65 40 66 42 67
REMARK SMILES IDX 48 68 41 69 43 70 44 71 45 72 46 73 70 74 71 75 79 76 72 77
REMARK SMILES IDX 74 78 80 79 73 80 75 81 76 82 77 83 78 84 55 85 56 86 64 87
REMARK SMILES IDX 57 88 59 89 65 90 58 91 60 92 61 93 62 94 63 95
REMARK H PARENT 21 6 26 29 85 48 53 59
REMARK Flexibility Score: inf
ROOT
ATOM      1  C   UNL     1       2.557  -0.770   3.414  1.00  0.00     0.023 C 
ENDROOT
BRANCH   1   2
ATOM      2  C   UNL     1       2.185   0.355   2.450  1.00  0.00     0.116 C 
BRANCH   2   3
ATOM      3  N   UNL     1       2.866   0.247   1.175  1.00  0.00    -0.355 N 
ATOM      4  O   UNL     1       0.990  -0.244  -0.050  1.00  0.00    -0.274 OA
ATOM      5  C   UNL     1       2.194  -0.000  -0.005  1.00  0.00     0.230 C 
ATOM      6  H   UNL     1       3.844   0.353   1.150  1.00  0.00     0.163 HD
BRANCH   5   7
ATOM      7  C   UNL     1       3.067  -0.064  -1.249  1.00  0.00     0.179 C 
BRANCH   7   8
ATOM      8  S   UNL     1       4.216   1.334  -1.385  1.00  0.00    -0.055 SA
BRANCH   8   9
ATOM      9  C   UNL     1       3.121   2.660  -1.624  1.00  0.00     0.277 A 
ATOM     10  N   UNL     1       1.809   2.564  -1.675  1.00  0.00    -0.101 NA
ATOM     11  O   UNL     1       3.552   3.957  -1.741  1.00  0.00    -0.411 OA
ATOM     12  N   UNL     1       1.319   3.848  -1.785  1.00  0.00    -0.107 NA
ATOM     13  C   UNL     1       2.370   4.638  -1.839  1.00  0.00     0.251 A 
BRANCH  13  14
ATOM     14  C   UNL     1       2.441   6.083  -1.864  1.00  0.00     0.075 A 
ATOM     15  C   UNL     1       1.688   6.830  -0.946  1.00  0.00     0.017 A 
ATOM     16  C   UNL     1       3.226   6.758  -2.806  1.00  0.00     0.148 A 
ATOM     17  C   UNL     1       1.738   8.223  -0.958  1.00  0.00     0.002 A 
ATOM     18  C   UNL     1       3.271   8.153  -2.846  1.00  0.00     0.092 A 
ATOM     19  F   UNL     1       3.919   6.048  -3.708  1.00  0.00    -0.205 F 
ATOM     20  C   UNL     1       2.524   8.881  -1.903  1.00  0.00     0.016 A 
BRANCH  18  21
ATOM     21  C   UNL     1       4.073   8.882  -3.885  1.00  0.00     0.419 C 
ATOM     22  F   UNL     1       3.281   9.677  -4.663  1.00  0.00    -0.166 F 
ATOM     23  F   UNL     1       4.993   9.719  -3.331  1.00  0.00    -0.166 F 
ATOM     24  F   UNL     1       4.759   8.092  -4.752  1.00  0.00    -0.166 F 
ENDBRANCH  18  21
ENDBRANCH  13  14
ENDBRANCH   8   9
ENDBRANCH   7   8
ENDBRANCH   5   7
ENDBRANCH   2   3
ENDBRANCH   1   2
BRANCH   1  25
ATOM     25  C   UNL     1       4.037  -0.838   3.797  1.00  0.00     0.023 C 
BRANCH  25  26
ATOM     26  C   UNL     1       4.627   0.436   4.396  1.00  0.00     0.116 C 
BRANCH  26  27
ATOM     27  N   UNL     1       4.002   0.821   5.652  1.00  0.00    -0.352 N 
ATOM     28  C   UNL     1       4.587   1.159   6.850  1.00  0.00     0.251 C 
ATOM     29  H   UNL     1       3.018   0.842   5.644  1.00  0.00     0.163 HD
ATOM     30  O   UNL     1       3.883   1.333   7.843  1.00  0.00    -0.269 OA
BRANCH  28  31
ATOM     31  C   UNL     1       6.059   1.286   6.958  1.00  0.00     0.039 A 
ATOM     32  C   UNL     1       6.707   0.713   8.056  1.00  0.00     0.014 A 
ATOM     33  C   UNL     1       6.802   1.963   5.987  1.00  0.00     0.014 A 
ATOM     34  C   UNL     1       8.102   0.755   8.141  1.00  0.00     0.010 A 
ATOM     35  C   UNL     1       8.195   1.939   6.035  1.00  0.00     0.010 A 
ATOM     36  C   UNL     1       8.862   1.333   7.111  1.00  0.00    -0.014 A 
BRANCH  36  37
ATOM     37  C   UNL     1      10.349   1.288   7.128  1.00  0.00     0.031 A 
ATOM     38  C   UNL     1      11.154   2.560   7.162  1.00  0.00     0.074 A 
ATOM     39  C   UNL     1      10.981   0.100   7.032  1.00  0.00     0.049 A 
ATOM     40  N   UNL     1      12.453   2.712   7.119  1.00  0.00    -0.248 NA
ATOM     41  C   UNL     1      10.406   3.826   7.229  1.00  0.00     0.031 C 
ATOM     42  C   UNL     1      10.318  -1.202   6.925  1.00  0.00     0.029 A 
ATOM     43  N   UNL     1      12.319  -0.207   6.985  1.00  0.00    -0.354 N 
ATOM     44  C   UNL     1      12.677   4.084   7.123  1.00  0.00     0.074 A 
ATOM     45  C   UNL     1      11.379   4.723   7.140  1.00  0.00     0.031 C 
ATOM     46  C   UNL     1      11.249  -2.164   6.838  1.00  0.00     0.029 A 
ATOM     47  C   UNL     1      12.574  -1.552   6.842  1.00  0.00     0.049 A 
ATOM     48  H   UNL     1      13.030   0.472   7.047  1.00  0.00     0.167 HD
ATOM     49  C   UNL     1      13.855   4.751   7.141  1.00  0.00     0.034 A 
ATOM     50  C   UNL     1      13.739  -2.220   6.720  1.00  0.00     0.034 A 
ATOM     51  C   UNL     1      15.144   4.114   7.170  1.00  0.00     0.049 A 
ATOM     52  C   UNL     1      15.034  -1.456   6.765  1.00  0.00     0.074 A 
ATOM     53  C   UNL     1      16.389   4.708   7.274  1.00  0.00     0.029 A 
ATOM     54  N   UNL     1      15.359   2.747   7.090  1.00  0.00    -0.354 N 
ATOM     55  N   UNL     1      15.225  -0.167   6.909  1.00  0.00    -0.248 NA
ATOM     56  C   UNL     1      16.277  -2.237   6.663  1.00  0.00     0.031 C 
ATOM     57  C   UNL     1      17.359   3.704   7.221  1.00  0.00     0.029 A 
ATOM     58  C   UNL     1      16.717   2.480   7.127  1.00  0.00     0.049 A 
ATOM     59  H   UNL     1      14.651   2.067   7.016  1.00  0.00     0.167 HD
ATOM     60  C   UNL     1      16.603   0.014   6.950  1.00  0.00     0.074 A 
ATOM     61  C   UNL     1      17.201  -1.300   6.832  1.00  0.00     0.031 C 
ATOM     62  C   UNL     1      17.305   1.167   7.062  1.00  0.00     0.034 A 
BRANCH  49  63
ATOM     63  C   UNL     1      13.820   6.257   7.190  1.00  0.00     0.023 A 
ATOM     64  C   UNL     1      13.423   6.904   8.377  1.00  0.00     0.012 A 
ATOM     65  C   UNL     1      14.288   7.026   6.106  1.00  0.00     0.148 A 
ATOM     66  C   UNL     1      13.471   8.293   8.479  1.00  0.00     0.002 A 
ATOM     67  C   UNL     1      14.380   8.408   6.232  1.00  0.00     0.091 A 
ATOM     68  F   UNL     1      14.645   6.393   4.980  1.00  0.00    -0.205 F 
ATOM     69  C   UNL     1      13.963   9.043   7.414  1.00  0.00     0.022 A 
BRANCH  67  70
ATOM     70  S   UNL     1      15.082   9.457   4.955  1.00  0.00     0.127 S 
ATOM     71  O   UNL     1      13.912  10.228   4.532  1.00  0.00    -0.237 OA
ATOM     72  O   UNL     1      16.079  10.223   5.702  1.00  0.00    -0.237 OA
ATOM     73  O   UNL     1      15.628   8.558   3.948  1.00  0.00    -0.744 OA
ENDBRANCH  67  70
ENDBRANCH  49  63
BRANCH  50  74
ATOM     74  C   UNL     1      13.727  -3.707   6.610  1.00  0.00     0.023 A 
ATOM     75  C   UNL     1      14.194  -4.483   7.689  1.00  0.00     0.012 A 
ATOM     76  C   UNL     1      13.207  -4.355   5.473  1.00  0.00     0.148 A 
ATOM     77  C   UNL     1      14.162  -5.877   7.629  1.00  0.00     0.002 A 
ATOM     78  C   UNL     1      13.122  -5.742   5.444  1.00  0.00     0.091 A 
ATOM     79  F   UNL     1      12.778  -3.599   4.453  1.00  0.00    -0.205 F 
ATOM     80  C   UNL     1      13.615  -6.506   6.514  1.00  0.00     0.022 A 
BRANCH  78  81
ATOM     81  S   UNL     1      12.305  -6.633   4.116  1.00  0.00     0.127 S 
ATOM     82  O   UNL     1      13.421  -7.349   3.503  1.00  0.00    -0.237 OA
ATOM     83  O   UNL     1      11.363  -7.475   4.855  1.00  0.00    -0.237 OA
ATOM     84  O   UNL     1      11.676  -5.615   3.284  1.00  0.00    -0.744 OA
ENDBRANCH  78  81
ENDBRANCH  50  74
BRANCH  62  85
ATOM     85  C   UNL     1      18.810   1.086   7.099  1.00  0.00     0.023 A 
ATOM     86  C   UNL     1      19.525   0.790   5.922  1.00  0.00     0.012 A 
ATOM     87  C   UNL     1      19.516   1.430   8.270  1.00  0.00     0.148 A 
ATOM     88  C   UNL     1      20.919   0.818   5.915  1.00  0.00     0.002 A 
ATOM     89  C   UNL     1      20.903   1.508   8.241  1.00  0.00     0.091 A 
ATOM     90  F   UNL     1      18.816   1.695   9.383  1.00  0.00    -0.205 F 
ATOM     91  C   UNL     1      21.607   1.192   7.068  1.00  0.00     0.022 A 
BRANCH  89  92
ATOM     92  S   UNL     1      21.869   2.086   9.642  1.00  0.00     0.127 S 
ATOM     93  O   UNL     1      22.570   0.866  10.043  1.00  0.00    -0.237 OA
ATOM     94  O   UNL     1      22.720   3.106   9.030  1.00  0.00    -0.237 OA
ATOM     95  O   UNL     1      20.909   2.597  10.611  1.00  0.00    -0.744 OA
ENDBRANCH  89  92
ENDBRANCH  62  85
ENDBRANCH  36  37
ENDBRANCH  28  31
ENDBRANCH  26  27
ENDBRANCH  25  26
ENDBRANCH   1  25
TORSDOF 18
