REMARK SMILES C[C@@H](C(=O)NCCCCNC(=O)c1ccc(-c2c3nc(c(-c4cccc(S(=O)(=O)[O-])c4F)c4ccc([nH]4)c(-c4cccc(S(=O)(=O)[O-])c4F)c4nc(c(-c5cccc(S(=O)(=O)[O-])c5F)c5ccc2[nH]5)C=C4)C=C3)cc1)[C@H]1CCOC2(CCCCC2)C1
REMARK SMILES IDX 8 1 7 2 6 3 5 4 3 5 4 6 2 8 1 9 76 10 77 11 86 12 78 13
REMARK SMILES IDX 80 14 79 15 81 16 85 17 82 18 84 19 83 20 9 21 10 22 11 23
REMARK SMILES IDX 12 25 13 26 14 27 75 28 15 29 74 30 16 31 17 32 18 33 68 34
REMARK SMILES IDX 19 35 73 36 67 37 69 38 20 39 72 40 66 41 65 42 21 44 53 45
REMARK SMILES IDX 33 46 52 47 34 48 37 49 51 50 70 51 35 52 36 53 50 55 71 56
REMARK SMILES IDX 38 57 22 58 23 59 31 60 24 61 26 62 32 63 25 64 27 65 28 66
REMARK SMILES IDX 29 67 30 68 54 69 55 70 63 71 56 72 58 73 64 74 57 75 59 76
REMARK SMILES IDX 60 77 61 78 62 79 39 80 40 81 48 82 41 83 43 84 49 85 42 86
REMARK SMILES IDX 44 87 45 88 46 89 47 90
REMARK H PARENT 5 7 10 24 69 43 37 54
REMARK Flexibility Score: inf
ROOT
ATOM      1  C   UNL     1      -1.886   4.340  -6.568  1.00  0.00     0.023 C 
ENDROOT
BRANCH   1   2
ATOM      2  C   UNL     1      -2.576   3.142  -5.908  1.00  0.00     0.023 C 
BRANCH   2   3
ATOM      3  C   UNL     1      -1.657   1.949  -5.637  1.00  0.00     0.116 C 
BRANCH   3   4
ATOM      4  N   UNL     1      -0.657   2.283  -4.644  1.00  0.00    -0.356 N 
ATOM      5  C   UNL     1      -0.595   1.978  -3.319  1.00  0.00     0.223 C 
ATOM      6  O   UNL     1       0.316   2.486  -2.664  1.00  0.00    -0.275 OA
ATOM      7  H   UNL     1       0.098   2.816  -4.982  1.00  0.00     0.163 HD
BRANCH   5   8
ATOM      8  C   UNL     1      -1.599   0.996  -2.701  1.00  0.00     0.078 C 
ATOM      9  C   UNL     1      -3.001   1.603  -2.613  1.00  0.00     0.018 C 
BRANCH   8  10
ATOM     10  C   UNL     1      -1.062   0.501  -1.322  1.00  0.00     0.006 C 
ATOM     11  C   UNL     1      -1.451   1.402  -0.138  1.00  0.00     0.033 C 
ATOM     12  C   UNL     1      -1.496  -0.943  -1.018  1.00  0.00     0.040 C 
ATOM     13  C   UNL     1      -0.941   0.840   1.179  1.00  0.00     0.161 C 
ATOM     14  C   UNL     1      -0.959  -1.429   0.347  1.00  0.00     0.069 C 
ATOM     15  O   UNL     1      -1.370  -0.507   1.372  1.00  0.00    -0.375 OA
ATOM     16  C   UNL     1       0.576  -1.621   0.344  1.00  0.00     0.035 C 
ATOM     17  C   UNL     1      -1.614  -2.786   0.689  1.00  0.00     0.035 C 
ATOM     18  C   UNL     1       1.088  -2.159   1.680  1.00  0.00     0.003 C 
ATOM     19  C   UNL     1      -1.107  -3.363   2.014  1.00  0.00     0.003 C 
ATOM     20  C   UNL     1       0.414  -3.476   2.043  1.00  0.00     0.000 C 
ENDBRANCH   8  10
ENDBRANCH   5   8
ENDBRANCH   3   4
ENDBRANCH   2   3
ENDBRANCH   1   2
BRANCH   1  21
ATOM     21  C   UNL     1      -1.217   4.053  -7.909  1.00  0.00     0.116 C 
BRANCH  21  22
ATOM     22  N   UNL     1      -2.144   3.525  -8.902  1.00  0.00    -0.352 N 
ATOM     23  C   UNL     1      -2.280   3.876 -10.225  1.00  0.00     0.251 C 
ATOM     24  H   UNL     1      -2.755   2.823  -8.583  1.00  0.00     0.163 HD
ATOM     25  O   UNL     1      -3.200   3.416 -10.895  1.00  0.00    -0.269 OA
BRANCH  23  26
ATOM     26  C   UNL     1      -1.329   4.837 -10.821  1.00  0.00     0.039 A 
ATOM     27  C   UNL     1      -1.831   5.960 -11.483  1.00  0.00     0.014 A 
ATOM     28  C   UNL     1       0.049   4.653 -10.679  1.00  0.00     0.014 A 
ATOM     29  C   UNL     1      -0.950   6.951 -11.923  1.00  0.00     0.010 A 
ATOM     30  C   UNL     1       0.920   5.666 -11.071  1.00  0.00     0.010 A 
ATOM     31  C   UNL     1       0.428   6.833 -11.677  1.00  0.00    -0.014 A 
BRANCH  31  32
ATOM     32  C   UNL     1       1.366   7.948 -11.962  1.00  0.00     0.031 A 
ATOM     33  C   UNL     1       2.463   7.784 -12.975  1.00  0.00     0.074 A 
ATOM     34  C   UNL     1       1.310   9.060 -11.200  1.00  0.00     0.049 A 
ATOM     35  N   UNL     1       3.437   8.604 -13.270  1.00  0.00    -0.248 NA
ATOM     36  C   UNL     1       2.485   6.525 -13.739  1.00  0.00     0.031 C 
ATOM     37  C   UNL     1       0.346   9.298 -10.122  1.00  0.00     0.029 A 
ATOM     38  N   UNL     1       2.110  10.176 -11.180  1.00  0.00    -0.354 N 
ATOM     39  C   UNL     1       4.212   7.949 -14.218  1.00  0.00     0.074 A 
ATOM     40  C   UNL     1       3.601   6.657 -14.445  1.00  0.00     0.031 C 
ATOM     41  C   UNL     1       0.625  10.472  -9.532  1.00  0.00     0.029 A 
ATOM     42  C   UNL     1       1.802  11.056 -10.168  1.00  0.00     0.049 A 
ATOM     43  H   UNL     1       2.835  10.332 -11.828  1.00  0.00     0.167 HD
ATOM     44  C   UNL     1       5.319   8.394 -14.857  1.00  0.00     0.034 A 
ATOM     45  C   UNL     1       2.410  12.194  -9.777  1.00  0.00     0.034 A 
ATOM     46  C   UNL     1       5.888   9.702 -14.674  1.00  0.00     0.049 A 
ATOM     47  C   UNL     1       3.615  12.678 -10.536  1.00  0.00     0.074 A 
ATOM     48  C   UNL     1       6.919  10.296 -15.382  1.00  0.00     0.029 A 
ATOM     49  N   UNL     1       5.490  10.611 -13.708  1.00  0.00    -0.354 N 
ATOM     50  N   UNL     1       4.205  12.140 -11.575  1.00  0.00    -0.248 NA
ATOM     51  C   UNL     1       4.223  13.941 -10.088  1.00  0.00     0.031 C 
ATOM     52  C   UNL     1       7.160  11.557 -14.828  1.00  0.00     0.029 A 
ATOM     53  C   UNL     1       6.272  11.751 -13.783  1.00  0.00     0.049 A 
ATOM     54  H   UNL     1       4.760  10.468 -13.064  1.00  0.00     0.167 HD
ATOM     55  C   UNL     1       5.237  13.006 -11.918  1.00  0.00     0.074 A 
ATOM     56  C   UNL     1       5.173  14.121 -10.996  1.00  0.00     0.031 C 
ATOM     57  C   UNL     1       6.168  12.878 -12.894  1.00  0.00     0.034 A 
BRANCH  44  58
ATOM     58  C   UNL     1       5.967   7.490 -15.870  1.00  0.00     0.023 A 
ATOM     59  C   UNL     1       5.371   7.335 -17.137  1.00  0.00     0.012 A 
ATOM     60  C   UNL     1       7.212   6.886 -15.609  1.00  0.00     0.148 A 
ATOM     61  C   UNL     1       5.998   6.581 -18.127  1.00  0.00     0.002 A 
ATOM     62  C   UNL     1       7.848   6.165 -16.613  1.00  0.00     0.091 A 
ATOM     63  F   UNL     1       7.750   7.033 -14.390  1.00  0.00    -0.205 F 
ATOM     64  C   UNL     1       7.240   6.007 -17.869  1.00  0.00     0.022 A 
BRANCH  62  65
ATOM     65  S   UNL     1       9.480   5.443 -16.407  1.00  0.00     0.127 S 
ATOM     66  O   UNL     1       9.174   4.013 -16.425  1.00  0.00    -0.237 OA
ATOM     67  O   UNL     1      10.184   5.931 -17.593  1.00  0.00    -0.237 OA
ATOM     68  O   UNL     1       9.991   5.954 -15.142  1.00  0.00    -0.744 OA
ENDBRANCH  62  65
ENDBRANCH  44  58
BRANCH  45  69
ATOM     69  C   UNL     1       1.867  12.977  -8.632  1.00  0.00     0.023 A 
ATOM     70  C   UNL     1       1.256  14.222  -8.874  1.00  0.00     0.012 A 
ATOM     71  C   UNL     1       1.936  12.492  -7.312  1.00  0.00     0.148 A 
ATOM     72  C   UNL     1       0.753  14.985  -7.820  1.00  0.00     0.002 A 
ATOM     73  C   UNL     1       1.383  13.233  -6.272  1.00  0.00     0.091 A 
ATOM     74  F   UNL     1       2.540  11.316  -7.093  1.00  0.00    -0.205 F 
ATOM     75  C   UNL     1       0.807  14.487  -6.521  1.00  0.00     0.022 A 
BRANCH  73  76
ATOM     76  S   UNL     1       1.293  12.584  -4.599  1.00  0.00     0.127 S 
ATOM     77  O   UNL     1       2.454  13.207  -3.971  1.00  0.00    -0.237 OA
ATOM     78  O   UNL     1      -0.002  13.088  -4.138  1.00  0.00    -0.237 OA
ATOM     79  O   UNL     1       1.342  11.136  -4.753  1.00  0.00    -0.744 OA
ENDBRANCH  73  76
ENDBRANCH  45  69
BRANCH  57  80
ATOM     80  C   UNL     1       7.196  13.969 -13.027  1.00  0.00     0.023 A 
ATOM     81  C   UNL     1       8.240  14.053 -12.084  1.00  0.00     0.012 A 
ATOM     82  C   UNL     1       7.180  14.853 -14.124  1.00  0.00     0.148 A 
ATOM     83  C   UNL     1       9.239  15.015 -12.217  1.00  0.00     0.002 A 
ATOM     84  C   UNL     1       8.204  15.781 -14.274  1.00  0.00     0.091 A 
ATOM     85  F   UNL     1       6.168  14.767 -14.999  1.00  0.00    -0.205 F 
ATOM     86  C   UNL     1       9.228  15.870 -13.317  1.00  0.00     0.022 A 
BRANCH  84  87
ATOM     87  S   UNL     1       8.321  16.862 -15.704  1.00  0.00     0.127 S 
ATOM     88  O   UNL     1       7.954  18.156 -15.131  1.00  0.00    -0.237 OA
ATOM     89  O   UNL     1       9.732  16.737 -16.074  1.00  0.00    -0.237 OA
ATOM     90  O   UNL     1       7.390  16.326 -16.689  1.00  0.00    -0.744 OA
ENDBRANCH  84  87
ENDBRANCH  57  80
ENDBRANCH  31  32
ENDBRANCH  23  26
ENDBRANCH  21  22
ENDBRANCH   1  21
TORSDOF 15
