REMARK SMILES C[C@H]1[C@H](C(=O)NCCCCNC(=O)c2ccc(-c3c4nc(c(-c5cccc(S(=O)(=O)[O-])c5F)c5ccc([nH]5)c(-c5cccc(S(=O)(=O)[O-])c5F)c5nc(c(-c6cccc(S(=O)(=O)[O-])c6F)c6ccc3[nH]6)C=C5)C=C4)cc2)CC[N@@H+]1[C@@H](c1ccccc1)c1ccco1
REMARK SMILES IDX 9 1 8 2 7 3 6 4 4 5 5 6 3 8 1 9 2 10 79 11 77 12 78 13 80 15
REMARK SMILES IDX 81 16 82 17 86 18 83 19 85 20 84 21 87 22 88 23 91 24 89 25
REMARK SMILES IDX 90 26 10 27 11 28 12 29 13 31 14 32 15 33 76 34 16 35 75 36
REMARK SMILES IDX 17 37 18 38 19 39 69 40 20 41 74 42 68 43 70 44 21 45 73 46
REMARK SMILES IDX 67 47 66 48 22 50 54 51 34 52 53 53 35 54 38 55 52 56 71 57
REMARK SMILES IDX 36 58 37 59 51 61 72 62 39 63 23 64 24 65 32 66 25 67 27 68
REMARK SMILES IDX 33 69 26 70 28 71 29 72 30 73 31 74 55 75 56 76 64 77 57 78
REMARK SMILES IDX 59 79 65 80 58 81 60 82 61 83 62 84 63 85 40 86 41 87 49 88
REMARK SMILES IDX 42 89 44 90 50 91 43 92 45 93 46 94 47 95 48 96
REMARK H PARENT 6 7 79 14 11 30 70 49 38 60
REMARK Flexibility Score: inf
ROOT
ATOM      1  C   UNL     1       0.470   1.470   5.646  1.00  0.00     0.023 C 
ENDROOT
BRANCH   1   2
ATOM      2  C   UNL     1       0.577   0.836   4.251  1.00  0.00     0.023 C 
BRANCH   2   3
ATOM      3  C   UNL     1      -0.383   1.388   3.190  1.00  0.00     0.116 C 
BRANCH   3   4
ATOM      4  N   UNL     1       0.231   2.388   2.338  1.00  0.00    -0.356 N 
ATOM      5  C   UNL     1       0.455   2.434   0.999  1.00  0.00     0.229 C 
ATOM      6  O   UNL     1       0.889   3.509   0.562  1.00  0.00    -0.275 OA
ATOM      7  H   UNL     1       0.545   3.185   2.822  1.00  0.00     0.163 HD
BRANCH   5   8
ATOM      8  C   UNL     1       0.177   1.306   0.001  1.00  0.00     0.142 C 
ATOM      9  C   UNL     1       2.013  -0.365  -0.374  1.00  0.00     0.076 C 
ATOM     10  C   UNL     1       0.672  -0.111   0.328  1.00  0.00     0.194 C 
ATOM     11  N   UNL     1      -0.334  -1.063  -0.220  1.00  0.00    -0.319 N 
ATOM     12  C   UNL     1      -1.274   1.125  -0.402  1.00  0.00     0.081 C 
ATOM     13  C   UNL     1      -1.284  -0.280  -1.003  1.00  0.00     0.264 C 
ATOM     14  H   UNL     1       0.095  -1.734  -0.858  1.00  0.00     0.349 HD
BRANCH  11  15
ATOM     15  C   UNL     1      -0.868  -2.034   0.769  1.00  0.00     0.283 C 
BRANCH  15  16
ATOM     16  C   UNL     1      -1.805  -1.562   1.885  1.00  0.00     0.017 A 
ATOM     17  C   UNL     1      -1.591  -2.072   3.177  1.00  0.00     0.010 A 
ATOM     18  C   UNL     1      -2.972  -0.809   1.677  1.00  0.00     0.010 A 
ATOM     19  C   UNL     1      -2.477  -1.787   4.213  1.00  0.00     0.001 A 
ATOM     20  C   UNL     1      -3.803  -0.441   2.736  1.00  0.00     0.001 A 
ATOM     21  C   UNL     1      -3.548  -0.925   4.010  1.00  0.00     0.000 A 
ENDBRANCH  15  16
BRANCH  15  22
ATOM     22  C   UNL     1      -1.366  -3.353   0.206  1.00  0.00     0.165 A 
ATOM     23  C   UNL     1      -0.711  -4.487  -0.240  1.00  0.00     0.052 A 
ATOM     24  O   UNL     1      -2.689  -3.656   0.411  1.00  0.00    -0.463 OA
ATOM     25  C   UNL     1      -1.651  -5.550  -0.174  1.00  0.00     0.042 A 
ATOM     26  C   UNL     1      -2.835  -4.990   0.238  1.00  0.00     0.195 A 
ENDBRANCH  15  22
ENDBRANCH  11  15
ENDBRANCH   5   8
ENDBRANCH   3   4
ENDBRANCH   2   3
ENDBRANCH   1   2
BRANCH   1  27
ATOM     27  C   UNL     1      -0.856   1.283   6.386  1.00  0.00     0.116 C 
BRANCH  27  28
ATOM     28  N   UNL     1      -1.208  -0.108   6.625  1.00  0.00    -0.352 N 
ATOM     29  C   UNL     1      -1.980  -0.678   7.621  1.00  0.00     0.251 C 
ATOM     30  H   UNL     1      -0.838  -0.747   5.974  1.00  0.00     0.163 HD
ATOM     31  O   UNL     1      -2.203  -1.873   7.629  1.00  0.00    -0.269 OA
BRANCH  29  32
ATOM     32  C   UNL     1      -2.454   0.166   8.737  1.00  0.00     0.039 A 
ATOM     33  C   UNL     1      -2.194  -0.277  10.038  1.00  0.00     0.014 A 
ATOM     34  C   UNL     1      -3.021   1.418   8.510  1.00  0.00     0.014 A 
ATOM     35  C   UNL     1      -2.363   0.600  11.105  1.00  0.00     0.010 A 
ATOM     36  C   UNL     1      -3.105   2.320   9.561  1.00  0.00     0.010 A 
ATOM     37  C   UNL     1      -2.742   1.928  10.858  1.00  0.00    -0.014 A 
BRANCH  37  38
ATOM     38  C   UNL     1      -2.677   2.948  11.929  1.00  0.00     0.031 A 
ATOM     39  C   UNL     1      -3.925   3.653  12.366  1.00  0.00     0.074 A 
ATOM     40  C   UNL     1      -1.466   3.308  12.403  1.00  0.00     0.049 A 
ATOM     41  N   UNL     1      -4.063   4.612  13.240  1.00  0.00    -0.248 NA
ATOM     42  C   UNL     1      -5.179   3.256  11.703  1.00  0.00     0.031 C 
ATOM     43  C   UNL     1      -0.183   2.757  11.952  1.00  0.00     0.029 A 
ATOM     44  N   UNL     1      -1.108   4.238  13.344  1.00  0.00    -0.354 N 
ATOM     45  C   UNL     1      -5.408   4.959  13.207  1.00  0.00     0.074 A 
ATOM     46  C   UNL     1      -6.035   4.138  12.196  1.00  0.00     0.031 C 
ATOM     47  C   UNL     1       0.816   3.347  12.626  1.00  0.00     0.029 A 
ATOM     48  C   UNL     1       0.252   4.333  13.538  1.00  0.00     0.049 A 
ATOM     49  H   UNL     1      -1.762   4.786  13.835  1.00  0.00     0.167 HD
ATOM     50  C   UNL     1      -6.063   5.860  13.976  1.00  0.00     0.034 A 
ATOM     51  C   UNL     1       0.959   5.127  14.366  1.00  0.00     0.034 A 
ATOM     52  C   UNL     1      -5.420   6.633  15.002  1.00  0.00     0.049 A 
ATOM     53  C   UNL     1       0.197   6.057  15.270  1.00  0.00     0.074 A 
ATOM     54  C   UNL     1      -5.987   7.510  15.907  1.00  0.00     0.029 A 
ATOM     55  N   UNL     1      -4.054   6.621  15.254  1.00  0.00    -0.354 N 
ATOM     56  N   UNL     1      -1.098   6.251  15.346  1.00  0.00    -0.248 NA
ATOM     57  C   UNL     1       0.982   6.844  16.230  1.00  0.00     0.031 C 
ATOM     58  C   UNL     1      -4.961   8.040  16.697  1.00  0.00     0.029 A 
ATOM     59  C   UNL     1      -3.757   7.476  16.299  1.00  0.00     0.049 A 
ATOM     60  H   UNL     1      -3.394   6.082  14.761  1.00  0.00     0.167 HD
ATOM     61  C   UNL     1      -1.289   7.158  16.380  1.00  0.00     0.074 A 
ATOM     62  C   UNL     1       0.025   7.455  16.917  1.00  0.00     0.031 C 
ATOM     63  C   UNL     1      -2.441   7.710  16.836  1.00  0.00     0.034 A 
BRANCH  50  64
ATOM     64  C   UNL     1      -7.548   6.006  13.766  1.00  0.00     0.023 A 
ATOM     65  C   UNL     1      -8.409   4.952  14.139  1.00  0.00     0.012 A 
ATOM     66  C   UNL     1      -8.096   7.182  13.220  1.00  0.00     0.148 A 
ATOM     67  C   UNL     1      -9.784   5.047  13.931  1.00  0.00     0.002 A 
ATOM     68  C   UNL     1      -9.474   7.287  13.057  1.00  0.00     0.091 A 
ATOM     69  F   UNL     1      -7.263   8.165  12.850  1.00  0.00    -0.205 F 
ATOM     70  C   UNL     1     -10.317   6.216  13.398  1.00  0.00     0.022 A 
BRANCH  68  71
ATOM     71  S   UNL     1     -10.269   8.777  12.445  1.00  0.00     0.127 S 
ATOM     72  O   UNL     1     -10.747   8.339  11.134  1.00  0.00    -0.237 OA
ATOM     73  O   UNL     1     -11.323   8.991  13.437  1.00  0.00    -0.237 OA
ATOM     74  O   UNL     1      -9.237   9.804  12.422  1.00  0.00    -0.744 OA
ENDBRANCH  68  71
ENDBRANCH  50  64
BRANCH  51  75
ATOM     75  C   UNL     1       2.444   5.002  14.440  1.00  0.00     0.023 A 
ATOM     76  C   UNL     1       3.032   4.436  15.589  1.00  0.00     0.012 A 
ATOM     77  C   UNL     1       3.274   5.391  13.370  1.00  0.00     0.148 A 
ATOM     78  C   UNL     1       4.417   4.287  15.683  1.00  0.00     0.002 A 
ATOM     79  C   UNL     1       4.649   5.191  13.448  1.00  0.00     0.091 A 
ATOM     80  F   UNL     1       2.701   5.936  12.287  1.00  0.00    -0.205 F 
ATOM     81  C   UNL     1       5.224   4.654  14.610  1.00  0.00     0.022 A 
BRANCH  79  82
ATOM     82  S   UNL     1       5.748   5.508  12.063  1.00  0.00     0.127 S 
ATOM     83  O   UNL     1       6.439   6.719  12.499  1.00  0.00    -0.237 OA
ATOM     84  O   UNL     1       6.574   4.300  12.045  1.00  0.00    -0.237 OA
ATOM     85  O   UNL     1       4.880   5.654  10.902  1.00  0.00    -0.744 OA
ENDBRANCH  79  82
ENDBRANCH  51  75
BRANCH  63  86
ATOM     86  C   UNL     1      -2.333   8.670  17.988  1.00  0.00     0.023 A 
ATOM     87  C   UNL     1      -1.816   9.962  17.774  1.00  0.00     0.012 A 
ATOM     88  C   UNL     1      -2.825   8.317  19.259  1.00  0.00     0.148 A 
ATOM     89  C   UNL     1      -1.764  10.883  18.819  1.00  0.00     0.002 A 
ATOM     90  C   UNL     1      -2.818   9.256  20.282  1.00  0.00     0.091 A 
ATOM     91  F   UNL     1      -3.292   7.074  19.443  1.00  0.00    -0.205 F 
ATOM     92  C   UNL     1      -2.277  10.535  20.067  1.00  0.00     0.022 A 
BRANCH  90  93
ATOM     93  S   UNL     1      -3.552   8.930  21.887  1.00  0.00     0.127 S 
ATOM     94  O   UNL     1      -2.368   8.774  22.730  1.00  0.00    -0.237 OA
ATOM     95  O   UNL     1      -4.319  10.151  22.132  1.00  0.00    -0.237 OA
ATOM     96  O   UNL     1      -4.364   7.732  21.720  1.00  0.00    -0.744 OA
ENDBRANCH  90  93
ENDBRANCH  63  86
ENDBRANCH  37  38
ENDBRANCH  29  32
ENDBRANCH  27  28
ENDBRANCH   1  27
TORSDOF 17
