REMARK SMILES O=C(NCCCCNC(=O)[C@]12CCC[NH2+][C@@H]1CCN(C(=O)Cc1c(F)cccc1Cl)C2)c1ccc(-c2c3nc(c(-c4cccc(S(=O)(=O)[O-])c4F)c4ccc([nH]4)c(-c4cccc(S(=O)(=O)[O-])c4F)c4nc(c(-c5cccc(S(=O)(=O)[O-])c5F)c5ccc2[nH]5)C=C4)C=C3)cc1
REMARK SMILES IDX 5 1 4 2 3 3 1 4 2 5 32 7 33 8 94 9 34 10 93 11 35 12 36 13
REMARK SMILES IDX 37 14 87 15 38 16 92 17 86 18 88 19 39 20 91 21 85 22 84 23
REMARK SMILES IDX 40 25 72 26 52 27 71 28 53 29 56 30 70 31 89 32 54 33 55 34
REMARK SMILES IDX 69 36 90 37 57 38 41 39 42 40 50 41 43 42 45 43 51 44 44 45
REMARK SMILES IDX 46 46 47 47 48 48 49 49 73 50 74 51 82 52 75 53 77 54 83 55
REMARK SMILES IDX 76 56 78 57 79 58 80 59 81 60 58 61 59 62 67 63 60 64 62 65
REMARK SMILES IDX 68 66 61 67 63 68 64 69 65 70 66 71 6 72 7 73 8 74 9 75
REMARK SMILES IDX 10 77 11 78 12 79 16 80 31 81 13 82 15 83 17 84 19 85 14 86
REMARK SMILES IDX 18 89 20 90 21 91 22 92 23 93 24 94 29 95 25 96 26 97 28 98
REMARK SMILES IDX 30 99 27 100
REMARK H PARENT 3 6 88 24 56 35 8 76 15 87 15 88
REMARK Flexibility Score: inf
ROOT
ATOM      1  C   UNL     1       5.299  -2.418  -0.021  1.00  0.00     0.023 C 
ENDROOT
BRANCH   1   2
ATOM      2  C   UNL     1       4.659  -1.039   0.043  1.00  0.00     0.116 C 
BRANCH   2   3
ATOM      3  N   UNL     1       3.261  -0.950  -0.356  1.00  0.00    -0.352 N 
ATOM      4  O   UNL     1       1.181  -0.018  -0.264  1.00  0.00    -0.269 OA
ATOM      5  C   UNL     1       2.337  -0.029   0.124  1.00  0.00     0.251 C 
ATOM      6  H   UNL     1       2.942  -1.599  -1.024  1.00  0.00     0.163 HD
BRANCH   5   7
ATOM      7  C   UNL     1       2.808   0.903   1.175  1.00  0.00     0.039 A 
ATOM      8  C   UNL     1       3.919   1.705   0.913  1.00  0.00     0.014 A 
ATOM      9  C   UNL     1       2.312   0.768   2.474  1.00  0.00     0.014 A 
ATOM     10  C   UNL     1       4.671   2.176   1.981  1.00  0.00     0.010 A 
ATOM     11  C   UNL     1       3.016   1.343   3.538  1.00  0.00     0.010 A 
ATOM     12  C   UNL     1       4.243   1.984   3.309  1.00  0.00    -0.014 A 
BRANCH  12  13
ATOM     13  C   UNL     1       5.104   2.467   4.425  1.00  0.00     0.031 A 
ATOM     14  C   UNL     1       5.669   1.524   5.461  1.00  0.00     0.074 A 
ATOM     15  C   UNL     1       5.418   3.776   4.473  1.00  0.00     0.049 A 
ATOM     16  N   UNL     1       6.468   1.790   6.465  1.00  0.00    -0.248 NA
ATOM     17  C   UNL     1       5.287   0.105   5.372  1.00  0.00     0.031 C 
ATOM     18  C   UNL     1       4.907   4.792   3.550  1.00  0.00     0.029 A 
ATOM     19  N   UNL     1       6.248   4.476   5.310  1.00  0.00    -0.354 N 
ATOM     20  C   UNL     1       6.630   0.597   7.162  1.00  0.00     0.074 A 
ATOM     21  C   UNL     1       5.856  -0.404   6.459  1.00  0.00     0.031 C 
ATOM     22  C   UNL     1       5.480   5.970   3.829  1.00  0.00     0.029 A 
ATOM     23  C   UNL     1       6.343   5.811   4.994  1.00  0.00     0.049 A 
ATOM     24  H   UNL     1       6.729   4.064   6.064  1.00  0.00     0.167 HD
ATOM     25  C   UNL     1       7.363   0.354   8.276  1.00  0.00     0.034 A 
ATOM     26  C   UNL     1       7.037   6.806   5.578  1.00  0.00     0.034 A 
ATOM     27  C   UNL     1       8.188   1.337   8.931  1.00  0.00     0.049 A 
ATOM     28  C   UNL     1       7.887   6.494   6.772  1.00  0.00     0.074 A 
ATOM     29  C   UNL     1       9.025   1.169  10.022  1.00  0.00     0.029 A 
ATOM     30  N   UNL     1       8.286   2.668   8.558  1.00  0.00    -0.354 N 
ATOM     31  N   UNL     1       8.105   5.337   7.348  1.00  0.00    -0.248 NA
ATOM     32  C   UNL     1       8.601   7.620   7.388  1.00  0.00     0.031 C 
ATOM     33  C   UNL     1       9.620   2.401  10.315  1.00  0.00     0.029 A 
ATOM     34  C   UNL     1       9.164   3.335   9.398  1.00  0.00     0.049 A 
ATOM     35  H   UNL     1       7.803   3.080   7.806  1.00  0.00     0.167 HD
ATOM     36  C   UNL     1       8.994   5.591   8.384  1.00  0.00     0.074 A 
ATOM     37  C   UNL     1       9.299   7.007   8.335  1.00  0.00     0.031 C 
ATOM     38  C   UNL     1       9.493   4.734   9.308  1.00  0.00     0.034 A 
BRANCH  25  39
ATOM     39  C   UNL     1       7.344  -1.040   8.853  1.00  0.00     0.023 A 
ATOM     40  C   UNL     1       8.074  -2.067   8.223  1.00  0.00     0.012 A 
ATOM     41  C   UNL     1       6.678  -1.312  10.066  1.00  0.00     0.148 A 
ATOM     42  C   UNL     1       8.121  -3.348   8.775  1.00  0.00     0.002 A 
ATOM     43  C   UNL     1       6.760  -2.582  10.629  1.00  0.00     0.091 A 
ATOM     44  F   UNL     1       5.971  -0.331  10.643  1.00  0.00    -0.205 F 
ATOM     45  C   UNL     1       7.474  -3.603   9.982  1.00  0.00     0.022 A 
BRANCH  43  46
ATOM     46  S   UNL     1       6.021  -2.978  12.220  1.00  0.00     0.127 S 
ATOM     47  O   UNL     1       4.823  -3.711  11.814  1.00  0.00    -0.237 OA
ATOM     48  O   UNL     1       7.054  -3.803  12.848  1.00  0.00    -0.237 OA
ATOM     49  O   UNL     1       5.789  -1.700  12.877  1.00  0.00    -0.744 OA
ENDBRANCH  43  46
ENDBRANCH  25  39
BRANCH  26  50
ATOM     50  C   UNL     1       6.989   8.173   4.990  1.00  0.00     0.023 A 
ATOM     51  C   UNL     1       8.132   8.691   4.351  1.00  0.00     0.012 A 
ATOM     52  C   UNL     1       5.798   8.925   4.985  1.00  0.00     0.148 A 
ATOM     53  C   UNL     1       8.092   9.938   3.728  1.00  0.00     0.002 A 
ATOM     54  C   UNL     1       5.747  10.136   4.305  1.00  0.00     0.091 A 
ATOM     55  F   UNL     1       4.727   8.427   5.618  1.00  0.00    -0.205 F 
ATOM     56  C   UNL     1       6.896  10.652   3.688  1.00  0.00     0.022 A 
BRANCH  54  57
ATOM     57  S   UNL     1       4.202  11.022   4.068  1.00  0.00     0.127 S 
ATOM     58  O   UNL     1       4.307  12.080   5.067  1.00  0.00    -0.237 OA
ATOM     59  O   UNL     1       4.314  11.470   2.679  1.00  0.00    -0.237 OA
ATOM     60  O   UNL     1       3.156  10.032   4.289  1.00  0.00    -0.744 OA
ENDBRANCH  54  57
ENDBRANCH  26  50
BRANCH  38  61
ATOM     61  C   UNL     1      10.434   5.304  10.334  1.00  0.00     0.023 A 
ATOM     62  C   UNL     1       9.924   6.102  11.376  1.00  0.00     0.012 A 
ATOM     63  C   UNL     1      11.812   5.015  10.292  1.00  0.00     0.148 A 
ATOM     64  C   UNL     1      10.777   6.634  12.343  1.00  0.00     0.002 A 
ATOM     65  C   UNL     1      12.649   5.513  11.284  1.00  0.00     0.091 A 
ATOM     66  F   UNL     1      12.282   4.275   9.277  1.00  0.00    -0.205 F 
ATOM     67  C   UNL     1      12.136   6.331  12.303  1.00  0.00     0.022 A 
BRANCH  65  68
ATOM     68  S   UNL     1      14.395   5.097  11.348  1.00  0.00     0.127 S 
ATOM     69  O   UNL     1      15.008   6.285  10.756  1.00  0.00    -0.237 OA
ATOM     70  O   UNL     1      14.631   4.940  12.784  1.00  0.00    -0.237 OA
ATOM     71  O   UNL     1      14.533   3.866  10.581  1.00  0.00    -0.744 OA
ENDBRANCH  65  68
ENDBRANCH  38  61
ENDBRANCH  12  13
ENDBRANCH   5   7
ENDBRANCH   2   3
ENDBRANCH   1   2
BRANCH   1  72
ATOM     72  C   UNL     1       5.341  -3.114  -1.378  1.00  0.00     0.023 C 
BRANCH  72  73
ATOM     73  C   UNL     1       5.778  -2.249  -2.564  1.00  0.00     0.116 C 
BRANCH  73  74
ATOM     74  N   UNL     1       7.001  -2.706  -3.217  1.00  0.00    -0.355 N 
ATOM     75  C   UNL     1       7.436  -3.021  -4.461  1.00  0.00     0.234 C 
ATOM     76  H   UNL     1       7.724  -2.820  -2.558  1.00  0.00     0.163 HD
ATOM     77  O   UNL     1       8.674  -2.949  -4.556  1.00  0.00    -0.274 OA
BRANCH  75  78
ATOM     78  C   UNL     1       6.635  -3.440  -5.731  1.00  0.00     0.118 C 
ATOM     79  C   UNL     1       7.065  -2.489  -6.888  1.00  0.00     0.031 C 
ATOM     80  C   UNL     1       5.107  -3.541  -5.721  1.00  0.00     0.201 C 
ATOM     81  C   UNL     1       7.139  -4.844  -6.156  1.00  0.00     0.142 C 
ATOM     82  C   UNL     1       6.347  -1.151  -6.813  1.00  0.00     0.063 C 
ATOM     83  N   UNL     1       4.421  -2.232  -5.677  1.00  0.00    -0.343 N 
ATOM     84  C   UNL     1       4.649  -4.585  -4.688  1.00  0.00     0.087 C 
ATOM     85  N   UNL     1       6.696  -5.948  -5.309  1.00  0.00    -0.341 N 
ATOM     86  C   UNL     1       4.835  -1.360  -6.785  1.00  0.00     0.260 C 
ATOM     87  H   UNL     1       3.414  -2.385  -5.735  1.00  0.00     0.346 HD
ATOM     88  H   UNL     1       4.673  -1.773  -4.801  1.00  0.00     0.346 HD
ATOM     89  C   UNL     1       5.289  -5.966  -4.907  1.00  0.00     0.125 C 
BRANCH  85  90
ATOM     90  C   UNL     1       7.444  -7.126  -5.455  1.00  0.00     0.227 C 
ATOM     91  O   UNL     1       8.196  -7.300  -6.421  1.00  0.00    -0.275 OA
BRANCH  90  92
ATOM     92  C   UNL     1       7.363  -8.188  -4.381  1.00  0.00     0.140 C 
BRANCH  92  93
ATOM     93  C   UNL     1       8.359  -8.135  -3.235  1.00  0.00     0.016 A 
ATOM     94  C   UNL     1       8.270  -9.197  -2.316  1.00  0.00     0.128 A 
ATOM     95  C   UNL     1       9.339  -7.166  -2.967  1.00  0.00     0.047 A 
ATOM     96  F   UNL     1       7.395 -10.190  -2.544  1.00  0.00    -0.207 F 
ATOM     97  C   UNL     1       9.058  -9.276  -1.168  1.00  0.00     0.039 A 
ATOM     98  C   UNL     1      10.109  -7.220  -1.792  1.00  0.00     0.021 A 
ATOM     99  Cl  UNL     1       9.766  -5.878  -4.019  1.00  0.00    -0.084 Cl
ATOM    100  C   UNL     1       9.966  -8.267  -0.889  1.00  0.00     0.005 A 
ENDBRANCH  92  93
ENDBRANCH  90  92
ENDBRANCH  85  90
ENDBRANCH  75  78
ENDBRANCH  73  74
ENDBRANCH  72  73
ENDBRANCH   1  72
TORSDOF 17
