REMARK SMILES Cc1ccc(-c2cc([C@@H](C)C(=O)NCCCCNC(=O)c3ccc(-c4c5nc(c(-c6cccc(S(=O)(=O)[O-])c6F)c6ccc([nH]6)c(-c6cccc(S(=O)(=O)[O-])c6F)c6nc(c(-c7cccc(S(=O)(=O)[O-])c7F)c7ccc4[nH]7)C=C6)C=C5)cc3)ccc2C[C@H]2CCCC2=O)cc1
REMARK SMILES IDX 15 1 14 2 13 3 11 4 12 5 9 7 10 8 8 9 6 10 7 11 86 12 85 13
REMARK SMILES IDX 84 14 5 15 1 16 2 17 3 18 95 19 4 20 94 21 87 22 88 23 89 24
REMARK SMILES IDX 92 25 90 26 91 27 93 28 16 29 17 30 18 31 19 32 20 34 21 35
REMARK SMILES IDX 22 36 83 37 23 38 82 39 24 40 25 41 26 42 76 43 27 44 81 45
REMARK SMILES IDX 75 46 77 47 28 48 80 49 74 50 73 51 29 53 61 54 41 55 60 56
REMARK SMILES IDX 42 57 45 58 59 59 78 60 43 61 44 62 58 64 79 65 46 66 30 67
REMARK SMILES IDX 31 68 39 69 32 70 34 71 40 72 33 73 35 74 36 75 37 76 38 77
REMARK SMILES IDX 62 78 63 79 71 80 64 81 66 82 72 83 65 84 67 85 68 86 69 87
REMARK SMILES IDX 70 88 47 89 48 90 56 91 49 92 51 93 57 94 50 95 52 96 53 97
REMARK SMILES IDX 54 98 55 99
REMARK H PARENT 13 6 18 33 77 52 45 63
REMARK Flexibility Score: inf
ROOT
ATOM      1  C   UNL     1      -7.975   0.918   1.052  1.00  0.00     0.023 C 
ENDROOT
BRANCH   1   2
ATOM      2  C   UNL     1      -8.463   1.109  -0.393  1.00  0.00     0.116 C 
BRANCH   2   3
ATOM      3  N   UNL     1      -7.753   2.185  -1.065  1.00  0.00    -0.356 N 
ATOM      4  C   UNL     1      -6.636   2.195  -1.841  1.00  0.00     0.227 C 
ATOM      5  O   UNL     1      -6.188   3.308  -2.150  1.00  0.00    -0.274 OA
ATOM      6  H   UNL     1      -8.157   3.073  -0.934  1.00  0.00     0.163 HD
BRANCH   4   7
ATOM      7  C   UNL     1      -5.936   0.927  -2.354  1.00  0.00     0.105 C 
ATOM      8  C   UNL     1      -6.817   0.084  -3.275  1.00  0.00     0.023 C 
BRANCH   7   9
ATOM      9  C   UNL     1      -5.162   0.175  -1.281  1.00  0.00    -0.035 A 
ATOM     10  C   UNL     1      -3.069  -0.107  -0.011  1.00  0.00    -0.015 A 
ATOM     11  C   UNL     1      -3.815   0.502  -1.041  1.00  0.00     0.013 A 
ATOM     12  C   UNL     1      -3.742  -0.947   0.905  1.00  0.00    -0.039 A 
ATOM     13  C   UNL     1      -5.055  -1.341   0.611  1.00  0.00     0.004 A 
ATOM     14  C   UNL     1      -5.729  -0.834  -0.502  1.00  0.00     0.005 A 
BRANCH  10  15
ATOM     15  C   UNL     1      -1.601   0.027  -0.014  1.00  0.00    -0.018 A 
ATOM     16  C   UNL     1       2.722   0.194  -0.037  1.00  0.00     0.044 C 
ATOM     17  C   UNL     1       1.224   0.155  -0.051  1.00  0.00    -0.051 A 
ATOM     18  C   UNL     1       0.575  -1.072  -0.190  1.00  0.00     0.004 A 
ATOM     19  C   UNL     1       0.457   1.319   0.087  1.00  0.00     0.004 A 
ATOM     20  C   UNL     1      -0.817  -1.129  -0.188  1.00  0.00     0.009 A 
ATOM     21  C   UNL     1      -0.943   1.256   0.103  1.00  0.00     0.009 A 
ENDBRANCH  10  15
BRANCH  12  22
ATOM     22  C   UNL     1      -3.108  -1.448   2.190  1.00  0.00     0.047 C 
BRANCH  22  23
ATOM     23  C   UNL     1      -3.430  -0.675   3.476  1.00  0.00     0.060 C 
ATOM     24  C   UNL     1      -3.255   0.849   3.460  1.00  0.00     0.012 C 
ATOM     25  C   UNL     1      -4.868  -0.830   3.905  1.00  0.00     0.136 C 
ATOM     26  C   UNL     1      -4.654   1.432   3.298  1.00  0.00     0.009 C 
ATOM     27  C   UNL     1      -5.559   0.492   4.080  1.00  0.00     0.076 C 
ATOM     28  O   UNL     1      -5.397  -1.910   4.135  1.00  0.00    -0.299 OA
ENDBRANCH  22  23
ENDBRANCH  12  22
ENDBRANCH   7   9
ENDBRANCH   4   7
ENDBRANCH   2   3
ENDBRANCH   1   2
BRANCH   1  29
ATOM     29  C   UNL     1      -8.389   2.034   2.009  1.00  0.00     0.023 C 
BRANCH  29  30
ATOM     30  C   UNL     1      -9.858   1.984   2.381  1.00  0.00     0.116 C 
BRANCH  30  31
ATOM     31  N   UNL     1     -10.190   1.118   3.499  1.00  0.00    -0.352 N 
ATOM     32  C   UNL     1     -11.447   0.758   3.986  1.00  0.00     0.251 C 
ATOM     33  H   UNL     1      -9.422   0.733   3.980  1.00  0.00     0.163 HD
ATOM     34  O   UNL     1     -11.527   0.180   5.046  1.00  0.00    -0.269 OA
BRANCH  32  35
ATOM     35  C   UNL     1     -12.653   0.994   3.136  1.00  0.00     0.039 A 
ATOM     36  C   UNL     1     -13.589  -0.042   3.005  1.00  0.00     0.014 A 
ATOM     37  C   UNL     1     -12.750   2.114   2.318  1.00  0.00     0.014 A 
ATOM     38  C   UNL     1     -14.440  -0.070   1.897  1.00  0.00     0.010 A 
ATOM     39  C   UNL     1     -13.497   2.033   1.163  1.00  0.00     0.010 A 
ATOM     40  C   UNL     1     -14.298   0.912   0.922  1.00  0.00    -0.014 A 
BRANCH  40  41
ATOM     41  C   UNL     1     -14.836   0.839  -0.430  1.00  0.00     0.031 A 
ATOM     42  C   UNL     1     -15.961   1.700  -0.849  1.00  0.00     0.074 A 
ATOM     43  C   UNL     1     -14.124   0.169  -1.365  1.00  0.00     0.049 A 
ATOM     44  N   UNL     1     -16.634   1.527  -1.935  1.00  0.00    -0.248 NA
ATOM     45  C   UNL     1     -16.422   2.830  -0.054  1.00  0.00     0.031 C 
ATOM     46  C   UNL     1     -14.182   0.355  -2.811  1.00  0.00     0.029 A 
ATOM     47  N   UNL     1     -13.338  -0.976  -1.198  1.00  0.00    -0.354 N 
ATOM     48  C   UNL     1     -17.431   2.638  -2.116  1.00  0.00     0.074 A 
ATOM     49  C   UNL     1     -17.297   3.394  -0.892  1.00  0.00     0.031 C 
ATOM     50  C   UNL     1     -13.727  -0.756  -3.405  1.00  0.00     0.029 A 
ATOM     51  C   UNL     1     -13.515  -1.743  -2.363  1.00  0.00     0.049 A 
ATOM     52  H   UNL     1     -12.775  -1.199  -0.422  1.00  0.00     0.167 HD
ATOM     53  C   UNL     1     -18.010   2.854  -3.332  1.00  0.00     0.034 A 
ATOM     54  C   UNL     1     -13.990  -3.021  -2.373  1.00  0.00     0.034 A 
ATOM     55  C   UNL     1     -17.692   1.772  -4.271  1.00  0.00     0.049 A 
ATOM     56  C   UNL     1     -15.233  -3.199  -3.225  1.00  0.00     0.074 A 
ATOM     57  C   UNL     1     -16.739   1.631  -5.268  1.00  0.00     0.029 A 
ATOM     58  N   UNL     1     -18.246   0.516  -4.077  1.00  0.00    -0.354 N 
ATOM     59  N   UNL     1     -15.852  -2.232  -3.845  1.00  0.00    -0.248 NA
ATOM     60  C   UNL     1     -15.904  -4.483  -3.412  1.00  0.00     0.031 C 
ATOM     61  C   UNL     1     -16.682   0.259  -5.630  1.00  0.00     0.029 A 
ATOM     62  C   UNL     1     -17.614  -0.429  -4.870  1.00  0.00     0.049 A 
ATOM     63  H   UNL     1     -18.987   0.321  -3.459  1.00  0.00     0.167 HD
ATOM     64  C   UNL     1     -17.050  -2.688  -4.341  1.00  0.00     0.074 A 
ATOM     65  C   UNL     1     -16.978  -4.125  -4.138  1.00  0.00     0.031 C 
ATOM     66  C   UNL     1     -18.019  -1.830  -4.796  1.00  0.00     0.034 A 
BRANCH  53  67
ATOM     67  C   UNL     1     -18.628   4.168  -3.783  1.00  0.00     0.023 A 
ATOM     68  C   UNL     1     -18.684   4.419  -5.174  1.00  0.00     0.012 A 
ATOM     69  C   UNL     1     -19.112   5.202  -2.952  1.00  0.00     0.148 A 
ATOM     70  C   UNL     1     -19.080   5.653  -5.702  1.00  0.00     0.002 A 
ATOM     71  C   UNL     1     -19.426   6.462  -3.470  1.00  0.00     0.091 A 
ATOM     72  F   UNL     1     -19.370   4.952  -1.665  1.00  0.00    -0.205 F 
ATOM     73  C   UNL     1     -19.409   6.692  -4.848  1.00  0.00     0.022 A 
BRANCH  71  74
ATOM     74  S   UNL     1     -19.754   7.880  -2.408  1.00  0.00     0.127 S 
ATOM     75  O   UNL     1     -18.896   8.913  -2.995  1.00  0.00    -0.237 OA
ATOM     76  O   UNL     1     -21.185   8.099  -2.600  1.00  0.00    -0.237 OA
ATOM     77  O   UNL     1     -19.350   7.474  -1.066  1.00  0.00    -0.744 OA
ENDBRANCH  71  74
ENDBRANCH  53  67
BRANCH  54  78
ATOM     78  C   UNL     1     -13.653  -3.796  -1.147  1.00  0.00     0.023 A 
ATOM     79  C   UNL     1     -12.286  -4.093  -0.939  1.00  0.00     0.012 A 
ATOM     80  C   UNL     1     -14.541  -3.879  -0.061  1.00  0.00     0.148 A 
ATOM     81  C   UNL     1     -11.793  -4.349   0.341  1.00  0.00     0.002 A 
ATOM     82  C   UNL     1     -14.039  -4.126   1.217  1.00  0.00     0.091 A 
ATOM     83  F   UNL     1     -15.838  -3.624  -0.274  1.00  0.00    -0.205 F 
ATOM     84  C   UNL     1     -12.665  -4.331   1.423  1.00  0.00     0.022 A 
BRANCH  82  85
ATOM     85  S   UNL     1     -15.085  -4.033   2.678  1.00  0.00     0.127 S 
ATOM     86  O   UNL     1     -15.371  -5.442   2.923  1.00  0.00    -0.237 OA
ATOM     87  O   UNL     1     -14.197  -3.401   3.654  1.00  0.00    -0.237 OA
ATOM     88  O   UNL     1     -16.212  -3.204   2.276  1.00  0.00    -0.744 OA
ENDBRANCH  82  85
ENDBRANCH  54  78
BRANCH  66  89
ATOM     89  C   UNL     1     -19.454  -2.193  -5.167  1.00  0.00     0.023 A 
ATOM     90  C   UNL     1     -20.066  -3.396  -4.769  1.00  0.00     0.012 A 
ATOM     91  C   UNL     1     -20.297  -1.251  -5.822  1.00  0.00     0.148 A 
ATOM     92  C   UNL     1     -21.413  -3.675  -5.037  1.00  0.00     0.002 A 
ATOM     93  C   UNL     1     -21.662  -1.486  -5.984  1.00  0.00     0.091 A 
ATOM     94  F   UNL     1     -19.779  -0.119  -6.319  1.00  0.00    -0.205 F 
ATOM     95  C   UNL     1     -22.220  -2.709  -5.619  1.00  0.00     0.022 A 
BRANCH  93  96
ATOM     96  S   UNL     1     -22.763  -0.163  -6.511  1.00  0.00     0.127 S 
ATOM     97  O   UNL     1     -22.736  -0.302  -7.965  1.00  0.00    -0.237 OA
ATOM     98  O   UNL     1     -24.035  -0.538  -5.889  1.00  0.00    -0.237 OA
ATOM     99  O   UNL     1     -22.168   1.049  -5.963  1.00  0.00    -0.744 OA
ENDBRANCH  93  96
ENDBRANCH  66  89
ENDBRANCH  40  41
ENDBRANCH  32  35
ENDBRANCH  30  31
ENDBRANCH  29  30
ENDBRANCH   1  29
TORSDOF 18
