REMARK SMILES C[C@H](NC(=O)N(CC(=O)NCCCCNC(=O)c1ccc(-c2c3nc(c(-c4cccc(S(=O)(=O)[O-])c4F)c4ccc([nH]4)c(-c4cccc(S(=O)(=O)[O-])c4F)c4nc(c(-c5cccc(S(=O)(=O)[O-])c5F)c5ccc2[nH]5)C=C4)C=C3)cc1)CC(F)(F)F)[C@@H]1CCCO1
REMARK SMILES IDX 12 1 11 2 10 3 8 4 9 5 7 7 6 8 4 9 3 10 5 12 2 13 1 14 86 15
REMARK SMILES IDX 87 16 90 17 88 18 89 19 81 20 82 21 83 22 84 23 85 24 13 25
REMARK SMILES IDX 14 26 15 27 16 28 17 30 18 31 19 32 80 33 20 34 79 35 21 36
REMARK SMILES IDX 22 37 23 38 73 39 24 40 78 41 72 42 74 43 25 44 77 45 71 46
REMARK SMILES IDX 70 47 26 49 58 50 38 51 57 52 39 53 42 54 56 55 75 56 40 57
REMARK SMILES IDX 41 58 55 60 76 61 43 62 27 63 28 64 36 65 29 66 31 67 37 68
REMARK SMILES IDX 30 69 32 70 33 71 34 72 35 73 59 74 60 75 68 76 61 77 63 78
REMARK SMILES IDX 69 79 62 80 64 81 65 82 66 83 67 84 44 85 45 86 53 87 46 88
REMARK SMILES IDX 48 89 54 90 47 91 49 92 50 93 51 94 52 95
REMARK H PARENT 10 6 3 11 15 29 74 48 42 59
REMARK Flexibility Score: inf
ROOT
ATOM      1  C   UNL     1       4.045   2.611   0.746  1.00  0.00     0.023 C 
ENDROOT
BRANCH   1   2
ATOM      2  C   UNL     1       3.306   2.683  -0.585  1.00  0.00     0.116 C 
BRANCH   2   3
ATOM      3  N   UNL     1       4.218   2.552  -1.706  1.00  0.00    -0.355 N 
ATOM      4  C   UNL     1       4.366   1.511  -2.574  1.00  0.00     0.239 C 
ATOM      5  O   UNL     1       5.254   1.546  -3.425  1.00  0.00    -0.273 OA
ATOM      6  H   UNL     1       4.813   3.321  -1.860  1.00  0.00     0.163 HD
BRANCH   4   7
ATOM      7  C   UNL     1       3.344   0.379  -2.559  1.00  0.00     0.221 C 
BRANCH   7   8
ATOM      8  N   UNL     1       3.310  -0.535  -1.420  1.00  0.00    -0.306 N 
BRANCH   8   9
ATOM      9  C   UNL     1       2.259  -0.824  -0.603  1.00  0.00     0.318 C 
ATOM     10  N   UNL     1       0.990  -0.441  -0.825  1.00  0.00    -0.333 N 
ATOM     11  H   UNL     1       0.396  -0.789  -0.121  1.00  0.00     0.165 HD
ATOM     12  O   UNL     1       2.414  -1.524   0.404  1.00  0.00    -0.249 OA
BRANCH  10  13
ATOM     13  C   UNL     1       0.220   0.347  -1.809  1.00  0.00     0.109 C 
ATOM     14  C   UNL     1       0.287  -0.246  -3.228  1.00  0.00     0.034 C 
BRANCH  13  15
ATOM     15  C   UNL     1      -1.245   0.564  -1.317  1.00  0.00     0.140 C 
ATOM     16  C   UNL     1      -2.222  -0.575  -1.601  1.00  0.00     0.036 C 
ATOM     17  O   UNL     1      -1.777   1.754  -1.929  1.00  0.00    -0.376 OA
ATOM     18  C   UNL     1      -3.363   0.070  -2.357  1.00  0.00     0.031 C 
ATOM     19  C   UNL     1      -2.804   1.385  -2.846  1.00  0.00     0.160 C 
ENDBRANCH  13  15
ENDBRANCH  10  13
ENDBRANCH   8   9
BRANCH   8  20
ATOM     20  C   UNL     1       4.558  -1.307  -1.182  1.00  0.00     0.237 C 
BRANCH  20  21
ATOM     21  C   UNL     1       5.560  -0.765  -0.157  1.00  0.00     0.406 C 
ATOM     22  F   UNL     1       5.025  -0.599   1.069  1.00  0.00    -0.169 F 
ATOM     23  F   UNL     1       6.597  -1.629  -0.027  1.00  0.00    -0.169 F 
ATOM     24  F   UNL     1       6.080   0.417  -0.551  1.00  0.00    -0.169 F 
ENDBRANCH  20  21
ENDBRANCH   8  20
ENDBRANCH   7   8
ENDBRANCH   4   7
ENDBRANCH   2   3
ENDBRANCH   1   2
BRANCH   1  25
ATOM     25  C   UNL     1       5.048   3.743   0.961  1.00  0.00     0.023 C 
BRANCH  25  26
ATOM     26  C   UNL     1       4.425   5.131   0.948  1.00  0.00     0.116 C 
BRANCH  26  27
ATOM     27  N   UNL     1       3.442   5.302   2.009  1.00  0.00    -0.352 N 
ATOM     28  C   UNL     1       3.323   6.343   2.900  1.00  0.00     0.251 C 
ATOM     29  H   UNL     1       2.778   4.581   2.099  1.00  0.00     0.163 HD
ATOM     30  O   UNL     1       2.559   6.271   3.849  1.00  0.00    -0.269 OA
BRANCH  28  31
ATOM     31  C   UNL     1       4.162   7.541   2.695  1.00  0.00     0.039 A 
ATOM     32  C   UNL     1       4.939   8.014   3.752  1.00  0.00     0.014 A 
ATOM     33  C   UNL     1       4.223   8.142   1.435  1.00  0.00     0.014 A 
ATOM     34  C   UNL     1       5.833   9.061   3.526  1.00  0.00     0.010 A 
ATOM     35  C   UNL     1       5.169   9.130   1.195  1.00  0.00     0.010 A 
ATOM     36  C   UNL     1       5.980   9.602   2.238  1.00  0.00    -0.014 A 
BRANCH  36  37
ATOM     37  C   UNL     1       7.000  10.639   1.951  1.00  0.00     0.031 A 
ATOM     38  C   UNL     1       6.584  11.999   1.466  1.00  0.00     0.074 A 
ATOM     39  C   UNL     1       8.306  10.315   2.015  1.00  0.00     0.049 A 
ATOM     40  N   UNL     1       7.332  13.012   1.116  1.00  0.00    -0.248 NA
ATOM     41  C   UNL     1       5.139  12.241   1.322  1.00  0.00     0.031 C 
ATOM     42  C   UNL     1       8.832   8.993   2.360  1.00  0.00     0.029 A 
ATOM     43  N   UNL     1       9.428  11.062   1.754  1.00  0.00    -0.354 N 
ATOM     44  C   UNL     1       6.456  13.992   0.669  1.00  0.00     0.074 A 
ATOM     45  C   UNL     1       5.122  13.440   0.760  1.00  0.00     0.031 C 
ATOM     46  C   UNL     1      10.172   9.020   2.283  1.00  0.00     0.029 A 
ATOM     47  C   UNL     1      10.599  10.350   1.861  1.00  0.00     0.049 A 
ATOM     48  H   UNL     1       9.396  12.016   1.513  1.00  0.00     0.167 HD
ATOM     49  C   UNL     1       6.733  15.249   0.249  1.00  0.00     0.034 A 
ATOM     50  C   UNL     1      11.874  10.722   1.634  1.00  0.00     0.034 A 
ATOM     51  C   UNL     1       8.058  15.807   0.207  1.00  0.00     0.049 A 
ATOM     52  C   UNL     1      12.162  12.143   1.239  1.00  0.00     0.074 A 
ATOM     53  C   UNL     1       8.435  17.109  -0.066  1.00  0.00     0.029 A 
ATOM     54  N   UNL     1       9.224  15.090   0.428  1.00  0.00    -0.354 N 
ATOM     55  N   UNL     1      11.319  13.124   1.024  1.00  0.00    -0.248 NA
ATOM     56  C   UNL     1      13.574  12.520   1.092  1.00  0.00     0.031 C 
ATOM     57  C   UNL     1       9.833  17.172  -0.041  1.00  0.00     0.029 A 
ATOM     58  C   UNL     1      10.325  15.914   0.272  1.00  0.00     0.049 A 
ATOM     59  H   UNL     1       9.263  14.134   0.661  1.00  0.00     0.167 HD
ATOM     60  C   UNL     1      12.095  14.239   0.733  1.00  0.00     0.074 A 
ATOM     61  C   UNL     1      13.479  13.818   0.829  1.00  0.00     0.031 C 
ATOM     62  C   UNL     1      11.698  15.492   0.399  1.00  0.00     0.034 A 
BRANCH  49  63
ATOM     63  C   UNL     1       5.570  16.119  -0.152  1.00  0.00     0.023 A 
ATOM     64  C   UNL     1       4.674  16.584   0.833  1.00  0.00     0.012 A 
ATOM     65  C   UNL     1       5.377  16.500  -1.494  1.00  0.00     0.148 A 
ATOM     66  C   UNL     1       3.579  17.373   0.484  1.00  0.00     0.002 A 
ATOM     67  C   UNL     1       4.309  17.326  -1.827  1.00  0.00     0.091 A 
ATOM     68  F   UNL     1       6.222  16.029  -2.423  1.00  0.00    -0.205 F 
ATOM     69  C   UNL     1       3.402  17.751  -0.843  1.00  0.00     0.022 A 
BRANCH  67  70
ATOM     70  S   UNL     1       4.047  17.928  -3.499  1.00  0.00     0.127 S 
ATOM     71  O   UNL     1       2.949  17.076  -3.952  1.00  0.00    -0.237 OA
ATOM     72  O   UNL     1       3.677  19.326  -3.272  1.00  0.00    -0.237 OA
ATOM     73  O   UNL     1       5.315  17.745  -4.190  1.00  0.00    -0.744 OA
ENDBRANCH  67  70
ENDBRANCH  49  63
BRANCH  50  74
ATOM     74  C   UNL     1      12.968   9.733   1.841  1.00  0.00     0.023 A 
ATOM     75  C   UNL     1      13.802   9.848   2.969  1.00  0.00     0.012 A 
ATOM     76  C   UNL     1      13.129   8.635   0.973  1.00  0.00     0.148 A 
ATOM     77  C   UNL     1      14.789   8.894   3.221  1.00  0.00     0.002 A 
ATOM     78  C   UNL     1      14.077   7.660   1.260  1.00  0.00     0.091 A 
ATOM     79  F   UNL     1      12.327   8.551  -0.097  1.00  0.00    -0.205 F 
ATOM     80  C   UNL     1      14.918   7.795   2.376  1.00  0.00     0.022 A 
BRANCH  78  81
ATOM     81  S   UNL     1      14.220   6.142   0.311  1.00  0.00     0.127 S 
ATOM     82  O   UNL     1      15.531   6.303  -0.314  1.00  0.00    -0.237 OA
ATOM     83  O   UNL     1      14.158   5.126   1.362  1.00  0.00    -0.237 OA
ATOM     84  O   UNL     1      13.084   6.137  -0.600  1.00  0.00    -0.744 OA
ENDBRANCH  78  81
ENDBRANCH  50  74
BRANCH  62  85
ATOM     85  C   UNL     1      12.771  16.509   0.109  1.00  0.00     0.023 A 
ATOM     86  C   UNL     1      13.504  16.422  -1.092  1.00  0.00     0.012 A 
ATOM     87  C   UNL     1      13.000  17.590   0.982  1.00  0.00     0.148 A 
ATOM     88  C   UNL     1      14.468  17.379  -1.405  1.00  0.00     0.002 A 
ATOM     89  C   UNL     1      13.930  18.566   0.641  1.00  0.00     0.091 A 
ATOM     90  F   UNL     1      12.306  17.645   2.128  1.00  0.00    -0.205 F 
ATOM     91  C   UNL     1      14.672  18.456  -0.546  1.00  0.00     0.022 A 
BRANCH  89  92
ATOM     92  S   UNL     1      14.192  20.037   1.639  1.00  0.00     0.127 S 
ATOM     93  O   UNL     1      15.497  19.763   2.237  1.00  0.00    -0.237 OA
ATOM     94  O   UNL     1      14.192  21.099   0.633  1.00  0.00    -0.237 OA
ATOM     95  O   UNL     1      13.075  20.092   2.573  1.00  0.00    -0.744 OA
ENDBRANCH  89  92
ENDBRANCH  62  85
ENDBRANCH  36  37
ENDBRANCH  28  31
ENDBRANCH  26  27
ENDBRANCH  25  26
ENDBRANCH   1  25
TORSDOF 20
