REMARK SMILES CCNC(=O)NC(=O)[C@@H](C)[NH2+][C@](C)(CC)C(=O)NCCCCNC(=O)c1ccc(-c2c3nc(c(-c4cccc(S(=O)(=O)[O-])c4F)c4ccc([nH]4)c(-c4cccc(S(=O)(=O)[O-])c4F)c4nc(c(-c5cccc(S(=O)(=O)[O-])c5F)c5ccc2[nH]5)C=C4)C=C3)cc1
REMARK SMILES IDX 20 1 19 2 18 3 16 4 17 5 12 7 13 8 11 9 9 12 10 13 7 14 3 15
REMARK SMILES IDX 4 16 5 18 6 19 8 21 2 22 1 23 14 24 15 25 21 26 22 27 23 28
REMARK SMILES IDX 24 29 25 31 26 32 27 33 88 34 28 35 87 36 29 37 30 38 31 39
REMARK SMILES IDX 81 40 32 41 86 42 80 43 82 44 33 45 85 46 79 47 78 48 34 50
REMARK SMILES IDX 66 51 46 52 65 53 47 54 50 55 64 56 83 57 48 58 49 59 63 61
REMARK SMILES IDX 84 62 51 63 35 64 36 65 44 66 37 67 39 68 45 69 38 70 40 71
REMARK SMILES IDX 41 72 42 73 43 74 67 75 68 76 76 77 69 78 71 79 77 80 70 81
REMARK SMILES IDX 72 82 73 83 74 84 75 85 52 86 53 87 61 88 54 89 56 90 62 91
REMARK SMILES IDX 55 92 57 93 58 94 59 95 60 96
REMARK H PARENT 18 6 11 10 11 11 3 17 6 20 23 30 82 49 50 60
REMARK Flexibility Score: inf
ROOT
ATOM      1  C   UNL     1       3.038  -5.855   0.189  1.00  0.00     0.023 C 
ENDROOT
BRANCH   1   2
ATOM      2  C   UNL     1       2.480  -4.432   0.154  1.00  0.00     0.116 C 
BRANCH   2   3
ATOM      3  N   UNL     1       1.057  -4.388   0.434  1.00  0.00    -0.351 N 
ATOM      4  C   UNL     1       0.281  -3.404   0.980  1.00  0.00     0.281 C 
ATOM      5  O   UNL     1      -0.942  -3.575   0.910  1.00  0.00    -0.268 OA
ATOM      6  H   UNL     1       0.567  -5.205   0.189  1.00  0.00     0.163 HD
BRANCH   4   7
ATOM      7  C   UNL     1       0.887  -2.118   1.650  1.00  0.00     0.173 C 
ATOM      8  C   UNL     1      -0.281  -1.314   2.280  1.00  0.00     0.090 C 
BRANCH   7   9
ATOM      9  N   UNL     1       1.669  -1.389   0.598  1.00  0.00    -0.324 N 
ATOM     10  H   UNL     1       2.614  -1.272   0.963  1.00  0.00     0.347 HD
ATOM     11  H   UNL     1       1.554  -1.977  -0.228  1.00  0.00     0.347 HD
BRANCH   9  12
ATOM     12  C   UNL     1       1.224  -0.063   0.133  1.00  0.00     0.270 C 
ATOM     13  C   UNL     1      -0.168   0.130  -0.473  1.00  0.00     0.086 C 
BRANCH  12  14
ATOM     14  C   UNL     1       2.261   0.555  -0.821  1.00  0.00     0.285 C 
ATOM     15  N   UNL     1       2.015  -2.138  -2.829  1.00  0.00    -0.338 N 
ATOM     16  C   UNL     1       2.976  -1.232  -2.636  1.00  0.00     0.321 C 
ATOM     17  H   UNL     1       2.313  -2.942  -3.312  1.00  0.00     0.165 HD
ATOM     18  O   UNL     1       4.063  -1.427  -3.189  1.00  0.00    -0.248 OA
ATOM     19  N   UNL     1       2.844  -0.079  -1.909  1.00  0.00    -0.273 N 
ATOM     20  H   UNL     1       3.410   0.594  -2.352  1.00  0.00     0.175 HD
ATOM     21  O   UNL     1       2.639   1.720  -0.613  1.00  0.00    -0.268 OA
BRANCH  15  22
ATOM     22  C   UNL     1       0.625  -2.157  -2.463  1.00  0.00     0.114 C 
ATOM     23  C   UNL     1      -0.160  -3.277  -3.116  1.00  0.00     0.027 C 
ENDBRANCH  15  22
ENDBRANCH  12  14
ENDBRANCH   9  12
ENDBRANCH   7   9
BRANCH   7  24
ATOM     24  C   UNL     1       1.838  -2.485   2.836  1.00  0.00     0.075 C 
ATOM     25  C   UNL     1       1.315  -3.561   3.786  1.00  0.00     0.011 C 
ENDBRANCH   7  24
ENDBRANCH   4   7
ENDBRANCH   2   3
ENDBRANCH   1   2
BRANCH   1  26
ATOM     26  C   UNL     1       2.550  -6.769  -0.937  1.00  0.00     0.023 C 
BRANCH  26  27
ATOM     27  C   UNL     1       2.848  -6.275  -2.349  1.00  0.00     0.116 C 
BRANCH  27  28
ATOM     28  N   UNL     1       4.275  -6.191  -2.630  1.00  0.00    -0.352 N 
ATOM     29  C   UNL     1       5.010  -6.847  -3.589  1.00  0.00     0.251 C 
ATOM     30  H   UNL     1       4.784  -5.578  -2.052  1.00  0.00     0.163 HD
ATOM     31  O   UNL     1       6.237  -6.789  -3.576  1.00  0.00    -0.269 OA
BRANCH  29  32
ATOM     32  C   UNL     1       4.317  -7.647  -4.622  1.00  0.00     0.039 A 
ATOM     33  C   UNL     1       4.733  -8.960  -4.861  1.00  0.00     0.014 A 
ATOM     34  C   UNL     1       3.242  -7.107  -5.332  1.00  0.00     0.014 A 
ATOM     35  C   UNL     1       4.015  -9.760  -5.755  1.00  0.00     0.010 A 
ATOM     36  C   UNL     1       2.490  -7.926  -6.170  1.00  0.00     0.010 A 
ATOM     37  C   UNL     1       2.863  -9.262  -6.386  1.00  0.00    -0.014 A 
BRANCH  37  38
ATOM     38  C   UNL     1       2.012 -10.114  -7.259  1.00  0.00     0.031 A 
ATOM     39  C   UNL     1       1.826  -9.750  -8.708  1.00  0.00     0.074 A 
ATOM     40  C   UNL     1       1.304 -11.128  -6.721  1.00  0.00     0.049 A 
ATOM     41  N   UNL     1       1.009 -10.266  -9.588  1.00  0.00    -0.248 NA
ATOM     42  C   UNL     1       2.643  -8.639  -9.227  1.00  0.00     0.031 C 
ATOM     43  C   UNL     1       1.341 -11.538  -5.315  1.00  0.00     0.029 A 
ATOM     44  N   UNL     1       0.377 -11.971  -7.285  1.00  0.00    -0.354 N 
ATOM     45  C   UNL     1       1.168  -9.510 -10.743  1.00  0.00     0.074 A 
ATOM     46  C   UNL     1       2.155  -8.493 -10.452  1.00  0.00     0.031 C 
ATOM     47  C   UNL     1       0.467 -12.540  -5.124  1.00  0.00     0.029 A 
ATOM     48  C   UNL     1      -0.219 -12.822  -6.381  1.00  0.00     0.049 A 
ATOM     49  H   UNL     1       0.159 -11.967  -8.245  1.00  0.00     0.167 HD
ATOM     50  C   UNL     1       0.562  -9.661 -11.944  1.00  0.00     0.034 A 
ATOM     51  C   UNL     1      -1.218 -13.714  -6.540  1.00  0.00     0.034 A 
ATOM     52  C   UNL     1      -0.361 -10.717 -12.254  1.00  0.00     0.049 A 
ATOM     53  C   UNL     1      -1.827 -13.896  -7.906  1.00  0.00     0.074 A 
ATOM     54  C   UNL     1      -0.937 -11.020 -13.476  1.00  0.00     0.029 A 
ATOM     55  N   UNL     1      -0.845 -11.639 -11.342  1.00  0.00    -0.354 N 
ATOM     56  N   UNL     1      -1.536 -13.284  -9.027  1.00  0.00    -0.248 NA
ATOM     57  C   UNL     1      -2.879 -14.917  -8.037  1.00  0.00     0.031 C 
ATOM     58  C   UNL     1      -1.785 -12.117 -13.298  1.00  0.00     0.029 A 
ATOM     59  C   UNL     1      -1.719 -12.508 -11.971  1.00  0.00     0.049 A 
ATOM     60  H   UNL     1      -0.604 -11.672 -10.388  1.00  0.00     0.167 HD
ATOM     61  C   UNL     1      -2.331 -13.877 -10.002  1.00  0.00     0.074 A 
ATOM     62  C   UNL     1      -3.107 -14.905  -9.344  1.00  0.00     0.031 C 
ATOM     63  C   UNL     1      -2.421 -13.584 -11.322  1.00  0.00     0.034 A 
BRANCH  50  64
ATOM     64  C   UNL     1       0.912  -8.697 -13.046  1.00  0.00     0.023 A 
ATOM     65  C   UNL     1       2.155  -8.810 -13.699  1.00  0.00     0.012 A 
ATOM     66  C   UNL     1      -0.031  -7.757 -13.505  1.00  0.00     0.148 A 
ATOM     67  C   UNL     1       2.463  -7.988 -14.782  1.00  0.00     0.002 A 
ATOM     68  C   UNL     1       0.267  -6.970 -14.611  1.00  0.00     0.091 A 
ATOM     69  F   UNL     1      -1.200  -7.656 -12.857  1.00  0.00    -0.205 F 
ATOM     70  C   UNL     1       1.516  -7.079 -15.245  1.00  0.00     0.022 A 
BRANCH  68  71
ATOM     71  S   UNL     1      -0.914  -5.828 -15.337  1.00  0.00     0.127 S 
ATOM     72  O   UNL     1      -0.291  -4.537 -15.047  1.00  0.00    -0.237 OA
ATOM     73  O   UNL     1      -0.887  -6.214 -16.748  1.00  0.00    -0.237 OA
ATOM     74  O   UNL     1      -2.181  -6.072 -14.662  1.00  0.00    -0.744 OA
ENDBRANCH  68  71
ENDBRANCH  50  64
BRANCH  51  75
ATOM     75  C   UNL     1      -1.678 -14.546  -5.392  1.00  0.00     0.023 A 
ATOM     76  C   UNL     1      -1.419 -15.931  -5.397  1.00  0.00     0.012 A 
ATOM     77  C   UNL     1      -2.374 -13.985  -4.304  1.00  0.00     0.148 A 
ATOM     78  C   UNL     1      -1.882 -16.748  -4.365  1.00  0.00     0.002 A 
ATOM     79  C   UNL     1      -2.784 -14.796  -3.251  1.00  0.00     0.091 A 
ATOM     80  F   UNL     1      -2.629 -12.669  -4.320  1.00  0.00    -0.205 F 
ATOM     81  C   UNL     1      -2.557 -16.180  -3.288  1.00  0.00     0.022 A 
BRANCH  79  82
ATOM     82  S   UNL     1      -3.541 -14.118  -1.770  1.00  0.00     0.127 S 
ATOM     83  O   UNL     1      -4.956 -14.395  -2.001  1.00  0.00    -0.237 OA
ATOM     84  O   UNL     1      -2.922 -14.918  -0.712  1.00  0.00    -0.237 OA
ATOM     85  O   UNL     1      -3.156 -12.713  -1.753  1.00  0.00    -0.744 OA
ENDBRANCH  79  82
ENDBRANCH  51  75
BRANCH  63  86
ATOM     86  C   UNL     1      -3.338 -14.420 -12.174  1.00  0.00     0.023 A 
ATOM     87  C   UNL     1      -4.731 -14.238 -12.092  1.00  0.00     0.012 A 
ATOM     88  C   UNL     1      -2.808 -15.305 -13.134  1.00  0.00     0.148 A 
ATOM     89  C   UNL     1      -5.587 -14.941 -12.940  1.00  0.00     0.002 A 
ATOM     90  C   UNL     1      -3.663 -15.966 -14.007  1.00  0.00     0.091 A 
ATOM     91  F   UNL     1      -1.479 -15.475 -13.182  1.00  0.00    -0.205 F 
ATOM     92  C   UNL     1      -5.053 -15.792 -13.905  1.00  0.00     0.022 A 
BRANCH  90  93
ATOM     93  S   UNL     1      -3.060 -17.001 -15.346  1.00  0.00     0.127 S 
ATOM     94  O   UNL     1      -3.413 -18.338 -14.870  1.00  0.00    -0.237 OA
ATOM     95  O   UNL     1      -3.850 -16.530 -16.483  1.00  0.00    -0.237 OA
ATOM     96  O   UNL     1      -1.632 -16.733 -15.450  1.00  0.00    -0.744 OA
ENDBRANCH  90  93
ENDBRANCH  63  86
ENDBRANCH  37  38
ENDBRANCH  29  32
ENDBRANCH  27  28
ENDBRANCH  26  27
ENDBRANCH   1  26
TORSDOF 19
