REMARK SMILES O=C(NCCCCNC(=O)c1cccc([C@@H]2CCC[N@@H+](Cc3ccc(C[NH+]4CCCC4)s3)C2)c1)c1ccc(-c2c3nc(c(-c4cccc(S(=O)(=O)[O-])c4F)c4ccc([nH]4)c(-c4cccc(S(=O)(=O)[O-])c4F)c4nc(c(-c5cccc(S(=O)(=O)[O-])c5F)c5ccc2[nH]5)C=C4)C=C3)cc1
REMARK SMILES IDX 6 1 5 2 4 3 3 4 1 5 2 6 35 8 36 9 97 10 37 11 96 12 38 13
REMARK SMILES IDX 39 14 40 15 90 16 41 17 95 18 89 19 91 20 42 21 94 22 88 23
REMARK SMILES IDX 87 24 43 26 75 27 55 28 74 29 56 30 59 31 73 32 92 33 57 34
REMARK SMILES IDX 58 35 72 37 93 38 60 39 44 40 45 41 53 42 46 43 48 44 54 45
REMARK SMILES IDX 47 46 49 47 50 48 51 49 52 50 76 51 77 52 85 53 78 54 80 55
REMARK SMILES IDX 86 56 79 57 81 58 82 59 83 60 84 61 61 62 62 63 70 64 63 65
REMARK SMILES IDX 65 66 71 67 64 68 66 69 67 70 68 71 69 72 7 73 8 74 9 75
REMARK SMILES IDX 10 77 11 78 12 79 34 80 13 81 15 82 14 83 16 84 17 85 33 86
REMARK SMILES IDX 18 87 20 88 19 89 21 91 22 92 23 93 32 94 24 95 25 96 26 97
REMARK SMILES IDX 27 98 28 99 31 100 29 102 30 103
REMARK H PARENT 3 7 91 25 59 36 8 76 20 90 27 101
REMARK Flexibility Score: inf
ROOT
ATOM      1  C   UNL     1       4.431  -3.766  -0.127  1.00  0.00     0.023 C 
ENDROOT
BRANCH   1   2
ATOM      2  C   UNL     1       4.849  -2.430   0.475  1.00  0.00     0.023 C 
BRANCH   2   3
ATOM      3  C   UNL     1       4.490  -1.209  -0.362  1.00  0.00     0.116 C 
BRANCH   3   4
ATOM      4  N   UNL     1       3.053  -1.009  -0.503  1.00  0.00    -0.352 N 
ATOM      5  O   UNL     1       1.046  -0.031  -0.183  1.00  0.00    -0.269 OA
ATOM      6  C   UNL     1       2.267   0.044  -0.088  1.00  0.00     0.251 C 
ATOM      7  H   UNL     1       2.572  -1.735  -0.963  1.00  0.00     0.163 HD
BRANCH   6   8
ATOM      8  C   UNL     1       2.903   1.238   0.512  1.00  0.00     0.039 A 
ATOM      9  C   UNL     1       4.040   1.799  -0.070  1.00  0.00     0.014 A 
ATOM     10  C   UNL     1       2.389   1.772   1.696  1.00  0.00     0.014 A 
ATOM     11  C   UNL     1       4.782   2.737   0.637  1.00  0.00     0.010 A 
ATOM     12  C   UNL     1       3.077   2.801   2.348  1.00  0.00     0.010 A 
ATOM     13  C   UNL     1       4.312   3.252   1.856  1.00  0.00    -0.014 A 
BRANCH  13  14
ATOM     14  C   UNL     1       5.119   4.276   2.572  1.00  0.00     0.031 A 
ATOM     15  C   UNL     1       5.653   4.028   3.960  1.00  0.00     0.074 A 
ATOM     16  C   UNL     1       5.392   5.440   1.949  1.00  0.00     0.049 A 
ATOM     17  N   UNL     1       6.409   4.799   4.700  1.00  0.00    -0.248 NA
ATOM     18  C   UNL     1       5.285   2.758   4.607  1.00  0.00     0.031 C 
ATOM     19  C   UNL     1       4.908   5.814   0.617  1.00  0.00     0.029 A 
ATOM     20  N   UNL     1       6.143   6.518   2.342  1.00  0.00    -0.354 N 
ATOM     21  C   UNL     1       6.565   4.137   5.913  1.00  0.00     0.074 A 
ATOM     22  C   UNL     1       5.819   2.901   5.813  1.00  0.00     0.031 C 
ATOM     23  C   UNL     1       5.406   7.014   0.287  1.00  0.00     0.029 A 
ATOM     24  C   UNL     1       6.190   7.524   1.406  1.00  0.00     0.049 A 
ATOM     25  H   UNL     1       6.604   6.566   3.210  1.00  0.00     0.167 HD
ATOM     26  C   UNL     1       7.271   4.519   7.007  1.00  0.00     0.034 A 
ATOM     27  C   UNL     1       6.782   8.732   1.443  1.00  0.00     0.034 A 
ATOM     28  C   UNL     1       8.037   5.735   7.090  1.00  0.00     0.049 A 
ATOM     29  C   UNL     1       7.568   9.120   2.662  1.00  0.00     0.074 A 
ATOM     30  C   UNL     1       8.845   6.174   8.126  1.00  0.00     0.029 A 
ATOM     31  N   UNL     1       8.081   6.715   6.111  1.00  0.00    -0.354 N 
ATOM     32  N   UNL     1       7.802   8.426   3.749  1.00  0.00    -0.248 NA
ATOM     33  C   UNL     1       8.197  10.447   2.647  1.00  0.00     0.031 C 
ATOM     34  C   UNL     1       9.340   7.439   7.791  1.00  0.00     0.029 A 
ATOM     35  C   UNL     1       8.885   7.765   6.524  1.00  0.00     0.049 A 
ATOM     36  H   UNL     1       7.609   6.672   5.247  1.00  0.00     0.167 HD
ATOM     37  C   UNL     1       8.643   9.212   4.527  1.00  0.00     0.074 A 
ATOM     38  C   UNL     1       8.887  10.429   3.779  1.00  0.00     0.031 C 
ATOM     39  C   UNL     1       9.161   8.951   5.752  1.00  0.00     0.034 A 
BRANCH  26  40
ATOM     40  C   UNL     1       7.255   3.607   8.211  1.00  0.00     0.023 A 
ATOM     41  C   UNL     1       7.927   2.369   8.171  1.00  0.00     0.012 A 
ATOM     42  C   UNL     1       6.619   4.007   9.404  1.00  0.00     0.148 A 
ATOM     43  C   UNL     1       7.930   1.525   9.283  1.00  0.00     0.002 A 
ATOM     44  C   UNL     1       6.668   3.183  10.523  1.00  0.00     0.091 A 
ATOM     45  F   UNL     1       5.970   5.180   9.422  1.00  0.00    -0.205 F 
ATOM     46  C   UNL     1       7.310   1.936  10.460  1.00  0.00     0.022 A 
BRANCH  44  47
ATOM     47  S   UNL     1       5.974   3.662  12.110  1.00  0.00     0.127 S 
ATOM     48  O   UNL     1       4.809   2.784  12.199  1.00  0.00    -0.237 OA
ATOM     49  O   UNL     1       7.059   3.329  13.034  1.00  0.00    -0.237 OA
ATOM     50  O   UNL     1       5.681   5.084  12.007  1.00  0.00    -0.744 OA
ENDBRANCH  44  47
ENDBRANCH  26  40
BRANCH  27  51
ATOM     51  C   UNL     1       6.693   9.638   0.265  1.00  0.00     0.023 A 
ATOM     52  C   UNL     1       7.849   9.900  -0.496  1.00  0.00     0.012 A 
ATOM     53  C   UNL     1       5.468  10.213  -0.124  1.00  0.00     0.148 A 
ATOM     54  C   UNL     1       7.792  10.744  -1.605  1.00  0.00     0.002 A 
ATOM     55  C   UNL     1       5.407  11.004  -1.263  1.00  0.00     0.091 A 
ATOM     56  F   UNL     1       4.382   9.953   0.618  1.00  0.00    -0.205 F 
ATOM     57  C   UNL     1       6.571  11.288  -1.994  1.00  0.00     0.022 A 
BRANCH  55  58
ATOM     58  S   UNL     1       3.858  11.638  -1.916  1.00  0.00     0.127 S 
ATOM     59  O   UNL     1       4.013  13.075  -1.708  1.00  0.00    -0.237 OA
ATOM     60  O   UNL     1       3.923  11.206  -3.312  1.00  0.00    -0.237 OA
ATOM     61  O   UNL     1       2.809  10.998  -1.135  1.00  0.00    -0.744 OA
ENDBRANCH  55  58
ENDBRANCH  27  51
BRANCH  39  62
ATOM     62  C   UNL     1      10.102   9.971   6.341  1.00  0.00     0.023 A 
ATOM     63  C   UNL     1       9.617  11.218   6.781  1.00  0.00     0.012 A 
ATOM     64  C   UNL     1      11.468   9.665   6.503  1.00  0.00     0.148 A 
ATOM     65  C   UNL     1      10.484  12.161   7.333  1.00  0.00     0.002 A 
ATOM     66  C   UNL     1      12.315  10.586   7.105  1.00  0.00     0.091 A 
ATOM     67  F   UNL     1      11.916   8.481   6.059  1.00  0.00    -0.205 F 
ATOM     68  C   UNL     1      11.829  11.841   7.505  1.00  0.00     0.022 A 
BRANCH  66  69
ATOM     69  S   UNL     1      14.036  10.217   7.461  1.00  0.00     0.127 S 
ATOM     70  O   UNL     1      14.728  11.034   6.465  1.00  0.00    -0.237 OA
ATOM     71  O   UNL     1      14.176  10.688   8.839  1.00  0.00    -0.237 OA
ATOM     72  O   UNL     1      14.180   8.777   7.298  1.00  0.00    -0.744 OA
ENDBRANCH  66  69
ENDBRANCH  39  62
ENDBRANCH  13  14
ENDBRANCH   6   8
ENDBRANCH   3   4
ENDBRANCH   2   3
ENDBRANCH   1   2
BRANCH   1  73
ATOM     73  C   UNL     1       4.997  -4.049  -1.513  1.00  0.00     0.116 C 
BRANCH  73  74
ATOM     74  N   UNL     1       6.449  -4.180  -1.520  1.00  0.00    -0.352 N 
ATOM     75  C   UNL     1       7.221  -5.197  -2.038  1.00  0.00     0.251 C 
ATOM     76  H   UNL     1       6.944  -3.442  -1.097  1.00  0.00     0.163 HD
ATOM     77  O   UNL     1       8.428  -5.232  -1.838  1.00  0.00    -0.269 OA
BRANCH  75  78
ATOM     78  C   UNL     1       6.580  -6.255  -2.849  1.00  0.00     0.040 A 
ATOM     79  C   UNL     1       6.848  -7.597  -2.604  1.00  0.00     0.014 A 
ATOM     80  C   UNL     1       5.693  -5.896  -3.865  1.00  0.00     0.018 A 
ATOM     81  C   UNL     1       6.164  -8.571  -3.333  1.00  0.00     0.001 A 
ATOM     82  C   UNL     1       4.971  -6.851  -4.585  1.00  0.00    -0.039 A 
ATOM     83  C   UNL     1       5.220  -8.202  -4.302  1.00  0.00     0.004 A 
BRANCH  82  84
ATOM     84  C   UNL     1       3.895  -6.443  -5.583  1.00  0.00     0.074 C 
ATOM     85  C   UNL     1       4.417  -5.634  -6.783  1.00  0.00     0.020 C 
ATOM     86  C   UNL     1       2.724  -5.687  -4.914  1.00  0.00     0.270 C 
ATOM     87  C   UNL     1       4.679  -4.162  -6.469  1.00  0.00     0.062 C 
ATOM     88  N   UNL     1       3.066  -4.308  -4.545  1.00  0.00    -0.330 N 
ATOM     89  C   UNL     1       3.531  -3.515  -5.691  1.00  0.00     0.262 C 
ATOM     90  H   UNL     1       3.860  -4.370  -3.908  1.00  0.00     0.348 HD
BRANCH  88  91
ATOM     91  C   UNL     1       1.987  -3.643  -3.795  1.00  0.00     0.310 C 
BRANCH  91  92
ATOM     92  C   UNL     1       0.746  -3.353  -4.588  1.00  0.00     0.059 A 
ATOM     93  C   UNL     1      -0.339  -4.169  -4.835  1.00  0.00     0.022 A 
ATOM     94  S   UNL     1       0.558  -1.824  -5.333  1.00  0.00    -0.134 S 
ATOM     95  C   UNL     1      -1.352  -3.505  -5.580  1.00  0.00     0.022 A 
ATOM     96  C   UNL     1      -1.048  -2.176  -5.801  1.00  0.00     0.059 A 
BRANCH  96  97
ATOM     97  C   UNL     1      -1.920  -1.095  -6.373  1.00  0.00     0.310 C 
BRANCH  97  98
ATOM     98  N   UNL     1      -2.682  -0.313  -5.388  1.00  0.00    -0.331 N 
ATOM     99  C   UNL     1      -1.871   0.528  -4.501  1.00  0.00     0.262 C 
ATOM    100  C   UNL     1      -3.582  -1.097  -4.539  1.00  0.00     0.262 C 
ATOM    101  H   UNL     1      -3.233   0.281  -6.008  1.00  0.00     0.348 HD
ATOM    102  C   UNL     1      -1.791  -0.199  -3.171  1.00  0.00     0.067 C 
ATOM    103  C   UNL     1      -3.079  -0.993  -3.104  1.00  0.00     0.067 C 
ENDBRANCH  97  98
ENDBRANCH  96  97
ENDBRANCH  91  92
ENDBRANCH  88  91
ENDBRANCH  82  84
ENDBRANCH  75  78
ENDBRANCH  73  74
ENDBRANCH   1  73
TORSDOF 19
