REMARK SMILES C=CCn1nc(C(=O)NCCCCNC(=O)c2ccc(-c3c4nc(c(-c5cccc(S(=O)(=O)[O-])c5F)c5ccc([nH]5)c(-c5cccc(S(=O)(=O)[O-])c5F)c5nc(c(-c6cccc(S(=O)(=O)[O-])c6F)c6ccc3[nH]6)C=C5)C=C4)cc2)c2c1CC[C@@H]([NH+]1CCC(C(C)(C)O)CC1)C2
REMARK SMILES IDX 11 1 10 2 9 3 7 4 8 5 6 7 4 8 5 9 81 10 80 11 82 12 95 13
REMARK SMILES IDX 83 14 84 15 3 16 2 17 1 18 85 19 86 20 94 21 87 23 93 24
REMARK SMILES IDX 88 25 89 26 90 27 91 28 92 29 12 31 13 32 14 33 15 34 16 36
REMARK SMILES IDX 17 37 18 38 79 39 19 40 78 41 20 42 21 43 22 44 72 45 23 46
REMARK SMILES IDX 77 47 71 48 73 49 24 50 76 51 70 52 69 53 25 55 57 56 37 57
REMARK SMILES IDX 56 58 38 59 41 60 55 61 74 62 39 63 40 64 54 66 75 67 42 68
REMARK SMILES IDX 26 69 27 70 35 71 28 72 30 73 36 74 29 75 31 76 32 77 33 78
REMARK SMILES IDX 34 79 58 80 59 81 67 82 60 83 62 84 68 85 61 86 63 87 64 88
REMARK SMILES IDX 65 89 66 90 43 91 44 92 52 93 45 94 47 95 53 96 46 97 48 98
REMARK SMILES IDX 49 99 50 100 51 101
REMARK H PARENT 9 6 85 22 92 30 14 35 73 54 41 65
REMARK Flexibility Score: inf
ROOT
ATOM      1  C   UNL     1      -1.896   4.028  -7.128  1.00  0.00     0.023 C 
ENDROOT
BRANCH   1   2
ATOM      2  C   UNL     1      -3.159   3.171  -6.903  1.00  0.00     0.116 C 
BRANCH   2   3
ATOM      3  N   UNL     1      -2.867   1.744  -6.872  1.00  0.00    -0.351 N 
ATOM      4  C   UNL     1      -2.598   0.794  -5.905  1.00  0.00     0.272 C 
ATOM      5  O   UNL     1      -2.481  -0.351  -6.360  1.00  0.00    -0.267 OA
ATOM      6  H   UNL     1      -2.861   1.355  -7.776  1.00  0.00     0.163 HD
BRANCH   4   7
ATOM      7  C   UNL     1      -2.445   1.050  -4.444  1.00  0.00     0.153 A 
ATOM      8  N   UNL     1      -2.174   0.486  -2.371  1.00  0.00    -0.265 N 
ATOM      9  N   UNL     1      -2.380  -0.015  -3.604  1.00  0.00    -0.167 NA
ATOM     10  C   UNL     1      -2.260   1.844  -2.348  1.00  0.00     0.043 A 
ATOM     11  C   UNL     1      -2.242   2.228  -3.672  1.00  0.00     0.012 A 
ATOM     12  C   UNL     1      -2.179   2.746  -1.172  1.00  0.00     0.062 C 
ATOM     13  C   UNL     1      -1.941   3.619  -4.052  1.00  0.00     0.105 C 
ATOM     14  C   UNL     1      -1.952   4.204  -1.623  1.00  0.00     0.072 C 
ATOM     15  C   UNL     1      -1.207   4.432  -2.964  1.00  0.00     0.189 C 
BRANCH   8  16
ATOM     16  C   UNL     1      -1.742  -0.414  -1.299  1.00  0.00     0.171 C 
BRANCH  16  17
ATOM     17  C   UNL     1      -0.248  -0.651  -1.323  1.00  0.00    -0.011 C 
ATOM     18  C   UNL     1       0.548  -0.725  -0.247  1.00  0.00     0.006 C 
ENDBRANCH  16  17
ENDBRANCH   8  16
BRANCH  15  19
ATOM     19  N   UNL     1       0.258   4.324  -3.149  1.00  0.00    -0.332 N 
ATOM     20  C   UNL     1       0.944   3.070  -2.908  1.00  0.00     0.262 C 
ATOM     21  C   UNL     1       1.059   5.431  -2.656  1.00  0.00     0.262 C 
ATOM     22  H   UNL     1       0.202   4.374  -4.167  1.00  0.00     0.348 HD
ATOM     23  C   UNL     1       1.239   2.801  -1.441  1.00  0.00     0.068 C 
ATOM     24  C   UNL     1       1.238   5.396  -1.150  1.00  0.00     0.068 C 
ATOM     25  C   UNL     1       1.614   4.014  -0.556  1.00  0.00     0.031 C 
BRANCH  25  26
ATOM     26  C   UNL     1       1.098   3.877   0.924  1.00  0.00     0.062 C 
ATOM     27  C   UNL     1       1.266   2.472   1.507  1.00  0.00     0.042 C 
ATOM     28  C   UNL     1       1.781   4.904   1.831  1.00  0.00     0.042 C 
BRANCH  26  29
ATOM     29  O   UNL     1      -0.302   4.163   0.979  1.00  0.00    -0.390 OA
ATOM     30  H   UNL     1      -0.782   3.536   0.416  1.00  0.00     0.211 HD
ENDBRANCH  26  29
ENDBRANCH  25  26
ENDBRANCH  15  19
ENDBRANCH   4   7
ENDBRANCH   2   3
ENDBRANCH   1   2
BRANCH   1  31
ATOM     31  C   UNL     1      -1.732   4.679  -8.501  1.00  0.00     0.023 C 
BRANCH  31  32
ATOM     32  C   UNL     1      -2.662   5.867  -8.729  1.00  0.00     0.116 C 
BRANCH  32  33
ATOM     33  N   UNL     1      -2.307   7.039  -7.926  1.00  0.00    -0.352 N 
ATOM     34  C   UNL     1      -3.081   8.168  -7.716  1.00  0.00     0.251 C 
ATOM     35  H   UNL     1      -1.425   7.023  -7.489  1.00  0.00     0.163 HD
ATOM     36  O   UNL     1      -2.581   9.235  -7.412  1.00  0.00    -0.269 OA
BRANCH  34  37
ATOM     37  C   UNL     1      -4.542   8.036  -7.871  1.00  0.00     0.039 A 
ATOM     38  C   UNL     1      -5.246   8.912  -8.696  1.00  0.00     0.014 A 
ATOM     39  C   UNL     1      -5.178   6.962  -7.244  1.00  0.00     0.014 A 
ATOM     40  C   UNL     1      -6.581   8.633  -8.976  1.00  0.00     0.010 A 
ATOM     41  C   UNL     1      -6.475   6.640  -7.590  1.00  0.00     0.010 A 
ATOM     42  C   UNL     1      -7.183   7.468  -8.460  1.00  0.00    -0.014 A 
BRANCH  42  43
ATOM     43  C   UNL     1      -8.451   7.006  -9.039  1.00  0.00     0.031 A 
ATOM     44  C   UNL     1      -8.426   6.957 -10.528  1.00  0.00     0.074 A 
ATOM     45  C   UNL     1      -9.491   6.486  -8.347  1.00  0.00     0.049 A 
ATOM     46  N   UNL     1      -9.016   7.770 -11.342  1.00  0.00    -0.248 NA
ATOM     47  C   UNL     1      -7.502   6.023 -11.193  1.00  0.00     0.031 C 
ATOM     48  C   UNL     1      -9.537   6.196  -6.909  1.00  0.00     0.029 A 
ATOM     49  N   UNL     1     -10.689   5.992  -8.791  1.00  0.00    -0.354 N 
ATOM     50  C   UNL     1      -8.786   7.243 -12.611  1.00  0.00     0.074 A 
ATOM     51  C   UNL     1      -7.670   6.347 -12.478  1.00  0.00     0.031 C 
ATOM     52  C   UNL     1     -10.575   5.373  -6.645  1.00  0.00     0.029 A 
ATOM     53  C   UNL     1     -11.370   5.221  -7.849  1.00  0.00     0.049 A 
ATOM     54  H   UNL     1     -11.038   6.166  -9.695  1.00  0.00     0.167 HD
ATOM     55  C   UNL     1      -9.761   7.306 -13.559  1.00  0.00     0.034 A 
ATOM     56  C   UNL     1     -12.511   4.510  -8.028  1.00  0.00     0.034 A 
ATOM     57  C   UNL     1     -10.796   8.229 -13.171  1.00  0.00     0.049 A 
ATOM     58  C   UNL     1     -13.226   5.107  -9.170  1.00  0.00     0.074 A 
ATOM     59  C   UNL     1     -10.947   9.589 -13.027  1.00  0.00     0.029 A 
ATOM     60  N   UNL     1     -11.803   7.627 -12.467  1.00  0.00    -0.354 N 
ATOM     61  N   UNL     1     -13.790   6.280  -9.118  1.00  0.00    -0.248 NA
ATOM     62  C   UNL     1     -13.108   4.521 -10.499  1.00  0.00     0.031 C 
ATOM     63  C   UNL     1     -11.997   9.774 -12.077  1.00  0.00     0.029 A 
ATOM     64  C   UNL     1     -12.489   8.525 -11.702  1.00  0.00     0.049 A 
ATOM     65  H   UNL     1     -12.006   6.664 -12.507  1.00  0.00     0.167 HD
ATOM     66  C   UNL     1     -13.638   6.763 -10.400  1.00  0.00     0.074 A 
ATOM     67  C   UNL     1     -13.431   5.587 -11.234  1.00  0.00     0.031 C 
ATOM     68  C   UNL     1     -13.320   8.073 -10.609  1.00  0.00     0.034 A 
BRANCH  55  69
ATOM     69  C   UNL     1     -10.086   6.195 -14.548  1.00  0.00     0.023 A 
ATOM     70  C   UNL     1     -11.079   6.464 -15.519  1.00  0.00     0.012 A 
ATOM     71  C   UNL     1      -9.716   4.840 -14.384  1.00  0.00     0.148 A 
ATOM     72  C   UNL     1     -11.690   5.441 -16.257  1.00  0.00     0.002 A 
ATOM     73  C   UNL     1     -10.261   3.837 -15.180  1.00  0.00     0.091 A 
ATOM     74  F   UNL     1      -8.947   4.473 -13.358  1.00  0.00    -0.205 F 
ATOM     75  C   UNL     1     -11.272   4.127 -16.097  1.00  0.00     0.022 A 
BRANCH  73  76
ATOM     76  S   UNL     1      -9.716   2.130 -15.039  1.00  0.00     0.127 S 
ATOM     77  O   UNL     1     -10.870   1.508 -14.399  1.00  0.00    -0.237 OA
ATOM     78  O   UNL     1      -9.509   1.769 -16.442  1.00  0.00    -0.237 OA
ATOM     79  O   UNL     1      -8.490   2.178 -14.250  1.00  0.00    -0.744 OA
ENDBRANCH  73  76
ENDBRANCH  55  69
BRANCH  56  80
ATOM     80  C   UNL     1     -13.082   3.330  -7.339  1.00  0.00     0.023 A 
ATOM     81  C   UNL     1     -14.475   3.103  -7.398  1.00  0.00     0.012 A 
ATOM     82  C   UNL     1     -12.250   2.274  -6.919  1.00  0.00     0.148 A 
ATOM     83  C   UNL     1     -15.016   1.844  -7.123  1.00  0.00     0.002 A 
ATOM     84  C   UNL     1     -12.794   1.019  -6.651  1.00  0.00     0.091 A 
ATOM     85  F   UNL     1     -10.927   2.478  -6.878  1.00  0.00    -0.205 F 
ATOM     86  C   UNL     1     -14.174   0.797  -6.769  1.00  0.00     0.022 A 
BRANCH  84  87
ATOM     87  S   UNL     1     -11.776  -0.402  -6.232  1.00  0.00     0.127 S 
ATOM     88  O   UNL     1     -12.472  -0.937  -5.061  1.00  0.00    -0.237 OA
ATOM     89  O   UNL     1     -11.891  -1.218  -7.437  1.00  0.00    -0.237 OA
ATOM     90  O   UNL     1     -10.450   0.133  -5.951  1.00  0.00    -0.744 OA
ENDBRANCH  84  87
ENDBRANCH  56  80
BRANCH  68  91
ATOM     91  C   UNL     1     -13.713   9.057  -9.547  1.00  0.00     0.023 A 
ATOM     92  C   UNL     1     -13.199   9.030  -8.235  1.00  0.00     0.012 A 
ATOM     93  C   UNL     1     -14.607  10.077  -9.908  1.00  0.00     0.148 A 
ATOM     94  C   UNL     1     -13.602   9.982  -7.294  1.00  0.00     0.002 A 
ATOM     95  C   UNL     1     -14.968  11.047  -8.985  1.00  0.00     0.091 A 
ATOM     96  F   UNL     1     -15.100  10.078 -11.156  1.00  0.00    -0.205 F 
ATOM     97  C   UNL     1     -14.478  10.997  -7.672  1.00  0.00     0.022 A 
BRANCH  95  98
ATOM     98  S   UNL     1     -16.009  12.428  -9.458  1.00  0.00     0.127 S 
ATOM     99  O   UNL     1     -17.312  12.022  -8.940  1.00  0.00    -0.237 OA
ATOM    100  O   UNL     1     -15.389  13.549  -8.749  1.00  0.00    -0.237 OA
ATOM    101  O   UNL     1     -15.906  12.520 -10.910  1.00  0.00    -0.744 OA
ENDBRANCH  95  98
ENDBRANCH  68  91
ENDBRANCH  42  43
ENDBRANCH  34  37
ENDBRANCH  32  33
ENDBRANCH  31  32
ENDBRANCH   1  31
TORSDOF 19
