REMARK SMILES C[C@H](O)[C@@H](C)C1(C(=O)NCCCCNC(=O)c2ccc(-c3c4nc(c(-c5cccc(S(=O)(=O)[O-])c5F)c5ccc([nH]5)c(-c5cccc(S(=O)(=O)[O-])c5F)c5nc(c(-c6cccc(S(=O)(=O)[O-])c6F)c6ccc3[nH]6)C=C5)C=C4)cc2)CCCCC1
REMARK SMILES IDX 11 1 10 2 9 3 7 4 8 5 6 7 80 8 84 9 81 10 83 11 82 12 4 13
REMARK SMILES IDX 5 14 2 15 1 16 3 17 12 19 13 20 14 21 15 22 16 24 17 25
REMARK SMILES IDX 18 26 79 27 19 28 78 29 20 30 21 31 22 32 72 33 23 34 77 35
REMARK SMILES IDX 71 36 73 37 24 38 76 39 70 40 69 41 25 43 57 44 37 45 56 46
REMARK SMILES IDX 38 47 41 48 55 49 74 50 39 51 40 52 54 54 75 55 42 56 26 57
REMARK SMILES IDX 27 58 35 59 28 60 30 61 36 62 29 63 31 64 32 65 33 66 34 67
REMARK SMILES IDX 58 68 59 69 67 70 60 71 62 72 68 73 61 74 63 75 64 76 65 77
REMARK SMILES IDX 66 78 43 79 44 80 52 81 45 82 47 83 53 84 46 85 48 86 49 87
REMARK SMILES IDX 50 88 51 89
REMARK H PARENT 9 6 3 18 14 23 73 42 41 53
REMARK Flexibility Score: inf
ROOT
ATOM      1  C   UNL     1      -4.831  -5.591   0.184  1.00  0.00     0.023 C 
ENDROOT
BRANCH   1   2
ATOM      2  C   UNL     1      -3.632  -5.165  -0.663  1.00  0.00     0.116 C 
BRANCH   2   3
ATOM      3  N   UNL     1      -3.665  -3.756  -0.972  1.00  0.00    -0.356 N 
ATOM      4  C   UNL     1      -2.906  -2.702  -0.580  1.00  0.00     0.226 C 
ATOM      5  O   UNL     1      -3.461  -1.609  -0.746  1.00  0.00    -0.274 OA
ATOM      6  H   UNL     1      -4.387  -3.509  -1.594  1.00  0.00     0.163 HD
BRANCH   4   7
ATOM      7  C   UNL     1      -1.498  -2.797   0.125  1.00  0.00     0.054 C 
ATOM      8  C   UNL     1      -0.579  -3.863  -0.536  1.00  0.00     0.017 C 
ATOM      9  C   UNL     1      -1.810  -3.028   1.631  1.00  0.00     0.017 C 
ATOM     10  C   UNL     1      -0.346  -5.208   0.165  1.00  0.00     0.001 C 
ATOM     11  C   UNL     1      -1.786  -4.456   2.148  1.00  0.00     0.001 C 
ATOM     12  C   UNL     1      -0.589  -5.254   1.666  1.00  0.00     0.000 C 
BRANCH   7  13
ATOM     13  C   UNL     1      -0.783  -1.330   0.003  1.00  0.00     0.030 C 
ATOM     14  C   UNL     1      -0.928  -0.683  -1.404  1.00  0.00     0.011 C 
BRANCH  13  15
ATOM     15  C   UNL     1       0.742  -1.217   0.363  1.00  0.00     0.115 C 
ATOM     16  C   UNL     1       1.238  -1.858   1.647  1.00  0.00     0.038 C 
BRANCH  15  17
ATOM     17  O   UNL     1       1.109   0.170   0.457  1.00  0.00    -0.393 OA
ATOM     18  H   UNL     1       0.646   0.577   1.207  1.00  0.00     0.210 HD
ENDBRANCH  15  17
ENDBRANCH  13  15
ENDBRANCH   7  13
ENDBRANCH   4   7
ENDBRANCH   2   3
ENDBRANCH   1   2
BRANCH   1  19
ATOM     19  C   UNL     1      -6.050  -6.033  -0.618  1.00  0.00     0.023 C 
BRANCH  19  20
ATOM     20  C   UNL     1      -5.804  -7.182  -1.591  1.00  0.00     0.116 C 
BRANCH  20  21
ATOM     21  N   UNL     1      -5.174  -8.352  -0.989  1.00  0.00    -0.352 N 
ATOM     22  C   UNL     1      -5.382  -9.677  -1.307  1.00  0.00     0.251 C 
ATOM     23  H   UNL     1      -4.524  -8.175  -0.272  1.00  0.00     0.163 HD
ATOM     24  O   UNL     1      -4.828 -10.572  -0.685  1.00  0.00    -0.269 OA
BRANCH  22  25
ATOM     25  C   UNL     1      -6.333  -9.984  -2.393  1.00  0.00     0.039 A 
ATOM     26  C   UNL     1      -7.457 -10.761  -2.109  1.00  0.00     0.014 A 
ATOM     27  C   UNL     1      -6.174  -9.380  -3.643  1.00  0.00     0.014 A 
ATOM     28  C   UNL     1      -8.475 -10.859  -3.059  1.00  0.00     0.010 A 
ATOM     29  C   UNL     1      -7.222  -9.415  -4.552  1.00  0.00     0.010 A 
ATOM     30  C   UNL     1      -8.386 -10.147  -4.267  1.00  0.00    -0.014 A 
BRANCH  30  31
ATOM     31  C   UNL     1      -9.504 -10.132  -5.243  1.00  0.00     0.031 A 
ATOM     32  C   UNL     1      -9.293 -10.681  -6.627  1.00  0.00     0.074 A 
ATOM     33  C   UNL     1     -10.668  -9.532  -4.920  1.00  0.00     0.049 A 
ATOM     34  N   UNL     1     -10.110 -10.678  -7.648  1.00  0.00    -0.248 NA
ATOM     35  C   UNL     1      -7.979 -11.281  -6.913  1.00  0.00     0.031 C 
ATOM     36  C   UNL     1     -10.962  -8.882  -3.640  1.00  0.00     0.029 A 
ATOM     37  N   UNL     1     -11.813  -9.347  -5.653  1.00  0.00    -0.354 N 
ATOM     38  C   UNL     1      -9.398 -11.236  -8.702  1.00  0.00     0.074 A 
ATOM     39  C   UNL     1      -8.070 -11.529  -8.211  1.00  0.00     0.031 C 
ATOM     40  C   UNL     1     -12.208  -8.380  -3.675  1.00  0.00     0.029 A 
ATOM     41  C   UNL     1     -12.794  -8.650  -4.984  1.00  0.00     0.049 A 
ATOM     42  H   UNL     1     -11.923  -9.681  -6.572  1.00  0.00     0.167 HD
ATOM     43  C   UNL     1      -9.822 -11.519  -9.956  1.00  0.00     0.034 A 
ATOM     44  C   UNL     1     -14.026  -8.277  -5.382  1.00  0.00     0.034 A 
ATOM     45  C   UNL     1     -11.162 -11.289 -10.420  1.00  0.00     0.049 A 
ATOM     46  C   UNL     1     -14.495  -8.666  -6.759  1.00  0.00     0.074 A 
ATOM     47  C   UNL     1     -11.716 -11.614 -11.645  1.00  0.00     0.029 A 
ATOM     48  N   UNL     1     -12.162 -10.687  -9.674  1.00  0.00    -0.354 N 
ATOM     49  N   UNL     1     -13.856  -9.334  -7.689  1.00  0.00    -0.248 NA
ATOM     50  C   UNL     1     -15.866  -8.286  -7.128  1.00  0.00     0.031 C 
ATOM     51  C   UNL     1     -13.055 -11.209 -11.638  1.00  0.00     0.029 A 
ATOM     52  C   UNL     1     -13.334 -10.638 -10.407  1.00  0.00     0.049 A 
ATOM     53  H   UNL     1     -12.055 -10.344  -8.757  1.00  0.00     0.167 HD
ATOM     54  C   UNL     1     -14.759  -9.488  -8.735  1.00  0.00     0.074 A 
ATOM     55  C   UNL     1     -15.995  -8.862  -8.316  1.00  0.00     0.031 C 
ATOM     56  C   UNL     1     -14.576 -10.077  -9.943  1.00  0.00     0.034 A 
BRANCH  43  57
ATOM     57  C   UNL     1      -8.847 -12.190 -10.885  1.00  0.00     0.023 A 
ATOM     58  C   UNL     1      -8.516 -13.544 -10.671  1.00  0.00     0.012 A 
ATOM     59  C   UNL     1      -8.301 -11.511 -11.991  1.00  0.00     0.148 A 
ATOM     60  C   UNL     1      -7.631 -14.203 -11.522  1.00  0.00     0.002 A 
ATOM     61  C   UNL     1      -7.451 -12.187 -12.859  1.00  0.00     0.091 A 
ATOM     62  F   UNL     1      -8.610 -10.218 -12.165  1.00  0.00    -0.205 F 
ATOM     63  C   UNL     1      -7.108 -13.528 -12.620  1.00  0.00     0.022 A 
BRANCH  61  64
ATOM     64  S   UNL     1      -6.779 -11.431 -14.344  1.00  0.00     0.127 S 
ATOM     65  O   UNL     1      -5.370 -11.277 -13.983  1.00  0.00    -0.237 OA
ATOM     66  O   UNL     1      -7.041 -12.454 -15.356  1.00  0.00    -0.237 OA
ATOM     67  O   UNL     1      -7.516 -10.189 -14.530  1.00  0.00    -0.744 OA
ENDBRANCH  61  64
ENDBRANCH  43  57
BRANCH  44  68
ATOM     68  C   UNL     1     -14.942  -7.576  -4.437  1.00  0.00     0.023 A 
ATOM     69  C   UNL     1     -16.061  -8.267  -3.929  1.00  0.00     0.012 A 
ATOM     70  C   UNL     1     -14.715  -6.249  -4.028  1.00  0.00     0.148 A 
ATOM     71  C   UNL     1     -16.956  -7.639  -3.063  1.00  0.00     0.002 A 
ATOM     72  C   UNL     1     -15.584  -5.644  -3.124  1.00  0.00     0.091 A 
ATOM     73  F   UNL     1     -13.657  -5.598  -4.532  1.00  0.00    -0.205 F 
ATOM     74  C   UNL     1     -16.713  -6.331  -2.653  1.00  0.00     0.022 A 
BRANCH  72  75
ATOM     75  S   UNL     1     -15.267  -4.009  -2.450  1.00  0.00     0.127 S 
ATOM     76  O   UNL     1     -16.159  -3.176  -3.250  1.00  0.00    -0.237 OA
ATOM     77  O   UNL     1     -15.663  -4.169  -1.050  1.00  0.00    -0.237 OA
ATOM     78  O   UNL     1     -13.839  -3.789  -2.640  1.00  0.00    -0.744 OA
ENDBRANCH  72  75
ENDBRANCH  44  68
BRANCH  56  79
ATOM     79  C   UNL     1     -15.746 -10.111 -10.888  1.00  0.00     0.023 A 
ATOM     80  C   UNL     1     -16.129  -8.937 -11.564  1.00  0.00     0.012 A 
ATOM     81  C   UNL     1     -16.407 -11.323 -11.170  1.00  0.00     0.148 A 
ATOM     82  C   UNL     1     -17.170  -8.962 -12.490  1.00  0.00     0.002 A 
ATOM     83  C   UNL     1     -17.415 -11.349 -12.127  1.00  0.00     0.091 A 
ATOM     84  F   UNL     1     -16.040 -12.425 -10.499  1.00  0.00    -0.205 F 
ATOM     85  C   UNL     1     -17.804 -10.169 -12.781  1.00  0.00     0.022 A 
BRANCH  83  86
ATOM     86  S   UNL     1     -18.218 -12.876 -12.628  1.00  0.00     0.127 S 
ATOM     87  O   UNL     1     -19.504 -12.776 -11.941  1.00  0.00    -0.237 OA
ATOM     88  O   UNL     1     -18.291 -12.729 -14.082  1.00  0.00    -0.237 OA
ATOM     89  O   UNL     1     -17.345 -13.951 -12.176  1.00  0.00    -0.744 OA
ENDBRANCH  83  86
ENDBRANCH  56  79
ENDBRANCH  30  31
ENDBRANCH  22  25
ENDBRANCH  20  21
ENDBRANCH  19  20
ENDBRANCH   1  19
TORSDOF 17
