REMARK SMILES Cc1c(CC(=O)NCCCCNC(=O)c2ccc(-c3c4nc(c(-c5cccc(S(=O)(=O)[O-])c5F)c5ccc([nH]5)c(-c5cccc(S(=O)(=O)[O-])c5F)c5nc(c(-c6cccc(S(=O)(=O)[O-])c6F)c6ccc3[nH]6)C=C5)C=C4)cc2)c2ccccc2n1C(=O)c1ccc(Cl)cc1
REMARK SMILES IDX 9 1 8 2 7 3 5 4 6 5 4 7 3 8 1 9 2 10 84 11 78 12 83 13 79 14
REMARK SMILES IDX 82 15 80 16 81 17 85 18 86 19 87 20 88 21 93 22 89 23 92 24
REMARK SMILES IDX 90 25 91 26 10 27 11 28 12 29 13 30 14 32 15 33 16 34 77 35
REMARK SMILES IDX 17 36 76 37 18 38 19 39 20 40 70 41 21 42 75 43 69 44 71 45
REMARK SMILES IDX 22 46 74 47 68 48 67 49 23 51 55 52 35 53 54 54 36 55 39 56
REMARK SMILES IDX 53 57 72 58 37 59 38 60 52 62 73 63 40 64 24 65 25 66 33 67
REMARK SMILES IDX 26 68 28 69 34 70 27 71 29 72 30 73 31 74 32 75 56 76 57 77
REMARK SMILES IDX 65 78 58 79 60 80 66 81 59 82 61 83 62 84 63 85 64 86 41 87
REMARK SMILES IDX 42 88 50 89 43 90 45 91 51 92 44 93 46 94 47 95 48 96 49 97
REMARK H PARENT 7 6 12 31 71 50 39 61
REMARK Flexibility Score: inf
ROOT
ATOM      1  C   UNL     1       1.310   1.473   3.763  1.00  0.00     0.023 C 
ENDROOT
BRANCH   1   2
ATOM      2  C   UNL     1       0.311   0.390   3.359  1.00  0.00     0.116 C 
BRANCH   2   3
ATOM      3  N   UNL     1      -1.060   0.796   3.591  1.00  0.00    -0.356 N 
ATOM      4  C   UNL     1      -2.036   1.044   2.669  1.00  0.00     0.224 C 
ATOM      5  O   UNL     1      -3.158   1.363   3.071  1.00  0.00    -0.275 OA
ATOM      6  H   UNL     1      -1.321   0.909   4.533  1.00  0.00     0.163 HD
BRANCH   4   7
ATOM      7  C   UNL     1      -1.750   0.859   1.186  1.00  0.00     0.138 C 
BRANCH   7   8
ATOM      8  C   UNL     1      -0.718   1.813   0.652  1.00  0.00    -0.010 A 
ATOM      9  C   UNL     1       1.022   0.150  -0.336  1.00  0.00     0.065 C 
ATOM     10  C   UNL     1       0.471   1.502   0.004  1.00  0.00     0.028 A 
ATOM     11  N   UNL     1       1.169   2.691  -0.261  1.00  0.00    -0.280 N 
ATOM     12  C   UNL     1      -0.804   3.232   0.717  1.00  0.00     0.004 A 
ATOM     13  C   UNL     1       0.329   3.762   0.092  1.00  0.00     0.056 A 
ATOM     14  C   UNL     1      -1.778   4.109   1.247  1.00  0.00     0.010 A 
ATOM     15  C   UNL     1       0.443   5.159  -0.079  1.00  0.00     0.027 A 
ATOM     16  C   UNL     1      -1.616   5.489   1.143  1.00  0.00     0.001 A 
ATOM     17  C   UNL     1      -0.520   6.006   0.475  1.00  0.00     0.002 A 
BRANCH  11  18
ATOM     18  C   UNL     1       2.484   2.772  -0.810  1.00  0.00     0.262 C 
ATOM     19  O   UNL     1       3.009   1.750  -1.243  1.00  0.00    -0.268 OA
BRANCH  18  20
ATOM     20  C   UNL     1       3.270   4.011  -0.962  1.00  0.00     0.040 A 
ATOM     21  C   UNL     1       3.604   4.811   0.137  1.00  0.00     0.015 A 
ATOM     22  C   UNL     1       3.632   4.391  -2.260  1.00  0.00     0.015 A 
ATOM     23  C   UNL     1       4.208   6.053  -0.082  1.00  0.00     0.021 A 
ATOM     24  C   UNL     1       4.243   5.626  -2.470  1.00  0.00     0.021 A 
ATOM     25  C   UNL     1       4.504   6.463  -1.385  1.00  0.00     0.041 A 
ATOM     26  Cl  UNL     1       5.163   8.026  -1.664  1.00  0.00    -0.084 Cl
ENDBRANCH  18  20
ENDBRANCH  11  18
ENDBRANCH   7   8
ENDBRANCH   4   7
ENDBRANCH   2   3
ENDBRANCH   1   2
BRANCH   1  27
ATOM     27  C   UNL     1       1.425   1.687   5.279  1.00  0.00     0.023 C 
BRANCH  27  28
ATOM     28  C   UNL     1       1.611   0.396   6.080  1.00  0.00     0.116 C 
BRANCH  28  29
ATOM     29  N   UNL     1       2.753  -0.385   5.651  1.00  0.00    -0.352 N 
ATOM     30  C   UNL     1       4.056  -0.484   6.048  1.00  0.00     0.251 C 
ATOM     31  H   UNL     1       2.540  -0.985   4.900  1.00  0.00     0.163 HD
ATOM     32  O   UNL     1       4.705  -1.393   5.525  1.00  0.00    -0.269 OA
BRANCH  30  33
ATOM     33  C   UNL     1       4.738   0.455   6.977  1.00  0.00     0.039 A 
ATOM     34  C   UNL     1       4.121   1.496   7.670  1.00  0.00     0.014 A 
ATOM     35  C   UNL     1       6.134   0.307   7.078  1.00  0.00     0.014 A 
ATOM     36  C   UNL     1       4.883   2.441   8.339  1.00  0.00     0.010 A 
ATOM     37  C   UNL     1       6.901   1.238   7.763  1.00  0.00     0.010 A 
ATOM     38  C   UNL     1       6.273   2.338   8.334  1.00  0.00    -0.014 A 
BRANCH  38  39
ATOM     39  C   UNL     1       7.023   3.381   9.018  1.00  0.00     0.031 A 
ATOM     40  C   UNL     1       6.751   3.473  10.482  1.00  0.00     0.074 A 
ATOM     41  C   UNL     1       7.945   4.131   8.380  1.00  0.00     0.049 A 
ATOM     42  N   UNL     1       6.260   4.470  11.145  1.00  0.00    -0.248 NA
ATOM     43  C   UNL     1       6.912   2.245  11.280  1.00  0.00     0.031 C 
ATOM     44  C   UNL     1       8.473   3.947   7.025  1.00  0.00     0.029 A 
ATOM     45  N   UNL     1       8.720   5.136   8.872  1.00  0.00    -0.354 N 
ATOM     46  C   UNL     1       6.259   4.067  12.480  1.00  0.00     0.074 A 
ATOM     47  C   UNL     1       6.515   2.650  12.486  1.00  0.00     0.031 C 
ATOM     48  C   UNL     1       9.649   4.605   6.915  1.00  0.00     0.029 A 
ATOM     49  C   UNL     1       9.882   5.357   8.134  1.00  0.00     0.049 A 
ATOM     50  H   UNL     1       8.483   5.657   9.673  1.00  0.00     0.167 HD
ATOM     51  C   UNL     1       6.275   4.956  13.510  1.00  0.00     0.034 A 
ATOM     52  C   UNL     1      10.987   6.020   8.561  1.00  0.00     0.034 A 
ATOM     53  C   UNL     1       5.905   6.278  13.098  1.00  0.00     0.049 A 
ATOM     54  C   UNL     1      10.567   6.859   9.709  1.00  0.00     0.074 A 
ATOM     55  C   UNL     1       4.774   6.849  12.554  1.00  0.00     0.029 A 
ATOM     56  N   UNL     1       6.926   7.168  12.876  1.00  0.00    -0.354 N 
ATOM     57  N   UNL     1       9.743   7.863   9.609  1.00  0.00    -0.248 NA
ATOM     58  C   UNL     1      10.735   6.309  11.044  1.00  0.00     0.031 C 
ATOM     59  C   UNL     1       5.264   7.801  11.615  1.00  0.00     0.029 A 
ATOM     60  C   UNL     1       6.658   7.796  11.690  1.00  0.00     0.049 A 
ATOM     61  H   UNL     1       7.704   7.324  13.459  1.00  0.00     0.167 HD
ATOM     62  C   UNL     1       8.964   7.781  10.755  1.00  0.00     0.074 A 
ATOM     63  C   UNL     1       9.679   6.866  11.641  1.00  0.00     0.031 C 
ATOM     64  C   UNL     1       7.677   8.229  10.764  1.00  0.00     0.034 A 
BRANCH  51  65
ATOM     65  C   UNL     1       6.968   4.702  14.820  1.00  0.00     0.023 A 
ATOM     66  C   UNL     1       6.652   5.523  15.922  1.00  0.00     0.012 A 
ATOM     67  C   UNL     1       8.108   3.872  14.932  1.00  0.00     0.148 A 
ATOM     68  C   UNL     1       7.439   5.521  17.080  1.00  0.00     0.002 A 
ATOM     69  C   UNL     1       8.844   3.822  16.109  1.00  0.00     0.091 A 
ATOM     70  F   UNL     1       8.563   3.227  13.853  1.00  0.00    -0.205 F 
ATOM     71  C   UNL     1       8.527   4.660  17.179  1.00  0.00     0.022 A 
BRANCH  69  72
ATOM     72  S   UNL     1      10.242   2.708  16.290  1.00  0.00     0.127 S 
ATOM     73  O   UNL     1      11.367   3.643  16.226  1.00  0.00    -0.237 OA
ATOM     74  O   UNL     1       9.993   2.134  17.616  1.00  0.00    -0.237 OA
ATOM     75  O   UNL     1      10.129   1.761  15.198  1.00  0.00    -0.744 OA
ENDBRANCH  69  72
ENDBRANCH  51  65
BRANCH  52  76
ATOM     76  C   UNL     1      12.427   5.749   8.299  1.00  0.00     0.023 A 
ATOM     77  C   UNL     1      13.382   6.711   8.695  1.00  0.00     0.012 A 
ATOM     78  C   UNL     1      12.892   4.458   7.967  1.00  0.00     0.148 A 
ATOM     79  C   UNL     1      14.738   6.382   8.820  1.00  0.00     0.002 A 
ATOM     80  C   UNL     1      14.244   4.138   8.080  1.00  0.00     0.091 A 
ATOM     81  F   UNL     1      12.006   3.510   7.638  1.00  0.00    -0.205 F 
ATOM     82  C   UNL     1      15.167   5.092   8.526  1.00  0.00     0.022 A 
BRANCH  80  83
ATOM     83  S   UNL     1      14.866   2.489   7.723  1.00  0.00     0.127 S 
ATOM     84  O   UNL     1      16.072   2.778   6.945  1.00  0.00    -0.237 OA
ATOM     85  O   UNL     1      15.114   1.962   9.062  1.00  0.00    -0.237 OA
ATOM     86  O   UNL     1      13.813   1.827   6.964  1.00  0.00    -0.744 OA
ENDBRANCH  80  83
ENDBRANCH  52  76
BRANCH  64  87
ATOM     87  C   UNL     1       7.201   9.045   9.594  1.00  0.00     0.023 A 
ATOM     88  C   UNL     1       7.010   8.495   8.309  1.00  0.00     0.012 A 
ATOM     89  C   UNL     1       6.748  10.346   9.858  1.00  0.00     0.148 A 
ATOM     90  C   UNL     1       6.379   9.237   7.306  1.00  0.00     0.002 A 
ATOM     91  C   UNL     1       6.088  11.065   8.873  1.00  0.00     0.091 A 
ATOM     92  F   UNL     1       6.936  10.841  11.091  1.00  0.00    -0.205 F 
ATOM     93  C   UNL     1       5.904  10.516   7.593  1.00  0.00     0.022 A 
BRANCH  91  94
ATOM     94  S   UNL     1       5.357  12.666   9.212  1.00  0.00     0.127 S 
ATOM     95  O   UNL     1       6.224  13.564   8.452  1.00  0.00    -0.237 OA
ATOM     96  O   UNL     1       4.006  12.513   8.668  1.00  0.00    -0.237 OA
ATOM     97  O   UNL     1       5.401  12.834  10.660  1.00  0.00    -0.744 OA
ENDBRANCH  91  94
ENDBRANCH  64  87
ENDBRANCH  38  39
ENDBRANCH  30  33
ENDBRANCH  28  29
ENDBRANCH  27  28
ENDBRANCH   1  27
TORSDOF 17
