REMARK SMILES CCCCCCNC(=O)Oc1cccc(-c2ccc([C@@H](C)C(=O)NCCCCNC(=O)c3ccc(-c4c5nc(c(-c6cccc(S(=O)(=O)[O-])c6F)c6ccc([nH]6)c(-c6cccc(S(=O)(=O)[O-])c6F)c6nc(c(-c7cccc(S(=O)(=O)[O-])c7F)c7ccc4[nH]7)C=C6)C=C5)cc3)cc2F)c1
REMARK SMILES IDX 20 1 21 2 19 3 16 4 17 5 96 6 18 7 95 8 97 9 15 10 11 11
REMARK SMILES IDX 12 12 98 13 13 14 14 15 10 16 8 17 7 18 9 20 6 21 5 22 4 23
REMARK SMILES IDX 3 24 2 25 1 26 22 27 23 28 24 29 25 31 26 32 27 33 28 34
REMARK SMILES IDX 29 35 30 36 31 38 32 39 33 40 94 41 34 42 93 43 35 44 36 45
REMARK SMILES IDX 37 46 87 47 38 48 92 49 86 50 88 51 39 52 91 53 85 54 84 55
REMARK SMILES IDX 40 57 72 58 52 59 71 60 53 61 56 62 70 63 89 64 54 65 55 66
REMARK SMILES IDX 69 68 90 69 57 70 41 71 42 72 50 73 43 74 45 75 51 76 44 77
REMARK SMILES IDX 46 78 47 79 48 80 49 81 73 82 74 83 82 84 75 85 77 86 83 87
REMARK SMILES IDX 76 88 78 89 79 90 80 91 81 92 58 93 59 94 67 95 60 96 62 97
REMARK SMILES IDX 68 98 61 99 63 100 64 101 65 102 66 103
REMARK H PARENT 7 19 24 30 29 37 88 56 56 67
REMARK Flexibility Score: inf
ROOT
ATOM      1  C   UNL     1      -4.880   8.560 -10.553  1.00  0.00     0.105 C 
ATOM      2  C   UNL     1      -6.039   9.244 -11.277  1.00  0.00     0.023 C 
ENDROOT
BRANCH   1   3
ATOM      3  C   UNL     1      -5.132   8.182  -9.102  1.00  0.00    -0.033 A 
ATOM      4  C   UNL     1      -5.332   7.497  -6.329  1.00  0.00     0.018 A 
ATOM      5  C   UNL     1      -5.801   8.725  -6.823  1.00  0.00     0.012 A 
ATOM      6  C   UNL     1      -4.816   6.600  -7.276  1.00  0.00     0.131 A 
ATOM      7  C   UNL     1      -5.743   9.042  -8.186  1.00  0.00     0.005 A 
ATOM      8  C   UNL     1      -4.694   6.938  -8.627  1.00  0.00     0.044 A 
ATOM      9  F   UNL     1      -4.418   5.372  -6.906  1.00  0.00    -0.206 F 
BRANCH   4  10
ATOM     10  C   UNL     1      -5.365   7.206  -4.878  1.00  0.00    -0.012 A 
ATOM     11  C   UNL     1      -4.361   6.259  -2.873  1.00  0.00     0.133 A 
ATOM     12  C   UNL     1      -5.411   6.719  -2.085  1.00  0.00     0.047 A 
ATOM     13  C   UNL     1      -4.332   6.488  -4.250  1.00  0.00     0.056 A 
ATOM     14  C   UNL     1      -6.441   7.434  -2.683  1.00  0.00     0.004 A 
ATOM     15  C   UNL     1      -6.420   7.666  -4.062  1.00  0.00     0.009 A 
BRANCH  11  16
ATOM     16  O   UNL     1      -3.402   5.451  -2.244  1.00  0.00    -0.410 OA
BRANCH  16  17
ATOM     17  C   UNL     1      -2.068   5.805  -2.376  1.00  0.00     0.412 C 
ATOM     18  N   UNL     1      -1.223   4.911  -1.776  1.00  0.00    -0.321 N 
ATOM     19  H   UNL     1      -0.260   5.112  -1.825  1.00  0.00     0.167 HD
ATOM     20  O   UNL     1      -1.638   6.800  -2.942  1.00  0.00    -0.224 OA
BRANCH  18  21
ATOM     21  C   UNL     1      -1.600   3.701  -1.076  1.00  0.00     0.119 C 
BRANCH  21  22
ATOM     22  C   UNL     1      -0.994   2.455  -1.720  1.00  0.00     0.021 C 
BRANCH  22  23
ATOM     23  C   UNL     1       0.535   2.377  -1.648  1.00  0.00     0.002 C 
BRANCH  23  24
ATOM     24  C   UNL     1       1.130   2.408  -0.235  1.00  0.00    -0.000 C 
BRANCH  24  25
ATOM     25  C   UNL     1       0.643   1.304   0.707  1.00  0.00    -0.003 C 
ATOM     26  C   UNL     1       1.009  -0.094   0.234  1.00  0.00     0.004 C 
ENDBRANCH  24  25
ENDBRANCH  23  24
ENDBRANCH  22  23
ENDBRANCH  21  22
ENDBRANCH  18  21
ENDBRANCH  16  17
ENDBRANCH  11  16
ENDBRANCH   4  10
ENDBRANCH   1   3
BRANCH   1  27
ATOM     27  C   UNL     1      -3.514   9.227 -10.787  1.00  0.00     0.227 C 
ATOM     28  O   UNL     1      -2.617   8.593 -11.356  1.00  0.00    -0.274 OA
ATOM     29  N   UNL     1      -3.220  10.503 -10.418  1.00  0.00    -0.356 N 
ATOM     30  H   UNL     1      -2.322  10.804 -10.690  1.00  0.00     0.163 HD
BRANCH  29  31
ATOM     31  C   UNL     1      -3.985  11.499  -9.698  1.00  0.00     0.116 C 
BRANCH  31  32
ATOM     32  C   UNL     1      -3.635  11.532  -8.209  1.00  0.00     0.023 C 
BRANCH  32  33
ATOM     33  C   UNL     1      -2.467  12.444  -7.843  1.00  0.00     0.023 C 
BRANCH  33  34
ATOM     34  C   UNL     1      -2.667  13.917  -8.174  1.00  0.00     0.116 C 
BRANCH  34  35
ATOM     35  N   UNL     1      -3.851  14.508  -7.562  1.00  0.00    -0.352 N 
ATOM     36  C   UNL     1      -4.011  15.799  -7.107  1.00  0.00     0.251 C 
ATOM     37  H   UNL     1      -4.630  13.914  -7.461  1.00  0.00     0.163 HD
ATOM     38  O   UNL     1      -5.041  16.138  -6.536  1.00  0.00    -0.269 OA
BRANCH  36  39
ATOM     39  C   UNL     1      -2.896  16.753  -7.284  1.00  0.00     0.039 A 
ATOM     40  C   UNL     1      -2.409  17.442  -6.171  1.00  0.00     0.014 A 
ATOM     41  C   UNL     1      -2.278  16.888  -8.529  1.00  0.00     0.014 A 
ATOM     42  C   UNL     1      -1.249  18.209  -6.295  1.00  0.00     0.010 A 
ATOM     43  C   UNL     1      -1.077  17.578  -8.627  1.00  0.00     0.010 A 
ATOM     44  C   UNL     1      -0.549  18.248  -7.513  1.00  0.00    -0.014 A 
BRANCH  44  45
ATOM     45  C   UNL     1       0.737  18.980  -7.647  1.00  0.00     0.031 A 
ATOM     46  C   UNL     1       0.851  20.121  -8.624  1.00  0.00     0.074 A 
ATOM     47  C   UNL     1       1.820  18.567  -6.957  1.00  0.00     0.049 A 
ATOM     48  N   UNL     1       1.901  20.830  -8.945  1.00  0.00    -0.248 NA
ATOM     49  C   UNL     1      -0.371  20.496  -9.359  1.00  0.00     0.031 C 
ATOM     50  C   UNL     1       1.859  17.427  -6.038  1.00  0.00     0.029 A 
ATOM     51  N   UNL     1       3.107  19.046  -6.941  1.00  0.00    -0.354 N 
ATOM     52  C   UNL     1       1.476  21.713  -9.930  1.00  0.00     0.074 A 
ATOM     53  C   UNL     1       0.085  21.418 -10.193  1.00  0.00     0.031 C 
ATOM     54  C   UNL     1       3.101  17.301  -5.541  1.00  0.00     0.029 A 
ATOM     55  C   UNL     1       3.956  18.327  -6.129  1.00  0.00     0.049 A 
ATOM     56  H   UNL     1       3.396  19.830  -7.461  1.00  0.00     0.167 HD
ATOM     57  C   UNL     1       2.166  22.709 -10.534  1.00  0.00     0.034 A 
ATOM     58  C   UNL     1       5.274  18.477  -5.892  1.00  0.00     0.034 A 
ATOM     59  C   UNL     1       3.536  23.029 -10.239  1.00  0.00     0.049 A 
ATOM     60  C   UNL     1       6.010  19.606  -6.566  1.00  0.00     0.074 A 
ATOM     61  C   UNL     1       4.308  24.054 -10.755  1.00  0.00     0.029 A 
ATOM     62  N   UNL     1       4.335  22.334  -9.347  1.00  0.00    -0.354 N 
ATOM     63  N   UNL     1       5.552  20.518  -7.389  1.00  0.00    -0.248 NA
ATOM     64  C   UNL     1       7.439  19.750  -6.248  1.00  0.00     0.031 C 
ATOM     65  C   UNL     1       5.581  23.971 -10.183  1.00  0.00     0.029 A 
ATOM     66  C   UNL     1       5.592  22.909  -9.293  1.00  0.00     0.049 A 
ATOM     67  H   UNL     1       4.051  21.547  -8.829  1.00  0.00     0.167 HD
ATOM     68  C   UNL     1       6.621  21.368  -7.649  1.00  0.00     0.074 A 
ATOM     69  C   UNL     1       7.744  20.876  -6.878  1.00  0.00     0.031 C 
ATOM     70  C   UNL     1       6.676  22.449  -8.464  1.00  0.00     0.034 A 
BRANCH  57  71
ATOM     71  C   UNL     1       1.429  23.576 -11.520  1.00  0.00     0.023 A 
ATOM     72  C   UNL     1       0.461  24.486 -11.046  1.00  0.00     0.012 A 
ATOM     73  C   UNL     1       1.738  23.549 -12.893  1.00  0.00     0.148 A 
ATOM     74  C   UNL     1      -0.208  25.336 -11.924  1.00  0.00     0.002 A 
ATOM     75  C   UNL     1       1.099  24.432 -13.758  1.00  0.00     0.091 A 
ATOM     76  F   UNL     1       2.648  22.666 -13.326  1.00  0.00    -0.205 F 
ATOM     77  C   UNL     1       0.119  25.317 -13.277  1.00  0.00     0.022 A 
BRANCH  75  78
ATOM     78  S   UNL     1       1.500  24.545 -15.505  1.00  0.00     0.127 S 
ATOM     79  O   UNL     1       0.258  24.081 -16.122  1.00  0.00    -0.237 OA
ATOM     80  O   UNL     1       1.763  25.975 -15.665  1.00  0.00    -0.237 OA
ATOM     81  O   UNL     1       2.655  23.683 -15.712  1.00  0.00    -0.744 OA
ENDBRANCH  75  78
ENDBRANCH  57  71
BRANCH  58  82
ATOM     82  C   UNL     1       5.983  17.580  -4.933  1.00  0.00     0.023 A 
ATOM     83  C   UNL     1       6.475  18.112  -3.724  1.00  0.00     0.012 A 
ATOM     84  C   UNL     1       6.197  16.218  -5.217  1.00  0.00     0.148 A 
ATOM     85  C   UNL     1       7.210  17.319  -2.842  1.00  0.00     0.002 A 
ATOM     86  C   UNL     1       6.882  15.419  -4.307  1.00  0.00     0.091 A 
ATOM     87  F   UNL     1       5.736  15.729  -6.377  1.00  0.00    -0.205 F 
ATOM     88  C   UNL     1       7.408  15.972  -3.129  1.00  0.00     0.022 A 
BRANCH  86  89
ATOM     89  S   UNL     1       7.072  13.649  -4.542  1.00  0.00     0.127 S 
ATOM     90  O   UNL     1       8.471  13.550  -4.949  1.00  0.00    -0.237 OA
ATOM     91  O   UNL     1       6.782  13.130  -3.204  1.00  0.00    -0.237 OA
ATOM     92  O   UNL     1       6.086  13.285  -5.550  1.00  0.00    -0.744 OA
ENDBRANCH  86  89
ENDBRANCH  58  82
BRANCH  70  93
ATOM     93  C   UNL     1       7.971  23.215  -8.525  1.00  0.00     0.023 A 
ATOM     94  C   UNL     1       9.086  22.661  -9.184  1.00  0.00     0.012 A 
ATOM     95  C   UNL     1       8.056  24.517  -7.993  1.00  0.00     0.148 A 
ATOM     96  C   UNL     1      10.278  23.377  -9.281  1.00  0.00     0.002 A 
ATOM     97  C   UNL     1       9.230  25.244  -8.139  1.00  0.00     0.091 A 
ATOM     98  F   UNL     1       6.988  25.018  -7.355  1.00  0.00    -0.205 F 
ATOM     99  C   UNL     1      10.346  24.671  -8.770  1.00  0.00     0.022 A 
BRANCH  97 100
ATOM    100  S   UNL     1       9.379  26.952  -7.601  1.00  0.00     0.127 S 
ATOM    101  O   UNL     1      10.265  26.824  -6.446  1.00  0.00    -0.237 OA
ATOM    102  O   UNL     1       9.986  27.591  -8.769  1.00  0.00    -0.237 OA
ATOM    103  O   UNL     1       8.025  27.399  -7.304  1.00  0.00    -0.744 OA
ENDBRANCH  97 100
ENDBRANCH  70  93
ENDBRANCH  44  45
ENDBRANCH  36  39
ENDBRANCH  34  35
ENDBRANCH  33  34
ENDBRANCH  32  33
ENDBRANCH  31  32
ENDBRANCH  29  31
ENDBRANCH   1  27
TORSDOF 23
