REMARK SMILES Cc1n[nH]c(C[N@H+]2CCC[C@H](c3cccc(C(=O)NCCCCNC(=O)c4ccc(-c5c6nc(c(-c7cccc(S(=O)(=O)[O-])c7F)c7ccc([nH]7)c(-c7cccc(S(=O)(=O)[O-])c7F)c7nc(c(-c8cccc(S(=O)(=O)[O-])c8F)c8ccc5[nH]8)C=C7)C=C6)cc4)c3)C2)n1
REMARK SMILES IDX 21 1 20 2 19 3 17 4 18 5 16 7 12 8 13 9 90 10 14 11 15 12
REMARK SMILES IDX 11 13 7 14 8 15 91 16 9 18 10 19 6 20 5 21 1 22 2 23 3 24
REMARK SMILES IDX 92 25 4 26 22 28 23 29 24 30 25 31 26 33 27 34 28 35 89 36
REMARK SMILES IDX 29 37 88 38 30 39 31 40 32 41 82 42 33 43 87 44 81 45 83 46
REMARK SMILES IDX 34 47 86 48 80 49 79 50 35 52 67 53 47 54 66 55 48 56 51 57
REMARK SMILES IDX 65 58 84 59 49 60 50 61 64 63 85 64 52 65 36 66 37 67 45 68
REMARK SMILES IDX 38 69 40 70 46 71 39 72 41 73 42 74 43 75 44 76 68 77 69 78
REMARK SMILES IDX 77 79 70 80 72 81 78 82 71 83 73 84 74 85 75 86 76 87 53 88
REMARK SMILES IDX 54 89 62 90 55 91 57 92 63 93 56 94 58 95 59 96 60 97 61 98
REMARK H PARENT 19 6 7 17 4 27 24 32 83 51 51 62
REMARK Flexibility Score: inf
ROOT
ATOM      1  C   UNL     1      -0.123   7.550   6.836  1.00  0.00     0.023 C 
ENDROOT
BRANCH   1   2
ATOM      2  C   UNL     1      -0.874   8.174   5.659  1.00  0.00     0.116 C 
BRANCH   2   3
ATOM      3  N   UNL     1      -0.475   9.538   5.331  1.00  0.00    -0.352 N 
ATOM      4  C   UNL     1       0.150  10.118   4.241  1.00  0.00     0.251 C 
ATOM      5  O   UNL     1       0.511  11.290   4.346  1.00  0.00    -0.269 OA
ATOM      6  H   UNL     1      -0.700  10.186   6.037  1.00  0.00     0.163 HD
BRANCH   4   7
ATOM      7  C   UNL     1       0.523   9.360   3.013  1.00  0.00     0.040 A 
ATOM      8  C   UNL     1       0.525   7.239   1.823  1.00  0.00    -0.039 A 
ATOM      9  C   UNL     1       1.615   7.691   1.066  1.00  0.00     0.004 A 
ATOM     10  C   UNL     1      -0.095   8.166   2.667  1.00  0.00     0.018 A 
ATOM     11  C   UNL     1       2.095   8.995   1.214  1.00  0.00     0.001 A 
ATOM     12  C   UNL     1       1.583   9.810   2.222  1.00  0.00     0.014 A 
BRANCH   8  13
ATOM     13  C   UNL     1       0.114   5.768   1.921  1.00  0.00     0.074 C 
ATOM     14  N   UNL     1      -0.004   5.217  -0.486  1.00  0.00    -0.328 N 
ATOM     15  C   UNL     1      -1.458   5.029  -0.430  1.00  0.00     0.262 C 
ATOM     16  C   UNL     1       0.636   4.865   0.792  1.00  0.00     0.270 C 
ATOM     17  H   UNL     1       0.135   6.215  -0.643  1.00  0.00     0.348 HD
ATOM     18  C   UNL     1      -2.100   5.804   0.727  1.00  0.00     0.062 C 
ATOM     19  C   UNL     1      -1.401   5.505   2.048  1.00  0.00     0.020 C 
BRANCH  14  20
ATOM     20  C   UNL     1       0.646   4.563  -1.627  1.00  0.00     0.340 C 
BRANCH  20  21
ATOM     21  C   UNL     1       0.616   3.074  -1.581  1.00  0.00     0.179 A 
ATOM     22  C   UNL     1       1.064  -0.142  -0.225  1.00  0.00     0.092 C 
ATOM     23  C   UNL     1       0.735   1.043  -1.040  1.00  0.00     0.147 A 
ATOM     24  N   UNL     1      -0.147   1.025  -2.047  1.00  0.00    -0.159 NA
ATOM     25  N   UNL     1       1.266   2.271  -0.763  1.00  0.00    -0.211 NA
ATOM     26  N   UNL     1      -0.204   2.327  -2.373  1.00  0.00    -0.258 N 
ATOM     27  H   UNL     1      -0.767   2.695  -3.093  1.00  0.00     0.192 HD
ENDBRANCH  20  21
ENDBRANCH  14  20
ENDBRANCH   8  13
ENDBRANCH   4   7
ENDBRANCH   2   3
ENDBRANCH   1   2
BRANCH   1  28
ATOM     28  C   UNL     1      -0.469   8.055   8.236  1.00  0.00     0.023 C 
BRANCH  28  29
ATOM     29  C   UNL     1      -1.936   7.930   8.618  1.00  0.00     0.116 C 
BRANCH  29  30
ATOM     30  N   UNL     1      -2.450   6.548   8.613  1.00  0.00    -0.352 N 
ATOM     31  C   UNL     1      -3.748   6.109   8.882  1.00  0.00     0.251 C 
ATOM     32  H   UNL     1      -1.796   5.847   8.392  1.00  0.00     0.163 HD
ATOM     33  O   UNL     1      -3.978   4.958   9.204  1.00  0.00    -0.269 OA
BRANCH  31  34
ATOM     34  C   UNL     1      -4.846   7.083   8.721  1.00  0.00     0.039 A 
ATOM     35  C   UNL     1      -5.964   7.170   9.557  1.00  0.00     0.014 A 
ATOM     36  C   UNL     1      -4.670   7.985   7.686  1.00  0.00     0.014 A 
ATOM     37  C   UNL     1      -6.871   8.210   9.338  1.00  0.00     0.010 A 
ATOM     38  C   UNL     1      -5.328   9.168   7.731  1.00  0.00     0.010 A 
ATOM     39  C   UNL     1      -6.532   9.197   8.406  1.00  0.00    -0.014 A 
BRANCH  39  40
ATOM     40  C   UNL     1      -7.358  10.337   8.060  1.00  0.00     0.031 A 
ATOM     41  C   UNL     1      -7.461  11.350   9.132  1.00  0.00     0.074 A 
ATOM     42  C   UNL     1      -7.677  10.579   6.766  1.00  0.00     0.049 A 
ATOM     43  N   UNL     1      -8.499  11.613   9.849  1.00  0.00    -0.248 NA
ATOM     44  C   UNL     1      -6.232  12.012   9.599  1.00  0.00     0.031 C 
ATOM     45  C   UNL     1      -7.286   9.815   5.567  1.00  0.00     0.029 A 
ATOM     46  N   UNL     1      -8.277  11.670   6.227  1.00  0.00    -0.354 N 
ATOM     47  C   UNL     1      -8.117  12.660  10.681  1.00  0.00     0.074 A 
ATOM     48  C   UNL     1      -6.680  12.664  10.674  1.00  0.00     0.031 C 
ATOM     49  C   UNL     1      -7.439  10.586   4.467  1.00  0.00     0.029 A 
ATOM     50  C   UNL     1      -8.072  11.831   4.858  1.00  0.00     0.049 A 
ATOM     51  H   UNL     1      -8.816  12.298   6.761  1.00  0.00     0.167 HD
ATOM     52  C   UNL     1      -9.013  13.610  11.070  1.00  0.00     0.034 A 
ATOM     53  C   UNL     1      -8.348  12.941   4.125  1.00  0.00     0.034 A 
ATOM     54  C   UNL     1     -10.352  13.233  10.680  1.00  0.00     0.049 A 
ATOM     55  C   UNL     1      -9.319  13.741   4.911  1.00  0.00     0.074 A 
ATOM     56  C   UNL     1     -11.180  12.162  10.951  1.00  0.00     0.029 A 
ATOM     57  N   UNL     1     -10.839  13.814   9.530  1.00  0.00    -0.354 N 
ATOM     58  N   UNL     1     -10.529  13.328   5.174  1.00  0.00    -0.248 NA
ATOM     59  C   UNL     1      -8.792  14.748   5.819  1.00  0.00     0.031 C 
ATOM     60  C   UNL     1     -11.811  11.868   9.707  1.00  0.00     0.029 A 
ATOM     61  C   UNL     1     -11.414  12.828   8.772  1.00  0.00     0.049 A 
ATOM     62  H   UNL     1     -10.784  14.768   9.294  1.00  0.00     0.167 HD
ATOM     63  C   UNL     1     -10.712  13.642   6.516  1.00  0.00     0.074 A 
ATOM     64  C   UNL     1      -9.662  14.614   6.827  1.00  0.00     0.031 C 
ATOM     65  C   UNL     1     -11.480  12.853   7.326  1.00  0.00     0.034 A 
BRANCH  52  66
ATOM     66  C   UNL     1      -8.700  15.037  11.456  1.00  0.00     0.023 A 
ATOM     67  C   UNL     1      -9.774  15.800  11.971  1.00  0.00     0.012 A 
ATOM     68  C   UNL     1      -7.524  15.742  11.117  1.00  0.00     0.148 A 
ATOM     69  C   UNL     1      -9.707  17.193  12.075  1.00  0.00     0.002 A 
ATOM     70  C   UNL     1      -7.436  17.119  11.289  1.00  0.00     0.091 A 
ATOM     71  F   UNL     1      -6.517  15.117  10.503  1.00  0.00    -0.205 F 
ATOM     72  C   UNL     1      -8.536  17.854  11.735  1.00  0.00     0.022 A 
BRANCH  70  73
ATOM     73  S   UNL     1      -5.931  18.026  10.903  1.00  0.00     0.127 S 
ATOM     74  O   UNL     1      -6.318  18.727   9.682  1.00  0.00    -0.237 OA
ATOM     75  O   UNL     1      -5.782  18.874  12.086  1.00  0.00    -0.237 OA
ATOM     76  O   UNL     1      -4.890  17.017  10.757  1.00  0.00    -0.744 OA
ENDBRANCH  70  73
ENDBRANCH  52  66
BRANCH  53  77
ATOM     77  C   UNL     1      -7.646  13.488   2.938  1.00  0.00     0.023 A 
ATOM     78  C   UNL     1      -8.284  14.422   2.095  1.00  0.00     0.012 A 
ATOM     79  C   UNL     1      -6.254  13.304   2.781  1.00  0.00     0.148 A 
ATOM     80  C   UNL     1      -7.557  15.162   1.149  1.00  0.00     0.002 A 
ATOM     81  C   UNL     1      -5.538  14.034   1.836  1.00  0.00     0.091 A 
ATOM     82  F   UNL     1      -5.615  12.486   3.627  1.00  0.00    -0.205 F 
ATOM     83  C   UNL     1      -6.183  14.973   1.024  1.00  0.00     0.022 A 
BRANCH  81  84
ATOM     84  S   UNL     1      -3.759  13.851   1.647  1.00  0.00     0.127 S 
ATOM     85  O   UNL     1      -3.618  13.754   0.193  1.00  0.00    -0.237 OA
ATOM     86  O   UNL     1      -3.270  15.095   2.232  1.00  0.00    -0.237 OA
ATOM     87  O   UNL     1      -3.419  12.628   2.363  1.00  0.00    -0.744 OA
ENDBRANCH  81  84
ENDBRANCH  53  77
BRANCH  65  88
ATOM     88  C   UNL     1     -12.284  11.744   6.685  1.00  0.00     0.023 A 
ATOM     89  C   UNL     1     -11.681  10.646   6.033  1.00  0.00     0.012 A 
ATOM     90  C   UNL     1     -13.665  11.704   6.929  1.00  0.00     0.148 A 
ATOM     91  C   UNL     1     -12.437   9.544   5.622  1.00  0.00     0.002 A 
ATOM     92  C   UNL     1     -14.406  10.586   6.565  1.00  0.00     0.091 A 
ATOM     93  F   UNL     1     -14.227  12.749   7.554  1.00  0.00    -0.205 F 
ATOM     94  C   UNL     1     -13.799   9.508   5.902  1.00  0.00     0.022 A 
BRANCH  92  95
ATOM     95  S   UNL     1     -16.131  10.422   7.026  1.00  0.00     0.127 S 
ATOM     96  O   UNL     1     -16.810  10.674   5.757  1.00  0.00    -0.237 OA
ATOM     97  O   UNL     1     -16.201   9.036   7.494  1.00  0.00    -0.237 OA
ATOM     98  O   UNL     1     -16.361  11.412   8.070  1.00  0.00    -0.744 OA
ENDBRANCH  92  95
ENDBRANCH  65  88
ENDBRANCH  39  40
ENDBRANCH  31  34
ENDBRANCH  29  30
ENDBRANCH  28  29
ENDBRANCH   1  28
TORSDOF 17
