REMARK SMILES CC(C)(C)SSC[C@H]([NH3+])C(=O)NCCCCNC(=O)c1ccc(-c2c3nc(c(-c4cccc(S(=O)(=O)[O-])c4F)c4ccc([nH]4)c(-c4cccc(S(=O)(=O)[O-])c4F)c4nc(c(-c5cccc(S(=O)(=O)[O-])c5F)c5ccc2[nH]5)C=C4)C=C3)cc1
REMARK SMILES IDX 14 1 13 2 12 3 10 4 11 5 8 7 7 8 6 9 5 10 2 11 1 12 3 13
REMARK SMILES IDX 4 14 9 15 15 19 16 20 17 21 18 22 19 24 20 25 21 26 82 27
REMARK SMILES IDX 22 28 81 29 23 30 24 31 25 32 75 33 26 34 80 35 74 36 76 37
REMARK SMILES IDX 27 38 79 39 73 40 72 41 28 43 60 44 40 45 59 46 41 47 44 48
REMARK SMILES IDX 58 49 77 50 42 51 43 52 57 54 78 55 45 56 29 57 30 58 38 59
REMARK SMILES IDX 31 60 33 61 39 62 32 63 34 64 35 65 36 66 37 67 61 68 62 69
REMARK SMILES IDX 70 70 63 71 65 72 71 73 64 74 66 75 67 76 68 77 69 78 46 79
REMARK SMILES IDX 47 80 55 81 48 82 50 83 56 84 49 85 51 86 52 87 53 88 54 89
REMARK H PARENT 12 6 9 16 9 17 9 18 17 23 76 42 44 53
REMARK Flexibility Score: inf
ROOT
ATOM      1  C   UNL     1       4.324   4.670  -5.325  1.00  0.00     0.023 C 
ENDROOT
BRANCH   1   2
ATOM      2  C   UNL     1       3.502   5.043  -4.095  1.00  0.00     0.116 C 
BRANCH   2   3
ATOM      3  N   UNL     1       2.460   6.004  -4.405  1.00  0.00    -0.351 N 
ATOM      4  C   UNL     1       1.106   5.941  -4.244  1.00  0.00     0.279 C 
ATOM      5  O   UNL     1       0.449   6.946  -4.525  1.00  0.00    -0.268 OA
ATOM      6  H   UNL     1       2.784   6.845  -4.800  1.00  0.00     0.163 HD
BRANCH   4   7
ATOM      7  C   UNL     1       0.419   4.680  -3.689  1.00  0.00     0.281 C 
BRANCH   7   8
ATOM      8  C   UNL     1       0.719   4.587  -2.182  1.00  0.00     0.157 C 
BRANCH   8   9
ATOM      9  S   UNL     1       0.057   3.100  -1.353  1.00  0.00    -0.087 SA
BRANCH   9  10
ATOM     10  S   UNL     1      -1.971   3.428  -1.421  1.00  0.00    -0.088 SA
BRANCH  10  11
ATOM     11  C   UNL     1      -2.732   1.871  -0.776  1.00  0.00     0.018 C 
ATOM     12  C   UNL     1      -4.252   2.091  -0.807  1.00  0.00     0.023 C 
ATOM     13  C   UNL     1      -2.284   1.621   0.669  1.00  0.00     0.023 C 
ATOM     14  C   UNL     1      -2.373   0.676  -1.668  1.00  0.00     0.023 C 
ENDBRANCH  10  11
ENDBRANCH   9  10
ENDBRANCH   8   9
ENDBRANCH   7   8
BRANCH   7  15
ATOM     15  N   UNL     1       0.753   3.485  -4.501  1.00  0.00    -0.347 N 
ATOM     16  H   UNL     1       1.762   3.335  -4.487  1.00  0.00     0.345 HD
ATOM     17  H   UNL     1       0.445   3.630  -5.463  1.00  0.00     0.345 HD
ATOM     18  H   UNL     1       0.282   2.667  -4.114  1.00  0.00     0.345 HD
ENDBRANCH   7  15
ENDBRANCH   4   7
ENDBRANCH   2   3
ENDBRANCH   1   2
BRANCH   1  19
ATOM     19  C   UNL     1       5.120   5.821  -5.942  1.00  0.00     0.023 C 
BRANCH  19  20
ATOM     20  C   UNL     1       6.051   6.559  -4.986  1.00  0.00     0.116 C 
BRANCH  20  21
ATOM     21  N   UNL     1       7.054   5.693  -4.382  1.00  0.00    -0.352 N 
ATOM     22  C   UNL     1       8.399   5.927  -4.218  1.00  0.00     0.251 C 
ATOM     23  H   UNL     1       6.726   4.827  -4.046  1.00  0.00     0.163 HD
ATOM     24  O   UNL     1       9.136   5.041  -3.794  1.00  0.00    -0.269 OA
BRANCH  22  25
ATOM     25  C   UNL     1       8.952   7.247  -4.588  1.00  0.00     0.039 A 
ATOM     26  C   UNL     1      10.060   7.308  -5.438  1.00  0.00     0.014 A 
ATOM     27  C   UNL     1       8.342   8.418  -4.133  1.00  0.00     0.014 A 
ATOM     28  C   UNL     1      10.514   8.549  -5.891  1.00  0.00     0.010 A 
ATOM     29  C   UNL     1       8.753   9.645  -4.638  1.00  0.00     0.010 A 
ATOM     30  C   UNL     1       9.841   9.725  -5.522  1.00  0.00    -0.014 A 
BRANCH  30  31
ATOM     31  C   UNL     1      10.241  11.058  -6.039  1.00  0.00     0.031 A 
ATOM     32  C   UNL     1      10.703  12.118  -5.079  1.00  0.00     0.074 A 
ATOM     33  C   UNL     1      10.057  11.357  -7.340  1.00  0.00     0.049 A 
ATOM     34  N   UNL     1      10.933  13.386  -5.295  1.00  0.00    -0.248 NA
ATOM     35  C   UNL     1      10.895  11.702  -3.679  1.00  0.00     0.031 C 
ATOM     36  C   UNL     1       9.545  10.437  -8.357  1.00  0.00     0.029 A 
ATOM     37  N   UNL     1      10.238  12.536  -8.020  1.00  0.00    -0.354 N 
ATOM     38  C   UNL     1      11.239  13.931  -4.054  1.00  0.00     0.074 A 
ATOM     39  C   UNL     1      11.145  12.860  -3.086  1.00  0.00     0.031 C 
ATOM     40  C   UNL     1       9.441  11.088  -9.527  1.00  0.00     0.029 A 
ATOM     41  C   UNL     1       9.847  12.478  -9.338  1.00  0.00     0.049 A 
ATOM     42  H   UNL     1      10.612  13.346  -7.604  1.00  0.00     0.167 HD
ATOM     43  C   UNL     1      11.592  15.203  -3.751  1.00  0.00     0.034 A 
ATOM     44  C   UNL     1       9.805  13.438 -10.282  1.00  0.00     0.034 A 
ATOM     45  C   UNL     1      11.749  16.247  -4.725  1.00  0.00     0.049 A 
ATOM     46  C   UNL     1      10.270  14.827  -9.936  1.00  0.00     0.074 A 
ATOM     47  C   UNL     1      12.196  17.542  -4.534  1.00  0.00     0.029 A 
ATOM     48  N   UNL     1      11.467  16.115  -6.076  1.00  0.00    -0.354 N 
ATOM     49  N   UNL     1      10.698  15.289  -8.787  1.00  0.00    -0.248 NA
ATOM     50  C   UNL     1      10.281  15.818 -11.023  1.00  0.00     0.031 C 
ATOM     51  C   UNL     1      12.180  18.195  -5.771  1.00  0.00     0.029 A 
ATOM     52  C   UNL     1      11.735  17.302  -6.733  1.00  0.00     0.049 A 
ATOM     53  H   UNL     1      11.127  15.296  -6.505  1.00  0.00     0.167 HD
ATOM     54  C   UNL     1      11.068  16.609  -9.019  1.00  0.00     0.074 A 
ATOM     55  C   UNL     1      10.823  16.871 -10.422  1.00  0.00     0.031 C 
ATOM     56  C   UNL     1      11.553  17.525  -8.145  1.00  0.00     0.034 A 
BRANCH  43  57
ATOM     57  C   UNL     1      11.890  15.515  -2.308  1.00  0.00     0.023 A 
ATOM     58  C   UNL     1      13.072  15.018  -1.722  1.00  0.00     0.012 A 
ATOM     59  C   UNL     1      11.027  16.324  -1.544  1.00  0.00     0.148 A 
ATOM     60  C   UNL     1      13.370  15.287  -0.387  1.00  0.00     0.002 A 
ATOM     61  C   UNL     1      11.353  16.623  -0.226  1.00  0.00     0.091 A 
ATOM     62  F   UNL     1       9.894  16.767  -2.109  1.00  0.00    -0.205 F 
ATOM     63  C   UNL     1      12.517  16.096   0.357  1.00  0.00     0.022 A 
BRANCH  61  64
ATOM     64  S   UNL     1      10.351  17.721   0.783  1.00  0.00     0.127 S 
ATOM     65  O   UNL     1       9.620  16.770   1.618  1.00  0.00    -0.237 OA
ATOM     66  O   UNL     1      11.364  18.503   1.495  1.00  0.00    -0.237 OA
ATOM     67  O   UNL     1       9.546  18.492  -0.153  1.00  0.00    -0.744 OA
ENDBRANCH  61  64
ENDBRANCH  43  57
BRANCH  44  68
ATOM     68  C   UNL     1       9.376  13.093 -11.667  1.00  0.00     0.023 A 
ATOM     69  C   UNL     1      10.343  13.032 -12.689  1.00  0.00     0.012 A 
ATOM     70  C   UNL     1       8.038  12.772 -11.967  1.00  0.00     0.148 A 
ATOM     71  C   UNL     1       9.983  12.681 -13.990  1.00  0.00     0.002 A 
ATOM     72  C   UNL     1       7.695  12.373 -13.255  1.00  0.00     0.091 A 
ATOM     73  F   UNL     1       7.131  12.845 -10.983  1.00  0.00    -0.205 F 
ATOM     74  C   UNL     1       8.663  12.341 -14.271  1.00  0.00     0.022 A 
BRANCH  72  75
ATOM     75  S   UNL     1       6.049  11.791 -13.679  1.00  0.00     0.127 S 
ATOM     76  O   UNL     1       5.556  12.876 -14.523  1.00  0.00    -0.237 OA
ATOM     77  O   UNL     1       6.344  10.544 -14.388  1.00  0.00    -0.237 OA
ATOM     78  O   UNL     1       5.357  11.610 -12.411  1.00  0.00    -0.744 OA
ENDBRANCH  72  75
ENDBRANCH  44  68
BRANCH  56  79
ATOM     79  C   UNL     1      11.903  18.889  -8.676  1.00  0.00     0.023 A 
ATOM     80  C   UNL     1      10.878  19.809  -8.972  1.00  0.00     0.012 A 
ATOM     81  C   UNL     1      13.249  19.293  -8.779  1.00  0.00     0.148 A 
ATOM     82  C   UNL     1      11.188  21.105  -9.381  1.00  0.00     0.002 A 
ATOM     83  C   UNL     1      13.550  20.600  -9.145  1.00  0.00     0.091 A 
ATOM     84  F   UNL     1      14.209  18.395  -8.512  1.00  0.00    -0.205 F 
ATOM     85  C   UNL     1      12.521  21.504  -9.454  1.00  0.00     0.022 A 
BRANCH  83  86
ATOM     86  S   UNL     1      15.234  21.225  -9.172  1.00  0.00     0.127 S 
ATOM     87  O   UNL     1      15.503  21.296 -10.607  1.00  0.00    -0.237 OA
ATOM     88  O   UNL     1      15.095  22.524  -8.512  1.00  0.00    -0.237 OA
ATOM     89  O   UNL     1      16.032  20.257  -8.431  1.00  0.00    -0.744 OA
ENDBRANCH  83  86
ENDBRANCH  56  79
ENDBRANCH  30  31
ENDBRANCH  22  25
ENDBRANCH  20  21
ENDBRANCH  19  20
ENDBRANCH   1  19
TORSDOF 19
