REMARK SMILES O=C(CCc1cccnc1)Nc1cccc(F)c1C(=O)NCCCCNC(=O)c1ccc(-c2c3nc(c(-c4cccc(S(=O)(=O)[O-])c4F)c4ccc([nH]4)c(-c4cccc(S(=O)(=O)[O-])c4F)c4nc(c(-c5cccc(S(=O)(=O)[O-])c5F)c5ccc2[nH]5)C=C4)C=C3)cc1
REMARK SMILES IDX 23 1 22 2 21 3 19 4 20 5 18 7 12 8 13 9 14 10 16 11 15 12
REMARK SMILES IDX 17 13 11 14 1 15 2 16 3 18 4 19 5 20 6 21 10 22 7 23 9 24
REMARK SMILES IDX 8 25 24 26 25 27 26 28 27 29 28 31 29 32 30 33 91 34 31 35
REMARK SMILES IDX 90 36 32 37 33 38 34 39 84 40 35 41 89 42 83 43 85 44 36 45
REMARK SMILES IDX 88 46 82 47 81 48 37 50 69 51 49 52 68 53 50 54 53 55 67 56
REMARK SMILES IDX 86 57 51 58 52 59 66 61 87 62 54 63 38 64 39 65 47 66 40 67
REMARK SMILES IDX 42 68 48 69 41 70 43 71 44 72 45 73 46 74 70 75 71 76 79 77
REMARK SMILES IDX 72 78 74 79 80 80 73 81 75 82 76 83 77 84 78 85 55 86 56 87
REMARK SMILES IDX 64 88 57 89 59 90 65 91 58 92 60 93 61 94 62 95 63 96
REMARK H PARENT 21 6 11 17 26 30 85 49 53 60
REMARK Flexibility Score: inf
ROOT
ATOM      1  C   UNL     1       5.027  -2.855   6.611  1.00  0.00     0.023 C 
ENDROOT
BRANCH   1   2
ATOM      2  C   UNL     1       3.740  -2.201   6.113  1.00  0.00     0.116 C 
BRANCH   2   3
ATOM      3  N   UNL     1       3.914  -1.076   5.206  1.00  0.00    -0.352 N 
ATOM      4  C   UNL     1       3.168  -0.661   4.119  1.00  0.00     0.256 C 
ATOM      5  O   UNL     1       3.489   0.394   3.567  1.00  0.00    -0.269 OA
ATOM      6  H   UNL     1       4.699  -0.515   5.400  1.00  0.00     0.163 HD
BRANCH   4   7
ATOM      7  C   UNL     1       2.058  -1.458   3.523  1.00  0.00     0.099 A 
ATOM      8  C   UNL     1       1.836  -1.452   2.122  1.00  0.00     0.056 A 
ATOM      9  C   UNL     1       0.906  -2.357   1.580  1.00  0.00     0.027 A 
ATOM     10  C   UNL     1       0.130  -3.178   2.396  1.00  0.00     0.005 A 
ATOM     11  C   UNL     1       1.170  -2.186   4.322  1.00  0.00     0.138 A 
ATOM     12  C   UNL     1       0.234  -3.060   3.772  1.00  0.00     0.040 A 
ATOM     13  F   UNL     1       1.147  -2.038   5.654  1.00  0.00    -0.206 F 
BRANCH   8  14
ATOM     14  N   UNL     1       2.532  -0.544   1.268  1.00  0.00    -0.325 N 
ATOM     15  O   UNL     1       1.053  -0.450  -0.511  1.00  0.00    -0.275 OA
ATOM     16  C   UNL     1       2.139  -0.163   0.000  1.00  0.00     0.224 C 
ATOM     17  H   UNL     1       3.367  -0.155   1.615  1.00  0.00     0.169 HD
BRANCH  16  18
ATOM     18  C   UNL     1       3.148   0.591  -0.857  1.00  0.00     0.105 C 
BRANCH  18  19
ATOM     19  C   UNL     1       4.125   1.543  -0.180  1.00  0.00     0.047 C 
BRANCH  19  20
ATOM     20  C   UNL     1       5.269   0.936   0.590  1.00  0.00    -0.029 A 
ATOM     21  C   UNL     1       5.922   1.708   1.556  1.00  0.00     0.007 A 
ATOM     22  C   UNL     1       5.737  -0.362   0.401  1.00  0.00     0.114 A 
ATOM     23  C   UNL     1       6.949   1.155   2.312  1.00  0.00     0.020 A 
ATOM     24  N   UNL     1       6.727  -0.929   1.125  1.00  0.00    -0.264 NA
ATOM     25  C   UNL     1       7.305  -0.160   2.071  1.00  0.00     0.111 A 
ENDBRANCH  19  20
ENDBRANCH  18  19
ENDBRANCH  16  18
ENDBRANCH   8  14
ENDBRANCH   4   7
ENDBRANCH   2   3
ENDBRANCH   1   2
BRANCH   1  26
ATOM     26  C   UNL     1       6.015  -1.981   7.378  1.00  0.00     0.023 C 
BRANCH  26  27
ATOM     27  C   UNL     1       5.461  -1.141   8.525  1.00  0.00     0.116 C 
BRANCH  27  28
ATOM     28  N   UNL     1       4.774  -1.908   9.552  1.00  0.00    -0.352 N 
ATOM     29  C   UNL     1       4.944  -1.923  10.922  1.00  0.00     0.251 C 
ATOM     30  H   UNL     1       4.074  -2.514   9.217  1.00  0.00     0.163 HD
ATOM     31  O   UNL     1       4.280  -2.691  11.602  1.00  0.00    -0.269 OA
BRANCH  29  32
ATOM     32  C   UNL     1       5.952  -1.046  11.571  1.00  0.00     0.039 A 
ATOM     33  C   UNL     1       6.773  -1.592  12.564  1.00  0.00     0.014 A 
ATOM     34  C   UNL     1       6.096   0.296  11.216  1.00  0.00     0.014 A 
ATOM     35  C   UNL     1       7.794  -0.821  13.130  1.00  0.00     0.010 A 
ATOM     36  C   UNL     1       7.162   1.039  11.724  1.00  0.00     0.010 A 
ATOM     37  C   UNL     1       8.028   0.489  12.681  1.00  0.00    -0.014 A 
BRANCH  37  38
ATOM     38  C   UNL     1       9.184   1.287  13.173  1.00  0.00     0.031 A 
ATOM     39  C   UNL     1       8.961   2.588  13.897  1.00  0.00     0.074 A 
ATOM     40  C   UNL     1      10.441   0.897  12.873  1.00  0.00     0.049 A 
ATOM     41  N   UNL     1       9.843   3.459  14.315  1.00  0.00    -0.248 NA
ATOM     42  C   UNL     1       7.566   2.979  14.159  1.00  0.00     0.031 C 
ATOM     43  C   UNL     1      10.794  -0.295  12.101  1.00  0.00     0.029 A 
ATOM     44  N   UNL     1      11.654   1.480  13.153  1.00  0.00    -0.354 N 
ATOM     45  C   UNL     1       9.114   4.517  14.844  1.00  0.00     0.074 A 
ATOM     46  C   UNL     1       7.715   4.191  14.675  1.00  0.00     0.031 C 
ATOM     47  C   UNL     1      12.128  -0.356  11.968  1.00  0.00     0.029 A 
ATOM     48  C   UNL     1      12.728   0.804  12.620  1.00  0.00     0.049 A 
ATOM     49  H   UNL     1      11.746   2.303  13.685  1.00  0.00     0.167 HD
ATOM     50  C   UNL     1       9.566   5.642  15.444  1.00  0.00     0.034 A 
ATOM     51  C   UNL     1      14.047   1.087  12.643  1.00  0.00     0.034 A 
ATOM     52  C   UNL     1      10.955   5.928  15.683  1.00  0.00     0.049 A 
ATOM     53  C   UNL     1      14.526   2.307  13.382  1.00  0.00     0.074 A 
ATOM     54  C   UNL     1      11.501   6.982  16.395  1.00  0.00     0.029 A 
ATOM     55  N   UNL     1      12.014   5.165  15.220  1.00  0.00    -0.354 N 
ATOM     56  N   UNL     1      13.823   3.205  14.028  1.00  0.00    -0.248 NA
ATOM     57  C   UNL     1      15.978   2.539  13.426  1.00  0.00     0.031 C 
ATOM     58  C   UNL     1      12.892   6.865  16.349  1.00  0.00     0.029 A 
ATOM     59  C   UNL     1      13.212   5.729  15.622  1.00  0.00     0.049 A 
ATOM     60  H   UNL     1      11.927   4.343  14.685  1.00  0.00     0.167 HD
ATOM     61  C   UNL     1      14.744   4.092  14.574  1.00  0.00     0.074 A 
ATOM     62  C   UNL     1      16.059   3.611  14.205  1.00  0.00     0.031 C 
ATOM     63  C   UNL     1      14.517   5.214  15.299  1.00  0.00     0.034 A 
BRANCH  50  64
ATOM     64  C   UNL     1       8.554   6.628  15.964  1.00  0.00     0.023 A 
ATOM     65  C   UNL     1       7.829   6.321  17.133  1.00  0.00     0.012 A 
ATOM     66  C   UNL     1       8.400   7.894  15.365  1.00  0.00     0.148 A 
ATOM     67  C   UNL     1       6.952   7.250  17.688  1.00  0.00     0.002 A 
ATOM     68  C   UNL     1       7.555   8.831  15.948  1.00  0.00     0.091 A 
ATOM     69  F   UNL     1       9.087   8.158  14.244  1.00  0.00    -0.205 F 
ATOM     70  C   UNL     1       6.824   8.508  17.104  1.00  0.00     0.022 A 
BRANCH  68  71
ATOM     71  S   UNL     1       7.380  10.506  15.323  1.00  0.00     0.127 S 
ATOM     72  O   UNL     1       6.002  10.494  14.831  1.00  0.00    -0.237 OA
ATOM     73  O   UNL     1       7.590  11.307  16.529  1.00  0.00    -0.237 OA
ATOM     74  O   UNL     1       8.403  10.664  14.299  1.00  0.00    -0.744 OA
ENDBRANCH  68  71
ENDBRANCH  50  64
BRANCH  51  75
ATOM     75  C   UNL     1      15.012   0.147  12.004  1.00  0.00     0.023 A 
ATOM     76  C   UNL     1      15.843  -0.646  12.818  1.00  0.00     0.012 A 
ATOM     77  C   UNL     1      15.071  -0.009  10.605  1.00  0.00     0.148 A 
ATOM     78  C   UNL     1      16.728  -1.565  12.252  1.00  0.00     0.002 A 
ATOM     79  C   UNL     1      15.914  -0.965  10.050  1.00  0.00     0.091 A 
ATOM     80  F   UNL     1      14.284   0.767   9.845  1.00  0.00    -0.205 F 
ATOM     81  C   UNL     1      16.754  -1.734  10.870  1.00  0.00     0.022 A 
BRANCH  79  82
ATOM     82  S   UNL     1      15.907  -1.349   8.294  1.00  0.00     0.127 S 
ATOM     83  O   UNL     1      17.175  -0.773   7.856  1.00  0.00    -0.237 OA
ATOM     84  O   UNL     1      15.865  -2.812   8.304  1.00  0.00    -0.237 OA
ATOM     85  O   UNL     1      14.706  -0.721   7.761  1.00  0.00    -0.744 OA
ENDBRANCH  79  82
ENDBRANCH  51  75
BRANCH  63  86
ATOM     86  C   UNL     1      15.704   6.016  15.764  1.00  0.00     0.023 A 
ATOM     87  C   UNL     1      16.401   6.817  14.839  1.00  0.00     0.012 A 
ATOM     88  C   UNL     1      16.041   6.082  17.130  1.00  0.00     0.148 A 
ATOM     89  C   UNL     1      17.424   7.663  15.265  1.00  0.00     0.002 A 
ATOM     90  C   UNL     1      17.030   6.961  17.554  1.00  0.00     0.091 A 
ATOM     91  F   UNL     1      15.374   5.299  17.991  1.00  0.00    -0.205 F 
ATOM     92  C   UNL     1      17.728   7.746  16.622  1.00  0.00     0.022 A 
BRANCH  90  93
ATOM     93  S   UNL     1      17.420   7.212  19.290  1.00  0.00     0.127 S 
ATOM     94  O   UNL     1      18.730   6.572  19.397  1.00  0.00    -0.237 OA
ATOM     95  O   UNL     1      17.444   8.671  19.396  1.00  0.00    -0.237 OA
ATOM     96  O   UNL     1      16.348   6.569  20.039  1.00  0.00    -0.744 OA
ENDBRANCH  90  93
ENDBRANCH  63  86
ENDBRANCH  37  38
ENDBRANCH  29  32
ENDBRANCH  27  28
ENDBRANCH  26  27
ENDBRANCH   1  26
TORSDOF 18
