REMARK SMILES Cn1cc([C@@H]2CC(NCCCCNC(=O)c3ccc(-c4c5nc(c(-c6cccc(S(=O)(=O)[O-])c6F)c6ccc([nH]6)c(-c6cccc(S(=O)(=O)[O-])c6F)c6nc(c(-c7cccc(S(=O)(=O)[O-])c7F)c7ccc4[nH]7)C=C6)C=C5)cc3)=[NH+]c3c2sc(C(=O)[O-])c3-c2ccc(Cl)cc2)cn1
REMARK SMILES IDX 12 1 11 2 10 3 9 4 8 5 5 6 6 7 81 8 7 9 80 10 82 11 79 12
REMARK SMILES IDX 87 13 83 14 4 17 1 18 2 19 3 20 96 21 95 22 88 23 89 24
REMARK SMILES IDX 94 25 90 26 93 27 91 28 92 29 84 30 85 31 86 32 13 33 14 34
REMARK SMILES IDX 15 36 16 37 17 38 78 39 18 40 77 41 19 42 20 43 21 44 71 45
REMARK SMILES IDX 22 46 76 47 70 48 72 49 23 50 75 51 69 52 68 53 24 55 56 56
REMARK SMILES IDX 36 57 55 58 37 59 40 60 54 61 73 62 38 63 39 64 53 66 74 67
REMARK SMILES IDX 41 68 25 69 26 70 34 71 27 72 29 73 35 74 28 75 30 76 31 77
REMARK SMILES IDX 32 78 33 79 57 80 58 81 66 82 59 83 61 84 67 85 60 86 62 87
REMARK SMILES IDX 63 88 64 89 65 90 42 91 43 92 51 93 44 94 46 95 52 96 45 97
REMARK SMILES IDX 47 98 48 99 49 100 50 101
REMARK H PARENT 8 15 79 16 13 35 72 54 40 65
REMARK Flexibility Score: inf
ROOT
ATOM      1  C   UNL     1       3.266  -7.123  -4.610  1.00  0.00     0.116 C 
ENDROOT
BRANCH   1   2
ATOM      2  C   UNL     1       2.070  -6.708  -3.764  1.00  0.00     0.025 C 
BRANCH   2   3
ATOM      3  C   UNL     1       2.264  -6.876  -2.251  1.00  0.00     0.048 C 
BRANCH   3   4
ATOM      4  C   UNL     1       3.425  -6.094  -1.630  1.00  0.00     0.233 C 
BRANCH   4   5
ATOM      5  N   UNL     1       3.224  -4.660  -1.751  1.00  0.00    -0.278 N 
ATOM      6  C   UNL     1       2.666  -1.362   0.158  1.00  0.00     0.079 C 
ATOM      7  C   UNL     1       2.989  -2.319  -1.000  1.00  0.00     0.142 C 
ATOM      8  C   UNL     1       2.660  -2.098   1.456  1.00  0.00     0.061 A 
ATOM      9  C   UNL     1       3.019  -3.818  -0.672  1.00  0.00     0.248 C 
ATOM     10  C   UNL     1       2.772  -3.449   1.590  1.00  0.00     0.147 A 
ATOM     11  S   UNL     1       2.502  -1.337   2.968  1.00  0.00    -0.133 S 
ATOM     12  N   UNL     1       2.899  -4.331   0.519  1.00  0.00    -0.243 N 
ATOM     13  C   UNL     1       2.758  -3.903   2.946  1.00  0.00     0.049 A 
ATOM     14  C   UNL     1       2.574  -2.837   3.826  1.00  0.00     0.062 A 
ATOM     15  H   UNL     1       3.233  -4.265  -2.653  1.00  0.00     0.304 HD
ATOM     16  H   UNL     1       2.897  -5.306   0.658  1.00  0.00     0.312 HD
BRANCH   6  17
ATOM     17  C   UNL     1       1.373  -0.615  -0.040  1.00  0.00    -0.001 A 
ATOM     18  C   UNL     1      -2.179  -0.023  -0.141  1.00  0.00     0.173 C 
ATOM     19  N   UNL     1      -0.738  -0.023  -0.163  1.00  0.00    -0.276 N 
ATOM     20  C   UNL     1       0.083  -1.107  -0.086  1.00  0.00     0.112 A 
ATOM     21  N   UNL     1      -0.081   1.147  -0.215  1.00  0.00    -0.182 NA
ATOM     22  C   UNL     1       1.204   0.788  -0.140  1.00  0.00     0.139 A 
ENDBRANCH   6  17
BRANCH  13  23
ATOM     23  C   UNL     1       2.961  -5.287   3.363  1.00  0.00    -0.012 A 
ATOM     24  C   UNL     1       1.951  -6.013   4.005  1.00  0.00     0.010 A 
ATOM     25  C   UNL     1       4.191  -5.906   3.094  1.00  0.00     0.010 A 
ATOM     26  C   UNL     1       2.193  -7.323   4.428  1.00  0.00     0.021 A 
ATOM     27  C   UNL     1       4.428  -7.218   3.505  1.00  0.00     0.021 A 
ATOM     28  C   UNL     1       3.432  -7.915   4.184  1.00  0.00     0.041 A 
ATOM     29  Cl  UNL     1       3.732  -9.520   4.731  1.00  0.00    -0.084 Cl
ENDBRANCH  13  23
BRANCH  14  30
ATOM     30  C   UNL     1       2.460  -2.756   5.266  1.00  0.00     0.082 C 
ATOM     31  O   UNL     1       2.117  -1.796   5.953  1.00  0.00    -0.544 OA
ATOM     32  O   UNL     1       2.766  -3.908   5.898  1.00  0.00    -0.544 OA
ENDBRANCH  14  30
ENDBRANCH   4   5
ENDBRANCH   3   4
ENDBRANCH   2   3
ENDBRANCH   1   2
BRANCH   1  33
ATOM     33  N   UNL     1       3.550  -8.558  -4.544  1.00  0.00    -0.352 N 
ATOM     34  C   UNL     1       4.572  -9.241  -5.181  1.00  0.00     0.251 C 
ATOM     35  H   UNL     1       2.947  -9.097  -3.984  1.00  0.00     0.163 HD
ATOM     36  O   UNL     1       4.494 -10.447  -5.386  1.00  0.00    -0.269 OA
BRANCH  34  37
ATOM     37  C   UNL     1       5.766  -8.486  -5.599  1.00  0.00     0.039 A 
ATOM     38  C   UNL     1       6.375  -8.696  -6.839  1.00  0.00     0.014 A 
ATOM     39  C   UNL     1       6.244  -7.513  -4.725  1.00  0.00     0.014 A 
ATOM     40  C   UNL     1       7.418  -7.854  -7.223  1.00  0.00     0.010 A 
ATOM     41  C   UNL     1       7.151  -6.587  -5.170  1.00  0.00     0.010 A 
ATOM     42  C   UNL     1       7.784  -6.783  -6.391  1.00  0.00    -0.014 A 
BRANCH  42  43
ATOM     43  C   UNL     1       8.722  -5.761  -6.849  1.00  0.00     0.031 A 
ATOM     44  C   UNL     1       8.333  -5.141  -8.145  1.00  0.00     0.074 A 
ATOM     45  C   UNL     1       9.708  -5.265  -6.066  1.00  0.00     0.049 A 
ATOM     46  N   UNL     1       8.914  -5.278  -9.291  1.00  0.00    -0.248 NA
ATOM     47  C   UNL     1       7.041  -4.436  -8.219  1.00  0.00     0.031 C 
ATOM     48  C   UNL     1       9.970  -5.581  -4.653  1.00  0.00     0.029 A 
ATOM     49  N   UNL     1      10.596  -4.261  -6.311  1.00  0.00    -0.354 N 
ATOM     50  C   UNL     1       8.220  -4.436 -10.157  1.00  0.00     0.074 A 
ATOM     51  C   UNL     1       6.960  -4.160  -9.522  1.00  0.00     0.031 C 
ATOM     52  C   UNL     1      10.745  -4.619  -4.108  1.00  0.00     0.029 A 
ATOM     53  C   UNL     1      11.186  -3.729  -5.163  1.00  0.00     0.049 A 
ATOM     54  H   UNL     1      10.804  -3.939  -7.218  1.00  0.00     0.167 HD
ATOM     55  C   UNL     1       8.872  -3.776 -11.155  1.00  0.00     0.034 A 
ATOM     56  C   UNL     1      11.957  -2.618  -5.075  1.00  0.00     0.034 A 
ATOM     57  C   UNL     1      10.178  -4.345 -11.379  1.00  0.00     0.049 A 
ATOM     58  C   UNL     1      12.467  -2.340  -6.431  1.00  0.00     0.074 A 
ATOM     59  C   UNL     1      10.673  -5.583 -11.729  1.00  0.00     0.029 A 
ATOM     60  N   UNL     1      11.223  -3.647 -10.829  1.00  0.00    -0.354 N 
ATOM     61  N   UNL     1      13.298  -3.121  -7.061  1.00  0.00    -0.248 NA
ATOM     62  C   UNL     1      11.738  -1.397  -7.260  1.00  0.00     0.031 C 
ATOM     63  C   UNL     1      11.887  -5.719 -10.991  1.00  0.00     0.029 A 
ATOM     64  C   UNL     1      12.114  -4.532 -10.290  1.00  0.00     0.049 A 
ATOM     65  H   UNL     1      11.317  -2.667 -10.823  1.00  0.00     0.167 HD
ATOM     66  C   UNL     1      12.844  -3.107  -8.371  1.00  0.00     0.074 A 
ATOM     67  C   UNL     1      11.992  -1.923  -8.461  1.00  0.00     0.031 C 
ATOM     68  C   UNL     1      12.960  -4.218  -9.157  1.00  0.00     0.034 A 
BRANCH  55  69
ATOM     69  C   UNL     1       8.560  -2.358 -11.607  1.00  0.00     0.023 A 
ATOM     70  C   UNL     1       9.293  -1.862 -12.711  1.00  0.00     0.012 A 
ATOM     71  C   UNL     1       7.837  -1.407 -10.850  1.00  0.00     0.148 A 
ATOM     72  C   UNL     1       9.355  -0.494 -13.002  1.00  0.00     0.002 A 
ATOM     73  C   UNL     1       7.835  -0.059 -11.192  1.00  0.00     0.091 A 
ATOM     74  F   UNL     1       7.251  -1.760  -9.705  1.00  0.00    -0.205 F 
ATOM     75  C   UNL     1       8.620   0.409 -12.245  1.00  0.00     0.022 A 
BRANCH  73  76
ATOM     76  S   UNL     1       6.865   1.143 -10.270  1.00  0.00     0.127 S 
ATOM     77  O   UNL     1       7.909   1.881  -9.566  1.00  0.00    -0.237 OA
ATOM     78  O   UNL     1       6.203   1.877 -11.349  1.00  0.00    -0.237 OA
ATOM     79  O   UNL     1       5.959   0.362  -9.437  1.00  0.00    -0.744 OA
ENDBRANCH  73  76
ENDBRANCH  55  69
BRANCH  56  80
ATOM     80  C   UNL     1      12.130  -1.647  -3.970  1.00  0.00     0.023 A 
ATOM     81  C   UNL     1      13.288  -0.846  -3.912  1.00  0.00     0.012 A 
ATOM     82  C   UNL     1      11.035  -1.298  -3.149  1.00  0.00     0.148 A 
ATOM     83  C   UNL     1      13.342   0.287  -3.091  1.00  0.00     0.002 A 
ATOM     84  C   UNL     1      11.093  -0.171  -2.334  1.00  0.00     0.091 A 
ATOM     85  F   UNL     1       9.911  -2.021  -3.238  1.00  0.00    -0.205 F 
ATOM     86  C   UNL     1      12.241   0.632  -2.312  1.00  0.00     0.022 A 
BRANCH  84  87
ATOM     87  S   UNL     1       9.701   0.362  -1.326  1.00  0.00     0.127 S 
ATOM     88  O   UNL     1      10.311   0.453   0.001  1.00  0.00    -0.237 OA
ATOM     89  O   UNL     1       9.361   1.646  -1.932  1.00  0.00    -0.237 OA
ATOM     90  O   UNL     1       8.689  -0.679  -1.454  1.00  0.00    -0.744 OA
ENDBRANCH  84  87
ENDBRANCH  56  80
BRANCH  68  91
ATOM     91  C   UNL     1      13.898  -5.307  -8.701  1.00  0.00     0.023 A 
ATOM     92  C   UNL     1      13.695  -6.062  -7.527  1.00  0.00     0.012 A 
ATOM     93  C   UNL     1      14.938  -5.671  -9.572  1.00  0.00     0.148 A 
ATOM     94  C   UNL     1      14.528  -7.144  -7.222  1.00  0.00     0.002 A 
ATOM     95  C   UNL     1      15.730  -6.775  -9.291  1.00  0.00     0.091 A 
ATOM     96  F   UNL     1      15.117  -4.939 -10.683  1.00  0.00    -0.205 F 
ATOM     97  C   UNL     1      15.537  -7.509  -8.112  1.00  0.00     0.022 A 
BRANCH  95  98
ATOM     98  S   UNL     1      16.958  -7.361 -10.460  1.00  0.00     0.127 S 
ATOM     99  O   UNL     1      18.206  -6.942  -9.827  1.00  0.00    -0.237 OA
ATOM    100  O   UNL     1      16.726  -8.806 -10.460  1.00  0.00    -0.237 OA
ATOM    101  O   UNL     1      16.648  -6.710 -11.727  1.00  0.00    -0.744 OA
ENDBRANCH  95  98
ENDBRANCH  68  91
ENDBRANCH  42  43
ENDBRANCH  34  37
ENDBRANCH   1  33
TORSDOF 16
