REMARK SMILES CC(C)(C)c1cc2c(cc1Cl)C=C(C(=O)NCCCCNC(=O)c1ccc(-c3c4nc(c(-c5cccc(S(=O)(=O)[O-])c5F)c5ccc([nH]5)c(-c5cccc(S(=O)(=O)[O-])c5F)c5nc(c(-c6cccc(S(=O)(=O)[O-])c6F)c6ccc3[nH]6)C=C5)C=C4)cc1)[C@@H](C(F)(F)F)O2
REMARK SMILES IDX 19 1 18 2 17 3 16 4 14 5 15 6 13 8 5 9 6 10 10 11 7 12 9 13
REMARK SMILES IDX 11 14 8 15 92 16 12 17 87 18 2 19 1 20 3 21 4 22 88 23 89 24
REMARK SMILES IDX 90 25 91 26 20 27 21 28 22 29 23 31 24 32 25 33 86 34 26 35
REMARK SMILES IDX 85 36 27 37 28 38 29 39 79 40 30 41 84 42 78 43 80 44 31 45
REMARK SMILES IDX 83 46 77 47 76 48 32 50 64 51 44 52 63 53 45 54 48 55 62 56
REMARK SMILES IDX 81 57 46 58 47 59 61 61 82 62 49 63 33 64 34 65 42 66 35 67
REMARK SMILES IDX 37 68 43 69 36 70 38 71 39 72 40 73 41 74 65 75 66 76 74 77
REMARK SMILES IDX 67 78 69 79 75 80 68 81 70 82 71 83 72 84 73 85 50 86 51 87
REMARK SMILES IDX 59 88 52 89 54 90 60 91 53 92 55 93 56 94 57 95 58 96
REMARK H PARENT 16 7 21 30 80 49 48 60
REMARK Flexibility Score: inf
ROOT
ATOM      1  C   UNL     1       2.612   2.193  11.914  1.00  0.00     0.023 C 
ENDROOT
BRANCH   1   2
ATOM      2  C   UNL     1       2.549   2.281  10.387  1.00  0.00     0.023 C 
BRANCH   2   3
ATOM      3  C   UNL     1       3.641   1.494   9.667  1.00  0.00     0.116 C 
BRANCH   3   4
ATOM      4  N   UNL     1       3.273   0.103   9.463  1.00  0.00    -0.352 N 
ATOM      5  C   UNL     1       2.800  -0.655   8.446  1.00  0.00     0.251 C 
ATOM      6  O   UNL     1       2.619  -1.847   8.713  1.00  0.00    -0.270 OA
ATOM      7  H   UNL     1       3.401  -0.429  10.282  1.00  0.00     0.163 HD
BRANCH   5   8
ATOM      8  C   UNL     1       2.490  -0.157   7.072  1.00  0.00     0.067 C 
ATOM      9  C   UNL     1       0.760   0.277   2.296  1.00  0.00    -0.020 A 
ATOM     10  C   UNL     1       1.291   1.148   3.273  1.00  0.00     0.053 A 
ATOM     11  C   UNL     1       0.618  -1.076   2.691  1.00  0.00     0.045 A 
ATOM     12  C   UNL     1       1.665   0.708   4.545  1.00  0.00     0.128 A 
ATOM     13  C   UNL     1       1.001  -1.512   3.975  1.00  0.00     0.032 A 
ATOM     14  Cl  UNL     1      -0.070  -2.312   1.693  1.00  0.00    -0.084 Cl
ATOM     15  C   UNL     1       1.521  -0.620   4.908  1.00  0.00     0.019 A 
ATOM     16  O   UNL     1       2.114   1.667   5.405  1.00  0.00    -0.475 OA
ATOM     17  C   UNL     1       1.856  -1.030   6.265  1.00  0.00     0.025 C 
ATOM     18  C   UNL     1       2.872   1.203   6.558  1.00  0.00     0.314 C 
BRANCH   9  19
ATOM     19  C   UNL     1       0.332   0.852   0.922  1.00  0.00    -0.012 C 
ATOM     20  C   UNL     1       0.952   0.079  -0.263  1.00  0.00     0.016 C 
ATOM     21  C   UNL     1       0.769   2.330   0.708  1.00  0.00     0.016 C 
ATOM     22  C   UNL     1      -1.208   0.844   0.821  1.00  0.00     0.016 C 
ENDBRANCH   9  19
BRANCH  18  23
ATOM     23  C   UNL     1       4.374   1.316   6.241  1.00  0.00     0.429 C 
ATOM     24  F   UNL     1       4.726   2.617   6.081  1.00  0.00    -0.167 F 
ATOM     25  F   UNL     1       5.155   0.826   7.231  1.00  0.00    -0.167 F 
ATOM     26  F   UNL     1       4.716   0.663   5.107  1.00  0.00    -0.167 F 
ENDBRANCH  18  23
ENDBRANCH   5   8
ENDBRANCH   3   4
ENDBRANCH   2   3
ENDBRANCH   1   2
BRANCH   1  27
ATOM     27  C   UNL     1       3.947   2.590  12.542  1.00  0.00     0.116 C 
BRANCH  27  28
ATOM     28  N   UNL     1       4.451   3.888  12.112  1.00  0.00    -0.352 N 
ATOM     29  C   UNL     1       5.305   4.729  12.792  1.00  0.00     0.251 C 
ATOM     30  H   UNL     1       4.145   4.201  11.230  1.00  0.00     0.163 HD
ATOM     31  O   UNL     1       5.590   5.829  12.333  1.00  0.00    -0.269 OA
BRANCH  29  32
ATOM     32  C   UNL     1       5.818   4.300  14.110  1.00  0.00     0.039 A 
ATOM     33  C   UNL     1       6.399   3.039  14.256  1.00  0.00     0.014 A 
ATOM     34  C   UNL     1       5.619   5.123  15.220  1.00  0.00     0.014 A 
ATOM     35  C   UNL     1       6.607   2.530  15.531  1.00  0.00     0.010 A 
ATOM     36  C   UNL     1       5.909   4.638  16.498  1.00  0.00     0.010 A 
ATOM     37  C   UNL     1       6.346   3.315  16.668  1.00  0.00    -0.014 A 
BRANCH  37  38
ATOM     38  C   UNL     1       6.523   2.714  18.014  1.00  0.00     0.031 A 
ATOM     39  C   UNL     1       5.347   2.498  18.930  1.00  0.00     0.074 A 
ATOM     40  C   UNL     1       7.748   2.292  18.383  1.00  0.00     0.049 A 
ATOM     41  N   UNL     1       5.317   1.908  20.097  1.00  0.00    -0.248 NA
ATOM     42  C   UNL     1       4.037   3.009  18.488  1.00  0.00     0.031 C 
ATOM     43  C   UNL     1       8.968   2.466  17.591  1.00  0.00     0.029 A 
ATOM     44  N   UNL     1       8.167   1.607  19.495  1.00  0.00    -0.354 N 
ATOM     45  C   UNL     1       4.006   2.012  20.547  1.00  0.00     0.074 A 
ATOM     46  C   UNL     1       3.265   2.724  19.529  1.00  0.00     0.031 C 
ATOM     47  C   UNL     1       9.985   1.851  18.212  1.00  0.00     0.029 A 
ATOM     48  C   UNL     1       9.501   1.279  19.465  1.00  0.00     0.049 A 
ATOM     49  H   UNL     1       7.569   1.373  20.241  1.00  0.00     0.167 HD
ATOM     50  C   UNL     1       3.464   1.536  21.692  1.00  0.00     0.034 A 
ATOM     51  C   UNL     1      10.255   0.590  20.343  1.00  0.00     0.034 A 
ATOM     52  C   UNL     1       4.181   0.767  22.670  1.00  0.00     0.049 A 
ATOM     53  C   UNL     1       9.622   0.047  21.590  1.00  0.00     0.074 A 
ATOM     54  C   UNL     1       3.694   0.187  23.829  1.00  0.00     0.029 A 
ATOM     55  N   UNL     1       5.531   0.463  22.605  1.00  0.00    -0.354 N 
ATOM     56  N   UNL     1       8.362   0.080  21.949  1.00  0.00    -0.248 NA
ATOM     57  C   UNL     1      10.507  -0.631  22.547  1.00  0.00     0.031 C 
ATOM     58  C   UNL     1       4.751  -0.469  24.466  1.00  0.00     0.029 A 
ATOM     59  C   UNL     1       5.896  -0.293  23.705  1.00  0.00     0.049 A 
ATOM     60  H   UNL     1       6.139   0.742  21.883  1.00  0.00     0.167 HD
ATOM     61  C   UNL     1       8.301  -0.571  23.174  1.00  0.00     0.074 A 
ATOM     62  C   UNL     1       9.645  -1.014  23.483  1.00  0.00     0.031 C 
ATOM     63  C   UNL     1       7.229  -0.760  23.980  1.00  0.00     0.034 A 
BRANCH  50  64
ATOM     64  C   UNL     1       1.999   1.772  21.935  1.00  0.00     0.023 A 
ATOM     65  C   UNL     1       1.058   0.920  21.326  1.00  0.00     0.012 A 
ATOM     66  C   UNL     1       1.563   2.756  22.845  1.00  0.00     0.148 A 
ATOM     67  C   UNL     1      -0.300   1.046  21.613  1.00  0.00     0.002 A 
ATOM     68  C   UNL     1       0.209   2.859  23.144  1.00  0.00     0.091 A 
ATOM     69  F   UNL     1       2.478   3.562  23.400  1.00  0.00    -0.205 F 
ATOM     70  C   UNL     1      -0.723   2.006  22.528  1.00  0.00     0.022 A 
BRANCH  68  71
ATOM     71  S   UNL     1      -0.437   4.028  24.346  1.00  0.00     0.127 S 
ATOM     72  O   UNL     1      -1.208   4.930  23.491  1.00  0.00    -0.237 OA
ATOM     73  O   UNL     1      -1.245   3.167  25.209  1.00  0.00    -0.237 OA
ATOM     74  O   UNL     1       0.723   4.625  24.991  1.00  0.00    -0.744 OA
ENDBRANCH  68  71
ENDBRANCH  50  64
BRANCH  51  75
ATOM     75  C   UNL     1      11.684   0.331  20.020  1.00  0.00     0.023 A 
ATOM     76  C   UNL     1      12.069  -0.955  19.597  1.00  0.00     0.012 A 
ATOM     77  C   UNL     1      12.634   1.370  20.032  1.00  0.00     0.148 A 
ATOM     78  C   UNL     1      13.380  -1.201  19.187  1.00  0.00     0.002 A 
ATOM     79  C   UNL     1      13.925   1.129  19.579  1.00  0.00     0.091 A 
ATOM     80  F   UNL     1      12.241   2.582  20.450  1.00  0.00    -0.205 F 
ATOM     81  C   UNL     1      14.302  -0.158  19.165  1.00  0.00     0.022 A 
BRANCH  79  82
ATOM     82  S   UNL     1      15.141   2.438  19.394  1.00  0.00     0.127 S 
ATOM     83  O   UNL     1      16.116   2.086  20.424  1.00  0.00    -0.237 OA
ATOM     84  O   UNL     1      15.596   2.232  18.018  1.00  0.00    -0.237 OA
ATOM     85  O   UNL     1      14.418   3.683  19.609  1.00  0.00    -0.744 OA
ENDBRANCH  79  82
ENDBRANCH  51  75
BRANCH  63  86
ATOM     86  C   UNL     1       7.448  -1.457  25.292  1.00  0.00     0.023 A 
ATOM     87  C   UNL     1       7.939  -0.714  26.382  1.00  0.00     0.012 A 
ATOM     88  C   UNL     1       7.046  -2.793  25.480  1.00  0.00     0.148 A 
ATOM     89  C   UNL     1       8.029  -1.292  27.646  1.00  0.00     0.002 A 
ATOM     90  C   UNL     1       7.112  -3.354  26.750  1.00  0.00     0.091 A 
ATOM     91  F   UNL     1       6.587  -3.476  24.422  1.00  0.00    -0.205 F 
ATOM     92  C   UNL     1       7.606  -2.606  27.833  1.00  0.00     0.022 A 
BRANCH  90  93
ATOM     93  S   UNL     1       6.528  -5.014  27.110  1.00  0.00     0.127 S 
ATOM     94  O   UNL     1       7.765  -5.684  27.510  1.00  0.00    -0.237 OA
ATOM     95  O   UNL     1       5.582  -4.777  28.200  1.00  0.00    -0.237 OA
ATOM     96  O   UNL     1       5.929  -5.509  25.878  1.00  0.00    -0.744 OA
ENDBRANCH  90  93
ENDBRANCH  63  86
ENDBRANCH  37  38
ENDBRANCH  29  32
ENDBRANCH  27  28
ENDBRANCH   1  27
TORSDOF 16
