REMARK SMILES O=C(NCCCCNC(=O)c1ccc(-c2c3nc(c(-c4cccc(S(=O)(=O)[O-])c4F)c4ccc([nH]4)c(-c4cccc(S(=O)(=O)[O-])c4F)c4nc(c(-c5cccc(S(=O)(=O)[O-])c5F)c5ccc2[nH]5)C=C4)C=C3)cc1)c1ccc(N/C=C\C(=O)c2ccco2)cc1
REMARK SMILES IDX 5 1 4 2 3 3 1 4 2 5 74 7 75 8 89 9 76 10 88 11 77 12 78 13
REMARK SMILES IDX 79 15 80 16 81 17 82 18 83 19 84 20 87 21 85 22 86 23 6 24
REMARK SMILES IDX 7 25 8 26 9 27 10 29 11 30 12 31 73 32 13 33 72 34 14 35
REMARK SMILES IDX 15 36 16 37 66 38 17 39 71 40 65 41 67 42 18 43 70 44 64 45
REMARK SMILES IDX 63 46 19 48 51 49 31 50 50 51 32 52 35 53 49 54 68 55 33 56
REMARK SMILES IDX 34 57 48 59 69 60 36 61 20 62 21 63 29 64 22 65 24 66 30 67
REMARK SMILES IDX 23 68 25 69 26 70 27 71 28 72 52 73 53 74 61 75 54 76 56 77
REMARK SMILES IDX 62 78 55 79 57 80 58 81 59 82 60 83 37 84 38 85 46 86 39 87
REMARK SMILES IDX 41 88 47 89 40 90 42 91 43 92 44 93 45 94
REMARK H PARENT 3 6 78 14 8 28 67 47 35 58
REMARK Flexibility Score: inf
ROOT
ATOM      1  C   UNL     1       4.991   0.676   2.338  1.00  0.00     0.023 C 
ENDROOT
BRANCH   1   2
ATOM      2  C   UNL     1       4.612  -0.287   1.217  1.00  0.00     0.116 C 
BRANCH   2   3
ATOM      3  N   UNL     1       3.175  -0.444   1.076  1.00  0.00    -0.352 N 
ATOM      4  O   UNL     1       1.162  -0.264   0.060  1.00  0.00    -0.269 OA
ATOM      5  C   UNL     1       2.386  -0.225  -0.024  1.00  0.00     0.251 C 
ATOM      6  H   UNL     1       2.701  -0.750   1.883  1.00  0.00     0.163 HD
BRANCH   5   7
ATOM      7  C   UNL     1       3.012   0.097  -1.321  1.00  0.00     0.039 A 
ATOM      8  C   UNL     1       3.987  -0.733  -1.882  1.00  0.00     0.016 A 
ATOM      9  C   UNL     1       2.601   1.248  -1.988  1.00  0.00     0.016 A 
ATOM     10  C   UNL     1       4.610  -0.363  -3.077  1.00  0.00     0.027 A 
ATOM     11  C   UNL     1       3.209   1.595  -3.193  1.00  0.00     0.027 A 
ATOM     12  C   UNL     1       4.227   0.800  -3.752  1.00  0.00     0.038 A 
BRANCH  12  13
ATOM     13  N   UNL     1       4.865   1.273  -4.910  1.00  0.00    -0.362 N 
ATOM     14  H   UNL     1       4.323   1.867  -5.478  1.00  0.00     0.166 HD
BRANCH  13  15
ATOM     15  C   UNL     1       6.133   1.026  -5.362  1.00  0.00     0.087 C 
ATOM     16  C   UNL     1       6.809   1.599  -6.369  1.00  0.00     0.074 C 
BRANCH  16  17
ATOM     17  C   UNL     1       6.349   2.698  -7.271  1.00  0.00     0.222 C 
ATOM     18  O   UNL     1       6.826   2.726  -8.406  1.00  0.00    -0.286 OA
BRANCH  17  19
ATOM     19  C   UNL     1       5.394   3.670  -6.782  1.00  0.00     0.173 A 
ATOM     20  C   UNL     1       5.253   4.322  -5.567  1.00  0.00     0.054 A 
ATOM     21  O   UNL     1       4.367   4.039  -7.609  1.00  0.00    -0.461 OA
ATOM     22  C   UNL     1       4.061   5.083  -5.646  1.00  0.00     0.043 A 
ATOM     23  C   UNL     1       3.561   4.877  -6.909  1.00  0.00     0.196 A 
ENDBRANCH  17  19
ENDBRANCH  16  17
ENDBRANCH  13  15
ENDBRANCH  12  13
ENDBRANCH   5   7
ENDBRANCH   2   3
ENDBRANCH   1   2
BRANCH   1  24
ATOM     24  C   UNL     1       4.540   0.263   3.739  1.00  0.00     0.023 C 
BRANCH  24  25
ATOM     25  C   UNL     1       4.914  -1.153   4.161  1.00  0.00     0.116 C 
BRANCH  25  26
ATOM     26  N   UNL     1       6.347  -1.402   4.124  1.00  0.00    -0.352 N 
ATOM     27  C   UNL     1       7.150  -2.000   5.066  1.00  0.00     0.251 C 
ATOM     28  H   UNL     1       6.807  -1.099   3.308  1.00  0.00     0.163 HD
ATOM     29  O   UNL     1       8.367  -2.019   4.903  1.00  0.00    -0.269 OA
BRANCH  27  30
ATOM     30  C   UNL     1       6.553  -2.589   6.286  1.00  0.00     0.039 A 
ATOM     31  C   UNL     1       7.149  -2.323   7.522  1.00  0.00     0.014 A 
ATOM     32  C   UNL     1       5.412  -3.392   6.218  1.00  0.00     0.014 A 
ATOM     33  C   UNL     1       6.564  -2.812   8.694  1.00  0.00     0.010 A 
ATOM     34  C   UNL     1       4.789  -3.814   7.390  1.00  0.00     0.010 A 
ATOM     35  C   UNL     1       5.362  -3.536   8.640  1.00  0.00    -0.014 A 
BRANCH  35  36
ATOM     36  C   UNL     1       4.694  -4.014   9.879  1.00  0.00     0.031 A 
ATOM     37  C   UNL     1       4.524  -5.490  10.127  1.00  0.00     0.074 A 
ATOM     38  C   UNL     1       4.173  -3.123  10.745  1.00  0.00     0.049 A 
ATOM     39  N   UNL     1       3.929  -6.097  11.121  1.00  0.00    -0.248 NA
ATOM     40  C   UNL     1       5.069  -6.405   9.109  1.00  0.00     0.031 C 
ATOM     41  C   UNL     1       4.192  -1.668  10.578  1.00  0.00     0.029 A 
ATOM     42  N   UNL     1       3.501  -3.310  11.928  1.00  0.00    -0.354 N 
ATOM     43  C   UNL     1       4.002  -7.455  10.838  1.00  0.00     0.074 A 
ATOM     44  C   UNL     1       4.660  -7.583   9.556  1.00  0.00     0.031 C 
ATOM     45  C   UNL     1       3.564  -1.096  11.619  1.00  0.00     0.029 A 
ATOM     46  C   UNL     1       3.081  -2.140  12.517  1.00  0.00     0.049 A 
ATOM     47  H   UNL     1       3.334  -4.199  12.317  1.00  0.00     0.167 HD
ATOM     48  C   UNL     1       3.597  -8.506  11.591  1.00  0.00     0.034 A 
ATOM     49  C   UNL     1       2.389  -1.932  13.655  1.00  0.00     0.034 A 
ATOM     50  C   UNL     1       2.986  -8.380  12.886  1.00  0.00     0.049 A 
ATOM     51  C   UNL     1       2.009  -3.115  14.505  1.00  0.00     0.074 A 
ATOM     52  C   UNL     1       2.592  -9.383  13.755  1.00  0.00     0.029 A 
ATOM     53  N   UNL     1       2.687  -7.177  13.505  1.00  0.00    -0.354 N 
ATOM     54  N   UNL     1       2.224  -4.391  14.289  1.00  0.00    -0.248 NA
ATOM     55  C   UNL     1       1.333  -2.829  15.779  1.00  0.00     0.031 C 
ATOM     56  C   UNL     1       2.055  -8.785  14.900  1.00  0.00     0.029 A 
ATOM     57  C   UNL     1       2.127  -7.410  14.749  1.00  0.00     0.049 A 
ATOM     58  H   UNL     1       2.850  -6.287  13.117  1.00  0.00     0.167 HD
ATOM     59  C   UNL     1       1.749  -5.054  15.415  1.00  0.00     0.074 A 
ATOM     60  C   UNL     1       1.256  -4.037  16.321  1.00  0.00     0.031 C 
ATOM     61  C   UNL     1       1.706  -6.385  15.669  1.00  0.00     0.034 A 
BRANCH  48  62
ATOM     62  C   UNL     1       3.877  -9.889  11.063  1.00  0.00     0.023 A 
ATOM     63  C   UNL     1       5.205 -10.363  11.054  1.00  0.00     0.012 A 
ATOM     64  C   UNL     1       2.839 -10.736  10.628  1.00  0.00     0.148 A 
ATOM     65  C   UNL     1       5.502 -11.643  10.588  1.00  0.00     0.002 A 
ATOM     66  C   UNL     1       3.138 -12.027  10.206  1.00  0.00     0.091 A 
ATOM     67  F   UNL     1       1.585 -10.262  10.624  1.00  0.00    -0.205 F 
ATOM     68  C   UNL     1       4.468 -12.477  10.174  1.00  0.00     0.022 A 
BRANCH  66  69
ATOM     69  S   UNL     1       1.871 -13.207   9.723  1.00  0.00     0.127 S 
ATOM     70  O   UNL     1       2.066 -13.273   8.275  1.00  0.00    -0.237 OA
ATOM     71  O   UNL     1       2.279 -14.411  10.448  1.00  0.00    -0.237 OA
ATOM     72  O   UNL     1       0.605 -12.636  10.159  1.00  0.00    -0.744 OA
ENDBRANCH  66  69
ENDBRANCH  48  62
BRANCH  49  73
ATOM     73  C   UNL     1       2.086  -0.543  14.103  1.00  0.00     0.023 A 
ATOM     74  C   UNL     1       2.753  -0.021  15.229  1.00  0.00     0.012 A 
ATOM     75  C   UNL     1       1.160   0.267  13.419  1.00  0.00     0.148 A 
ATOM     76  C   UNL     1       2.474   1.267  15.689  1.00  0.00     0.002 A 
ATOM     77  C   UNL     1       0.927   1.568  13.850  1.00  0.00     0.091 A 
ATOM     78  F   UNL     1       0.523  -0.250  12.359  1.00  0.00    -0.205 F 
ATOM     79  C   UNL     1       1.569   2.064  14.995  1.00  0.00     0.022 A 
BRANCH  77  80
ATOM     80  S   UNL     1      -0.122   2.702  12.933  1.00  0.00     0.127 S 
ATOM     81  O   UNL     1      -1.347   2.688  13.728  1.00  0.00    -0.237 OA
ATOM     82  O   UNL     1       0.641   3.950  12.999  1.00  0.00    -0.237 OA
ATOM     83  O   UNL     1      -0.221   2.137  11.594  1.00  0.00    -0.744 OA
ENDBRANCH  77  80
ENDBRANCH  49  73
BRANCH  61  84
ATOM     84  C   UNL     1       1.151  -6.823  16.998  1.00  0.00     0.023 A 
ATOM     85  C   UNL     1      -0.235  -6.741  17.239  1.00  0.00     0.012 A 
ATOM     86  C   UNL     1       1.993  -7.373  17.984  1.00  0.00     0.148 A 
ATOM     87  C   UNL     1      -0.770  -7.167  18.454  1.00  0.00     0.002 A 
ATOM     88  C   UNL     1       1.447  -7.838  19.175  1.00  0.00     0.091 A 
ATOM     89  F   UNL     1       3.312  -7.423  17.747  1.00  0.00    -0.205 F 
ATOM     90  C   UNL     1       0.069  -7.725  19.417  1.00  0.00     0.022 A 
BRANCH  88  91
ATOM     91  S   UNL     1       2.445  -8.653  20.427  1.00  0.00     0.127 S 
ATOM     92  O   UNL     1       2.632  -7.584  21.405  1.00  0.00    -0.237 OA
ATOM     93  O   UNL     1       1.569  -9.739  20.870  1.00  0.00    -0.237 OA
ATOM     94  O   UNL     1       3.651  -9.099  19.741  1.00  0.00    -0.744 OA
ENDBRANCH  88  91
ENDBRANCH  61  84
ENDBRANCH  35  36
ENDBRANCH  27  30
ENDBRANCH  25  26
ENDBRANCH  24  25
ENDBRANCH   1  24
TORSDOF 18
