REMARK SMILES CCCN(CC(=O)NCCCCNC(=O)c1ccc(-c2c3nc(c(-c4cccc(S(=O)(=O)[O-])c4F)c4ccc([nH]4)c(-c4cccc(S(=O)(=O)[O-])c4F)c4nc(c(-c5cccc(S(=O)(=O)[O-])c5F)c5ccc2[nH]5)C=C4)C=C3)cc1)C(=O)C[C@@H]1CSCC[NH2+]1
REMARK SMILES IDX 10 1 9 2 8 3 6 4 7 5 5 7 4 8 3 9 2 10 1 11 79 12 80 13 81 14
REMARK SMILES IDX 82 15 83 16 87 17 84 18 86 19 85 22 11 23 12 24 13 25 14 26
REMARK SMILES IDX 15 28 16 29 17 30 78 31 18 32 77 33 19 34 20 35 21 36 71 37
REMARK SMILES IDX 22 38 76 39 70 40 72 41 23 42 75 43 69 44 68 45 24 47 56 48
REMARK SMILES IDX 36 49 55 50 37 51 40 52 54 53 73 54 38 55 39 56 53 58 74 59
REMARK SMILES IDX 41 60 25 61 26 62 34 63 27 64 29 65 35 66 28 67 30 68 31 69
REMARK SMILES IDX 32 70 33 71 57 72 58 73 66 74 59 75 61 76 67 77 60 78 62 79
REMARK SMILES IDX 63 80 64 81 65 82 42 83 43 84 51 85 44 86 46 87 52 88 45 89
REMARK SMILES IDX 47 90 48 91 49 92 50 93
REMARK H PARENT 8 6 87 20 87 21 13 27 72 46 40 57
REMARK Flexibility Score: inf
ROOT
ATOM      1  C   UNL     1       3.678   3.811   2.253  1.00  0.00     0.023 C 
ENDROOT
BRANCH   1   2
ATOM      2  C   UNL     1       2.519   4.127   3.193  1.00  0.00     0.116 C 
BRANCH   2   3
ATOM      3  N   UNL     1       1.557   5.050   2.636  1.00  0.00    -0.355 N 
ATOM      4  C   UNL     1       0.299   4.785   2.186  1.00  0.00     0.239 C 
ATOM      5  O   UNL     1      -0.484   5.728   2.044  1.00  0.00    -0.273 OA
ATOM      6  H   UNL     1       1.848   5.989   2.575  1.00  0.00     0.163 HD
BRANCH   4   7
ATOM      7  C   UNL     1      -0.179   3.346   1.936  1.00  0.00     0.219 C 
BRANCH   7   8
ATOM      8  N   UNL     1       0.684   2.528   1.074  1.00  0.00    -0.333 N 
BRANCH   8   9
ATOM      9  C   UNL     1       1.219   1.286   1.646  1.00  0.00     0.120 C 
BRANCH   9  10
ATOM     10  C   UNL     1       0.402   0.028   1.336  1.00  0.00     0.018 C 
ATOM     11  C   UNL     1       0.729  -0.596  -0.011  1.00  0.00     0.006 C 
ENDBRANCH   9  10
ENDBRANCH   8   9
BRANCH   8  12
ATOM     12  C   UNL     1       0.940   2.808  -0.267  1.00  0.00     0.229 C 
ATOM     13  O   UNL     1       1.643   2.061  -0.952  1.00  0.00    -0.275 OA
BRANCH  12  14
ATOM     14  C   UNL     1       0.416   4.095  -0.896  1.00  0.00     0.166 C 
BRANCH  14  15
ATOM     15  C   UNL     1      -1.103   4.102  -1.176  1.00  0.00     0.201 C 
ATOM     16  C   UNL     1      -1.432   4.050  -2.688  1.00  0.00     0.135 C 
ATOM     17  N   UNL     1      -1.829   5.218  -0.522  1.00  0.00    -0.342 N 
ATOM     18  S   UNL     1      -0.995   5.567  -3.607  1.00  0.00    -0.150 SA
ATOM     19  C   UNL     1      -1.454   6.544  -1.040  1.00  0.00     0.271 C 
ATOM     20  H   UNL     1      -1.627   5.193   0.477  1.00  0.00     0.346 HD
ATOM     21  H   UNL     1      -2.821   5.088  -0.719  1.00  0.00     0.346 HD
ATOM     22  C   UNL     1      -1.808   6.768  -2.508  1.00  0.00     0.131 C 
ENDBRANCH  14  15
ENDBRANCH  12  14
ENDBRANCH   8  12
ENDBRANCH   7   8
ENDBRANCH   4   7
ENDBRANCH   2   3
ENDBRANCH   1   2
BRANCH   1  23
ATOM     23  C   UNL     1       4.662   4.959   2.021  1.00  0.00     0.023 C 
BRANCH  23  24
ATOM     24  C   UNL     1       5.185   5.644   3.279  1.00  0.00     0.116 C 
BRANCH  24  25
ATOM     25  N   UNL     1       5.754   4.719   4.250  1.00  0.00    -0.352 N 
ATOM     26  C   UNL     1       6.846   4.896   5.065  1.00  0.00     0.251 C 
ATOM     27  H   UNL     1       5.295   3.852   4.333  1.00  0.00     0.163 HD
ATOM     28  O   UNL     1       7.244   3.974   5.772  1.00  0.00    -0.269 OA
BRANCH  26  29
ATOM     29  C   UNL     1       7.556   6.191   5.054  1.00  0.00     0.039 A 
ATOM     30  C   UNL     1       8.944   6.197   4.899  1.00  0.00     0.014 A 
ATOM     31  C   UNL     1       6.849   7.392   5.152  1.00  0.00     0.014 A 
ATOM     32  C   UNL     1       9.618   7.414   4.774  1.00  0.00     0.010 A 
ATOM     33  C   UNL     1       7.512   8.598   4.952  1.00  0.00     0.010 A 
ATOM     34  C   UNL     1       8.903   8.622   4.765  1.00  0.00    -0.014 A 
BRANCH  34  35
ATOM     35  C   UNL     1       9.585   9.923   4.553  1.00  0.00     0.031 A 
ATOM     36  C   UNL     1       9.562  10.973   5.630  1.00  0.00     0.074 A 
ATOM     37  C   UNL     1      10.140  10.197   3.356  1.00  0.00     0.049 A 
ATOM     38  N   UNL     1      10.042  12.188   5.607  1.00  0.00    -0.248 NA
ATOM     39  C   UNL     1       8.880  10.620   6.886  1.00  0.00     0.031 C 
ATOM     40  C   UNL     1      10.156   9.293   2.203  1.00  0.00     0.029 A 
ATOM     41  N   UNL     1      10.774  11.326   2.901  1.00  0.00    -0.354 N 
ATOM     42  C   UNL     1       9.688  12.758   6.824  1.00  0.00     0.074 A 
ATOM     43  C   UNL     1       8.920  11.768   7.546  1.00  0.00     0.031 C 
ATOM     44  C   UNL     1      10.776   9.900   1.178  1.00  0.00     0.029 A 
ATOM     45  C   UNL     1      11.175  11.242   1.587  1.00  0.00     0.049 A 
ATOM     46  H   UNL     1      10.928  12.121   3.461  1.00  0.00     0.167 HD
ATOM     47  C   UNL     1      10.000  13.983   7.311  1.00  0.00     0.034 A 
ATOM     48  C   UNL     1      11.791  12.147   0.801  1.00  0.00     0.034 A 
ATOM     49  C   UNL     1      10.803  14.946   6.609  1.00  0.00     0.049 A 
ATOM     50  C   UNL     1      12.165  13.485   1.379  1.00  0.00     0.074 A 
ATOM     51  C   UNL     1      11.259  16.175   7.053  1.00  0.00     0.029 A 
ATOM     52  N   UNL     1      11.265  14.794   5.310  1.00  0.00    -0.354 N 
ATOM     53  N   UNL     1      11.966  13.945   2.590  1.00  0.00    -0.248 NA
ATOM     54  C   UNL     1      12.880  14.415   0.493  1.00  0.00     0.031 C 
ATOM     55  C   UNL     1      11.978  16.775   6.013  1.00  0.00     0.029 A 
ATOM     56  C   UNL     1      11.991  15.910   4.931  1.00  0.00     0.049 A 
ATOM     57  H   UNL     1      11.101  14.007   4.741  1.00  0.00     0.167 HD
ATOM     58  C   UNL     1      12.561  15.201   2.624  1.00  0.00     0.074 A 
ATOM     59  C   UNL     1      13.143  15.421   1.316  1.00  0.00     0.031 C 
ATOM     60  C   UNL     1      12.609  16.096   3.642  1.00  0.00     0.034 A 
BRANCH  47  61
ATOM     61  C   UNL     1       9.511  14.324   8.695  1.00  0.00     0.023 A 
ATOM     62  C   UNL     1      10.075  13.673   9.813  1.00  0.00     0.012 A 
ATOM     63  C   UNL     1       8.521  15.305   8.896  1.00  0.00     0.148 A 
ATOM     64  C   UNL     1       9.630  13.959  11.102  1.00  0.00     0.002 A 
ATOM     65  C   UNL     1       8.116  15.618  10.189  1.00  0.00     0.091 A 
ATOM     66  F   UNL     1       7.978  15.898   7.823  1.00  0.00    -0.205 F 
ATOM     67  C   UNL     1       8.658  14.937  11.291  1.00  0.00     0.022 A 
BRANCH  65  68
ATOM     68  S   UNL     1       6.927  16.919  10.538  1.00  0.00     0.127 S 
ATOM     69  O   UNL     1       5.732  16.145  10.872  1.00  0.00    -0.237 OA
ATOM     70  O   UNL     1       7.544  17.607  11.674  1.00  0.00    -0.237 OA
ATOM     71  O   UNL     1       6.842  17.717   9.323  1.00  0.00    -0.744 OA
ENDBRANCH  65  68
ENDBRANCH  47  61
BRANCH  48  72
ATOM     72  C   UNL     1      12.167  11.780  -0.593  1.00  0.00     0.023 A 
ATOM     73  C   UNL     1      13.524  11.571  -0.906  1.00  0.00     0.012 A 
ATOM     74  C   UNL     1      11.194  11.594  -1.594  1.00  0.00     0.148 A 
ATOM     75  C   UNL     1      13.910  11.208  -2.197  1.00  0.00     0.002 A 
ATOM     76  C   UNL     1      11.580  11.181  -2.864  1.00  0.00     0.091 A 
ATOM     77  F   UNL     1       9.909  11.806  -1.277  1.00  0.00    -0.205 F 
ATOM     78  C   UNL     1      12.938  11.003  -3.172  1.00  0.00     0.022 A 
BRANCH  76  79
ATOM     79  S   UNL     1      10.394  10.770  -4.149  1.00  0.00     0.127 S 
ATOM     80  O   UNL     1      10.625  11.835  -5.121  1.00  0.00    -0.237 OA
ATOM     81  O   UNL     1      10.852   9.444  -4.566  1.00  0.00    -0.237 OA
ATOM     82  O   UNL     1       9.090  10.779  -3.500  1.00  0.00    -0.744 OA
ENDBRANCH  76  79
ENDBRANCH  48  72
BRANCH  60  83
ATOM     83  C   UNL     1      13.344  17.389   3.402  1.00  0.00     0.023 A 
ATOM     84  C   UNL     1      12.774  18.375   2.574  1.00  0.00     0.012 A 
ATOM     85  C   UNL     1      14.560  17.657   4.062  1.00  0.00     0.148 A 
ATOM     86  C   UNL     1      13.419  19.597   2.381  1.00  0.00     0.002 A 
ATOM     87  C   UNL     1      15.172  18.895   3.904  1.00  0.00     0.091 A 
ATOM     88  F   UNL     1      15.096  16.698   4.831  1.00  0.00    -0.205 F 
ATOM     89  C   UNL     1      14.609  19.861   3.054  1.00  0.00     0.022 A 
BRANCH  87  90
ATOM     90  S   UNL     1      16.653  19.358   4.808  1.00  0.00     0.127 S 
ATOM     91  O   UNL     1      17.669  19.314   3.758  1.00  0.00    -0.237 OA
ATOM     92  O   UNL     1      16.322  20.703   5.280  1.00  0.00    -0.237 OA
ATOM     93  O   UNL     1      16.803  18.368   5.866  1.00  0.00    -0.744 OA
ENDBRANCH  87  90
ENDBRANCH  60  83
ENDBRANCH  34  35
ENDBRANCH  26  29
ENDBRANCH  24  25
ENDBRANCH  23  24
ENDBRANCH   1  23
TORSDOF 20
