REMARK SMILES CC[C@@H]1CCCN(S(=O)(=O)c2cc(C(=O)NCCCCNC(=O)c3ccc(-c4c5nc(c(-c6cccc(S(=O)(=O)[O-])c6F)c6ccc([nH]6)c(-c6cccc(S(=O)(=O)[O-])c6F)c6nc(c(-c7cccc(S(=O)(=O)[O-])c7F)c7ccc4[nH]7)C=C6)C=C5)cc3)ccc2F)C1
REMARK SMILES IDX 18 1 17 2 16 3 14 4 15 5 13 7 11 8 12 9 89 10 88 11 90 12
REMARK SMILES IDX 87 13 8 14 9 15 10 16 7 17 3 18 4 19 91 20 5 21 6 22 2 23
REMARK SMILES IDX 1 24 19 25 20 26 21 27 22 28 23 30 24 31 25 32 86 33 26 34
REMARK SMILES IDX 85 35 27 36 28 37 29 38 79 39 30 40 84 41 78 42 80 43 31 44
REMARK SMILES IDX 83 45 77 46 76 47 32 49 64 50 44 51 63 52 45 53 48 54 62 55
REMARK SMILES IDX 81 56 46 57 47 58 61 60 82 61 49 62 33 63 34 64 42 65 35 66
REMARK SMILES IDX 37 67 43 68 36 69 38 70 39 71 40 72 41 73 65 74 66 75 74 76
REMARK SMILES IDX 67 77 69 78 75 79 68 80 70 81 71 82 72 83 73 84 50 85 51 86
REMARK SMILES IDX 59 87 52 88 54 89 60 90 53 91 55 92 56 93 57 94 58 95
REMARK H PARENT 16 6 21 29 80 48 48 59
REMARK Flexibility Score: inf
ROOT
ATOM      1  C   UNL     1       7.664   3.602   5.107  1.00  0.00     0.023 C 
ENDROOT
BRANCH   1   2
ATOM      2  C   UNL     1       6.181   3.782   4.774  1.00  0.00     0.116 C 
BRANCH   2   3
ATOM      3  N   UNL     1       6.001   4.330   3.446  1.00  0.00    -0.352 N 
ATOM      4  C   UNL     1       5.777   3.758   2.222  1.00  0.00     0.251 C 
ATOM      5  O   UNL     1       5.578   4.523   1.277  1.00  0.00    -0.269 OA
ATOM      6  H   UNL     1       6.050   5.313   3.417  1.00  0.00     0.163 HD
BRANCH   4   7
ATOM      7  C   UNL     1       5.753   2.284   1.958  1.00  0.00     0.041 A 
ATOM      8  C   UNL     1       5.213   0.517   0.353  1.00  0.00     0.119 A 
ATOM      9  C   UNL     1       5.196   1.869   0.732  1.00  0.00     0.038 A 
ATOM     10  C   UNL     1       5.798  -0.423   1.185  1.00  0.00     0.143 A 
ATOM     11  C   UNL     1       6.319  -0.041   2.412  1.00  0.00     0.041 A 
ATOM     12  F   UNL     1       5.869  -1.718   0.850  1.00  0.00    -0.206 F 
ATOM     13  C   UNL     1       6.315   1.307   2.786  1.00  0.00     0.017 A 
BRANCH   8  14
ATOM     14  S   UNL     1       4.641   0.039  -1.244  1.00  0.00     0.246 S 
ATOM     15  O   UNL     1       5.515  -0.993  -1.768  1.00  0.00    -0.207 OA
ATOM     16  O   UNL     1       4.423   1.251  -2.002  1.00  0.00    -0.207 OA
BRANCH  14  17
ATOM     17  N   UNL     1       3.092  -0.671  -0.969  1.00  0.00    -0.197 NA
ATOM     18  C   UNL     1       0.875  -1.189  -1.986  1.00  0.00     0.004 C 
ATOM     19  C   UNL     1       0.789  -2.463  -1.139  1.00  0.00     0.006 C 
ATOM     20  C   UNL     1       2.337  -0.814  -2.248  1.00  0.00     0.106 C 
ATOM     21  C   UNL     1       1.701  -2.452   0.082  1.00  0.00     0.017 C 
ATOM     22  C   UNL     1       3.113  -1.959  -0.219  1.00  0.00     0.102 C 
BRANCH  18  23
ATOM     23  C   UNL     1       0.020  -0.003  -1.488  1.00  0.00     0.001 C 
ATOM     24  C   UNL     1       0.194   0.456  -0.049  1.00  0.00     0.004 C 
ENDBRANCH  18  23
ENDBRANCH  14  17
ENDBRANCH   8  14
ENDBRANCH   4   7
ENDBRANCH   2   3
ENDBRANCH   1   2
BRANCH   1  25
ATOM     25  C   UNL     1       8.369   4.869   5.600  1.00  0.00     0.023 C 
BRANCH  25  26
ATOM     26  C   UNL     1       7.795   5.477   6.875  1.00  0.00     0.116 C 
BRANCH  26  27
ATOM     27  N   UNL     1       7.718   4.536   7.983  1.00  0.00    -0.352 N 
ATOM     28  C   UNL     1       7.806   4.798   9.329  1.00  0.00     0.251 C 
ATOM     29  H   UNL     1       7.588   3.592   7.737  1.00  0.00     0.163 HD
ATOM     30  O   UNL     1       7.822   3.874  10.137  1.00  0.00    -0.269 OA
BRANCH  28  31
ATOM     31  C   UNL     1       7.917   6.197   9.788  1.00  0.00     0.039 A 
ATOM     32  C   UNL     1       8.925   6.532  10.695  1.00  0.00     0.014 A 
ATOM     33  C   UNL     1       7.053   7.179   9.297  1.00  0.00     0.014 A 
ATOM     34  C   UNL     1       9.101   7.865  11.067  1.00  0.00     0.010 A 
ATOM     35  C   UNL     1       7.277   8.515   9.610  1.00  0.00     0.010 A 
ATOM     36  C   UNL     1       8.297   8.872  10.505  1.00  0.00    -0.014 A 
BRANCH  36  37
ATOM     37  C   UNL     1       8.507  10.301  10.845  1.00  0.00     0.031 A 
ATOM     38  C   UNL     1       7.425  11.078  11.545  1.00  0.00     0.074 A 
ATOM     39  C   UNL     1       9.641  10.918  10.461  1.00  0.00     0.049 A 
ATOM     40  N   UNL     1       7.414  12.336  11.897  1.00  0.00    -0.248 NA
ATOM     41  C   UNL     1       6.182  10.356  11.868  1.00  0.00     0.031 C 
ATOM     42  C   UNL     1      10.728  10.293   9.704  1.00  0.00     0.029 A 
ATOM     43  N   UNL     1      10.063  12.213  10.637  1.00  0.00    -0.354 N 
ATOM     44  C   UNL     1       6.160  12.565  12.450  1.00  0.00     0.074 A 
ATOM     45  C   UNL     1       5.421  11.327  12.352  1.00  0.00     0.031 C 
ATOM     46  C   UNL     1      11.696  11.199   9.495  1.00  0.00     0.029 A 
ATOM     47  C   UNL     1      11.292  12.475  10.077  1.00  0.00     0.049 A 
ATOM     48  H   UNL     1       9.535  12.890  11.118  1.00  0.00     0.167 HD
ATOM     49  C   UNL     1       5.682  13.693  13.024  1.00  0.00     0.034 A 
ATOM     50  C   UNL     1      12.013  13.614  10.039  1.00  0.00     0.034 A 
ATOM     51  C   UNL     1       6.444  14.902  13.174  1.00  0.00     0.049 A 
ATOM     52  C   UNL     1      11.477  14.843  10.722  1.00  0.00     0.074 A 
ATOM     53  C   UNL     1       6.085  16.063  13.833  1.00  0.00     0.029 A 
ATOM     54  N   UNL     1       7.714  15.107  12.658  1.00  0.00    -0.354 N 
ATOM     55  N   UNL     1      10.356  14.991  11.386  1.00  0.00    -0.248 NA
ATOM     56  C   UNL     1      12.313  16.052  10.681  1.00  0.00     0.031 C 
ATOM     57  C   UNL     1       7.129  16.981  13.696  1.00  0.00     0.029 A 
ATOM     58  C   UNL     1       8.148  16.382  12.972  1.00  0.00     0.049 A 
ATOM     59  H   UNL     1       8.229  14.444  12.145  1.00  0.00     0.167 HD
ATOM     60  C   UNL     1      10.364  16.297  11.863  1.00  0.00     0.074 A 
ATOM     61  C   UNL     1      11.611  16.893  11.430  1.00  0.00     0.031 C 
ATOM     62  C   UNL     1       9.415  16.946  12.581  1.00  0.00     0.034 A 
BRANCH  49  63
ATOM     63  C   UNL     1       4.293  13.659  13.604  1.00  0.00     0.023 A 
ATOM     64  C   UNL     1       4.059  12.935  14.791  1.00  0.00     0.012 A 
ATOM     65  C   UNL     1       3.249  14.413  13.036  1.00  0.00     0.148 A 
ATOM     66  C   UNL     1       2.801  12.941  15.390  1.00  0.00     0.002 A 
ATOM     67  C   UNL     1       2.010  14.452  13.664  1.00  0.00     0.091 A 
ATOM     68  F   UNL     1       3.487  15.079  11.897  1.00  0.00    -0.205 F 
ATOM     69  C   UNL     1       1.781  13.709  14.835  1.00  0.00     0.022 A 
BRANCH  67  70
ATOM     70  S   UNL     1       0.654  15.475  13.079  1.00  0.00     0.127 S 
ATOM     71  O   UNL     1      -0.303  14.466  12.627  1.00  0.00    -0.237 OA
ATOM     72  O   UNL     1       0.261  16.187  14.295  1.00  0.00    -0.237 OA
ATOM     73  O   UNL     1       1.210  16.319  12.031  1.00  0.00    -0.744 OA
ENDBRANCH  67  70
ENDBRANCH  49  63
BRANCH  50  74
ATOM     74  C   UNL     1      13.359  13.611   9.397  1.00  0.00     0.023 A 
ATOM     75  C   UNL     1      14.508  13.700  10.207  1.00  0.00     0.012 A 
ATOM     76  C   UNL     1      13.511  13.453   8.006  1.00  0.00     0.148 A 
ATOM     77  C   UNL     1      15.783  13.650   9.642  1.00  0.00     0.002 A 
ATOM     78  C   UNL     1      14.783  13.348   7.456  1.00  0.00     0.091 A 
ATOM     79  F   UNL     1      12.405  13.380   7.252  1.00  0.00    -0.205 F 
ATOM     80  C   UNL     1      15.921  13.461   8.270  1.00  0.00     0.022 A 
BRANCH  78  81
ATOM     81  S   UNL     1      15.058  12.963   5.722  1.00  0.00     0.127 S 
ATOM     82  O   UNL     1      15.641  14.208   5.229  1.00  0.00    -0.237 OA
ATOM     83  O   UNL     1      15.989  11.838   5.809  1.00  0.00    -0.237 OA
ATOM     84  O   UNL     1      13.750  12.620   5.182  1.00  0.00    -0.744 OA
ENDBRANCH  78  81
ENDBRANCH  50  74
BRANCH  62  85
ATOM     85  C   UNL     1       9.668  18.379  12.969  1.00  0.00     0.023 A 
ATOM     86  C   UNL     1       9.549  19.391  11.998  1.00  0.00     0.012 A 
ATOM     87  C   UNL     1       9.871  18.732  14.319  1.00  0.00     0.148 A 
ATOM     88  C   UNL     1       9.637  20.734  12.361  1.00  0.00     0.002 A 
ATOM     89  C   UNL     1       9.908  20.072  14.681  1.00  0.00     0.091 A 
ATOM     90  F   UNL     1       9.992  17.749  15.224  1.00  0.00    -0.205 F 
ATOM     91  C   UNL     1       9.800  21.074  13.703  1.00  0.00     0.022 A 
BRANCH  89  92
ATOM     92  S   UNL     1      10.006  20.611  16.392  1.00  0.00     0.127 S 
ATOM     93  O   UNL     1      11.328  21.234  16.433  1.00  0.00    -0.237 OA
ATOM     94  O   UNL     1       8.887  21.549  16.485  1.00  0.00    -0.237 OA
ATOM     95  O   UNL     1       9.862  19.410  17.204  1.00  0.00    -0.744 OA
ENDBRANCH  89  92
ENDBRANCH  62  85
ENDBRANCH  36  37
ENDBRANCH  28  31
ENDBRANCH  26  27
ENDBRANCH  25  26
ENDBRANCH   1  25
TORSDOF 17
