REMARK SMILES CC1=C(C(=O)Nc2ccccc2)[C@@H](c2ccc(C(=O)NCCCCNC(=O)c3ccc(-c4c5nc(c(-c6cccc(S(=O)(=O)[O-])c6F)c6ccc([nH]6)c(-c6cccc(S(=O)(=O)[O-])c6F)c6nc(c(-c7cccc(S(=O)(=O)[O-])c7F)c7ccc4[nH]7)C=C6)C=C5)cc3)cc2)n2ncnc2N1
REMARK SMILES IDX 22 1 21 2 20 3 18 4 19 5 17 7 14 8 15 9 92 10 16 11 91 12
REMARK SMILES IDX 13 13 1 14 2 15 3 16 98 17 97 18 93 20 96 21 94 22 95 23
REMARK SMILES IDX 4 24 5 25 6 26 7 28 8 29 12 30 9 31 11 32 10 33 23 34 24 35
REMARK SMILES IDX 25 36 26 37 27 39 28 40 29 41 90 42 30 43 89 44 31 45 32 46
REMARK SMILES IDX 33 47 83 48 34 49 88 50 82 51 84 52 35 53 87 54 81 55 80 56
REMARK SMILES IDX 36 58 68 59 48 60 67 61 49 62 52 63 66 64 85 65 50 66 51 67
REMARK SMILES IDX 65 69 86 70 53 71 37 72 38 73 46 74 39 75 41 76 47 77 40 78
REMARK SMILES IDX 42 79 43 80 44 81 45 82 69 83 70 84 78 85 71 86 73 87 79 88
REMARK SMILES IDX 72 89 74 90 75 91 76 92 77 93 54 94 55 95 63 96 56 97 58 98
REMARK SMILES IDX 64 99 57 100 59 101 60 102 61 103 62 104
REMARK H PARENT 20 6 98 19 6 27 25 38 84 57 52 68
REMARK Flexibility Score: inf
ROOT
ATOM      1  C   UNL     1       1.941   8.108  -5.204  1.00  0.00     0.023 C 
ENDROOT
BRANCH   1   2
ATOM      2  C   UNL     1       2.402   7.032  -6.197  1.00  0.00     0.116 C 
BRANCH   2   3
ATOM      3  N   UNL     1       3.646   6.426  -5.763  1.00  0.00    -0.352 N 
ATOM      4  C   UNL     1       3.918   5.280  -5.058  1.00  0.00     0.251 C 
ATOM      5  O   UNL     1       5.093   5.034  -4.783  1.00  0.00    -0.269 OA
ATOM      6  H   UNL     1       4.448   6.933  -6.024  1.00  0.00     0.163 HD
BRANCH   4   7
ATOM      7  C   UNL     1       2.870   4.319  -4.620  1.00  0.00     0.039 A 
ATOM      8  C   UNL     1       1.011   2.379  -3.756  1.00  0.00    -0.019 A 
ATOM      9  C   UNL     1       2.326   2.008  -4.060  1.00  0.00     0.007 A 
ATOM     10  C   UNL     1       0.643   3.727  -3.882  1.00  0.00     0.007 A 
ATOM     11  C   UNL     1       3.243   2.971  -4.495  1.00  0.00     0.014 A 
ATOM     12  C   UNL     1       1.572   4.687  -4.273  1.00  0.00     0.014 A 
BRANCH   8  13
ATOM     13  C   UNL     1      -0.032   1.380  -3.266  1.00  0.00     0.179 C 
ATOM     14  C   UNL     1       0.615  -1.447  -0.566  1.00  0.00     0.065 C 
ATOM     15  C   UNL     1       0.351  -0.610  -1.780  1.00  0.00     0.026 C 
ATOM     16  C   UNL     1       0.316   0.750  -1.873  1.00  0.00     0.065 C 
ATOM     17  N   UNL     1       0.079  -1.411  -2.888  1.00  0.00    -0.328 N 
ATOM     18  C   UNL     1      -0.227  -0.956  -4.107  1.00  0.00     0.226 A 
ATOM     19  H   UNL     1       0.114  -2.386  -2.763  1.00  0.00     0.169 HD
ATOM     20  N   UNL     1      -0.282   0.385  -4.313  1.00  0.00    -0.219 N 
ATOM     21  N   UNL     1      -0.500  -1.592  -5.216  1.00  0.00    -0.200 NA
ATOM     22  N   UNL     1      -0.655   0.667  -5.580  1.00  0.00    -0.157 NA
ATOM     23  C   UNL     1      -0.701  -0.564  -6.102  1.00  0.00     0.248 A 
BRANCH  16  24
ATOM     24  C   UNL     1       0.390   1.863  -0.844  1.00  0.00     0.255 C 
ATOM     25  O   UNL     1      -0.194   2.925  -1.116  1.00  0.00    -0.269 OA
ATOM     26  N   UNL     1       0.922   1.881   0.402  1.00  0.00    -0.322 N 
ATOM     27  H   UNL     1       0.901   2.778   0.807  1.00  0.00     0.170 HD
BRANCH  26  28
ATOM     28  C   UNL     1       1.489   0.934   1.242  1.00  0.00     0.041 A 
ATOM     29  C   UNL     1       0.837   0.722   2.464  1.00  0.00     0.026 A 
ATOM     30  C   UNL     1       2.640   0.221   0.931  1.00  0.00     0.026 A 
ATOM     31  C   UNL     1       1.228  -0.325   3.293  1.00  0.00     0.002 A 
ATOM     32  C   UNL     1       3.050  -0.813   1.782  1.00  0.00     0.002 A 
ATOM     33  C   UNL     1       2.321  -1.111   2.937  1.00  0.00     0.000 A 
ENDBRANCH  26  28
ENDBRANCH  16  24
ENDBRANCH   8  13
ENDBRANCH   4   7
ENDBRANCH   2   3
ENDBRANCH   1   2
BRANCH   1  34
ATOM     34  C   UNL     1       2.735   9.419  -5.260  1.00  0.00     0.023 C 
BRANCH  34  35
ATOM     35  C   UNL     1       2.510  10.240  -6.524  1.00  0.00     0.116 C 
BRANCH  35  36
ATOM     36  N   UNL     1       1.120  10.673  -6.664  1.00  0.00    -0.352 N 
ATOM     37  C   UNL     1       0.472  11.120  -7.799  1.00  0.00     0.251 C 
ATOM     38  H   UNL     1       0.577  10.642  -5.843  1.00  0.00     0.163 HD
ATOM     39  O   UNL     1      -0.539  11.796  -7.719  1.00  0.00    -0.269 OA
BRANCH  37  40
ATOM     40  C   UNL     1       1.027  10.753  -9.114  1.00  0.00     0.039 A 
ATOM     41  C   UNL     1       1.167  11.710 -10.120  1.00  0.00     0.014 A 
ATOM     42  C   UNL     1       1.445   9.438  -9.309  1.00  0.00     0.014 A 
ATOM     43  C   UNL     1       1.819  11.355 -11.297  1.00  0.00     0.010 A 
ATOM     44  C   UNL     1       2.188   9.118 -10.422  1.00  0.00     0.010 A 
ATOM     45  C   UNL     1       2.352  10.063 -11.433  1.00  0.00    -0.014 A 
BRANCH  45  46
ATOM     46  C   UNL     1       3.218   9.745 -12.566  1.00  0.00     0.031 A 
ATOM     47  C   UNL     1       4.395  10.647 -12.720  1.00  0.00     0.074 A 
ATOM     48  C   UNL     1       3.108   8.606 -13.283  1.00  0.00     0.049 A 
ATOM     49  N   UNL     1       4.632  11.478 -13.681  1.00  0.00    -0.248 NA
ATOM     50  C   UNL     1       5.351  10.742 -11.605  1.00  0.00     0.031 C 
ATOM     51  C   UNL     1       2.201   7.479 -13.033  1.00  0.00     0.029 A 
ATOM     52  N   UNL     1       3.898   8.139 -14.291  1.00  0.00    -0.354 N 
ATOM     53  C   UNL     1       5.895  12.007 -13.417  1.00  0.00     0.074 A 
ATOM     54  C   UNL     1       6.177  11.695 -12.042  1.00  0.00     0.031 C 
ATOM     55  C   UNL     1       2.668   6.381 -13.665  1.00  0.00     0.029 A 
ATOM     56  C   UNL     1       3.795   6.764 -14.492  1.00  0.00     0.049 A 
ATOM     57  H   UNL     1       4.486   8.720 -14.827  1.00  0.00     0.167 HD
ATOM     58  C   UNL     1       6.715  12.410 -14.429  1.00  0.00     0.034 A 
ATOM     59  C   UNL     1       4.620   5.988 -15.236  1.00  0.00     0.034 A 
ATOM     60  C   UNL     1       5.986  12.549 -15.667  1.00  0.00     0.049 A 
ATOM     61  C   UNL     1       5.311   6.880 -16.192  1.00  0.00     0.074 A 
ATOM     62  C   UNL     1       4.879  13.261 -16.084  1.00  0.00     0.029 A 
ATOM     63  N   UNL     1       6.179  11.566 -16.607  1.00  0.00    -0.354 N 
ATOM     64  N   UNL     1       4.704   7.513 -17.155  1.00  0.00    -0.248 NA
ATOM     65  C   UNL     1       6.623   7.390 -15.834  1.00  0.00     0.031 C 
ATOM     66  C   UNL     1       4.193  12.380 -16.973  1.00  0.00     0.029 A 
ATOM     67  C   UNL     1       4.953  11.216 -17.101  1.00  0.00     0.049 A 
ATOM     68  H   UNL     1       7.044  11.183 -16.877  1.00  0.00     0.167 HD
ATOM     69  C   UNL     1       5.319   8.757 -17.182  1.00  0.00     0.074 A 
ATOM     70  C   UNL     1       6.570   8.574 -16.450  1.00  0.00     0.031 C 
ATOM     71  C   UNL     1       4.618   9.877 -17.529  1.00  0.00     0.034 A 
BRANCH  58  72
ATOM     72  C   UNL     1       8.230  12.288 -14.434  1.00  0.00     0.023 A 
ATOM     73  C   UNL     1       8.911  12.826 -15.553  1.00  0.00     0.012 A 
ATOM     74  C   UNL     1       8.979  11.440 -13.587  1.00  0.00     0.148 A 
ATOM     75  C   UNL     1      10.228  12.465 -15.862  1.00  0.00     0.002 A 
ATOM     76  C   UNL     1      10.313  11.149 -13.853  1.00  0.00     0.091 A 
ATOM     77  F   UNL     1       8.384  10.791 -12.585  1.00  0.00    -0.205 F 
ATOM     78  C   UNL     1      10.931  11.627 -15.009  1.00  0.00     0.022 A 
BRANCH  76  79
ATOM     79  S   UNL     1      11.288  10.114 -12.752  1.00  0.00     0.127 S 
ATOM     80  O   UNL     1      11.385   8.880 -13.526  1.00  0.00    -0.237 OA
ATOM     81  O   UNL     1      12.530  10.880 -12.646  1.00  0.00    -0.237 OA
ATOM     82  O   UNL     1      10.527  10.038 -11.512  1.00  0.00    -0.744 OA
ENDBRANCH  76  79
ENDBRANCH  58  72
BRANCH  59  83
ATOM     83  C   UNL     1       5.048   4.584 -15.030  1.00  0.00     0.023 A 
ATOM     84  C   UNL     1       5.657   3.884 -16.091  1.00  0.00     0.012 A 
ATOM     85  C   UNL     1       5.138   4.032 -13.732  1.00  0.00     0.148 A 
ATOM     86  C   UNL     1       6.378   2.706 -15.862  1.00  0.00     0.002 A 
ATOM     87  C   UNL     1       5.849   2.856 -13.510  1.00  0.00     0.091 A 
ATOM     88  F   UNL     1       4.615   4.709 -12.702  1.00  0.00    -0.205 F 
ATOM     89  C   UNL     1       6.484   2.198 -14.570  1.00  0.00     0.022 A 
BRANCH  87  90
ATOM     90  S   UNL     1       6.049   2.163 -11.864  1.00  0.00     0.127 S 
ATOM     91  O   UNL     1       5.786   0.742 -12.097  1.00  0.00    -0.237 OA
ATOM     92  O   UNL     1       7.441   2.488 -11.568  1.00  0.00    -0.237 OA
ATOM     93  O   UNL     1       5.050   2.826 -11.034  1.00  0.00    -0.744 OA
ENDBRANCH  87  90
ENDBRANCH  59  83
BRANCH  71  94
ATOM     94  C   UNL     1       3.266   9.703 -18.174  1.00  0.00     0.023 A 
ATOM     95  C   UNL     1       2.183   9.083 -17.517  1.00  0.00     0.012 A 
ATOM     96  C   UNL     1       3.039  10.336 -19.407  1.00  0.00     0.148 A 
ATOM     97  C   UNL     1       0.908   9.074 -18.090  1.00  0.00     0.002 A 
ATOM     98  C   UNL     1       1.761  10.368 -19.950  1.00  0.00     0.091 A 
ATOM     99  F   UNL     1       4.079  10.923 -20.019  1.00  0.00    -0.205 F 
ATOM    100  C   UNL     1       0.694   9.729 -19.300  1.00  0.00     0.022 A 
BRANCH  98 101
ATOM    101  S   UNL     1       1.402  11.306 -21.436  1.00  0.00     0.127 S 
ATOM    102  O   UNL     1       1.282  10.253 -22.442  1.00  0.00    -0.237 OA
ATOM    103  O   UNL     1       0.144  11.972 -21.094  1.00  0.00    -0.237 OA
ATOM    104  O   UNL     1       2.525  12.219 -21.614  1.00  0.00    -0.744 OA
ENDBRANCH  98 101
ENDBRANCH  71  94
ENDBRANCH  45  46
ENDBRANCH  37  40
ENDBRANCH  35  36
ENDBRANCH  34  35
ENDBRANCH   1  34
TORSDOF 17
