REMARK SMILES CS(=O)(=O)c1ccc(N2N=C(C(=O)NCCCCNC(=O)c3ccc(-c4c5nc(c(-c6cccc(S(=O)(=O)[O-])c6F)c6ccc([nH]6)c(-c6cccc(S(=O)(=O)[O-])c6F)c6nc(c(-c7cccc(S(=O)(=O)[O-])c7F)c7ccc4[nH]7)C=C6)C=C5)cc3)C[C@H]2c2ccco2)cc1
REMARK SMILES IDX 17 1 16 2 15 3 14 4 12 5 13 6 11 8 9 9 10 10 86 11 85 12
REMARK SMILES IDX 8 13 5 14 6 15 93 16 7 17 92 18 2 19 1 20 3 21 4 22 87 23
REMARK SMILES IDX 88 24 91 25 89 26 90 27 18 28 19 29 20 30 21 32 22 33 23 34
REMARK SMILES IDX 84 35 24 36 83 37 25 38 26 39 27 40 77 41 28 42 82 43 76 44
REMARK SMILES IDX 78 45 29 46 81 47 75 48 74 49 30 51 62 52 42 53 61 54 43 55
REMARK SMILES IDX 46 56 60 57 79 58 44 59 45 60 59 62 80 63 47 64 31 65 32 66
REMARK SMILES IDX 40 67 33 68 35 69 41 70 34 71 36 72 37 73 38 74 39 75 63 76
REMARK SMILES IDX 64 77 72 78 65 79 67 80 73 81 66 82 68 83 69 84 70 85 71 86
REMARK SMILES IDX 48 87 49 88 57 89 50 90 52 91 58 92 51 93 53 94 54 95 55 96
REMARK SMILES IDX 56 97
REMARK H PARENT 14 7 19 31 78 50 46 61
REMARK Flexibility Score: inf
ROOT
ATOM      1  C   UNL     1       4.555   9.029  -9.941  1.00  0.00     0.023 C 
ENDROOT
BRANCH   1   2
ATOM      2  C   UNL     1       4.478   8.387  -8.557  1.00  0.00     0.023 C 
BRANCH   2   3
ATOM      3  C   UNL     1       3.057   8.131  -8.066  1.00  0.00     0.116 C 
BRANCH   3   4
ATOM      4  N   UNL     1       2.487   6.945  -8.675  1.00  0.00    -0.351 N 
ATOM      5  C   UNL     1       2.128   5.702  -8.215  1.00  0.00     0.267 C 
ATOM      6  O   UNL     1       1.714   4.886  -9.034  1.00  0.00    -0.268 OA
ATOM      7  H   UNL     1       2.319   7.056  -9.639  1.00  0.00     0.163 HD
BRANCH   5   8
ATOM      8  C   UNL     1       2.173   5.288  -6.751  1.00  0.00     0.128 C 
ATOM      9  N   UNL     1       1.751   4.141  -5.005  1.00  0.00    -0.254 N 
ATOM     10  N   UNL     1       1.713   4.134  -6.363  1.00  0.00    -0.171 NA
ATOM     11  C   UNL     1       2.470   5.279  -4.434  1.00  0.00     0.180 C 
ATOM     12  C   UNL     1       2.696   6.162  -5.663  1.00  0.00     0.099 C 
BRANCH   9  13
ATOM     13  C   UNL     1       1.448   2.995  -4.286  1.00  0.00     0.060 A 
ATOM     14  C   UNL     1       0.847   0.736  -2.740  1.00  0.00     0.067 A 
ATOM     15  C   UNL     1       1.864   0.668  -3.694  1.00  0.00     0.022 A 
ATOM     16  C   UNL     1       0.093   1.899  -2.584  1.00  0.00     0.022 A 
ATOM     17  C   UNL     1       2.153   1.798  -4.469  1.00  0.00     0.029 A 
ATOM     18  C   UNL     1       0.401   3.017  -3.355  1.00  0.00     0.029 A 
BRANCH  14  19
ATOM     19  S   UNL     1       0.479  -0.657  -1.707  1.00  0.00     0.175 S 
ATOM     20  C   UNL     1       1.146  -0.173  -0.136  1.00  0.00     0.163 C 
ATOM     21  O   UNL     1       1.251  -1.792  -2.179  1.00  0.00    -0.224 OA
ATOM     22  O   UNL     1      -0.963  -0.737  -1.575  1.00  0.00    -0.224 OA
ENDBRANCH  14  19
ENDBRANCH   9  13
BRANCH  11  23
ATOM     23  C   UNL     1       1.815   6.016  -3.300  1.00  0.00     0.128 A 
ATOM     24  C   UNL     1       1.750   5.777  -1.940  1.00  0.00     0.048 A 
ATOM     25  O   UNL     1       1.121   7.158  -3.589  1.00  0.00    -0.467 OA
ATOM     26  C   UNL     1       0.965   6.814  -1.381  1.00  0.00     0.042 A 
ATOM     27  C   UNL     1       0.618   7.636  -2.426  1.00  0.00     0.195 A 
ENDBRANCH  11  23
ENDBRANCH   5   8
ENDBRANCH   3   4
ENDBRANCH   2   3
ENDBRANCH   1   2
BRANCH   1  28
ATOM     28  C   UNL     1       3.812  10.355 -10.087  1.00  0.00     0.116 C 
BRANCH  28  29
ATOM     29  N   UNL     1       4.187  11.347  -9.086  1.00  0.00    -0.352 N 
ATOM     30  C   UNL     1       4.417  12.692  -9.258  1.00  0.00     0.251 C 
ATOM     31  H   UNL     1       4.288  11.009  -8.166  1.00  0.00     0.163 HD
ATOM     32  O   UNL     1       4.821  13.379  -8.326  1.00  0.00    -0.269 OA
BRANCH  30  33
ATOM     33  C   UNL     1       4.205  13.285 -10.593  1.00  0.00     0.039 A 
ATOM     34  C   UNL     1       5.248  13.995 -11.192  1.00  0.00     0.014 A 
ATOM     35  C   UNL     1       3.009  13.060 -11.279  1.00  0.00     0.014 A 
ATOM     36  C   UNL     1       5.123  14.407 -12.520  1.00  0.00     0.010 A 
ATOM     37  C   UNL     1       2.916  13.408 -12.621  1.00  0.00     0.010 A 
ATOM     38  C   UNL     1       3.975  14.073 -13.259  1.00  0.00    -0.014 A 
BRANCH  38  39
ATOM     39  C   UNL     1       3.871  14.369 -14.710  1.00  0.00     0.031 A 
ATOM     40  C   UNL     1       2.795  15.289 -15.216  1.00  0.00     0.074 A 
ATOM     41  C   UNL     1       4.669  13.717 -15.579  1.00  0.00     0.049 A 
ATOM     42  N   UNL     1       2.481  15.588 -16.449  1.00  0.00    -0.248 NA
ATOM     43  C   UNL     1       1.941  15.934 -14.205  1.00  0.00     0.031 C 
ATOM     44  C   UNL     1       5.696  12.738 -15.216  1.00  0.00     0.029 A 
ATOM     45  N   UNL     1       4.717  13.753 -16.951  1.00  0.00    -0.354 N 
ATOM     46  C   UNL     1       1.372  16.421 -16.366  1.00  0.00     0.074 A 
ATOM     47  C   UNL     1       1.049  16.556 -14.962  1.00  0.00     0.031 C 
ATOM     48  C   UNL     1       6.271  12.266 -16.334  1.00  0.00     0.029 A 
ATOM     49  C   UNL     1       5.635  12.883 -17.494  1.00  0.00     0.049 A 
ATOM     50  H   UNL     1       4.149  14.345 -17.494  1.00  0.00     0.167 HD
ATOM     51  C   UNL     1       0.703  17.043 -17.365  1.00  0.00     0.034 A 
ATOM     52  C   UNL     1       5.924  12.605 -18.780  1.00  0.00     0.034 A 
ATOM     53  C   UNL     1       1.059  16.947 -18.754  1.00  0.00     0.049 A 
ATOM     54  C   UNL     1       5.189  13.338 -19.869  1.00  0.00     0.074 A 
ATOM     55  C   UNL     1       0.505  17.615 -19.831  1.00  0.00     0.029 A 
ATOM     56  N   UNL     1       2.055  16.126 -19.260  1.00  0.00    -0.354 N 
ATOM     57  N   UNL     1       4.254  14.251 -19.762  1.00  0.00    -0.248 NA
ATOM     58  C   UNL     1       5.569  13.028 -21.255  1.00  0.00     0.031 C 
ATOM     59  C   UNL     1       1.157  17.186 -20.992  1.00  0.00     0.029 A 
ATOM     60  C   UNL     1       2.127  16.264 -20.636  1.00  0.00     0.049 A 
ATOM     61  H   UNL     1       2.627  15.534 -18.721  1.00  0.00     0.167 HD
ATOM     62  C   UNL     1       3.958  14.648 -21.061  1.00  0.00     0.074 A 
ATOM     63  C   UNL     1       4.827  13.890 -21.938  1.00  0.00     0.031 C 
ATOM     64  C   UNL     1       3.037  15.546 -21.491  1.00  0.00     0.034 A 
BRANCH  51  65
ATOM     65  C   UNL     1      -0.447  17.937 -16.983  1.00  0.00     0.023 A 
ATOM     66  C   UNL     1      -0.182  19.174 -16.358  1.00  0.00     0.012 A 
ATOM     67  C   UNL     1      -1.776  17.586 -17.287  1.00  0.00     0.148 A 
ATOM     68  C   UNL     1      -1.224  20.031 -16.010  1.00  0.00     0.002 A 
ATOM     69  C   UNL     1      -2.806  18.466 -16.975  1.00  0.00     0.091 A 
ATOM     70  F   UNL     1      -2.010  16.397 -17.859  1.00  0.00    -0.205 F 
ATOM     71  C   UNL     1      -2.534  19.683 -16.328  1.00  0.00     0.022 A 
BRANCH  69  72
ATOM     72  S   UNL     1      -4.519  18.143 -17.411  1.00  0.00     0.127 S 
ATOM     73  O   UNL     1      -5.100  17.829 -16.106  1.00  0.00    -0.237 OA
ATOM     74  O   UNL     1      -4.942  19.426 -17.974  1.00  0.00    -0.237 OA
ATOM     75  O   UNL     1      -4.488  17.044 -18.365  1.00  0.00    -0.744 OA
ENDBRANCH  69  72
ENDBRANCH  51  65
BRANCH  52  76
ATOM     76  C   UNL     1       7.008  11.635 -19.108  1.00  0.00     0.023 A 
ATOM     77  C   UNL     1       8.214  12.113 -19.656  1.00  0.00     0.012 A 
ATOM     78  C   UNL     1       6.868  10.258 -18.852  1.00  0.00     0.148 A 
ATOM     79  C   UNL     1       9.250  11.233 -19.972  1.00  0.00     0.002 A 
ATOM     80  C   UNL     1       7.924   9.394 -19.119  1.00  0.00     0.091 A 
ATOM     81  F   UNL     1       5.707   9.820 -18.343  1.00  0.00    -0.205 F 
ATOM     82  C   UNL     1       9.110   9.877 -19.694  1.00  0.00     0.022 A 
BRANCH  80  83
ATOM     83  S   UNL     1       7.881   7.655 -18.669  1.00  0.00     0.127 S 
ATOM     84  O   UNL     1       7.737   7.012 -19.973  1.00  0.00    -0.237 OA
ATOM     85  O   UNL     1       9.186   7.474 -18.032  1.00  0.00    -0.237 OA
ATOM     86  O   UNL     1       6.749   7.515 -17.762  1.00  0.00    -0.744 OA
ENDBRANCH  80  83
ENDBRANCH  52  76
BRANCH  64  87
ATOM     87  C   UNL     1       2.933  15.789 -22.973  1.00  0.00     0.023 A 
ATOM     88  C   UNL     1       2.328  14.820 -23.797  1.00  0.00     0.012 A 
ATOM     89  C   UNL     1       3.351  17.012 -23.533  1.00  0.00     0.148 A 
ATOM     90  C   UNL     1       2.163  15.055 -25.161  1.00  0.00     0.002 A 
ATOM     91  C   UNL     1       3.141  17.258 -24.884  1.00  0.00     0.091 A 
ATOM     92  F   UNL     1       3.941  17.913 -22.733  1.00  0.00    -0.205 F 
ATOM     93  C   UNL     1       2.557  16.277 -25.702  1.00  0.00     0.022 A 
BRANCH  91  94
ATOM     94  S   UNL     1       3.529  18.837 -25.648  1.00  0.00     0.127 S 
ATOM     95  O   UNL     1       4.697  18.496 -26.459  1.00  0.00    -0.237 OA
ATOM     96  O   UNL     1       2.315  19.117 -26.415  1.00  0.00    -0.237 OA
ATOM     97  O   UNL     1       3.779  19.763 -24.552  1.00  0.00    -0.744 OA
ENDBRANCH  91  94
ENDBRANCH  64  87
ENDBRANCH  38  39
ENDBRANCH  30  33
ENDBRANCH  28  29
ENDBRANCH   1  28
TORSDOF 17
