REMARK SMILES CC(C)(C)OC(=O)N1CCC[C@H]1C(=O)N1CCC[C@H]1C(=O)N1CCC[C@@H]1C(=O)NCCCCNC(=O)c1ccc(-c2c3nc(c(-c4cccc(S(=O)(=O)[O-])c4F)c4ccc([nH]4)c(-c4cccc(S(=O)(=O)[O-])c4F)c4nc(c(-c5cccc(S(=O)(=O)[O-])c5F)c5ccc2[nH]5)C=C4)C=C3)cc1
REMARK SMILES IDX 27 1 28 2 29 3 26 5 22 6 23 7 24 8 25 9 20 10 21 11 19 12
REMARK SMILES IDX 15 13 16 14 17 15 18 16 13 17 14 18 12 19 8 20 9 21 10 22
REMARK SMILES IDX 11 23 6 24 7 25 5 26 2 27 1 28 3 29 4 30 30 31 31 32 32 33
REMARK SMILES IDX 33 34 34 35 35 36 36 38 37 39 38 40 99 41 39 42 98 43 40 44
REMARK SMILES IDX 41 45 42 46 92 47 43 48 97 49 91 50 93 51 44 52 96 53 90 54
REMARK SMILES IDX 89 55 45 57 77 58 57 59 76 60 58 61 61 62 75 63 94 64 59 65
REMARK SMILES IDX 60 66 74 68 95 69 62 70 46 71 47 72 55 73 48 74 50 75 56 76
REMARK SMILES IDX 49 77 51 78 52 79 53 80 54 81 78 82 79 83 87 84 80 85 82 86
REMARK SMILES IDX 88 87 81 88 83 89 84 90 85 91 86 92 63 93 64 94 72 95 65 96
REMARK SMILES IDX 67 97 73 98 66 99 68 100 69 101 70 102 71 103
REMARK H PARENT 29 4 34 37 93 56 61 67
REMARK Flexibility Score: inf
ROOT
ATOM      1  C   UNL     1       0.109   1.950 -12.299  1.00  0.00     0.242 C 
ATOM      2  O   UNL     1      -0.341   1.551 -13.379  1.00  0.00    -0.273 OA
ATOM      3  N   UNL     1       0.503   3.257 -12.242  1.00  0.00    -0.354 N 
ATOM      4  H   UNL     1       0.295   3.785 -13.047  1.00  0.00     0.163 HD
ENDROOT
BRANCH   1   5
ATOM      5  C   UNL     1       0.401   0.946 -11.161  1.00  0.00     0.174 C 
ATOM      6  N   UNL     1       0.177   1.446  -9.804  1.00  0.00    -0.329 N 
ATOM      7  C   UNL     1       1.273   1.067  -8.937  1.00  0.00     0.120 C 
ATOM      8  C   UNL     1       2.463   0.881  -9.861  1.00  0.00     0.024 C 
ATOM      9  C   UNL     1       1.861   0.479 -11.201  1.00  0.00     0.037 C 
BRANCH   6  10
ATOM     10  C   UNL     1      -1.121   1.581  -9.344  1.00  0.00     0.246 C 
ATOM     11  O   UNL     1      -2.053   1.023  -9.937  1.00  0.00    -0.272 OA
BRANCH  10  12
ATOM     12  C   UNL     1      -1.458   2.713  -8.335  1.00  0.00     0.174 C 
ATOM     13  N   UNL     1      -0.488   3.322  -7.413  1.00  0.00    -0.329 N 
ATOM     14  C   UNL     1      -0.249   4.712  -7.749  1.00  0.00     0.120 C 
ATOM     15  C   UNL     1      -1.462   5.157  -8.533  1.00  0.00     0.024 C 
ATOM     16  C   UNL     1      -1.978   3.892  -9.190  1.00  0.00     0.037 C 
BRANCH  13  17
ATOM     17  C   UNL     1      -0.088   2.621  -6.286  1.00  0.00     0.246 C 
ATOM     18  O   UNL     1      -0.193   1.389  -6.286  1.00  0.00    -0.272 OA
BRANCH  17  19
ATOM     19  C   UNL     1       0.358   3.395  -5.000  1.00  0.00     0.178 C 
ATOM     20  N   UNL     1       0.952   2.506  -3.986  1.00  0.00    -0.296 N 
ATOM     21  C   UNL     1       2.317   2.877  -3.673  1.00  0.00     0.124 C 
ATOM     22  C   UNL     1       2.330   4.360  -3.958  1.00  0.00     0.024 C 
ATOM     23  C   UNL     1       1.446   4.464  -5.194  1.00  0.00     0.037 C 
BRANCH  20  24
ATOM     24  C   UNL     1       0.203   1.600  -3.274  1.00  0.00     0.410 C 
ATOM     25  O   UNL     1      -0.983   1.387  -3.486  1.00  0.00    -0.224 OA
BRANCH  24  26
ATOM     26  O   UNL     1       0.933   1.024  -2.287  1.00  0.00    -0.444 OA
BRANCH  26  27
ATOM     27  C   UNL     1       0.447  -0.049  -1.439  1.00  0.00     0.106 C 
ATOM     28  C   UNL     1       1.190   0.136  -0.107  1.00  0.00     0.056 C 
ATOM     29  C   UNL     1       0.873  -1.371  -2.081  1.00  0.00     0.056 C 
ATOM     30  C   UNL     1      -1.058  -0.038  -1.152  1.00  0.00     0.056 C 
ENDBRANCH  26  27
ENDBRANCH  24  26
ENDBRANCH  20  24
ENDBRANCH  17  19
ENDBRANCH  13  17
ENDBRANCH  10  12
ENDBRANCH   6  10
ENDBRANCH   1   5
BRANCH   3  31
ATOM     31  C   UNL     1       1.175   3.989 -11.193  1.00  0.00     0.116 C 
BRANCH  31  32
ATOM     32  C   UNL     1       2.523   4.542 -11.638  1.00  0.00     0.023 C 
BRANCH  32  33
ATOM     33  C   UNL     1       2.441   5.875 -12.380  1.00  0.00     0.023 C 
BRANCH  33  34
ATOM     34  C   UNL     1       1.746   7.008 -11.626  1.00  0.00     0.116 C 
BRANCH  34  35
ATOM     35  N   UNL     1       2.304   7.267 -10.304  1.00  0.00    -0.352 N 
ATOM     36  C   UNL     1       2.425   8.480  -9.664  1.00  0.00     0.251 C 
ATOM     37  H   UNL     1       2.633   6.482  -9.810  1.00  0.00     0.163 HD
ATOM     38  O   UNL     1       2.972   8.556  -8.568  1.00  0.00    -0.269 OA
BRANCH  36  39
ATOM     39  C   UNL     1       1.918   9.690 -10.342  1.00  0.00     0.039 A 
ATOM     40  C   UNL     1       2.800  10.740 -10.607  1.00  0.00     0.014 A 
ATOM     41  C   UNL     1       0.599   9.732 -10.803  1.00  0.00     0.014 A 
ATOM     42  C   UNL     1       2.378  11.803 -11.409  1.00  0.00     0.010 A 
ATOM     43  C   UNL     1       0.205  10.759 -11.653  1.00  0.00     0.010 A 
ATOM     44  C   UNL     1       1.092  11.799 -11.975  1.00  0.00    -0.014 A 
BRANCH  44  45
ATOM     45  C   UNL     1       0.664  12.847 -12.937  1.00  0.00     0.031 A 
ATOM     46  C   UNL     1      -0.484  13.758 -12.603  1.00  0.00     0.074 A 
ATOM     47  C   UNL     1       1.237  12.906 -14.156  1.00  0.00     0.049 A 
ATOM     48  N   UNL     1      -1.051  14.675 -13.343  1.00  0.00    -0.248 NA
ATOM     49  C   UNL     1      -1.094  13.599 -11.273  1.00  0.00     0.031 C 
ATOM     50  C   UNL     1       2.304  12.024 -14.634  1.00  0.00     0.029 A 
ATOM     51  N   UNL     1       0.980  13.724 -15.229  1.00  0.00    -0.354 N 
ATOM     52  C   UNL     1      -2.103  15.177 -12.587  1.00  0.00     0.074 A 
ATOM     53  C   UNL     1      -2.116  14.440 -11.342  1.00  0.00     0.031 C 
ATOM     54  C   UNL     1       2.609  12.347 -15.902  1.00  0.00     0.029 A 
ATOM     55  C   UNL     1       1.743  13.438 -16.338  1.00  0.00     0.049 A 
ATOM     56  H   UNL     1       0.312  14.447 -15.207  1.00  0.00     0.167 HD
ATOM     57  C   UNL     1      -2.961  16.180 -12.887  1.00  0.00     0.034 A 
ATOM     58  C   UNL     1       1.740  13.986 -17.570  1.00  0.00     0.034 A 
ATOM     59  C   UNL     1      -2.918  16.942 -14.106  1.00  0.00     0.049 A 
ATOM     60  C   UNL     1       0.801  15.125 -17.863  1.00  0.00     0.074 A 
ATOM     61  C   UNL     1      -3.684  18.037 -14.462  1.00  0.00     0.029 A 
ATOM     62  N   UNL     1      -2.069  16.684 -15.171  1.00  0.00    -0.354 N 
ATOM     63  N   UNL     1      -0.073  15.698 -17.073  1.00  0.00    -0.248 NA
ATOM     64  C   UNL     1       0.873  15.718 -19.207  1.00  0.00     0.031 C 
ATOM     65  C   UNL     1      -3.311  18.431 -15.751  1.00  0.00     0.029 A 
ATOM     66  C   UNL     1      -2.297  17.594 -16.189  1.00  0.00     0.049 A 
ATOM     67  H   UNL     1      -1.402  15.960 -15.199  1.00  0.00     0.167 HD
ATOM     68  C   UNL     1      -0.629  16.739 -17.808  1.00  0.00     0.074 A 
ATOM     69  C   UNL     1       0.023  16.731 -19.101  1.00  0.00     0.031 C 
ATOM     70  C   UNL     1      -1.601  17.613 -17.450  1.00  0.00     0.034 A 
BRANCH  57  71
ATOM     71  C   UNL     1      -3.985  16.555 -11.848  1.00  0.00     0.023 A 
ATOM     72  C   UNL     1      -3.571  17.221 -10.677  1.00  0.00     0.012 A 
ATOM     73  C   UNL     1      -5.356  16.303 -12.053  1.00  0.00     0.148 A 
ATOM     74  C   UNL     1      -4.499  17.599  -9.708  1.00  0.00     0.002 A 
ATOM     75  C   UNL     1      -6.280  16.722 -11.102  1.00  0.00     0.091 A 
ATOM     76  F   UNL     1      -5.728  15.649 -13.162  1.00  0.00    -0.205 F 
ATOM     77  C   UNL     1      -5.853  17.359  -9.925  1.00  0.00     0.022 A 
BRANCH  75  78
ATOM     78  S   UNL     1      -8.052  16.529 -11.325  1.00  0.00     0.127 S 
ATOM     79  O   UNL     1      -8.354  15.465 -10.368  1.00  0.00    -0.237 OA
ATOM     80  O   UNL     1      -8.556  17.850 -10.947  1.00  0.00    -0.237 OA
ATOM     81  O   UNL     1      -8.244  16.184 -12.726  1.00  0.00    -0.744 OA
ENDBRANCH  75  78
ENDBRANCH  57  71
BRANCH  58  82
ATOM     82  C   UNL     1       2.709  13.512 -18.599  1.00  0.00     0.023 A 
ATOM     83  C   UNL     1       3.773  14.352 -18.981  1.00  0.00     0.012 A 
ATOM     84  C   UNL     1       2.602  12.233 -19.178  1.00  0.00     0.148 A 
ATOM     85  C   UNL     1       4.694  13.941 -19.945  1.00  0.00     0.002 A 
ATOM     86  C   UNL     1       3.555  11.808 -20.098  1.00  0.00     0.091 A 
ATOM     87  F   UNL     1       1.576  11.453 -18.811  1.00  0.00    -0.205 F 
ATOM     88  C   UNL     1       4.591  12.666 -20.495  1.00  0.00     0.022 A 
BRANCH  86  89
ATOM     89  S   UNL     1       3.578  10.137 -20.755  1.00  0.00     0.127 S 
ATOM     90  O   UNL     1       3.153  10.352 -22.135  1.00  0.00    -0.237 OA
ATOM     91  O   UNL     1       4.985   9.767 -20.593  1.00  0.00    -0.237 OA
ATOM     92  O   UNL     1       2.660   9.375 -19.918  1.00  0.00    -0.744 OA
ENDBRANCH  86  89
ENDBRANCH  58  82
BRANCH  70  93
ATOM     93  C   UNL     1      -2.004  18.663 -18.451  1.00  0.00     0.023 A 
ATOM     94  C   UNL     1      -2.770  18.300 -19.576  1.00  0.00     0.012 A 
ATOM     95  C   UNL     1      -1.695  20.020 -18.232  1.00  0.00     0.148 A 
ATOM     96  C   UNL     1      -3.198  19.269 -20.484  1.00  0.00     0.002 A 
ATOM     97  C   UNL     1      -2.166  20.985 -19.115  1.00  0.00     0.091 A 
ATOM     98  F   UNL     1      -0.949  20.343 -17.166  1.00  0.00    -0.205 F 
ATOM     99  C   UNL     1      -2.908  20.610 -20.247  1.00  0.00     0.022 A 
BRANCH  97 100
ATOM    100  S   UNL     1      -1.922  22.744 -18.839  1.00  0.00     0.127 S 
ATOM    101  O   UNL     1      -0.922  23.069 -19.854  1.00  0.00    -0.237 OA
ATOM    102  O   UNL     1      -3.255  23.287 -19.099  1.00  0.00    -0.237 OA
ATOM    103  O   UNL     1      -1.477  22.874 -17.458  1.00  0.00    -0.744 OA
ENDBRANCH  97 100
ENDBRANCH  70  93
ENDBRANCH  44  45
ENDBRANCH  36  39
ENDBRANCH  34  35
ENDBRANCH  33  34
ENDBRANCH  32  33
ENDBRANCH  31  32
ENDBRANCH   3  31
TORSDOF 21
