REMARK SMILES CCn1cccc1C(=O)N(C)c1snc(C)c1C(=O)NCCCCNC(=O)c1ccc(-c2c3nc(c(-c4cccc(S(=O)(=O)[O-])c4F)c4ccc([nH]4)c(-c4cccc(S(=O)(=O)[O-])c4F)c4nc(c(-c5cccc(S(=O)(=O)[O-])c5F)c5ccc2[nH]5)C=C4)C=C3)cc1
REMARK SMILES IDX 22 1 21 2 20 3 18 4 19 5 17 7 12 8 13 9 14 10 15 11 16 12
REMARK SMILES IDX 10 13 11 14 8 15 9 16 7 17 3 18 4 19 5 20 6 21 2 22 1 23
REMARK SMILES IDX 23 24 24 25 25 26 26 27 27 29 28 30 29 31 90 32 30 33 89 34
REMARK SMILES IDX 31 35 32 36 33 37 83 38 34 39 88 40 82 41 84 42 35 43 87 44
REMARK SMILES IDX 81 45 80 46 36 48 68 49 48 50 67 51 49 52 52 53 66 54 85 55
REMARK SMILES IDX 50 56 51 57 65 59 86 60 53 61 37 62 38 63 46 64 39 65 41 66
REMARK SMILES IDX 47 67 40 68 42 69 43 70 44 71 45 72 69 73 70 74 78 75 71 76
REMARK SMILES IDX 73 77 79 78 72 79 74 80 75 81 76 82 77 83 54 84 55 85 63 86
REMARK SMILES IDX 56 87 58 88 64 89 57 90 59 91 60 92 61 93 62 94
REMARK H PARENT 20 6 25 28 84 47 52 58
REMARK Flexibility Score: inf
ROOT
ATOM      1  C   UNL     1      -2.036  -2.970   3.449  1.00  0.00     0.023 C 
ENDROOT
BRANCH   1   2
ATOM      2  C   UNL     1      -0.953  -3.910   2.926  1.00  0.00     0.116 C 
BRANCH   2   3
ATOM      3  N   UNL     1      -1.121  -5.302   3.238  1.00  0.00    -0.352 N 
ATOM      4  C   UNL     1      -0.790  -6.462   2.570  1.00  0.00     0.256 C 
ATOM      5  O   UNL     1      -1.040  -7.481   3.204  1.00  0.00    -0.269 OA
ATOM      6  H   UNL     1      -1.561  -5.460   4.105  1.00  0.00     0.163 HD
BRANCH   4   7
ATOM      7  C   UNL     1      -0.258  -6.562   1.192  1.00  0.00     0.097 A 
ATOM      8  C   UNL     1       0.408  -5.657   0.371  1.00  0.00     0.131 A 
ATOM      9  S   UNL     1       0.893  -6.410  -1.090  1.00  0.00    -0.017 S 
ATOM     10  N   UNL     1       0.136  -7.833  -0.815  1.00  0.00    -0.195 NA
ATOM     11  C   UNL     1      -0.407  -7.809   0.405  1.00  0.00     0.066 A 
ATOM     12  C   UNL     1      -1.144  -9.059   0.776  1.00  0.00     0.069 C 
BRANCH   8  13
ATOM     13  N   UNL     1       0.713  -4.289   0.426  1.00  0.00    -0.300 N 
ATOM     14  C   UNL     1      -0.054  -3.421  -0.452  1.00  0.00     0.154 C 
BRANCH  13  15
ATOM     15  C   UNL     1       1.861  -3.950   1.169  1.00  0.00     0.275 C 
ATOM     16  O   UNL     1       2.629  -4.867   1.485  1.00  0.00    -0.267 OA
BRANCH  15  17
ATOM     17  C   UNL     1       2.149  -2.594   1.694  1.00  0.00     0.107 A 
ATOM     18  N   UNL     1       1.808  -1.276   1.380  1.00  0.00    -0.344 N 
ATOM     19  C   UNL     1       2.250  -0.430   2.376  1.00  0.00     0.086 A 
ATOM     20  C   UNL     1       3.091  -1.123   3.198  1.00  0.00     0.020 A 
ATOM     21  C   UNL     1       2.998  -2.466   2.806  1.00  0.00     0.033 A 
BRANCH  18  22
ATOM     22  C   UNL     1       1.202  -0.742   0.174  1.00  0.00     0.119 C 
ATOM     23  C   UNL     1       1.508   0.710  -0.183  1.00  0.00     0.027 C 
ENDBRANCH  18  22
ENDBRANCH  15  17
ENDBRANCH  13  15
ENDBRANCH   8  13
ENDBRANCH   4   7
ENDBRANCH   2   3
ENDBRANCH   1   2
BRANCH   1  24
ATOM     24  C   UNL     1      -2.091  -2.741   4.962  1.00  0.00     0.023 C 
BRANCH  24  25
ATOM     25  C   UNL     1      -0.826  -2.140   5.586  1.00  0.00     0.116 C 
BRANCH  25  26
ATOM     26  N   UNL     1      -0.534  -0.807   5.075  1.00  0.00    -0.352 N 
ATOM     27  C   UNL     1       0.425   0.096   5.472  1.00  0.00     0.251 C 
ATOM     28  H   UNL     1      -1.110  -0.508   4.335  1.00  0.00     0.163 HD
ATOM     29  O   UNL     1       0.342   1.255   5.062  1.00  0.00    -0.269 OA
BRANCH  27  30
ATOM     30  C   UNL     1       1.521  -0.271   6.405  1.00  0.00     0.039 A 
ATOM     31  C   UNL     1       1.892   0.656   7.390  1.00  0.00     0.014 A 
ATOM     32  C   UNL     1       2.227  -1.471   6.298  1.00  0.00     0.014 A 
ATOM     33  C   UNL     1       2.877   0.331   8.327  1.00  0.00     0.010 A 
ATOM     34  C   UNL     1       3.246  -1.780   7.199  1.00  0.00     0.010 A 
ATOM     35  C   UNL     1       3.519  -0.914   8.263  1.00  0.00    -0.014 A 
BRANCH  35  36
ATOM     36  C   UNL     1       4.205  -1.444   9.475  1.00  0.00     0.031 A 
ATOM     37  C   UNL     1       3.197  -2.083  10.461  1.00  0.00     0.074 A 
ATOM     38  C   UNL     1       5.562  -1.316   9.577  1.00  0.00     0.049 A 
ATOM     39  N   UNL     1       3.250  -2.208  11.758  1.00  0.00    -0.248 NA
ATOM     40  C   UNL     1       1.877  -2.542   9.943  1.00  0.00     0.031 C 
ATOM     41  C   UNL     1       6.422  -0.704   8.546  1.00  0.00     0.029 A 
ATOM     42  N   UNL     1       6.494  -1.671  10.540  1.00  0.00    -0.354 N 
ATOM     43  C   UNL     1       2.111  -2.960  12.144  1.00  0.00     0.074 A 
ATOM     44  C   UNL     1       1.233  -2.986  11.021  1.00  0.00     0.031 C 
ATOM     45  C   UNL     1       7.711  -0.671   8.953  1.00  0.00     0.029 A 
ATOM     46  C   UNL     1       7.831  -1.286  10.265  1.00  0.00     0.049 A 
ATOM     47  H   UNL     1       6.245  -2.159  11.358  1.00  0.00     0.167 HD
ATOM     48  C   UNL     1       2.028  -3.666  13.309  1.00  0.00     0.034 A 
ATOM     49  C   UNL     1       8.958  -1.424  11.035  1.00  0.00     0.034 A 
ATOM     50  C   UNL     1       3.237  -3.518  14.044  1.00  0.00     0.049 A 
ATOM     51  C   UNL     1       8.582  -2.252  12.187  1.00  0.00     0.074 A 
ATOM     52  C   UNL     1       3.777  -2.523  14.810  1.00  0.00     0.029 A 
ATOM     53  N   UNL     1       4.191  -4.471  13.787  1.00  0.00    -0.354 N 
ATOM     54  N   UNL     1       8.400  -3.538  12.143  1.00  0.00    -0.248 NA
ATOM     55  C   UNL     1       8.356  -1.607  13.488  1.00  0.00     0.031 C 
ATOM     56  C   UNL     1       5.168  -2.740  14.730  1.00  0.00     0.029 A 
ATOM     57  C   UNL     1       5.416  -3.893  13.976  1.00  0.00     0.049 A 
ATOM     58  H   UNL     1       4.023  -5.402  13.516  1.00  0.00     0.167 HD
ATOM     59  C   UNL     1       7.697  -3.766  13.299  1.00  0.00     0.074 A 
ATOM     60  C   UNL     1       8.018  -2.681  14.194  1.00  0.00     0.031 C 
ATOM     61  C   UNL     1       6.525  -4.444  13.233  1.00  0.00     0.034 A 
BRANCH  48  62
ATOM     62  C   UNL     1       1.076  -4.732  13.819  1.00  0.00     0.023 A 
ATOM     63  C   UNL     1       1.175  -5.011  15.215  1.00  0.00     0.012 A 
ATOM     64  C   UNL     1       0.340  -5.643  13.042  1.00  0.00     0.148 A 
ATOM     65  C   UNL     1       0.692  -6.186  15.786  1.00  0.00     0.002 A 
ATOM     66  C   UNL     1      -0.200  -6.792  13.634  1.00  0.00     0.091 A 
ATOM     67  F   UNL     1       0.232  -5.458  11.723  1.00  0.00    -0.205 F 
ATOM     68  C   UNL     1       0.012  -7.085  14.989  1.00  0.00     0.022 A 
BRANCH  66  69
ATOM     69  S   UNL     1      -1.212  -7.960  12.715  1.00  0.00     0.127 S 
ATOM     70  O   UNL     1      -0.249  -9.003  12.377  1.00  0.00    -0.237 OA
ATOM     71  O   UNL     1      -2.209  -8.358  13.713  1.00  0.00    -0.237 OA
ATOM     72  O   UNL     1      -1.769  -7.193  11.607  1.00  0.00    -0.744 OA
ENDBRANCH  66  69
ENDBRANCH  48  62
BRANCH  49  73
ATOM     73  C   UNL     1      10.388  -0.913  11.021  1.00  0.00     0.023 A 
ATOM     74  C   UNL     1      10.995  -0.302   9.916  1.00  0.00     0.012 A 
ATOM     75  C   UNL     1      11.186  -0.963  12.209  1.00  0.00     0.148 A 
ATOM     76  C   UNL     1      12.262   0.311  10.018  1.00  0.00     0.002 A 
ATOM     77  C   UNL     1      12.375  -0.256  12.344  1.00  0.00     0.091 A 
ATOM     78  F   UNL     1      10.819  -1.745  13.229  1.00  0.00    -0.205 F 
ATOM     79  C   UNL     1      12.930   0.378  11.239  1.00  0.00     0.022 A 
BRANCH  77  80
ATOM     80  S   UNL     1      13.153  -0.000  13.953  1.00  0.00     0.127 S 
ATOM     81  O   UNL     1      14.498  -0.531  13.739  1.00  0.00    -0.237 OA
ATOM     82  O   UNL     1      13.082   1.456  14.083  1.00  0.00    -0.237 OA
ATOM     83  O   UNL     1      12.345  -0.728  14.924  1.00  0.00    -0.744 OA
ENDBRANCH  77  80
ENDBRANCH  49  73
BRANCH  61  84
ATOM     84  C   UNL     1       6.445  -5.435  12.078  1.00  0.00     0.023 A 
ATOM     85  C   UNL     1       7.342  -6.521  12.093  1.00  0.00     0.012 A 
ATOM     86  C   UNL     1       5.630  -5.277  10.932  1.00  0.00     0.148 A 
ATOM     87  C   UNL     1       7.434  -7.409  11.017  1.00  0.00     0.002 A 
ATOM     88  C   UNL     1       5.721  -6.162   9.856  1.00  0.00     0.091 A 
ATOM     89  F   UNL     1       4.783  -4.249  10.893  1.00  0.00    -0.205 F 
ATOM     90  C   UNL     1       6.624  -7.232   9.901  1.00  0.00     0.022 A 
BRANCH  88  91
ATOM     91  S   UNL     1       4.755  -6.002   8.341  1.00  0.00     0.127 S 
ATOM     92  O   UNL     1       5.795  -5.829   7.325  1.00  0.00    -0.237 OA
ATOM     93  O   UNL     1       4.065  -7.288   8.281  1.00  0.00    -0.237 OA
ATOM     94  O   UNL     1       3.889  -4.843   8.519  1.00  0.00    -0.744 OA
ENDBRANCH  88  91
ENDBRANCH  61  84
ENDBRANCH  35  36
ENDBRANCH  27  30
ENDBRANCH  25  26
ENDBRANCH  24  25
ENDBRANCH   1  24
TORSDOF 18
