REMARK SMILES Cc1c(NC(=O)c2ccccc2NC(=O)[C@@H]2CCCO2)cccc1C(=O)NCCCCNC(=O)c1ccc(-c2c3nc(c(-c4cccc(S(=O)(=O)[O-])c4F)c4ccc([nH]4)c(-c4cccc(S(=O)(=O)[O-])c4F)c4nc(c(-c5cccc(S(=O)(=O)[O-])c5F)c5ccc2[nH]5)C=C4)C=C3)cc1
REMARK SMILES IDX 29 1 28 2 27 3 25 4 26 5 24 7 1 8 2 9 3 10 21 11 23 12 22 13
REMARK SMILES IDX 4 14 5 15 6 17 7 18 8 19 12 20 9 21 11 22 10 23 13 24 14 25
REMARK SMILES IDX 15 27 16 28 17 29 20 30 18 31 19 32 30 33 31 34 32 35 33 36
REMARK SMILES IDX 34 38 35 39 36 40 97 41 37 42 96 43 38 44 39 45 40 46 90 47
REMARK SMILES IDX 41 48 95 49 89 50 91 51 42 52 94 53 88 54 87 55 43 57 75 58
REMARK SMILES IDX 55 59 74 60 56 61 59 62 73 63 92 64 57 65 58 66 72 68 93 69
REMARK SMILES IDX 60 70 44 71 45 72 53 73 46 74 48 75 54 76 47 77 49 78 50 79
REMARK SMILES IDX 51 80 52 81 76 82 77 83 85 84 78 85 80 86 86 87 79 88 81 89
REMARK SMILES IDX 82 90 83 91 84 92 61 93 62 94 70 95 63 96 65 97 71 98 64 99
REMARK SMILES IDX 66 100 67 101 68 102 69 103
REMARK H PARENT 27 6 4 16 13 26 32 37 91 56 59 67
REMARK Flexibility Score: inf
ROOT
ATOM      1  C   UNL     1       4.045   1.558  -1.316  1.00  0.00     0.023 C 
ENDROOT
BRANCH   1   2
ATOM      2  C   UNL     1       3.485   1.976   0.052  1.00  0.00     0.116 C 
BRANCH   2   3
ATOM      3  N   UNL     1       2.212   2.649  -0.099  1.00  0.00    -0.352 N 
ATOM      4  C   UNL     1       0.891   2.297  -0.132  1.00  0.00     0.251 C 
ATOM      5  O   UNL     1       0.140   3.244  -0.408  1.00  0.00    -0.269 OA
ATOM      6  H   UNL     1       2.329   3.620  -0.208  1.00  0.00     0.163 HD
BRANCH   4   7
ATOM      7  C   UNL     1       0.244   0.966   0.197  1.00  0.00     0.044 A 
ATOM      8  C   UNL     1       2.047  -0.728  -0.500  1.00  0.00     0.047 C 
ATOM      9  C   UNL     1       0.745  -0.355   0.153  1.00  0.00    -0.015 A 
ATOM     10  C   UNL     1      -0.100  -1.449   0.518  1.00  0.00     0.045 A 
ATOM     11  C   UNL     1      -1.447  -1.262   0.814  1.00  0.00     0.026 A 
ATOM     12  C   UNL     1      -1.135   1.105   0.502  1.00  0.00     0.014 A 
ATOM     13  C   UNL     1      -1.971   0.019   0.782  1.00  0.00     0.003 A 
BRANCH  10  14
ATOM     14  N   UNL     1       0.467  -2.734   0.492  1.00  0.00    -0.322 N 
ATOM     15  C   UNL     1       0.060  -3.918  -0.072  1.00  0.00     0.257 C 
ATOM     16  H   UNL     1       1.324  -2.799   0.972  1.00  0.00     0.170 HD
ATOM     17  O   UNL     1       0.771  -4.912   0.101  1.00  0.00    -0.269 OA
BRANCH  15  18
ATOM     18  C   UNL     1      -1.155  -4.064  -0.919  1.00  0.00     0.063 A 
ATOM     19  C   UNL     1      -1.820  -5.295  -0.736  1.00  0.00     0.016 A 
ATOM     20  C   UNL     1      -1.625  -3.148  -1.893  1.00  0.00     0.054 A 
ATOM     21  C   UNL     1      -2.995  -5.583  -1.417  1.00  0.00     0.001 A 
ATOM     22  C   UNL     1      -2.877  -3.408  -2.458  1.00  0.00     0.027 A 
ATOM     23  C   UNL     1      -3.547  -4.617  -2.240  1.00  0.00     0.002 A 
BRANCH  20  24
ATOM     24  N   UNL     1      -0.805  -2.068  -2.292  1.00  0.00    -0.323 N 
ATOM     25  C   UNL     1      -0.857  -1.044  -3.195  1.00  0.00     0.253 C 
ATOM     26  H   UNL     1       0.035  -2.048  -1.777  1.00  0.00     0.170 HD
ATOM     27  O   UNL     1       0.099  -0.259  -3.193  1.00  0.00    -0.272 OA
BRANCH  25  28
ATOM     28  C   UNL     1      -1.988  -0.900  -4.213  1.00  0.00     0.207 C 
ATOM     29  C   UNL     1      -1.840  -1.970  -5.288  1.00  0.00     0.044 C 
ATOM     30  O   UNL     1      -2.010   0.350  -4.926  1.00  0.00    -0.368 OA
ATOM     31  C   UNL     1      -2.586  -1.362  -6.442  1.00  0.00     0.032 C 
ATOM     32  C   UNL     1      -2.184   0.089  -6.323  1.00  0.00     0.161 C 
ENDBRANCH  25  28
ENDBRANCH  20  24
ENDBRANCH  15  18
ENDBRANCH  10  14
ENDBRANCH   4   7
ENDBRANCH   2   3
ENDBRANCH   1   2
BRANCH   1  33
ATOM     33  C   UNL     1       4.725   2.631  -2.172  1.00  0.00     0.023 C 
BRANCH  33  34
ATOM     34  C   UNL     1       6.149   2.993  -1.793  1.00  0.00     0.116 C 
BRANCH  34  35
ATOM     35  N   UNL     1       7.030   1.828  -1.808  1.00  0.00    -0.352 N 
ATOM     36  C   UNL     1       8.234   1.628  -1.163  1.00  0.00     0.251 C 
ATOM     37  H   UNL     1       6.719   1.074  -2.360  1.00  0.00     0.163 HD
ATOM     38  O   UNL     1       9.062   0.894  -1.687  1.00  0.00    -0.269 OA
BRANCH  36  39
ATOM     39  C   UNL     1       8.453   2.217   0.173  1.00  0.00     0.039 A 
ATOM     40  C   UNL     1       9.710   2.226   0.793  1.00  0.00     0.014 A 
ATOM     41  C   UNL     1       7.329   2.584   0.898  1.00  0.00     0.014 A 
ATOM     42  C   UNL     1       9.783   2.446   2.169  1.00  0.00     0.010 A 
ATOM     43  C   UNL     1       7.439   3.097   2.145  1.00  0.00     0.010 A 
ATOM     44  C   UNL     1       8.612   2.795   2.829  1.00  0.00    -0.014 A 
BRANCH  44  45
ATOM     45  C   UNL     1       8.339   2.672   4.248  1.00  0.00     0.031 A 
ATOM     46  C   UNL     1       8.598   3.817   5.119  1.00  0.00     0.074 A 
ATOM     47  C   UNL     1       7.362   1.762   4.495  1.00  0.00     0.049 A 
ATOM     48  N   UNL     1       8.367   3.833   6.383  1.00  0.00    -0.248 NA
ATOM     49  C   UNL     1       9.153   5.064   4.608  1.00  0.00     0.031 C 
ATOM     50  C   UNL     1       6.271   1.850   5.451  1.00  0.00     0.029 A 
ATOM     51  N   UNL     1       7.106   0.553   3.829  1.00  0.00    -0.354 N 
ATOM     52  C   UNL     1       8.371   5.161   6.758  1.00  0.00     0.074 A 
ATOM     53  C   UNL     1       9.063   5.838   5.692  1.00  0.00     0.031 C 
ATOM     54  C   UNL     1       5.653   0.656   5.509  1.00  0.00     0.029 A 
ATOM     55  C   UNL     1       6.471  -0.282   4.753  1.00  0.00     0.049 A 
ATOM     56  H   UNL     1       7.330   0.335   2.896  1.00  0.00     0.167 HD
ATOM     57  C   UNL     1       7.592   5.537   7.813  1.00  0.00     0.034 A 
ATOM     58  C   UNL     1       7.104  -1.375   5.280  1.00  0.00     0.034 A 
ATOM     59  C   UNL     1       6.970   4.344   8.434  1.00  0.00     0.049 A 
ATOM     60  C   UNL     1       7.408  -1.194   6.763  1.00  0.00     0.074 A 
ATOM     61  C   UNL     1       5.686   3.825   8.406  1.00  0.00     0.029 A 
ATOM     62  N   UNL     1       7.782   3.329   8.940  1.00  0.00    -0.354 N 
ATOM     63  N   UNL     1       7.163  -0.098   7.431  1.00  0.00    -0.248 NA
ATOM     64  C   UNL     1       8.008  -2.217   7.614  1.00  0.00     0.031 C 
ATOM     65  C   UNL     1       5.760   2.448   8.775  1.00  0.00     0.029 A 
ATOM     66  C   UNL     1       7.078   2.138   9.069  1.00  0.00     0.049 A 
ATOM     67  H   UNL     1       8.731   3.443   9.176  1.00  0.00     0.167 HD
ATOM     68  C   UNL     1       7.684  -0.175   8.690  1.00  0.00     0.074 A 
ATOM     69  C   UNL     1       8.119  -1.560   8.785  1.00  0.00     0.031 C 
ATOM     70  C   UNL     1       7.766   0.920   9.512  1.00  0.00     0.034 A 
BRANCH  57  71
ATOM     71  C   UNL     1       7.139   6.962   8.145  1.00  0.00     0.023 A 
ATOM     72  C   UNL     1       6.180   7.101   9.176  1.00  0.00     0.012 A 
ATOM     73  C   UNL     1       7.513   8.173   7.506  1.00  0.00     0.148 A 
ATOM     74  C   UNL     1       5.594   8.330   9.511  1.00  0.00     0.002 A 
ATOM     75  C   UNL     1       6.936   9.404   7.841  1.00  0.00     0.091 A 
ATOM     76  F   UNL     1       8.442   8.177   6.556  1.00  0.00    -0.205 F 
ATOM     77  C   UNL     1       5.965   9.483   8.838  1.00  0.00     0.022 A 
BRANCH  75  78
ATOM     78  S   UNL     1       7.379  10.948   7.013  1.00  0.00     0.127 S 
ATOM     79  O   UNL     1       6.089  11.395   6.486  1.00  0.00    -0.237 OA
ATOM     80  O   UNL     1       7.897  11.755   8.117  1.00  0.00    -0.237 OA
ATOM     81  O   UNL     1       8.362  10.608   5.991  1.00  0.00    -0.744 OA
ENDBRANCH  75  78
ENDBRANCH  57  71
BRANCH  58  82
ATOM     82  C   UNL     1       7.965  -2.082   4.274  1.00  0.00     0.023 A 
ATOM     83  C   UNL     1       7.283  -2.728   3.213  1.00  0.00     0.012 A 
ATOM     84  C   UNL     1       9.310  -1.712   4.085  1.00  0.00     0.148 A 
ATOM     85  C   UNL     1       7.867  -2.844   1.949  1.00  0.00     0.002 A 
ATOM     86  C   UNL     1       9.877  -1.806   2.812  1.00  0.00     0.091 A 
ATOM     87  F   UNL     1       9.973  -1.172   5.116  1.00  0.00    -0.205 F 
ATOM     88  C   UNL     1       9.144  -2.335   1.737  1.00  0.00     0.022 A 
BRANCH  86  89
ATOM     89  S   UNL     1      11.491  -1.102   2.437  1.00  0.00     0.127 S 
ATOM     90  O   UNL     1      12.340  -2.287   2.448  1.00  0.00    -0.237 OA
ATOM     91  O   UNL     1      11.283  -0.509   1.119  1.00  0.00    -0.237 OA
ATOM     92  O   UNL     1      11.734  -0.127   3.495  1.00  0.00    -0.744 OA
ENDBRANCH  86  89
ENDBRANCH  58  82
BRANCH  70  93
ATOM     93  C   UNL     1       8.534   0.962  10.821  1.00  0.00     0.023 A 
ATOM     94  C   UNL     1       9.595   0.082  11.105  1.00  0.00     0.012 A 
ATOM     95  C   UNL     1       8.309   2.008  11.754  1.00  0.00     0.148 A 
ATOM     96  C   UNL     1      10.348   0.187  12.280  1.00  0.00     0.002 A 
ATOM     97  C   UNL     1       9.146   2.188  12.849  1.00  0.00     0.091 A 
ATOM     98  F   UNL     1       7.262   2.832  11.598  1.00  0.00    -0.205 F 
ATOM     99  C   UNL     1      10.142   1.257  13.140  1.00  0.00     0.022 A 
BRANCH  97 100
ATOM    100  S   UNL     1       9.088   3.707  13.811  1.00  0.00     0.127 S 
ATOM    101  O   UNL     1       8.196   3.340  14.907  1.00  0.00    -0.237 OA
ATOM    102  O   UNL     1      10.489   3.887  14.199  1.00  0.00    -0.237 OA
ATOM    103  O   UNL     1       8.594   4.720  12.887  1.00  0.00    -0.744 OA
ENDBRANCH  97 100
ENDBRANCH  70  93
ENDBRANCH  44  45
ENDBRANCH  36  39
ENDBRANCH  34  35
ENDBRANCH  33  34
ENDBRANCH   1  33
TORSDOF 18
