REMARK SMILES Cc1cc(C)c2nc(NS(=O)(=O)c3cc(C(=O)NCCCCNC(=O)c4ccc(-c5c6nc(c(-c7cccc(S(=O)(=O)[O-])c7F)c7ccc([nH]7)c(-c7cccc(S(=O)(=O)[O-])c7F)c7nc(c(-c8cccc(S(=O)(=O)[O-])c8F)c8ccc5[nH]8)C=C7)C=C6)cc4)ccc3Cl)sc2c1
REMARK SMILES IDX 20 1 19 2 18 3 16 4 17 5 15 7 13 8 14 9 91 10 90 11 92 12
REMARK SMILES IDX 89 13 10 14 11 15 12 16 9 17 8 19 1 20 2 21 3 22 95 23 4 24
REMARK SMILES IDX 94 25 5 26 6 27 93 28 7 29 21 30 22 31 23 32 24 33 25 35
REMARK SMILES IDX 26 36 27 37 88 38 28 39 87 40 29 41 30 42 31 43 81 44 32 45
REMARK SMILES IDX 86 46 80 47 82 48 33 49 85 50 79 51 78 52 34 54 66 55 46 56
REMARK SMILES IDX 65 57 47 58 50 59 64 60 83 61 48 62 49 63 63 65 84 66 51 67
REMARK SMILES IDX 35 68 36 69 44 70 37 71 39 72 45 73 38 74 40 75 41 76 42 77
REMARK SMILES IDX 43 78 67 79 68 80 76 81 69 82 71 83 77 84 70 85 72 86 73 87
REMARK SMILES IDX 74 88 75 89 52 90 53 91 61 92 54 93 56 94 62 95 55 96 57 97
REMARK SMILES IDX 58 98 59 99 60 100
REMARK H PARENT 18 6 9 18 23 34 82 53 50 64
REMARK Flexibility Score: inf
ROOT
ATOM      1  C   UNL     1      -1.566   7.558   0.431  1.00  0.00     0.023 C 
ENDROOT
BRANCH   1   2
ATOM      2  C   UNL     1      -0.603   7.900   1.575  1.00  0.00     0.116 C 
BRANCH   2   3
ATOM      3  N   UNL     1      -1.337   8.031   2.820  1.00  0.00    -0.352 N 
ATOM      4  C   UNL     1      -1.688   7.178   3.834  1.00  0.00     0.251 C 
ATOM      5  O   UNL     1      -2.516   7.600   4.644  1.00  0.00    -0.269 OA
ATOM      6  H   UNL     1      -1.660   8.949   2.972  1.00  0.00     0.163 HD
BRANCH   4   7
ATOM      7  C   UNL     1      -1.101   5.821   4.068  1.00  0.00     0.041 A 
ATOM      8  C   UNL     1      -0.764   4.003   5.688  1.00  0.00     0.107 A 
ATOM      9  C   UNL     1      -1.375   5.215   5.308  1.00  0.00     0.037 A 
ATOM     10  C   UNL     1       0.255   3.480   4.905  1.00  0.00     0.061 A 
ATOM     11  C   UNL     1       0.426   3.990   3.616  1.00  0.00     0.023 A 
ATOM     12  Cl  UNL     1       1.306   2.209   5.406  1.00  0.00    -0.083 Cl
ATOM     13  C   UNL     1      -0.301   5.107   3.181  1.00  0.00     0.015 A 
BRANCH   8  14
ATOM     14  S   UNL     1      -1.529   3.106   7.015  1.00  0.00     0.265 S 
ATOM     15  O   UNL     1      -2.924   3.495   7.044  1.00  0.00    -0.201 OA
ATOM     16  O   UNL     1      -0.690   3.288   8.182  1.00  0.00    -0.201 OA
BRANCH  14  17
ATOM     17  N   UNL     1      -1.531   1.469   6.706  1.00  0.00    -0.255 N 
ATOM     18  H   UNL     1      -1.403   0.859   7.468  1.00  0.00     0.182 HD
BRANCH  17  19
ATOM     19  C   UNL     1      -1.702   0.896   5.432  1.00  0.00     0.197 A 
ATOM     20  C   UNL     1       0.806  -0.215   0.028  1.00  0.00     0.044 C 
ATOM     21  C   UNL     1       0.079  -0.360   1.335  1.00  0.00    -0.049 A 
ATOM     22  C   UNL     1       0.274  -1.513   2.105  1.00  0.00     0.009 A 
ATOM     23  C   UNL     1      -0.763   0.657   1.803  1.00  0.00     0.024 A 
ATOM     24  C   UNL     1      -0.269  -1.645   3.398  1.00  0.00    -0.024 A 
ATOM     25  C   UNL     1      -1.260   0.550   3.110  1.00  0.00     0.057 A 
ATOM     26  C   UNL     1      -0.041  -2.903   4.184  1.00  0.00     0.047 C 
ATOM     27  C   UNL     1      -0.947  -0.528   3.940  1.00  0.00     0.087 A 
ATOM     28  S   UNL     1      -2.291   1.618   4.002  1.00  0.00    -0.096 S 
ATOM     29  N   UNL     1      -1.272  -0.334   5.276  1.00  0.00    -0.219 NA
ENDBRANCH  17  19
ENDBRANCH  14  17
ENDBRANCH   8  14
ENDBRANCH   4   7
ENDBRANCH   2   3
ENDBRANCH   1   2
BRANCH   1  30
ATOM     30  C   UNL     1      -2.278   8.789  -0.157  1.00  0.00     0.023 C 
BRANCH  30  31
ATOM     31  C   UNL     1      -1.375   9.675  -1.013  1.00  0.00     0.116 C 
BRANCH  31  32
ATOM     32  N   UNL     1      -0.902   8.984  -2.213  1.00  0.00    -0.352 N 
ATOM     33  C   UNL     1       0.147   9.330  -3.037  1.00  0.00     0.251 C 
ATOM     34  H   UNL     1      -1.395   8.169  -2.463  1.00  0.00     0.163 HD
ATOM     35  O   UNL     1       0.227   8.886  -4.177  1.00  0.00    -0.269 OA
BRANCH  33  36
ATOM     36  C   UNL     1       1.177  10.243  -2.518  1.00  0.00     0.039 A 
ATOM     37  C   UNL     1       1.576  11.362  -3.256  1.00  0.00     0.014 A 
ATOM     38  C   UNL     1       1.700   9.990  -1.251  1.00  0.00     0.014 A 
ATOM     39  C   UNL     1       2.445  12.281  -2.672  1.00  0.00     0.010 A 
ATOM     40  C   UNL     1       2.476  10.948  -0.640  1.00  0.00     0.010 A 
ATOM     41  C   UNL     1       2.878  12.081  -1.354  1.00  0.00    -0.014 A 
BRANCH  41  42
ATOM     42  C   UNL     1       3.638  13.123  -0.659  1.00  0.00     0.031 A 
ATOM     43  C   UNL     1       2.959  14.451  -0.533  1.00  0.00     0.074 A 
ATOM     44  C   UNL     1       4.741  12.830   0.066  1.00  0.00     0.049 A 
ATOM     45  N   UNL     1       3.400  15.617  -0.883  1.00  0.00    -0.248 NA
ATOM     46  C   UNL     1       1.577  14.470  -0.021  1.00  0.00     0.031 C 
ATOM     47  C   UNL     1       5.320  11.500   0.305  1.00  0.00     0.029 A 
ATOM     48  N   UNL     1       5.465  13.628   0.901  1.00  0.00    -0.354 N 
ATOM     49  C   UNL     1       2.439  16.535  -0.452  1.00  0.00     0.074 A 
ATOM     50  C   UNL     1       1.280  15.768  -0.078  1.00  0.00     0.031 C 
ATOM     51  C   UNL     1       6.083  11.540   1.417  1.00  0.00     0.029 A 
ATOM     52  C   UNL     1       6.190  12.917   1.855  1.00  0.00     0.049 A 
ATOM     53  H   UNL     1       5.474  14.611   0.836  1.00  0.00     0.167 HD
ATOM     54  C   UNL     1       2.730  17.847  -0.226  1.00  0.00     0.034 A 
ATOM     55  C   UNL     1       6.778  13.418   2.966  1.00  0.00     0.034 A 
ATOM     56  C   UNL     1       3.989  18.225  -0.801  1.00  0.00     0.049 A 
ATOM     57  C   UNL     1       6.938  14.872   2.757  1.00  0.00     0.074 A 
ATOM     58  C   UNL     1       4.515  18.280  -2.074  1.00  0.00     0.029 A 
ATOM     59  N   UNL     1       5.054  18.305   0.059  1.00  0.00    -0.354 N 
ATOM     60  N   UNL     1       7.718  15.396   1.855  1.00  0.00    -0.248 NA
ATOM     61  C   UNL     1       5.947  15.767   3.328  1.00  0.00     0.031 C 
ATOM     62  C   UNL     1       5.889  17.932  -1.919  1.00  0.00     0.029 A 
ATOM     63  C   UNL     1       6.131  17.728  -0.558  1.00  0.00     0.049 A 
ATOM     64  H   UNL     1       5.046  18.706   0.958  1.00  0.00     0.167 HD
ATOM     65  C   UNL     1       7.036  16.525   1.427  1.00  0.00     0.074 A 
ATOM     66  C   UNL     1       6.043  16.780   2.465  1.00  0.00     0.031 C 
ATOM     67  C   UNL     1       7.146  16.963   0.138  1.00  0.00     0.034 A 
BRANCH  54  68
ATOM     68  C   UNL     1       2.040  18.727   0.791  1.00  0.00     0.023 A 
ATOM     69  C   UNL     1       2.276  20.120   0.737  1.00  0.00     0.012 A 
ATOM     70  C   UNL     1       1.382  18.236   1.941  1.00  0.00     0.148 A 
ATOM     71  C   UNL     1       1.892  20.973   1.778  1.00  0.00     0.002 A 
ATOM     72  C   UNL     1       0.919  19.099   2.929  1.00  0.00     0.091 A 
ATOM     73  F   UNL     1       1.318  16.918   2.158  1.00  0.00    -0.205 F 
ATOM     74  C   UNL     1       1.196  20.465   2.868  1.00  0.00     0.022 A 
BRANCH  72  75
ATOM     75  S   UNL     1      -0.057  18.499   4.313  1.00  0.00     0.127 S 
ATOM     76  O   UNL     1       0.915  18.541   5.400  1.00  0.00    -0.237 OA
ATOM     77  O   UNL     1      -1.118  19.504   4.389  1.00  0.00    -0.237 OA
ATOM     78  O   UNL     1      -0.520  17.177   3.909  1.00  0.00    -0.744 OA
ENDBRANCH  72  75
ENDBRANCH  54  68
BRANCH  55  79
ATOM     79  C   UNL     1       6.986  12.800   4.295  1.00  0.00     0.023 A 
ATOM     80  C   UNL     1       7.952  13.347   5.163  1.00  0.00     0.012 A 
ATOM     81  C   UNL     1       6.048  11.889   4.828  1.00  0.00     0.148 A 
ATOM     82  C   UNL     1       7.951  13.041   6.529  1.00  0.00     0.002 A 
ATOM     83  C   UNL     1       6.053  11.585   6.187  1.00  0.00     0.091 A 
ATOM     84  F   UNL     1       5.094  11.399   4.026  1.00  0.00    -0.205 F 
ATOM     85  C   UNL     1       6.993  12.172   7.043  1.00  0.00     0.022 A 
BRANCH  83  86
ATOM     86  S   UNL     1       4.825  10.499   6.927  1.00  0.00     0.127 S 
ATOM     87  O   UNL     1       5.653   9.637   7.771  1.00  0.00    -0.237 OA
ATOM     88  O   UNL     1       3.987  11.449   7.653  1.00  0.00    -0.237 OA
ATOM     89  O   UNL     1       4.186   9.810   5.812  1.00  0.00    -0.744 OA
ENDBRANCH  83  86
ENDBRANCH  55  79
BRANCH  67  90
ATOM     90  C   UNL     1       8.243  16.382  -0.723  1.00  0.00     0.023 A 
ATOM     91  C   UNL     1       8.291  15.013  -1.062  1.00  0.00     0.012 A 
ATOM     92  C   UNL     1       9.130  17.266  -1.360  1.00  0.00     0.148 A 
ATOM     93  C   UNL     1       9.211  14.535  -1.998  1.00  0.00     0.002 A 
ATOM     94  C   UNL     1      10.007  16.797  -2.331  1.00  0.00     0.091 A 
ATOM     95  F   UNL     1       9.074  18.566  -1.030  1.00  0.00    -0.205 F 
ATOM     96  C   UNL     1      10.058  15.430  -2.646  1.00  0.00     0.022 A 
BRANCH  94  97
ATOM     97  S   UNL     1      11.015  17.917  -3.305  1.00  0.00     0.127 S 
ATOM     98  O   UNL     1      12.343  17.709  -2.732  1.00  0.00    -0.237 OA
ATOM     99  O   UNL     1      10.845  17.395  -4.662  1.00  0.00    -0.237 OA
ATOM    100  O   UNL     1      10.445  19.244  -3.106  1.00  0.00    -0.744 OA
ENDBRANCH  94  97
ENDBRANCH  67  90
ENDBRANCH  41  42
ENDBRANCH  33  36
ENDBRANCH  31  32
ENDBRANCH  30  31
ENDBRANCH   1  30
TORSDOF 17
