REMARK SMILES CC(C)[NH2+][C@@H](C(=O)NCCCCNC(=O)c1ccc(-c2c3nc(c(-c4cccc(S(=O)(=O)[O-])c4F)c4ccc([nH]4)c(-c4cccc(S(=O)(=O)[O-])c4F)c4nc(c(-c5cccc(S(=O)(=O)[O-])c5F)c5ccc2[nH]5)C=C4)C=C3)cc1)c1c[nH]c2ccc(Br)cc12
REMARK SMILES IDX 11 1 10 2 9 3 8 4 6 5 7 6 5 8 4 9 2 12 1 13 3 14 79 15 80 16
REMARK SMILES IDX 88 17 81 18 82 19 87 20 83 22 85 23 84 24 86 25 12 26 13 27
REMARK SMILES IDX 14 28 15 30 16 31 17 32 78 33 18 34 77 35 19 36 20 37 21 38
REMARK SMILES IDX 71 39 22 40 76 41 70 42 72 43 23 44 75 45 69 46 68 47 24 49
REMARK SMILES IDX 56 50 36 51 55 52 37 53 40 54 54 55 73 56 38 57 39 58 53 60
REMARK SMILES IDX 74 61 41 62 25 63 26 64 34 65 27 66 29 67 35 68 28 69 30 70
REMARK SMILES IDX 31 71 32 72 33 73 57 74 58 75 66 76 59 77 61 78 67 79 60 80
REMARK SMILES IDX 62 81 63 82 64 83 65 84 42 85 43 86 51 87 44 88 46 89 52 90
REMARK SMILES IDX 45 91 47 92 48 93 49 94 50 95
REMARK H PARENT 8 7 4 10 4 11 81 21 13 29 72 48 40 59
REMARK Flexibility Score: inf
ROOT
ATOM      1  C   UNL     1       3.117   3.407  -1.409  1.00  0.00     0.023 C 
ENDROOT
BRANCH   1   2
ATOM      2  C   UNL     1       2.363   3.044  -0.135  1.00  0.00     0.023 C 
BRANCH   2   3
ATOM      3  C   UNL     1       1.050   3.809   0.145  1.00  0.00     0.116 C 
BRANCH   3   4
ATOM      4  N   UNL     1       0.177   4.030  -0.999  1.00  0.00    -0.351 N 
ATOM      5  C   UNL     1      -1.127   3.708  -1.285  1.00  0.00     0.283 C 
ATOM      6  O   UNL     1      -1.617   4.351  -2.222  1.00  0.00    -0.268 OA
ATOM      7  H   UNL     1       0.620   4.519  -1.730  1.00  0.00     0.163 HD
BRANCH   5   8
ATOM      8  C   UNL     1      -1.978   2.717  -0.453  1.00  0.00     0.306 C 
BRANCH   8   9
ATOM      9  N   UNL     1      -1.337   1.470   0.040  1.00  0.00    -0.330 N 
ATOM     10  H   UNL     1      -0.999   1.679   0.979  1.00  0.00     0.347 HD
ATOM     11  H   UNL     1      -2.086   0.789  -0.088  1.00  0.00     0.347 HD
BRANCH   9  12
ATOM     12  C   UNL     1      -0.237   0.829  -0.649  1.00  0.00     0.176 C 
ATOM     13  C   UNL     1      -0.073  -0.608  -0.148  1.00  0.00     0.075 C 
ATOM     14  C   UNL     1      -0.126   0.859  -2.171  1.00  0.00     0.075 C 
ENDBRANCH   9  12
ENDBRANCH   8   9
BRANCH   8  15
ATOM     15  C   UNL     1      -3.319   2.239  -1.041  1.00  0.00     0.044 A 
ATOM     16  C   UNL     1      -4.128   1.292  -0.382  1.00  0.00     0.094 A 
ATOM     17  C   UNL     1      -3.697   1.972  -2.404  1.00  0.00     0.010 A 
ATOM     18  N   UNL     1      -3.723   0.162  -1.129  1.00  0.00    -0.361 N 
ATOM     19  C   UNL     1      -3.782   0.572  -2.454  1.00  0.00     0.046 A 
ATOM     20  C   UNL     1      -3.885   2.687  -3.601  1.00  0.00     0.026 A 
ATOM     21  H   UNL     1      -3.457  -0.722  -0.785  1.00  0.00     0.166 HD
ATOM     22  C   UNL     1      -3.826  -0.162  -3.638  1.00  0.00     0.028 A 
ATOM     23  C   UNL     1      -4.157   1.959  -4.770  1.00  0.00     0.018 A 
ATOM     24  C   UNL     1      -4.063   0.566  -4.804  1.00  0.00     0.018 A 
ATOM     25  Br  UNL     1      -4.727   2.870  -6.330  1.00  0.00    -0.051 Br
ENDBRANCH   8  15
ENDBRANCH   5   8
ENDBRANCH   3   4
ENDBRANCH   2   3
ENDBRANCH   1   2
BRANCH   1  26
ATOM     26  C   UNL     1       4.245   4.380  -1.145  1.00  0.00     0.116 C 
BRANCH  26  27
ATOM     27  N   UNL     1       5.298   3.795  -0.315  1.00  0.00    -0.352 N 
ATOM     28  C   UNL     1       6.664   3.918  -0.448  1.00  0.00     0.251 C 
ATOM     29  H   UNL     1       4.991   3.239   0.437  1.00  0.00     0.163 HD
ATOM     30  O   UNL     1       7.424   3.273   0.251  1.00  0.00    -0.269 OA
BRANCH  28  31
ATOM     31  C   UNL     1       7.175   4.827  -1.494  1.00  0.00     0.039 A 
ATOM     32  C   UNL     1       8.128   4.358  -2.401  1.00  0.00     0.014 A 
ATOM     33  C   UNL     1       6.618   6.098  -1.630  1.00  0.00     0.014 A 
ATOM     34  C   UNL     1       8.467   5.147  -3.500  1.00  0.00     0.010 A 
ATOM     35  C   UNL     1       6.872   6.827  -2.778  1.00  0.00     0.010 A 
ATOM     36  C   UNL     1       7.810   6.367  -3.716  1.00  0.00    -0.014 A 
BRANCH  36  37
ATOM     37  C   UNL     1       8.081   7.223  -4.894  1.00  0.00     0.031 A 
ATOM     38  C   UNL     1       8.561   8.630  -4.672  1.00  0.00     0.074 A 
ATOM     39  C   UNL     1       7.739   6.801  -6.126  1.00  0.00     0.049 A 
ATOM     40  N   UNL     1       8.655   9.616  -5.521  1.00  0.00    -0.248 NA
ATOM     41  C   UNL     1       8.924   8.990  -3.289  1.00  0.00     0.031 C 
ATOM     42  C   UNL     1       7.172   5.490  -6.447  1.00  0.00     0.029 A 
ATOM     43  N   UNL     1       7.767   7.456  -7.332  1.00  0.00    -0.354 N 
ATOM     44  C   UNL     1       9.012  10.726  -4.767  1.00  0.00     0.074 A 
ATOM     45  C   UNL     1       9.084  10.300  -3.388  1.00  0.00     0.031 C 
ATOM     46  C   UNL     1       6.889   5.443  -7.759  1.00  0.00     0.029 A 
ATOM     47  C   UNL     1       7.221   6.729  -8.364  1.00  0.00     0.049 A 
ATOM     48  H   UNL     1       8.141   8.359  -7.447  1.00  0.00     0.167 HD
ATOM     49  C   UNL     1       9.285  11.982  -5.189  1.00  0.00     0.034 A 
ATOM     50  C   UNL     1       6.992   7.071  -9.647  1.00  0.00     0.034 A 
ATOM     51  C   UNL     1       9.287  12.369  -6.571  1.00  0.00     0.049 A 
ATOM     52  C   UNL     1       7.401   8.440 -10.117  1.00  0.00     0.074 A 
ATOM     53  C   UNL     1       9.679  13.572  -7.128  1.00  0.00     0.029 A 
ATOM     54  N   UNL     1       8.877  11.554  -7.616  1.00  0.00    -0.354 N 
ATOM     55  N   UNL     1       7.902   9.432  -9.421  1.00  0.00    -0.248 NA
ATOM     56  C   UNL     1       7.252   8.727 -11.550  1.00  0.00     0.031 C 
ATOM     57  C   UNL     1       9.491  13.489  -8.512  1.00  0.00     0.029 A 
ATOM     58  C   UNL     1       9.003  12.227  -8.817  1.00  0.00     0.049 A 
ATOM     59  H   UNL     1       8.546  10.633  -7.517  1.00  0.00     0.167 HD
ATOM     60  C   UNL     1       8.161  10.448 -10.332  1.00  0.00     0.074 A 
ATOM     61  C   UNL     1       7.772   9.946 -11.635  1.00  0.00     0.031 C 
ATOM     62  C   UNL     1       8.665  11.687 -10.110  1.00  0.00     0.034 A 
BRANCH  49  63
ATOM     63  C   UNL     1       9.653  13.002  -4.143  1.00  0.00     0.023 A 
ATOM     64  C   UNL     1      10.877  12.884  -3.451  1.00  0.00     0.012 A 
ATOM     65  C   UNL     1       8.798  14.081  -3.850  1.00  0.00     0.148 A 
ATOM     66  C   UNL     1      11.217  13.789  -2.447  1.00  0.00     0.002 A 
ATOM     67  C   UNL     1       9.168  15.009  -2.883  1.00  0.00     0.091 A 
ATOM     68  F   UNL     1       7.626  14.166  -4.496  1.00  0.00    -0.205 F 
ATOM     69  C   UNL     1      10.367  14.856  -2.170  1.00  0.00     0.022 A 
BRANCH  67  70
ATOM     70  S   UNL     1       8.175  16.461  -2.520  1.00  0.00     0.127 S 
ATOM     71  O   UNL     1       7.514  16.065  -1.278  1.00  0.00    -0.237 OA
ATOM     72  O   UNL     1       9.192  17.502  -2.362  1.00  0.00    -0.237 OA
ATOM     73  O   UNL     1       7.304  16.642  -3.672  1.00  0.00    -0.744 OA
ENDBRANCH  67  70
ENDBRANCH  49  63
BRANCH  50  74
ATOM     74  C   UNL     1       6.410   6.065 -10.579  1.00  0.00     0.023 A 
ATOM     75  C   UNL     1       7.239   5.454 -11.539  1.00  0.00     0.012 A 
ATOM     76  C   UNL     1       5.069   5.650 -10.463  1.00  0.00     0.148 A 
ATOM     77  C   UNL     1       6.739   4.459 -12.381  1.00  0.00     0.002 A 
ATOM     78  C   UNL     1       4.592   4.621 -11.268  1.00  0.00     0.091 A 
ATOM     79  F   UNL     1       4.298   6.247  -9.544  1.00  0.00    -0.205 F 
ATOM     80  C   UNL     1       5.421   4.035 -12.238  1.00  0.00     0.022 A 
BRANCH  78  81
ATOM     81  S   UNL     1       2.955   3.910 -11.064  1.00  0.00     0.127 S 
ATOM     82  O   UNL     1       2.303   4.297 -12.312  1.00  0.00    -0.237 OA
ATOM     83  O   UNL     1       3.262   2.484 -10.944  1.00  0.00    -0.237 OA
ATOM     84  O   UNL     1       2.411   4.514  -9.855  1.00  0.00    -0.744 OA
ENDBRANCH  78  81
ENDBRANCH  50  74
BRANCH  62  85
ATOM     85  C   UNL     1       8.874  12.586 -11.298  1.00  0.00     0.023 A 
ATOM     86  C   UNL     1       7.769  13.212 -11.906  1.00  0.00     0.012 A 
ATOM     87  C   UNL     1      10.177  12.901 -11.731  1.00  0.00     0.148 A 
ATOM     88  C   UNL     1       7.958  14.128 -12.940  1.00  0.00     0.002 A 
ATOM     89  C   UNL     1      10.360  13.850 -12.729  1.00  0.00     0.091 A 
ATOM     90  F   UNL     1      11.212  12.278 -11.149  1.00  0.00    -0.205 F 
ATOM     91  C   UNL     1       9.251  14.457 -13.341  1.00  0.00     0.022 A 
BRANCH  89  92
ATOM     92  S   UNL     1      11.989  14.411 -13.236  1.00  0.00     0.127 S 
ATOM     93  O   UNL     1      12.108  13.817 -14.566  1.00  0.00    -0.237 OA
ATOM     94  O   UNL     1      11.832  15.866 -13.229  1.00  0.00    -0.237 OA
ATOM     95  O   UNL     1      12.920  13.899 -12.239  1.00  0.00    -0.744 OA
ENDBRANCH  89  92
ENDBRANCH  62  85
ENDBRANCH  36  37
ENDBRANCH  28  31
ENDBRANCH  26  27
ENDBRANCH   1  26
TORSDOF 17
