REMARK SMILES Cc1cc(/C=C2/C(=O)NC(=S)[NH+]=C2NCCCCNC(=O)c2ccc(-c3c4nc(c(-c5cccc(S(=O)(=O)[O-])c5F)c5ccc([nH]5)c(-c5cccc(S(=O)(=O)[O-])c5F)c5nc(c(-c6cccc(S(=O)(=O)[O-])c6F)c6ccc3[nH]6)C=C5)C=C4)cc2)c(C)n1-c1cccc(C(=O)[O-])c1
REMARK SMILES IDX 17 1 16 2 15 3 14 4 5 5 6 6 7 7 13 8 8 9 9 10 12 11 10 12
REMARK SMILES IDX 11 16 4 17 1 18 2 19 3 20 87 21 85 22 86 23 88 24 89 25
REMARK SMILES IDX 96 26 90 27 92 28 91 29 93 30 94 31 95 32 18 33 19 34 20 35
REMARK SMILES IDX 21 37 22 38 23 39 84 40 24 41 83 42 25 43 26 44 27 45 77 46
REMARK SMILES IDX 28 47 82 48 76 49 78 50 29 51 81 52 75 53 74 54 30 56 62 57
REMARK SMILES IDX 42 58 61 59 43 60 46 61 60 62 79 63 44 64 45 65 59 67 80 68
REMARK SMILES IDX 47 69 31 70 32 71 40 72 33 73 35 74 41 75 34 76 36 77 37 78
REMARK SMILES IDX 38 79 39 80 63 81 64 82 72 83 65 84 67 85 73 86 66 87 68 88
REMARK SMILES IDX 69 89 70 90 71 91 48 92 49 93 57 94 50 95 52 96 58 97 51 98
REMARK SMILES IDX 53 99 54 100 55 101 56 102
REMARK H PARENT 9 13 12 14 14 15 19 36 78 55 46 66
REMARK Flexibility Score: inf
ROOT
ATOM      1  C   UNL     1      -1.591   2.866   2.629  1.00  0.00     0.024 C 
ENDROOT
BRANCH   1   2
ATOM      2  C   UNL     1      -2.277   1.287   2.366  1.00  0.00     0.039 C 
BRANCH   2   3
ATOM      3  C   UNL     1      -2.290   0.107   3.391  1.00  0.00     0.194 C 
BRANCH   3   4
ATOM      4  N   UNL     1      -1.831   0.345   4.745  1.00  0.00    -0.305 N 
ATOM      5  C   UNL     1       0.079  -2.296   4.563  1.00  0.00     0.032 C 
ATOM      6  C   UNL     1      -0.831  -1.950   5.495  1.00  0.00     0.128 C 
ATOM      7  C   UNL     1      -0.999  -2.959   6.563  1.00  0.00     0.319 C 
ATOM      8  C   UNL     1      -1.517  -0.618   5.701  1.00  0.00     0.234 C 
ATOM      9  O   UNL     1      -0.792  -4.160   6.423  1.00  0.00    -0.250 OA
ATOM     10  N   UNL     1      -1.352  -2.421   7.762  1.00  0.00    -0.229 N 
ATOM     11  N   UNL     1      -1.883  -0.277   6.914  1.00  0.00    -0.236 N 
ATOM     12  C   UNL     1      -1.704  -1.117   7.980  1.00  0.00     0.295 C 
ATOM     13  H   UNL     1      -1.354  -3.024   8.541  1.00  0.00     0.268 HD
ATOM     14  H   UNL     1      -2.296   0.605   7.061  1.00  0.00     0.268 HD
ATOM     15  H   UNL     1      -1.732   1.286   5.018  1.00  0.00     0.256 HD
ATOM     16  S   UNL     1      -1.975  -0.664   9.573  1.00  0.00    -0.005 S 
BRANCH   5  17
ATOM     17  C   UNL     1       0.585  -1.437   3.566  1.00  0.00    -0.003 A 
ATOM     18  C   UNL     1       1.400  -0.269   0.178  1.00  0.00     0.065 C 
ATOM     19  C   UNL     1       1.001  -0.468   1.596  1.00  0.00     0.020 A 
ATOM     20  C   UNL     1       0.712  -1.687   2.193  1.00  0.00     0.031 A 
ATOM     21  N   UNL     1       0.841   0.489   2.609  1.00  0.00    -0.318 N 
ATOM     22  C   UNL     1       1.108  -0.181   3.794  1.00  0.00     0.027 A 
ATOM     23  C   UNL     1       1.620   0.418   5.055  1.00  0.00     0.065 C 
BRANCH  21  24
ATOM     24  C   UNL     1       0.194   1.761   2.548  1.00  0.00     0.046 A 
ATOM     25  C   UNL     1      -0.055   2.772   4.043  1.00  0.00     0.026 A 
ATOM     26  C   UNL     1      -0.397   2.408   0.962  1.00  0.00     0.036 A 
ATOM     27  C   UNL     1      -0.899   4.390   3.938  1.00  0.00     0.003 A 
ATOM     28  C   UNL     1      -1.234   3.990   0.867  1.00  0.00    -0.001 A 
ATOM     29  C   UNL     1      -1.444   4.992   2.346  1.00  0.00     0.010 A 
BRANCH  28  30
ATOM     30  C   UNL     1      -1.966   4.388  -0.349  1.00  0.00     0.072 C 
ATOM     31  O   UNL     1      -2.550   5.437  -0.533  1.00  0.00    -0.545 OA
ATOM     32  O   UNL     1      -2.047   3.367  -1.221  1.00  0.00    -0.545 OA
ENDBRANCH  28  30
ENDBRANCH  21  24
ENDBRANCH   5  17
ENDBRANCH   3   4
ENDBRANCH   2   3
ENDBRANCH   1   2
BRANCH   1  33
ATOM     33  C   UNL     1       0.352   3.834   2.308  1.00  0.00     0.116 C 
BRANCH  33  34
ATOM     34  N   UNL     1       0.970   4.844   1.306  1.00  0.00    -0.352 N 
ATOM     35  C   UNL     1       2.101   5.619   1.674  1.00  0.00     0.251 C 
ATOM     36  H   UNL     1       0.576   4.948   0.410  1.00  0.00     0.163 HD
ATOM     37  O   UNL     1       2.932   5.871   0.806  1.00  0.00    -0.269 OA
BRANCH  35  38
ATOM     38  C   UNL     1       2.230   6.123   3.107  1.00  0.00     0.039 A 
ATOM     39  C   UNL     1       1.190   6.893   3.622  1.00  0.00     0.014 A 
ATOM     40  C   UNL     1       3.311   5.865   3.966  1.00  0.00     0.014 A 
ATOM     41  C   UNL     1       1.206   7.362   4.962  1.00  0.00     0.010 A 
ATOM     42  C   UNL     1       3.365   6.416   5.304  1.00  0.00     0.010 A 
ATOM     43  C   UNL     1       2.333   7.225   5.835  1.00  0.00    -0.014 A 
BRANCH  43  44
ATOM     44  C   UNL     1       2.605   8.502   6.720  1.00  0.00     0.031 A 
ATOM     45  C   UNL     1       2.660   9.581   5.690  1.00  0.00     0.074 A 
ATOM     46  C   UNL     1       2.851   8.906   8.021  1.00  0.00     0.049 A 
ATOM     47  N   UNL     1       3.386   9.436   4.615  1.00  0.00    -0.248 NA
ATOM     48  C   UNL     1       1.647  10.633   5.589  1.00  0.00     0.031 C 
ATOM     49  C   UNL     1       3.017   8.077   9.224  1.00  0.00     0.029 A 
ATOM     50  N   UNL     1       3.007  10.202   8.587  1.00  0.00    -0.354 N 
ATOM     51  C   UNL     1       3.238  10.591   3.917  1.00  0.00     0.074 A 
ATOM     52  C   UNL     1       1.966  11.121   4.385  1.00  0.00     0.031 C 
ATOM     53  C   UNL     1       3.123   8.846  10.348  1.00  0.00     0.029 A 
ATOM     54  C   UNL     1       3.096  10.268  10.015  1.00  0.00     0.049 A 
ATOM     55  H   UNL     1       3.051  11.011   8.027  1.00  0.00     0.167 HD
ATOM     56  C   UNL     1       4.394  11.255   3.630  1.00  0.00     0.034 A 
ATOM     57  C   UNL     1       3.215  11.361  10.860  1.00  0.00     0.034 A 
ATOM     58  C   UNL     1       4.489  12.512   4.312  1.00  0.00     0.049 A 
ATOM     59  C   UNL     1       3.728  12.471  10.040  1.00  0.00     0.074 A 
ATOM     60  C   UNL     1       3.599  13.540   4.559  1.00  0.00     0.029 A 
ATOM     61  N   UNL     1       5.485  12.614   5.258  1.00  0.00    -0.354 N 
ATOM     62  N   UNL     1       4.989  12.562   9.741  1.00  0.00    -0.248 NA
ATOM     63  C   UNL     1       2.904  13.605   9.639  1.00  0.00     0.031 C 
ATOM     64  C   UNL     1       3.825  13.913   5.907  1.00  0.00     0.029 A 
ATOM     65  C   UNL     1       5.007  13.330   6.341  1.00  0.00     0.049 A 
ATOM     66  H   UNL     1       6.391  12.238   5.177  1.00  0.00     0.167 HD
ATOM     67  C   UNL     1       5.008  13.473   8.730  1.00  0.00     0.074 A 
ATOM     68  C   UNL     1       3.800  14.256   8.894  1.00  0.00     0.031 C 
ATOM     69  C   UNL     1       5.681  13.140   7.604  1.00  0.00     0.034 A 
BRANCH  56  70
ATOM     70  C   UNL     1       5.574  10.379   3.259  1.00  0.00     0.023 A 
ATOM     71  C   UNL     1       6.023  10.443   1.931  1.00  0.00     0.012 A 
ATOM     72  C   UNL     1       6.139   9.400   4.122  1.00  0.00     0.148 A 
ATOM     73  C   UNL     1       6.963   9.525   1.454  1.00  0.00     0.002 A 
ATOM     74  C   UNL     1       6.991   8.424   3.612  1.00  0.00     0.091 A 
ATOM     75  F   UNL     1       5.842   9.437   5.430  1.00  0.00    -0.205 F 
ATOM     76  C   UNL     1       7.417   8.496   2.279  1.00  0.00     0.022 A 
BRANCH  74  77
ATOM     77  S   UNL     1       7.431   6.936   4.532  1.00  0.00     0.127 S 
ATOM     78  O   UNL     1       7.033   5.870   3.606  1.00  0.00    -0.237 OA
ATOM     79  O   UNL     1       8.873   7.071   4.703  1.00  0.00    -0.237 OA
ATOM     80  O   UNL     1       6.652   6.960   5.763  1.00  0.00    -0.744 OA
ENDBRANCH  74  77
ENDBRANCH  56  70
BRANCH  57  81
ATOM     81  C   UNL     1       3.235  11.819  12.338  1.00  0.00     0.023 A 
ATOM     82  C   UNL     1       4.284  12.718  12.729  1.00  0.00     0.012 A 
ATOM     83  C   UNL     1       2.103  11.814  13.184  1.00  0.00     0.148 A 
ATOM     84  C   UNL     1       4.173  13.640  13.781  1.00  0.00     0.002 A 
ATOM     85  C   UNL     1       2.017  12.712  14.279  1.00  0.00     0.091 A 
ATOM     86  F   UNL     1       1.070  11.026  12.858  1.00  0.00    -0.205 F 
ATOM     87  C   UNL     1       3.030  13.645  14.552  1.00  0.00     0.022 A 
BRANCH  85  88
ATOM     88  S   UNL     1       0.591  12.812  15.384  1.00  0.00     0.127 S 
ATOM     89  O   UNL     1       1.217  12.967  16.699  1.00  0.00    -0.237 OA
ATOM     90  O   UNL     1      -0.089  14.010  14.895  1.00  0.00    -0.237 OA
ATOM     91  O   UNL     1      -0.124  11.557  15.203  1.00  0.00    -0.744 OA
ENDBRANCH  85  88
ENDBRANCH  57  81
BRANCH  69  92
ATOM     92  C   UNL     1       6.963  12.340   7.751  1.00  0.00     0.023 A 
ATOM     93  C   UNL     1       7.106  11.164   8.522  1.00  0.00     0.012 A 
ATOM     94  C   UNL     1       8.090  12.795   7.047  1.00  0.00     0.148 A 
ATOM     95  C   UNL     1       8.331  10.492   8.611  1.00  0.00     0.002 A 
ATOM     96  C   UNL     1       9.291  12.094   7.087  1.00  0.00     0.091 A 
ATOM     97  F   UNL     1       7.972  13.928   6.337  1.00  0.00    -0.205 F 
ATOM     98  C   UNL     1       9.422  10.946   7.877  1.00  0.00     0.022 A 
BRANCH  96  99
ATOM     99  S   UNL     1      10.671  12.634   6.080  1.00  0.00     0.127 S 
ATOM    100  O   UNL     1      11.382  13.527   6.993  1.00  0.00    -0.237 OA
ATOM    101  O   UNL     1      11.377  11.393   5.771  1.00  0.00    -0.237 OA
ATOM    102  O   UNL     1      10.058  13.278   4.921  1.00  0.00    -0.744 OA
ENDBRANCH  96  99
ENDBRANCH  69  92
ENDBRANCH  43  44
ENDBRANCH  35  38
ENDBRANCH  33  34
ENDBRANCH   1  33
TORSDOF 16
