REMARK SMILES COc1ccc(CNC(=O)[C@H]2CC(C)=C(C)C[C@@H]2C(=O)NCCCCNC(=O)c2ccc(-c3c4nc(c(-c5cccc(S(=O)(=O)[O-])c5F)c5ccc([nH]5)c(-c5cccc(S(=O)(=O)[O-])c5F)c5nc(c(-c6cccc(S(=O)(=O)[O-])c6F)c6ccc3[nH]6)C=C5)C=C4)cc2)cc1OC
REMARK SMILES IDX 23 1 22 2 21 3 19 4 20 5 18 7 11 8 12 9 13 10 17 11 14 12
REMARK SMILES IDX 15 13 16 14 9 15 8 16 10 18 7 19 6 20 3 21 4 22 93 23 5 24
REMARK SMILES IDX 92 25 2 26 1 27 94 28 95 29 24 30 25 31 26 32 27 33 28 35
REMARK SMILES IDX 29 36 30 37 91 38 31 39 90 40 32 41 33 42 34 43 84 44 35 45
REMARK SMILES IDX 89 46 83 47 85 48 36 49 88 50 82 51 81 52 37 54 69 55 49 56
REMARK SMILES IDX 68 57 50 58 53 59 67 60 86 61 51 62 52 63 66 65 87 66 54 67
REMARK SMILES IDX 38 68 39 69 47 70 40 71 42 72 48 73 41 74 43 75 44 76 45 77
REMARK SMILES IDX 46 78 70 79 71 80 79 81 72 82 74 83 80 84 73 85 75 86 76 87
REMARK SMILES IDX 77 88 78 89 55 90 56 91 64 92 57 93 59 94 65 95 58 96 60 97
REMARK SMILES IDX 61 98 62 99 63 100
REMARK H PARENT 21 6 8 17 26 34 85 53 53 64
REMARK Flexibility Score: inf
ROOT
ATOM      1  C   UNL     1      -1.295 -11.415  -2.396  1.00  0.00     0.023 C 
ENDROOT
BRANCH   1   2
ATOM      2  C   UNL     1      -0.462 -11.202  -3.658  1.00  0.00     0.116 C 
BRANCH   2   3
ATOM      3  N   UNL     1      -1.236 -10.604  -4.731  1.00  0.00    -0.356 N 
ATOM      4  C   UNL     1      -1.114  -9.388  -5.334  1.00  0.00     0.224 C 
ATOM      5  O   UNL     1      -1.928  -9.090  -6.210  1.00  0.00    -0.275 OA
ATOM      6  H   UNL     1      -1.965 -11.167  -5.079  1.00  0.00     0.163 HD
BRANCH   4   7
ATOM      7  C   UNL     1      -0.030  -8.412  -4.879  1.00  0.00     0.095 C 
ATOM      8  C   UNL     1      -0.634  -7.516  -3.785  1.00  0.00     0.095 C 
ATOM      9  C   UNL     1      -1.031  -6.106  -4.216  1.00  0.00     0.045 C 
ATOM     10  C   UNL     1      -0.245  -5.476  -5.337  1.00  0.00    -0.074 C 
ATOM     11  C   UNL     1       0.575  -7.712  -6.107  1.00  0.00     0.045 C 
ATOM     12  C   UNL     1      -0.340  -3.971  -5.383  1.00  0.00     0.039 C 
ATOM     13  C   UNL     1       0.472  -6.214  -6.205  1.00  0.00    -0.074 C 
ATOM     14  C   UNL     1       1.216  -5.622  -7.377  1.00  0.00     0.039 C 
BRANCH   8  15
ATOM     15  C   UNL     1       0.129  -7.673  -2.467  1.00  0.00     0.224 C 
ATOM     16  N   UNL     1       1.161  -6.918  -2.049  1.00  0.00    -0.352 N 
ATOM     17  H   UNL     1       1.558  -7.235  -1.205  1.00  0.00     0.163 HD
ATOM     18  O   UNL     1      -0.156  -8.613  -1.713  1.00  0.00    -0.275 OA
BRANCH  16  19
ATOM     19  C   UNL     1       1.809  -5.744  -2.575  1.00  0.00     0.151 C 
BRANCH  19  20
ATOM     20  C   UNL     1       1.552  -4.520  -1.726  1.00  0.00    -0.025 A 
ATOM     21  C   UNL     1       1.157  -2.173  -0.208  1.00  0.00     0.160 A 
ATOM     22  C   UNL     1       0.108  -3.080  -0.399  1.00  0.00     0.051 A 
ATOM     23  C   UNL     1       2.418  -2.438  -0.751  1.00  0.00     0.161 A 
ATOM     24  C   UNL     1       0.305  -4.243  -1.150  1.00  0.00     0.009 A 
ATOM     25  C   UNL     1       2.590  -3.599  -1.522  1.00  0.00     0.056 A 
BRANCH  21  26
ATOM     26  O   UNL     1       0.922  -1.096   0.604  1.00  0.00    -0.493 OA
ATOM     27  C   UNL     1       0.234  -0.056  -0.090  1.00  0.00     0.278 C 
ENDBRANCH  21  26
BRANCH  23  28
ATOM     28  O   UNL     1       3.574  -1.715  -0.638  1.00  0.00    -0.493 OA
ATOM     29  C   UNL     1       3.547  -0.491   0.076  1.00  0.00     0.278 C 
ENDBRANCH  23  28
ENDBRANCH  19  20
ENDBRANCH  16  19
ENDBRANCH   8  15
ENDBRANCH   4   7
ENDBRANCH   2   3
ENDBRANCH   1   2
BRANCH   1  30
ATOM     30  C   UNL     1      -2.421 -12.438  -2.524  1.00  0.00     0.023 C 
BRANCH  30  31
ATOM     31  C   UNL     1      -2.007 -13.803  -3.056  1.00  0.00     0.116 C 
BRANCH  31  32
ATOM     32  N   UNL     1      -0.963 -14.436  -2.263  1.00  0.00    -0.352 N 
ATOM     33  C   UNL     1      -0.889 -15.730  -1.807  1.00  0.00     0.251 C 
ATOM     34  H   UNL     1      -0.205 -13.857  -2.019  1.00  0.00     0.163 HD
ATOM     35  O   UNL     1       0.018 -16.064  -1.047  1.00  0.00    -0.269 OA
BRANCH  33  36
ATOM     36  C   UNL     1      -1.923 -16.710  -2.206  1.00  0.00     0.039 A 
ATOM     37  C   UNL     1      -2.500 -17.517  -1.223  1.00  0.00     0.014 A 
ATOM     38  C   UNL     1      -2.344 -16.810  -3.535  1.00  0.00     0.014 A 
ATOM     39  C   UNL     1      -3.548 -18.375  -1.562  1.00  0.00     0.010 A 
ATOM     40  C   UNL     1      -3.442 -17.604  -3.853  1.00  0.00     0.010 A 
ATOM     41  C   UNL     1      -4.055 -18.397  -2.872  1.00  0.00    -0.014 A 
BRANCH  41  42
ATOM     42  C   UNL     1      -5.237 -19.226  -3.223  1.00  0.00     0.031 A 
ATOM     43  C   UNL     1      -5.123 -20.329  -4.240  1.00  0.00     0.074 A 
ATOM     44  C   UNL     1      -6.436 -18.933  -2.680  1.00  0.00     0.049 A 
ATOM     45  N   UNL     1      -6.051 -21.137  -4.686  1.00  0.00    -0.248 NA
ATOM     46  C   UNL     1      -3.803 -20.537  -4.858  1.00  0.00     0.031 C 
ATOM     47  C   UNL     1      -6.698 -17.832  -1.750  1.00  0.00     0.029 A 
ATOM     48  N   UNL     1      -7.665 -19.522  -2.849  1.00  0.00    -0.354 N 
ATOM     49  C   UNL     1      -5.438 -21.922  -5.655  1.00  0.00     0.074 A 
ATOM     50  C   UNL     1      -4.068 -21.470  -5.760  1.00  0.00     0.031 C 
ATOM     51  C   UNL     1      -8.000 -17.832  -1.423  1.00  0.00     0.029 A 
ATOM     52  C   UNL     1      -8.673 -18.910  -2.140  1.00  0.00     0.049 A 
ATOM     53  H   UNL     1      -7.812 -20.307  -3.424  1.00  0.00     0.167 HD
ATOM     54  C   UNL     1      -5.958 -22.948  -6.371  1.00  0.00     0.034 A 
ATOM     55  C   UNL     1      -9.991 -19.182  -2.077  1.00  0.00     0.034 A 
ATOM     56  C   UNL     1      -7.310 -23.421  -6.237  1.00  0.00     0.049 A 
ATOM     57  C   UNL     1     -10.533 -20.353  -2.851  1.00  0.00     0.074 A 
ATOM     58  C   UNL     1      -7.904 -24.510  -6.849  1.00  0.00     0.029 A 
ATOM     59  N   UNL     1      -8.282 -22.828  -5.447  1.00  0.00    -0.354 N 
ATOM     60  N   UNL     1      -9.898 -21.192  -3.632  1.00  0.00    -0.248 NA
ATOM     61  C   UNL     1     -11.968 -20.639  -2.704  1.00  0.00     0.031 C 
ATOM     62  C   UNL     1      -9.244 -24.559  -6.451  1.00  0.00     0.029 A 
ATOM     63  C   UNL     1      -9.476 -23.519  -5.564  1.00  0.00     0.049 A 
ATOM     64  H   UNL     1      -8.144 -22.031  -4.885  1.00  0.00     0.167 HD
ATOM     65  C   UNL     1     -10.845 -22.124  -4.043  1.00  0.00     0.074 A 
ATOM     66  C   UNL     1     -12.092 -21.760  -3.401  1.00  0.00     0.031 C 
ATOM     67  C   UNL     1     -10.699 -23.176  -4.886  1.00  0.00     0.034 A 
BRANCH  54  68
ATOM     68  C   UNL     1      -5.044 -23.667  -7.331  1.00  0.00     0.023 A 
ATOM     69  C   UNL     1      -4.009 -24.482  -6.827  1.00  0.00     0.012 A 
ATOM     70  C   UNL     1      -5.243 -23.586  -8.723  1.00  0.00     0.148 A 
ATOM     71  C   UNL     1      -3.165 -25.176  -7.693  1.00  0.00     0.002 A 
ATOM     72  C   UNL     1      -4.427 -24.318  -9.578  1.00  0.00     0.091 A 
ATOM     73  F   UNL     1      -6.218 -22.791  -9.185  1.00  0.00    -0.205 F 
ATOM     74  C   UNL     1      -3.380 -25.103  -9.066  1.00  0.00     0.022 A 
BRANCH  72  75
ATOM     75  S   UNL     1      -4.672 -24.357 -11.357  1.00  0.00     0.127 S 
ATOM     76  O   UNL     1      -3.507 -23.612 -11.832  1.00  0.00    -0.237 OA
ATOM     77  O   UNL     1      -4.635 -25.792 -11.641  1.00  0.00    -0.237 OA
ATOM     78  O   UNL     1      -5.960 -23.722 -11.599  1.00  0.00    -0.744 OA
ENDBRANCH  72  75
ENDBRANCH  54  68
BRANCH  55  79
ATOM     79  C   UNL     1     -10.880 -18.370  -1.198  1.00  0.00     0.023 A 
ATOM     80  C   UNL     1     -11.425 -18.952  -0.037  1.00  0.00     0.012 A 
ATOM     81  C   UNL     1     -11.168 -17.023  -1.492  1.00  0.00     0.148 A 
ATOM     82  C   UNL     1     -12.270 -18.219   0.797  1.00  0.00     0.002 A 
ATOM     83  C   UNL     1     -11.965 -16.282  -0.626  1.00  0.00     0.091 A 
ATOM     84  F   UNL     1     -10.649 -16.491  -2.607  1.00  0.00    -0.205 F 
ATOM     85  C   UNL     1     -12.531 -16.882   0.508  1.00  0.00     0.022 A 
BRANCH  83  86
ATOM     86  S   UNL     1     -12.249 -14.522  -0.848  1.00  0.00     0.127 S 
ATOM     87  O   UNL     1     -13.660 -14.492  -1.225  1.00  0.00    -0.237 OA
ATOM     88  O   UNL     1     -11.956 -13.999   0.487  1.00  0.00    -0.237 OA
ATOM     89  O   UNL     1     -11.309 -14.099  -1.878  1.00  0.00    -0.744 OA
ENDBRANCH  83  86
ENDBRANCH  55  79
BRANCH  67  90
ATOM     90  C   UNL     1     -11.909 -24.036  -5.143  1.00  0.00     0.023 A 
ATOM     91  C   UNL     1     -12.975 -23.536  -5.917  1.00  0.00     0.012 A 
ATOM     92  C   UNL     1     -11.963 -25.362  -4.668  1.00  0.00     0.148 A 
ATOM     93  C   UNL     1     -14.092 -24.328  -6.182  1.00  0.00     0.002 A 
ATOM     94  C   UNL     1     -13.055 -26.163  -4.981  1.00  0.00     0.091 A 
ATOM     95  F   UNL     1     -10.948 -25.815  -3.918  1.00  0.00    -0.205 F 
ATOM     96  C   UNL     1     -14.127 -25.643  -5.725  1.00  0.00     0.022 A 
BRANCH  94  97
ATOM     97  S   UNL     1     -13.141 -27.896  -4.518  1.00  0.00     0.127 S 
ATOM     98  O   UNL     1     -14.144 -27.871  -3.454  1.00  0.00    -0.237 OA
ATOM     99  O   UNL     1     -13.586 -28.528  -5.760  1.00  0.00    -0.237 OA
ATOM    100  O   UNL     1     -11.796 -28.268  -4.101  1.00  0.00    -0.744 OA
ENDBRANCH  94  97
ENDBRANCH  67  90
ENDBRANCH  41  42
ENDBRANCH  33  36
ENDBRANCH  31  32
ENDBRANCH  30  31
ENDBRANCH   1  30
TORSDOF 19
