REMARK SMILES O=C(CCn1ccnc1)N[C@H]1C=C[C@H](C(=O)NCCCCNC(=O)c2ccc(-c3c4nc(c(-c5cccc(S(=O)(=O)[O-])c5F)c5ccc([nH]5)c(-c5cccc(S(=O)(=O)[O-])c5F)c5nc(c(-c6cccc(S(=O)(=O)[O-])c6F)c6ccc3[nH]6)C=C5)C=C4)cc2)C1
REMARK SMILES IDX 19 1 18 2 17 3 15 4 16 5 14 7 11 8 12 9 88 10 13 11 10 12
REMARK SMILES IDX 1 13 2 14 3 16 4 17 5 18 6 19 9 20 7 21 8 22 20 23 21 24
REMARK SMILES IDX 22 25 23 26 24 28 25 29 26 30 87 31 27 32 86 33 28 34 29 35
REMARK SMILES IDX 30 36 80 37 31 38 85 39 79 40 81 41 32 42 84 43 78 44 77 45
REMARK SMILES IDX 33 47 65 48 45 49 64 50 46 51 49 52 63 53 82 54 47 55 48 56
REMARK SMILES IDX 62 58 83 59 50 60 34 61 35 62 43 63 36 64 38 65 44 66 37 67
REMARK SMILES IDX 39 68 40 69 41 70 42 71 66 72 67 73 75 74 68 75 70 76 76 77
REMARK SMILES IDX 69 78 71 79 72 80 73 81 74 82 51 83 52 84 60 85 53 86 55 87
REMARK SMILES IDX 61 88 54 89 56 90 57 91 58 92 59 93
REMARK H PARENT 17 6 10 15 22 27 81 46 49 57
REMARK Flexibility Score: inf
ROOT
ATOM      1  C   UNL     1      -0.842  -2.225   3.950  1.00  0.00     0.023 C 
ENDROOT
BRANCH   1   2
ATOM      2  C   UNL     1      -0.112  -0.971   4.445  1.00  0.00     0.116 C 
BRANCH   2   3
ATOM      3  N   UNL     1       0.744  -1.214   5.582  1.00  0.00    -0.356 N 
ATOM      4  C   UNL     1       2.094  -1.351   5.683  1.00  0.00     0.227 C 
ATOM      5  O   UNL     1       2.534  -1.647   6.801  1.00  0.00    -0.274 OA
ATOM      6  H   UNL     1       0.265  -1.296   6.439  1.00  0.00     0.163 HD
BRANCH   4   7
ATOM      7  C   UNL     1       3.066  -1.287   4.490  1.00  0.00     0.103 C 
ATOM      8  C   UNL     1       2.446  -0.788   2.163  1.00  0.00     0.106 C 
ATOM      9  C   UNL     1       2.676  -2.248   2.376  1.00  0.00    -0.006 C 
ATOM     10  C   UNL     1       2.959  -0.147   3.467  1.00  0.00     0.047 C 
ATOM     11  C   UNL     1       2.992  -2.525   3.645  1.00  0.00    -0.016 C 
BRANCH   8  12
ATOM     12  N   UNL     1       3.146  -0.369   0.981  1.00  0.00    -0.350 N 
ATOM     13  O   UNL     1       1.241   0.130  -0.200  1.00  0.00    -0.275 OA
ATOM     14  C   UNL     1       2.467   0.082  -0.127  1.00  0.00     0.222 C 
ATOM     15  H   UNL     1       4.130  -0.405   0.963  1.00  0.00     0.164 HD
BRANCH  14  16
ATOM     16  C   UNL     1       3.313   0.466  -1.317  1.00  0.00     0.122 C 
BRANCH  16  17
ATOM     17  C   UNL     1       4.192   1.684  -1.063  1.00  0.00     0.133 C 
BRANCH  17  18
ATOM     18  N   UNL     1       5.313   1.448  -0.177  1.00  0.00    -0.337 N 
ATOM     19  C   UNL     1       5.672   2.237   0.879  1.00  0.00     0.107 A 
ATOM     20  C   UNL     1       6.138   0.358  -0.174  1.00  0.00     0.199 A 
ATOM     21  C   UNL     1       6.642   1.524   1.542  1.00  0.00     0.130 A 
ATOM     22  N   UNL     1       6.921   0.354   0.880  1.00  0.00    -0.245 NA
ENDBRANCH  17  18
ENDBRANCH  16  17
ENDBRANCH  14  16
ENDBRANCH   8  12
ENDBRANCH   4   7
ENDBRANCH   2   3
ENDBRANCH   1   2
BRANCH   1  23
ATOM     23  C   UNL     1      -2.237  -2.436   4.552  1.00  0.00     0.023 C 
BRANCH  23  24
ATOM     24  C   UNL     1      -3.236  -1.333   4.218  1.00  0.00     0.116 C 
BRANCH  24  25
ATOM     25  N   UNL     1      -3.568  -1.244   2.792  1.00  0.00    -0.352 N 
ATOM     26  C   UNL     1      -4.398  -0.307   2.185  1.00  0.00     0.251 C 
ATOM     27  H   UNL     1      -3.160  -1.918   2.202  1.00  0.00     0.163 HD
ATOM     28  O   UNL     1      -4.922  -0.504   1.108  1.00  0.00    -0.269 OA
BRANCH  26  29
ATOM     29  C   UNL     1      -4.583   0.971   2.896  1.00  0.00     0.039 A 
ATOM     30  C   UNL     1      -5.838   1.555   3.102  1.00  0.00     0.014 A 
ATOM     31  C   UNL     1      -3.428   1.522   3.438  1.00  0.00     0.014 A 
ATOM     32  C   UNL     1      -5.925   2.671   3.934  1.00  0.00     0.010 A 
ATOM     33  C   UNL     1      -3.546   2.469   4.409  1.00  0.00     0.010 A 
ATOM     34  C   UNL     1      -4.769   3.111   4.588  1.00  0.00    -0.014 A 
BRANCH  34  35
ATOM     35  C   UNL     1      -4.763   4.220   5.531  1.00  0.00     0.031 A 
ATOM     36  C   UNL     1      -5.508   3.984   6.800  1.00  0.00     0.074 A 
ATOM     37  C   UNL     1      -3.846   5.203   5.373  1.00  0.00     0.049 A 
ATOM     38  N   UNL     1      -6.496   4.663   7.285  1.00  0.00    -0.248 NA
ATOM     39  C   UNL     1      -5.196   2.768   7.570  1.00  0.00     0.031 C 
ATOM     40  C   UNL     1      -2.813   5.313   4.326  1.00  0.00     0.029 A 
ATOM     41  N   UNL     1      -3.501   6.201   6.225  1.00  0.00    -0.354 N 
ATOM     42  C   UNL     1      -6.772   4.093   8.531  1.00  0.00     0.074 A 
ATOM     43  C   UNL     1      -6.106   2.820   8.543  1.00  0.00     0.031 C 
ATOM     44  C   UNL     1      -1.819   6.119   4.754  1.00  0.00     0.029 A 
ATOM     45  C   UNL     1      -2.227   6.721   6.006  1.00  0.00     0.049 A 
ATOM     46  H   UNL     1      -4.099   6.529   6.936  1.00  0.00     0.167 HD
ATOM     47  C   UNL     1      -7.304   4.825   9.551  1.00  0.00     0.034 A 
ATOM     48  C   UNL     1      -1.534   7.539   6.834  1.00  0.00     0.034 A 
ATOM     49  C   UNL     1      -7.820   6.083   9.071  1.00  0.00     0.049 A 
ATOM     50  C   UNL     1      -2.519   8.145   7.758  1.00  0.00     0.074 A 
ATOM     51  C   UNL     1      -8.792   6.463   8.168  1.00  0.00     0.029 A 
ATOM     52  N   UNL     1      -7.022   7.187   9.255  1.00  0.00    -0.354 N 
ATOM     53  N   UNL     1      -3.482   8.932   7.362  1.00  0.00    -0.248 NA
ATOM     54  C   UNL     1      -2.725   7.498   9.043  1.00  0.00     0.031 C 
ATOM     55  C   UNL     1      -8.239   7.594   7.497  1.00  0.00     0.029 A 
ATOM     56  C   UNL     1      -6.999   7.880   8.074  1.00  0.00     0.049 A 
ATOM     57  H   UNL     1      -6.552   7.434  10.084  1.00  0.00     0.167 HD
ATOM     58  C   UNL     1      -4.586   8.527   8.102  1.00  0.00     0.074 A 
ATOM     59  C   UNL     1      -4.034   7.723   9.194  1.00  0.00     0.031 C 
ATOM     60  C   UNL     1      -5.852   8.624   7.595  1.00  0.00     0.034 A 
BRANCH  47  61
ATOM     61  C   UNL     1      -7.046   4.606  11.030  1.00  0.00     0.023 A 
ATOM     62  C   UNL     1      -7.786   5.403  11.936  1.00  0.00     0.012 A 
ATOM     63  C   UNL     1      -5.956   3.885  11.568  1.00  0.00     0.148 A 
ATOM     64  C   UNL     1      -7.421   5.529  13.281  1.00  0.00     0.002 A 
ATOM     65  C   UNL     1      -5.642   3.954  12.923  1.00  0.00     0.091 A 
ATOM     66  F   UNL     1      -5.121   3.225  10.762  1.00  0.00    -0.205 F 
ATOM     67  C   UNL     1      -6.349   4.801  13.777  1.00  0.00     0.022 A 
BRANCH  65  68
ATOM     68  S   UNL     1      -4.291   2.996  13.626  1.00  0.00     0.127 S 
ATOM     69  O   UNL     1      -3.277   4.027  13.826  1.00  0.00    -0.237 OA
ATOM     70  O   UNL     1      -4.899   2.477  14.851  1.00  0.00    -0.237 OA
ATOM     71  O   UNL     1      -3.982   1.973  12.635  1.00  0.00    -0.744 OA
ENDBRANCH  65  68
ENDBRANCH  47  61
BRANCH  48  72
ATOM     72  C   UNL     1      -0.072   7.609   7.064  1.00  0.00     0.023 A 
ATOM     73  C   UNL     1       0.505   8.777   7.597  1.00  0.00     0.012 A 
ATOM     74  C   UNL     1       0.723   6.441   7.005  1.00  0.00     0.148 A 
ATOM     75  C   UNL     1       1.822   8.777   8.077  1.00  0.00     0.002 A 
ATOM     76  C   UNL     1       2.034   6.448   7.473  1.00  0.00     0.091 A 
ATOM     77  F   UNL     1       0.163   5.302   6.575  1.00  0.00    -0.205 F 
ATOM     78  C   UNL     1       2.584   7.613   8.021  1.00  0.00     0.022 A 
BRANCH  76  79
ATOM     79  S   UNL     1       3.070   4.977   7.444  1.00  0.00     0.127 S 
ATOM     80  O   UNL     1       4.296   5.484   6.827  1.00  0.00    -0.237 OA
ATOM     81  O   UNL     1       3.182   4.662   8.866  1.00  0.00    -0.237 OA
ATOM     82  O   UNL     1       2.352   4.002   6.632  1.00  0.00    -0.744 OA
ENDBRANCH  76  79
ENDBRANCH  48  72
BRANCH  60  83
ATOM     83  C   UNL     1      -6.039   9.347   6.279  1.00  0.00     0.023 A 
ATOM     84  C   UNL     1      -5.527   8.841   5.064  1.00  0.00     0.012 A 
ATOM     85  C   UNL     1      -6.922  10.435   6.233  1.00  0.00     0.148 A 
ATOM     86  C   UNL     1      -5.873   9.413   3.837  1.00  0.00     0.002 A 
ATOM     87  C   UNL     1      -7.302  10.974   5.009  1.00  0.00     0.091 A 
ATOM     88  F   UNL     1      -7.415  10.897   7.393  1.00  0.00    -0.205 F 
ATOM     89  C   UNL     1      -6.773  10.473   3.808  1.00  0.00     0.022 A 
BRANCH  87  90
ATOM     90  S   UNL     1      -8.558  12.249   4.889  1.00  0.00     0.127 S 
ATOM     91  O   UNL     1      -7.771  13.415   4.492  1.00  0.00    -0.237 OA
ATOM     92  O   UNL     1      -9.439  11.721   3.846  1.00  0.00    -0.237 OA
ATOM     93  O   UNL     1      -9.176  12.331   6.206  1.00  0.00    -0.744 OA
ENDBRANCH  87  90
ENDBRANCH  60  83
ENDBRANCH  34  35
ENDBRANCH  26  29
ENDBRANCH  24  25
ENDBRANCH  23  24
ENDBRANCH   1  23
TORSDOF 18
