REMARK SMILES O=C(NCCCCNC(=O)[C@@H]1CC[C@H](CNC(=O)c2cccn2C2CC2)O1)c1ccc(-c2c3nc(c(-c4cccc(S(=O)(=O)[O-])c4F)c4ccc([nH]4)c(-c4cccc(S(=O)(=O)[O-])c4F)c4nc(c(-c5cccc(S(=O)(=O)[O-])c5F)c5ccc2[nH]5)C=C4)C=C3)cc1
REMARK SMILES IDX 6 1 5 2 4 3 3 4 1 5 2 6 28 8 29 9 90 10 30 11 89 12 31 13
REMARK SMILES IDX 32 14 33 15 83 16 34 17 88 18 82 19 84 20 35 21 87 22 81 23
REMARK SMILES IDX 80 24 36 26 68 27 48 28 67 29 49 30 52 31 66 32 85 33 50 34
REMARK SMILES IDX 51 35 65 37 86 38 53 39 37 40 38 41 46 42 39 43 41 44 47 45
REMARK SMILES IDX 40 46 42 47 43 48 44 49 45 50 69 51 70 52 78 53 71 54 73 55
REMARK SMILES IDX 79 56 72 57 74 58 75 59 76 60 77 61 54 62 55 63 63 64 56 65
REMARK SMILES IDX 58 66 64 67 57 68 59 69 60 70 61 71 62 72 7 73 8 74 9 75
REMARK SMILES IDX 10 77 11 78 12 79 27 80 13 81 14 82 15 83 16 84 17 85 18 87
REMARK SMILES IDX 19 88 20 89 23 90 21 91 22 92 24 93 25 94 26 95
REMARK H PARENT 3 7 84 25 52 36 8 76 16 86
REMARK Flexibility Score: inf
ROOT
ATOM      1  C   UNL     1       4.481  -3.356   1.236  1.00  0.00     0.023 C 
ENDROOT
BRANCH   1   2
ATOM      2  C   UNL     1       5.126  -1.971   1.161  1.00  0.00     0.023 C 
BRANCH   2   3
ATOM      3  C   UNL     1       4.861  -1.217  -0.141  1.00  0.00     0.116 C 
BRANCH   3   4
ATOM      4  N   UNL     1       3.468  -0.898  -0.390  1.00  0.00    -0.352 N 
ATOM      5  O   UNL     1       1.416  -0.062  -0.135  1.00  0.00    -0.269 OA
ATOM      6  C   UNL     1       2.564  -0.129   0.302  1.00  0.00     0.251 C 
ATOM      7  H   UNL     1       3.103  -1.309  -1.207  1.00  0.00     0.163 HD
BRANCH   6   8
ATOM      8  C   UNL     1       2.921   0.563   1.565  1.00  0.00     0.039 A 
ATOM      9  C   UNL     1       4.158   1.185   1.749  1.00  0.00     0.014 A 
ATOM     10  C   UNL     1       1.952   0.639   2.578  1.00  0.00     0.014 A 
ATOM     11  C   UNL     1       4.458   1.809   2.954  1.00  0.00     0.010 A 
ATOM     12  C   UNL     1       2.232   1.306   3.775  1.00  0.00     0.010 A 
ATOM     13  C   UNL     1       3.487   1.900   3.957  1.00  0.00    -0.014 A 
BRANCH  13  14
ATOM     14  C   UNL     1       3.745   2.870   5.052  1.00  0.00     0.031 A 
ATOM     15  C   UNL     1       3.576   4.318   4.581  1.00  0.00     0.074 A 
ATOM     16  C   UNL     1       4.173   2.404   6.258  1.00  0.00     0.049 A 
ATOM     17  N   UNL     1       4.273   5.378   4.880  1.00  0.00    -0.248 NA
ATOM     18  C   UNL     1       2.603   4.594   3.492  1.00  0.00     0.031 C 
ATOM     19  C   UNL     1       4.318   0.978   6.593  1.00  0.00     0.029 A 
ATOM     20  N   UNL     1       4.579   3.016   7.431  1.00  0.00    -0.354 N 
ATOM     21  C   UNL     1       3.681   6.455   4.186  1.00  0.00     0.074 A 
ATOM     22  C   UNL     1       2.793   5.885   3.220  1.00  0.00     0.031 C 
ATOM     23  C   UNL     1       4.821   0.833   7.837  1.00  0.00     0.029 A 
ATOM     24  C   UNL     1       5.021   2.140   8.444  1.00  0.00     0.049 A 
ATOM     25  H   UNL     1       4.560   3.994   7.549  1.00  0.00     0.167 HD
ATOM     26  C   UNL     1       3.822   7.760   4.557  1.00  0.00     0.034 A 
ATOM     27  C   UNL     1       5.545   2.421   9.677  1.00  0.00     0.034 A 
ATOM     28  C   UNL     1       4.602   7.857   5.748  1.00  0.00     0.049 A 
ATOM     29  C   UNL     1       5.518   3.883   9.850  1.00  0.00     0.074 A 
ATOM     30  C   UNL     1       5.936   7.856   6.054  1.00  0.00     0.029 A 
ATOM     31  N   UNL     1       3.878   7.800   6.912  1.00  0.00    -0.354 N 
ATOM     32  N   UNL     1       4.461   4.587  10.133  1.00  0.00    -0.248 NA
ATOM     33  C   UNL     1       6.758   4.644   9.634  1.00  0.00     0.031 C 
ATOM     34  C   UNL     1       5.997   7.548   7.434  1.00  0.00     0.029 A 
ATOM     35  C   UNL     1       4.699   7.337   7.907  1.00  0.00     0.049 A 
ATOM     36  H   UNL     1       2.931   8.049   7.014  1.00  0.00     0.167 HD
ATOM     37  C   UNL     1       4.853   5.860   9.788  1.00  0.00     0.074 A 
ATOM     38  C   UNL     1       6.293   5.872   9.837  1.00  0.00     0.031 C 
ATOM     39  C   UNL     1       4.061   6.614   8.985  1.00  0.00     0.034 A 
BRANCH  26  40
ATOM     40  C   UNL     1       3.107   9.029   4.132  1.00  0.00     0.023 A 
ATOM     41  C   UNL     1       3.744  10.243   4.521  1.00  0.00     0.012 A 
ATOM     42  C   UNL     1       1.790   9.134   3.648  1.00  0.00     0.148 A 
ATOM     43  C   UNL     1       3.083  11.470   4.541  1.00  0.00     0.002 A 
ATOM     44  C   UNL     1       1.153  10.380   3.606  1.00  0.00     0.091 A 
ATOM     45  F   UNL     1       1.109   8.033   3.317  1.00  0.00    -0.205 F 
ATOM     46  C   UNL     1       1.780  11.537   4.087  1.00  0.00     0.022 A 
BRANCH  44  47
ATOM     47  S   UNL     1      -0.496  10.580   2.917  1.00  0.00     0.127 S 
ATOM     48  O   UNL     1      -1.344  10.447   4.091  1.00  0.00    -0.237 OA
ATOM     49  O   UNL     1      -0.441  11.933   2.356  1.00  0.00    -0.237 OA
ATOM     50  O   UNL     1      -0.602   9.534   1.901  1.00  0.00    -0.744 OA
ENDBRANCH  44  47
ENDBRANCH  26  40
BRANCH  27  51
ATOM     51  C   UNL     1       6.197   1.597  10.766  1.00  0.00     0.023 A 
ATOM     52  C   UNL     1       5.977   0.221  10.926  1.00  0.00     0.012 A 
ATOM     53  C   UNL     1       7.105   2.188  11.695  1.00  0.00     0.148 A 
ATOM     54  C   UNL     1       6.703  -0.540  11.862  1.00  0.00     0.002 A 
ATOM     55  C   UNL     1       7.881   1.428  12.565  1.00  0.00     0.091 A 
ATOM     56  F   UNL     1       7.202   3.517  11.780  1.00  0.00    -0.205 F 
ATOM     57  C   UNL     1       7.683   0.054  12.653  1.00  0.00     0.022 A 
BRANCH  55  58
ATOM     58  S   UNL     1       9.231   2.150  13.520  1.00  0.00     0.127 S 
ATOM     59  O   UNL     1       8.851   1.819  14.892  1.00  0.00    -0.237 OA
ATOM     60  O   UNL     1      10.382   1.408  13.006  1.00  0.00    -0.237 OA
ATOM     61  O   UNL     1       9.244   3.573  13.206  1.00  0.00    -0.744 OA
ENDBRANCH  55  58
ENDBRANCH  27  51
BRANCH  39  62
ATOM     62  C   UNL     1       2.590   6.242   9.050  1.00  0.00     0.023 A 
ATOM     63  C   UNL     1       1.869   6.595  10.202  1.00  0.00     0.012 A 
ATOM     64  C   UNL     1       1.938   5.455   8.073  1.00  0.00     0.148 A 
ATOM     65  C   UNL     1       0.544   6.184  10.376  1.00  0.00     0.002 A 
ATOM     66  C   UNL     1       0.619   5.040   8.245  1.00  0.00     0.091 A 
ATOM     67  F   UNL     1       2.624   5.106   6.987  1.00  0.00    -0.205 F 
ATOM     68  C   UNL     1      -0.081   5.410   9.400  1.00  0.00     0.022 A 
BRANCH  66  69
ATOM     69  S   UNL     1      -0.259   3.986   7.075  1.00  0.00     0.127 S 
ATOM     70  O   UNL     1      -0.657   2.853   7.912  1.00  0.00    -0.237 OA
ATOM     71  O   UNL     1      -1.366   4.844   6.662  1.00  0.00    -0.237 OA
ATOM     72  O   UNL     1       0.689   3.646   6.021  1.00  0.00    -0.744 OA
ENDBRANCH  66  69
ENDBRANCH  39  62
ENDBRANCH  13  14
ENDBRANCH   6   8
ENDBRANCH   3   4
ENDBRANCH   2   3
ENDBRANCH   1   2
BRANCH   1  73
ATOM     73  C   UNL     1       4.918  -4.320   0.139  1.00  0.00     0.116 C 
BRANCH  73  74
ATOM     74  N   UNL     1       6.355  -4.540   0.145  1.00  0.00    -0.354 N 
ATOM     75  C   UNL     1       7.029  -5.728   0.196  1.00  0.00     0.249 C 
ATOM     76  H   UNL     1       6.913  -3.730   0.108  1.00  0.00     0.163 HD
ATOM     77  O   UNL     1       8.260  -5.710   0.150  1.00  0.00    -0.272 OA
BRANCH  75  78
ATOM     78  C   UNL     1       6.217  -7.024   0.332  1.00  0.00     0.207 C 
ATOM     79  C   UNL     1       7.083  -8.273   0.426  1.00  0.00     0.045 C 
ATOM     80  O   UNL     1       5.347  -7.206  -0.803  1.00  0.00    -0.363 OA
ATOM     81  C   UNL     1       6.240  -9.311  -0.273  1.00  0.00     0.037 C 
ATOM     82  C   UNL     1       5.568  -8.506  -1.372  1.00  0.00     0.138 C 
BRANCH  82  83
ATOM     83  C   UNL     1       6.410  -8.348  -2.648  1.00  0.00     0.148 C 
BRANCH  83  84
ATOM     84  N   UNL     1       6.521  -9.588  -3.402  1.00  0.00    -0.348 N 
ATOM     85  C   UNL     1       6.093  -9.885  -4.670  1.00  0.00     0.268 C 
ATOM     86  H   UNL     1       6.971 -10.324  -2.930  1.00  0.00     0.163 HD
ATOM     87  O   UNL     1       6.296 -11.033  -5.077  1.00  0.00    -0.268 OA
BRANCH  85  88
ATOM     88  C   UNL     1       5.519  -8.845  -5.482  1.00  0.00     0.107 A 
ATOM     89  C   UNL     1       6.146  -7.653  -5.843  1.00  0.00     0.033 A 
ATOM     90  N   UNL     1       4.317  -8.863  -6.160  1.00  0.00    -0.340 N 
ATOM     91  C   UNL     1       5.306  -6.944  -6.726  1.00  0.00     0.020 A 
ATOM     92  C   UNL     1       4.192  -7.724  -6.921  1.00  0.00     0.086 A 
BRANCH  90  93
ATOM     93  C   UNL     1       3.210  -9.804  -6.104  1.00  0.00     0.087 C 
ATOM     94  C   UNL     1       3.242 -11.242  -5.643  1.00  0.00     0.027 C 
ATOM     95  C   UNL     1       2.602 -10.214  -4.775  1.00  0.00     0.027 C 
ENDBRANCH  90  93
ENDBRANCH  85  88
ENDBRANCH  83  84
ENDBRANCH  82  83
ENDBRANCH  75  78
ENDBRANCH  73  74
ENDBRANCH   1  73
TORSDOF 18
