REMARK SMILES C[C@H](CCC(=O)NCCCCNC(=O)c1ccc(-c2c3nc(c(-c4cccc(S(=O)(=O)[O-])c4F)c4ccc([nH]4)c(-c4cccc(S(=O)(=O)[O-])c4F)c4nc(c(-c5cccc(S(=O)(=O)[O-])c5F)c5ccc2[nH]5)C=C4)C=C3)cc1)NC(=O)N(C)CCc1cccs1
REMARK SMILES IDX 5 1 6 2 7 3 4 5 3 6 2 7 1 8 78 9 79 10 80 12 81 13 82 14
REMARK SMILES IDX 83 15 84 16 85 17 86 18 89 19 87 20 88 21 8 22 9 23 10 24
REMARK SMILES IDX 11 25 12 26 13 27 14 29 15 30 16 31 77 32 17 33 76 34 18 35
REMARK SMILES IDX 19 36 20 37 70 38 21 39 75 40 69 41 71 42 22 43 74 44 68 45
REMARK SMILES IDX 67 46 23 48 55 49 35 50 54 51 36 52 39 53 53 54 72 55 37 56
REMARK SMILES IDX 38 57 52 59 73 60 40 61 24 62 25 63 33 64 26 65 28 66 34 67
REMARK SMILES IDX 27 68 29 69 30 70 31 71 32 72 56 73 57 74 65 75 58 76 60 77
REMARK SMILES IDX 66 78 59 79 61 80 62 81 63 82 64 83 41 84 42 85 50 86 43 87
REMARK SMILES IDX 45 88 51 89 44 90 46 91 47 92 48 93 49 94
REMARK H PARENT 7 4 78 11 12 28 71 47 39 58
REMARK Flexibility Score: inf
ROOT
ATOM      1  C   UNL     1       3.421  -0.142  -1.116  1.00  0.00     0.220 C 
ATOM      2  O   UNL     1       4.400  -0.131  -0.369  1.00  0.00    -0.275 OA
ATOM      3  N   UNL     1       3.460   0.598  -2.257  1.00  0.00    -0.356 N 
ATOM      4  H   UNL     1       4.340   0.981  -2.478  1.00  0.00     0.163 HD
ENDROOT
BRANCH   1   5
ATOM      5  C   UNL     1       2.208  -0.992  -0.789  1.00  0.00     0.102 C 
BRANCH   5   6
ATOM      6  C   UNL     1       1.160  -0.299   0.089  1.00  0.00     0.034 C 
BRANCH   6   7
ATOM      7  C   UNL     1      -0.060   0.317  -0.622  1.00  0.00     0.081 C 
ATOM      8  C   UNL     1      -0.795  -0.688  -1.519  1.00  0.00     0.031 C 
BRANCH   7   9
ATOM      9  N   UNL     1      -1.012   0.819   0.376  1.00  0.00    -0.336 N 
ATOM     10  C   UNL     1      -1.665   2.003   0.472  1.00  0.00     0.317 C 
ATOM     11  H   UNL     1      -1.210   0.186   1.103  1.00  0.00     0.165 HD
ATOM     12  O   UNL     1      -2.795   1.965   0.961  1.00  0.00    -0.249 OA
BRANCH  10  13
ATOM     13  N   UNL     1      -1.074   3.169   0.057  1.00  0.00    -0.328 N 
ATOM     14  C   UNL     1       0.351   3.437   0.140  1.00  0.00     0.148 C 
BRANCH  13  15
ATOM     15  C   UNL     1      -1.918   4.362  -0.122  1.00  0.00     0.126 C 
BRANCH  15  16
ATOM     16  C   UNL     1      -2.369   4.577  -1.575  1.00  0.00     0.068 C 
BRANCH  16  17
ATOM     17  C   UNL     1      -3.491   3.662  -1.972  1.00  0.00     0.006 A 
ATOM     18  C   UNL     1      -3.410   2.420  -2.568  1.00  0.00     0.015 A 
ATOM     19  S   UNL     1      -5.120   4.116  -1.685  1.00  0.00    -0.149 S 
ATOM     20  C   UNL     1      -4.688   1.818  -2.743  1.00  0.00     0.012 A 
ATOM     21  C   UNL     1      -5.706   2.634  -2.304  1.00  0.00     0.065 A 
ENDBRANCH  16  17
ENDBRANCH  15  16
ENDBRANCH  13  15
ENDBRANCH  10  13
ENDBRANCH   7   9
ENDBRANCH   6   7
ENDBRANCH   5   6
ENDBRANCH   1   5
BRANCH   3  22
ATOM     22  C   UNL     1       2.399   0.906  -3.193  1.00  0.00     0.116 C 
BRANCH  22  23
ATOM     23  C   UNL     1       1.821   2.286  -2.889  1.00  0.00     0.023 C 
BRANCH  23  24
ATOM     24  C   UNL     1       2.430   3.437  -3.675  1.00  0.00     0.023 C 
BRANCH  24  25
ATOM     25  C   UNL     1       2.143   3.393  -5.167  1.00  0.00     0.116 C 
BRANCH  25  26
ATOM     26  N   UNL     1       0.724   3.402  -5.505  1.00  0.00    -0.352 N 
ATOM     27  C   UNL     1       0.139   3.918  -6.644  1.00  0.00     0.251 C 
ATOM     28  H   UNL     1       0.116   2.994  -4.847  1.00  0.00     0.163 HD
ATOM     29  O   UNL     1      -1.072   3.907  -6.794  1.00  0.00    -0.269 OA
BRANCH  27  30
ATOM     30  C   UNL     1       1.027   4.537  -7.649  1.00  0.00     0.039 A 
ATOM     31  C   UNL     1       0.835   5.879  -7.983  1.00  0.00     0.014 A 
ATOM     32  C   UNL     1       2.134   3.831  -8.122  1.00  0.00     0.014 A 
ATOM     33  C   UNL     1       1.817   6.544  -8.719  1.00  0.00     0.010 A 
ATOM     34  C   UNL     1       3.151   4.519  -8.768  1.00  0.00     0.010 A 
ATOM     35  C   UNL     1       3.007   5.883  -9.069  1.00  0.00    -0.014 A 
BRANCH  35  36
ATOM     36  C   UNL     1       4.128   6.596  -9.731  1.00  0.00     0.031 A 
ATOM     37  C   UNL     1       4.613   6.138 -11.079  1.00  0.00     0.074 A 
ATOM     38  C   UNL     1       4.785   7.572  -9.071  1.00  0.00     0.049 A 
ATOM     39  N   UNL     1       5.635   6.560 -11.774  1.00  0.00    -0.248 NA
ATOM     40  C   UNL     1       3.877   5.027 -11.709  1.00  0.00     0.031 C 
ATOM     41  C   UNL     1       4.483   8.033  -7.713  1.00  0.00     0.029 A 
ATOM     42  N   UNL     1       5.867   8.332  -9.443  1.00  0.00    -0.354 N 
ATOM     43  C   UNL     1       5.695   5.740 -12.894  1.00  0.00     0.074 A 
ATOM     44  C   UNL     1       4.634   4.766 -12.764  1.00  0.00     0.031 C 
ATOM     45  C   UNL     1       5.349   9.001  -7.373  1.00  0.00     0.029 A 
ATOM     46  C   UNL     1       6.283   9.215  -8.474  1.00  0.00     0.049 A 
ATOM     47  H   UNL     1       6.303   8.252 -10.322  1.00  0.00     0.167 HD
ATOM     48  C   UNL     1       6.528   5.815 -13.958  1.00  0.00     0.034 A 
ATOM     49  C   UNL     1       7.298  10.101  -8.476  1.00  0.00     0.034 A 
ATOM     50  C   UNL     1       7.528   6.833 -14.121  1.00  0.00     0.049 A 
ATOM     51  C   UNL     1       8.148  10.231  -9.711  1.00  0.00     0.074 A 
ATOM     52  C   UNL     1       8.353   7.063 -15.207  1.00  0.00     0.029 A 
ATOM     53  N   UNL     1       7.832   7.798 -13.174  1.00  0.00    -0.354 N 
ATOM     54  N   UNL     1       8.078   9.557 -10.834  1.00  0.00    -0.248 NA
ATOM     55  C   UNL     1       9.188  11.270  -9.699  1.00  0.00     0.031 C 
ATOM     56  C   UNL     1       9.156   8.171 -14.916  1.00  0.00     0.029 A 
ATOM     57  C   UNL     1       8.826   8.632 -13.652  1.00  0.00     0.049 A 
ATOM     58  H   UNL     1       7.403   7.879 -12.292  1.00  0.00     0.167 HD
ATOM     59  C   UNL     1       9.040  10.110 -11.672  1.00  0.00     0.074 A 
ATOM     60  C   UNL     1       9.664  11.190 -10.935  1.00  0.00     0.031 C 
ATOM     61  C   UNL     1       9.389   9.744 -12.929  1.00  0.00     0.034 A 
BRANCH  48  62
ATOM     62  C   UNL     1       6.329   4.815 -15.065  1.00  0.00     0.023 A 
ATOM     63  C   UNL     1       5.195   4.925 -15.896  1.00  0.00     0.012 A 
ATOM     64  C   UNL     1       7.266   3.793 -15.305  1.00  0.00     0.148 A 
ATOM     65  C   UNL     1       4.976   4.010 -16.924  1.00  0.00     0.002 A 
ATOM     66  C   UNL     1       7.063   2.910 -16.361  1.00  0.00     0.091 A 
ATOM     67  F   UNL     1       8.325   3.687 -14.489  1.00  0.00    -0.205 F 
ATOM     68  C   UNL     1       5.913   3.010 -17.162  1.00  0.00     0.022 A 
BRANCH  66  69
ATOM     69  S   UNL     1       8.250   1.633 -16.793  1.00  0.00     0.127 S 
ATOM     70  O   UNL     1       7.584   0.431 -16.296  1.00  0.00    -0.237 OA
ATOM     71  O   UNL     1       8.304   1.741 -18.251  1.00  0.00    -0.237 OA
ATOM     72  O   UNL     1       9.486   1.994 -16.114  1.00  0.00    -0.744 OA
ENDBRANCH  66  69
ENDBRANCH  48  62
BRANCH  49  73
ATOM     73  C   UNL     1       7.504  11.000  -7.305  1.00  0.00     0.023 A 
ATOM     74  C   UNL     1       7.181  12.367  -7.424  1.00  0.00     0.012 A 
ATOM     75  C   UNL     1       7.977  10.513  -6.071  1.00  0.00     0.148 A 
ATOM     76  C   UNL     1       7.354  13.236  -6.347  1.00  0.00     0.002 A 
ATOM     77  C   UNL     1       8.097  11.375  -4.986  1.00  0.00     0.091 A 
ATOM     78  F   UNL     1       8.291   9.213  -5.979  1.00  0.00    -0.205 F 
ATOM     79  C   UNL     1       7.802  12.740  -5.126  1.00  0.00     0.022 A 
BRANCH  77  80
ATOM     80  S   UNL     1       8.537  10.792  -3.345  1.00  0.00     0.127 S 
ATOM     81  O   UNL     1       9.923  11.238  -3.229  1.00  0.00    -0.237 OA
ATOM     82  O   UNL     1       7.585  11.513  -2.498  1.00  0.00    -0.237 OA
ATOM     83  O   UNL     1       8.330   9.350  -3.378  1.00  0.00    -0.744 OA
ENDBRANCH  77  80
ENDBRANCH  49  73
BRANCH  61  84
ATOM     84  C   UNL     1      10.476  10.530 -13.610  1.00  0.00     0.023 A 
ATOM     85  C   UNL     1      11.818  10.336 -13.227  1.00  0.00     0.012 A 
ATOM     86  C   UNL     1      10.179  11.388 -14.687  1.00  0.00     0.148 A 
ATOM     87  C   UNL     1      12.847  11.002 -13.891  1.00  0.00     0.002 A 
ATOM     88  C   UNL     1      11.213  12.015 -15.372  1.00  0.00     0.091 A 
ATOM     89  F   UNL     1       8.894  11.575 -15.022  1.00  0.00    -0.205 F 
ATOM     90  C   UNL     1      12.546  11.830 -14.970  1.00  0.00     0.022 A 
BRANCH  88  91
ATOM     91  S   UNL     1      10.921  13.022 -16.831  1.00  0.00     0.127 S 
ATOM     92  O   UNL     1      11.067  14.374 -16.294  1.00  0.00    -0.237 OA
ATOM     93  O   UNL     1      12.000  12.601 -17.725  1.00  0.00    -0.237 OA
ATOM     94  O   UNL     1       9.585  12.671 -17.295  1.00  0.00    -0.744 OA
ENDBRANCH  88  91
ENDBRANCH  61  84
ENDBRANCH  35  36
ENDBRANCH  27  30
ENDBRANCH  25  26
ENDBRANCH  24  25
ENDBRANCH  23  24
ENDBRANCH  22  23
ENDBRANCH   3  22
TORSDOF 21
