REMARK SMILES O=C(NCCCCNC(=O)[C@@H]1CCCC[C@@H]1C(=O)Nc1cccc(C(F)(F)F)c1)c1ccc(-c2c3nc(c(-c4cccc(S(=O)(=O)[O-])c4F)c4ccc([nH]4)c(-c4cccc(S(=O)(=O)[O-])c4F)c4nc(c(-c5cccc(S(=O)(=O)[O-])c5F)c5ccc2[nH]5)C=C4)C=C3)cc1
REMARK SMILES IDX 5 1 4 2 3 3 1 4 2 5 30 7 31 8 92 9 32 10 91 11 33 12 34 13
REMARK SMILES IDX 35 14 85 15 36 16 90 17 84 18 86 19 37 20 89 21 83 22 82 23
REMARK SMILES IDX 38 25 70 26 50 27 69 28 51 29 54 30 68 31 87 32 52 33 53 34
REMARK SMILES IDX 67 36 88 37 55 38 39 39 40 40 48 41 41 42 43 43 49 44 42 45
REMARK SMILES IDX 44 46 45 47 46 48 47 49 71 50 72 51 80 52 73 53 75 54 81 55
REMARK SMILES IDX 74 56 76 57 77 58 78 59 79 60 56 61 57 62 65 63 58 64 60 65
REMARK SMILES IDX 66 66 59 67 61 68 62 69 63 70 64 71 6 72 7 73 8 74 9 75
REMARK SMILES IDX 10 77 11 78 12 79 16 80 13 81 15 82 14 83 17 84 18 85 19 86
REMARK SMILES IDX 20 88 21 89 29 90 22 91 24 92 23 93 25 94 26 95 27 96 28 97
REMARK H PARENT 3 6 86 24 54 35 8 76 19 87
REMARK Flexibility Score: inf
ROOT
ATOM      1  C   UNL     1       4.801  -2.634  -0.185  1.00  0.00     0.023 C 
ENDROOT
BRANCH   1   2
ATOM      2  C   UNL     1       4.472  -1.152  -0.290  1.00  0.00     0.116 C 
BRANCH   2   3
ATOM      3  N   UNL     1       3.065  -0.881  -0.555  1.00  0.00    -0.352 N 
ATOM      4  O   UNL     1       1.092   0.197  -0.313  1.00  0.00    -0.269 OA
ATOM      5  C   UNL     1       2.291   0.144  -0.058  1.00  0.00     0.251 C 
ATOM      6  H   UNL     1       2.612  -1.507  -1.165  1.00  0.00     0.163 HD
BRANCH   5   7
ATOM      7  C   UNL     1       2.930   1.141   0.823  1.00  0.00     0.039 A 
ATOM      8  C   UNL     1       4.124   1.749   0.431  1.00  0.00     0.014 A 
ATOM      9  C   UNL     1       2.393   1.377   2.090  1.00  0.00     0.014 A 
ATOM     10  C   UNL     1       4.874   2.442   1.371  1.00  0.00     0.010 A 
ATOM     11  C   UNL     1       3.108   2.155   3.004  1.00  0.00     0.010 A 
ATOM     12  C   UNL     1       4.380   2.645   2.671  1.00  0.00    -0.014 A 
BRANCH  12  13
ATOM     13  C   UNL     1       5.214   3.387   3.651  1.00  0.00     0.031 A 
ATOM     14  C   UNL     1       5.727   2.725   4.903  1.00  0.00     0.074 A 
ATOM     15  C   UNL     1       5.537   4.667   3.382  1.00  0.00     0.049 A 
ATOM     16  N   UNL     1       6.513   3.216   5.827  1.00  0.00    -0.248 NA
ATOM     17  C   UNL     1       5.298   1.340   5.162  1.00  0.00     0.031 C 
ATOM     18  C   UNL     1       5.065   5.425   2.221  1.00  0.00     0.029 A 
ATOM     19  N   UNL     1       6.344   5.550   4.050  1.00  0.00    -0.354 N 
ATOM     20  C   UNL     1       6.631   2.228   6.797  1.00  0.00     0.074 A 
ATOM     21  C   UNL     1       5.835   1.105   6.352  1.00  0.00     0.031 C 
ATOM     22  C   UNL     1       5.625   6.642   2.233  1.00  0.00     0.029 A 
ATOM     23  C   UNL     1       6.456   6.770   3.425  1.00  0.00     0.049 A 
ATOM     24  H   UNL     1       6.800   5.333   4.895  1.00  0.00     0.167 HD
ATOM     25  C   UNL     1       7.351   2.248   7.946  1.00  0.00     0.034 A 
ATOM     26  C   UNL     1       7.149   7.871   3.771  1.00  0.00     0.034 A 
ATOM     27  C   UNL     1       8.191   3.344   8.352  1.00  0.00     0.049 A 
ATOM     28  C   UNL     1       7.988   7.839   5.015  1.00  0.00     0.074 A 
ATOM     29  C   UNL     1       9.012   3.432   9.463  1.00  0.00     0.029 A 
ATOM     30  N   UNL     1       8.321   4.540   7.664  1.00  0.00    -0.354 N 
ATOM     31  N   UNL     1       8.182   6.849   5.853  1.00  0.00    -0.248 NA
ATOM     32  C   UNL     1       8.727   9.064   5.347  1.00  0.00     0.031 C 
ATOM     33  C   UNL     1       9.633   4.686   9.451  1.00  0.00     0.029 A 
ATOM     34  C   UNL     1       9.207   5.374   8.326  1.00  0.00     0.049 A 
ATOM     35  H   UNL     1       7.853   4.764   6.828  1.00  0.00     0.167 HD
ATOM     36  C   UNL     1       9.084   7.322   6.797  1.00  0.00     0.074 A 
ATOM     37  C   UNL     1       9.419   8.678   6.410  1.00  0.00     0.031 C 
ATOM     38  C   UNL     1       9.573   6.699   7.896  1.00  0.00     0.034 A 
BRANCH  25  39
ATOM     39  C   UNL     1       7.300   1.031   8.833  1.00  0.00     0.023 A 
ATOM     40  C   UNL     1       8.007  -0.131   8.464  1.00  0.00     0.012 A 
ATOM     41  C   UNL     1       6.617   1.061  10.066  1.00  0.00     0.148 A 
ATOM     42  C   UNL     1       8.015  -1.252   9.294  1.00  0.00     0.002 A 
ATOM     43  C   UNL     1       6.661  -0.047  10.906  1.00  0.00     0.091 A 
ATOM     44  F   UNL     1       5.930   2.165  10.391  1.00  0.00    -0.205 F 
ATOM     45  C   UNL     1       7.353  -1.206  10.518  1.00  0.00     0.022 A 
BRANCH  43  46
ATOM     46  S   UNL     1       5.899  -0.052  12.533  1.00  0.00     0.127 S 
ATOM     47  O   UNL     1       4.696  -0.848  12.294  1.00  0.00    -0.237 OA
ATOM     48  O   UNL     1       6.915  -0.715  13.352  1.00  0.00    -0.237 OA
ATOM     49  O   UNL     1       5.673   1.347  12.870  1.00  0.00    -0.744 OA
ENDBRANCH  43  46
ENDBRANCH  25  39
BRANCH  26  50
ATOM     50  C   UNL     1       7.129   9.062   2.877  1.00  0.00     0.023 A 
ATOM     51  C   UNL     1       8.288   9.401   2.154  1.00  0.00     0.012 A 
ATOM     52  C   UNL     1       5.955   9.816   2.689  1.00  0.00     0.148 A 
ATOM     53  C   UNL     1       8.284  10.484   1.274  1.00  0.00     0.002 A 
ATOM     54  C   UNL     1       5.941  10.855   1.766  1.00  0.00     0.091 A 
ATOM     55  F   UNL     1       4.867   9.489   3.401  1.00  0.00    -0.205 F 
ATOM     56  C   UNL     1       7.108  11.201   1.069  1.00  0.00     0.022 A 
BRANCH  54  57
ATOM     57  S   UNL     1       4.427  11.721   1.336  1.00  0.00     0.127 S 
ATOM     58  O   UNL     1       4.575  12.970   2.078  1.00  0.00    -0.237 OA
ATOM     59  O   UNL     1       4.547  11.848  -0.117  1.00  0.00    -0.237 OA
ATOM     60  O   UNL     1       3.347  10.844   1.769  1.00  0.00    -0.744 OA
ENDBRANCH  54  57
ENDBRANCH  26  50
BRANCH  38  61
ATOM     61  C   UNL     1      10.545   7.469   8.750  1.00  0.00     0.023 A 
ATOM     62  C   UNL     1      10.074   8.510   9.573  1.00  0.00     0.012 A 
ATOM     63  C   UNL     1      11.910   7.127   8.778  1.00  0.00     0.148 A 
ATOM     64  C   UNL     1      10.953   9.221  10.388  1.00  0.00     0.002 A 
ATOM     65  C   UNL     1      12.774   7.811   9.625  1.00  0.00     0.091 A 
ATOM     66  F   UNL     1      12.345   6.149   7.969  1.00  0.00    -0.205 F 
ATOM     67  C   UNL     1      12.300   8.865  10.423  1.00  0.00     0.022 A 
BRANCH  65  68
ATOM     68  S   UNL     1      14.502   7.351   9.790  1.00  0.00     0.127 S 
ATOM     69  O   UNL     1      15.157   8.330   8.925  1.00  0.00    -0.237 OA
ATOM     70  O   UNL     1      14.746   7.543  11.221  1.00  0.00    -0.237 OA
ATOM     71  O   UNL     1      14.582   5.964   9.351  1.00  0.00    -0.744 OA
ENDBRANCH  65  68
ENDBRANCH  38  61
ENDBRANCH  12  13
ENDBRANCH   5   7
ENDBRANCH   2   3
ENDBRANCH   1   2
BRANCH   1  72
ATOM     72  C   UNL     1       4.349  -3.484  -1.368  1.00  0.00     0.023 C 
BRANCH  72  73
ATOM     73  C   UNL     1       4.835  -3.010  -2.732  1.00  0.00     0.116 C 
BRANCH  73  74
ATOM     74  N   UNL     1       6.263  -3.179  -2.877  1.00  0.00    -0.356 N 
ATOM     75  C   UNL     1       7.038  -3.990  -3.625  1.00  0.00     0.223 C 
ATOM     76  H   UNL     1       6.783  -2.569  -2.306  1.00  0.00     0.163 HD
ATOM     77  O   UNL     1       8.259  -3.870  -3.464  1.00  0.00    -0.275 OA
BRANCH  75  78
ATOM     78  C   UNL     1       6.537  -5.019  -4.636  1.00  0.00     0.091 C 
ATOM     79  C   UNL     1       5.202  -4.844  -5.338  1.00  0.00     0.014 C 
ATOM     80  C   UNL     1       6.775  -6.471  -4.184  1.00  0.00     0.091 C 
ATOM     81  C   UNL     1       5.180  -5.669  -6.619  1.00  0.00     0.001 C 
ATOM     82  C   UNL     1       6.593  -7.458  -5.344  1.00  0.00     0.014 C 
ATOM     83  C   UNL     1       5.535  -7.137  -6.408  1.00  0.00     0.001 C 
BRANCH  80  84
ATOM     84  C   UNL     1       6.250  -6.810  -2.773  1.00  0.00     0.228 C 
ATOM     85  O   UNL     1       7.062  -6.865  -1.839  1.00  0.00    -0.274 OA
ATOM     86  N   UNL     1       4.946  -6.890  -2.402  1.00  0.00    -0.326 N 
ATOM     87  H   UNL     1       4.805  -6.671  -1.453  1.00  0.00     0.169 HD
BRANCH  86  88
ATOM     88  C   UNL     1       3.764  -7.213  -3.063  1.00  0.00     0.041 A 
ATOM     89  C   UNL     1       2.595  -6.545  -2.689  1.00  0.00     0.026 A 
ATOM     90  C   UNL     1       3.683  -8.244  -3.989  1.00  0.00     0.039 A 
ATOM     91  C   UNL     1       1.394  -6.792  -3.354  1.00  0.00     0.003 A 
ATOM     92  C   UNL     1       2.480  -8.513  -4.667  1.00  0.00     0.058 A 
ATOM     93  C   UNL     1       1.342  -7.756  -4.359  1.00  0.00     0.013 A 
BRANCH  92  94
ATOM     94  C   UNL     1       2.426  -9.557  -5.753  1.00  0.00     0.416 C 
ATOM     95  F   UNL     1       1.348 -10.382  -5.645  1.00  0.00    -0.166 F 
ATOM     96  F   UNL     1       2.348  -9.001  -6.995  1.00  0.00    -0.166 F 
ATOM     97  F   UNL     1       3.518 -10.371  -5.781  1.00  0.00    -0.166 F 
ENDBRANCH  92  94
ENDBRANCH  86  88
ENDBRANCH  80  84
ENDBRANCH  75  78
ENDBRANCH  73  74
ENDBRANCH  72  73
ENDBRANCH   1  72
TORSDOF 17
