REMARK SMILES C[C@@H]1CC[C@H](C)[N@H+]1Cc1cc2c(cc1Cl)C=C(C(=O)NCCCCNC(=O)c1ccc(-c3c4nc(c(-c5cccc(S(=O)(=O)[O-])c5F)c5ccc([nH]5)c(-c5cccc(S(=O)(=O)[O-])c5F)c5nc(c(-c6cccc(S(=O)(=O)[O-])c6F)c6ccc3[nH]6)C=C5)C=C4)cc1)[C@@H](C(F)(F)F)O2
REMARK SMILES IDX 23 1 22 2 21 3 20 4 18 5 19 6 17 8 9 9 10 10 14 11 11 12
REMARK SMILES IDX 13 13 15 14 12 15 96 16 16 17 91 18 8 19 7 20 6 21 5 22 4 23
REMARK SMILES IDX 3 24 2 25 1 27 92 28 93 29 94 30 95 31 24 32 25 33 26 34
REMARK SMILES IDX 27 36 28 37 29 38 90 39 30 40 89 41 31 42 32 43 33 44 83 45
REMARK SMILES IDX 34 46 88 47 82 48 84 49 35 50 87 51 81 52 80 53 36 55 68 56
REMARK SMILES IDX 48 57 67 58 49 59 52 60 66 61 85 62 50 63 51 64 65 66 86 67
REMARK SMILES IDX 53 68 37 69 38 70 46 71 39 72 41 73 47 74 40 75 42 76 43 77
REMARK SMILES IDX 44 78 45 79 69 80 70 81 78 82 71 83 73 84 79 85 72 86 74 87
REMARK SMILES IDX 75 88 76 89 77 90 54 91 55 92 63 93 56 94 58 95 64 96 57 97
REMARK SMILES IDX 59 98 60 99 61 100 62 101
REMARK H PARENT 20 7 7 26 25 35 84 54 52 65
REMARK Flexibility Score: inf
ROOT
ATOM      1  C   UNL     1      -9.360  -0.983   4.527  1.00  0.00     0.023 C 
ENDROOT
BRANCH   1   2
ATOM      2  C   UNL     1      -8.320  -0.715   3.437  1.00  0.00     0.023 C 
BRANCH   2   3
ATOM      3  C   UNL     1      -8.664   0.452   2.516  1.00  0.00     0.116 C 
BRANCH   3   4
ATOM      4  N   UNL     1      -8.274   1.727   3.091  1.00  0.00    -0.352 N 
ATOM      5  C   UNL     1      -7.284   2.629   2.903  1.00  0.00     0.251 C 
ATOM      6  O   UNL     1      -7.330   3.627   3.629  1.00  0.00    -0.270 OA
ATOM      7  H   UNL     1      -8.892   2.008   3.805  1.00  0.00     0.163 HD
BRANCH   5   8
ATOM      8  C   UNL     1      -6.174   2.493   1.917  1.00  0.00     0.067 C 
ATOM      9  C   UNL     1      -1.866   3.139  -0.645  1.00  0.00     0.029 A 
ATOM     10  C   UNL     1      -2.673   2.031  -0.322  1.00  0.00     0.058 A 
ATOM     11  C   UNL     1      -2.322   4.414  -0.266  1.00  0.00     0.050 A 
ATOM     12  C   UNL     1      -3.826   2.187   0.439  1.00  0.00     0.128 A 
ATOM     13  C   UNL     1      -3.453   4.558   0.549  1.00  0.00     0.033 A 
ATOM     14  Cl  UNL     1      -1.577   5.874  -0.817  1.00  0.00    -0.084 Cl
ATOM     15  C   UNL     1      -4.192   3.439   0.927  1.00  0.00     0.019 A 
ATOM     16  O   UNL     1      -4.550   1.060   0.715  1.00  0.00    -0.475 OA
ATOM     17  C   UNL     1      -5.319   3.532   1.847  1.00  0.00     0.025 C 
ATOM     18  C   UNL     1      -5.956   1.309   1.018  1.00  0.00     0.314 C 
BRANCH   9  19
ATOM     19  C   UNL     1      -0.542   2.876  -1.341  1.00  0.00     0.301 C 
BRANCH  19  20
ATOM     20  N   UNL     1       0.617   2.605  -0.472  1.00  0.00    -0.327 N 
ATOM     21  C   UNL     1       0.921   0.163  -0.153  1.00  0.00     0.075 C 
ATOM     22  C   UNL     1       0.496   1.483   0.473  1.00  0.00     0.181 C 
ATOM     23  C   UNL     1       1.390   1.868   1.648  1.00  0.00     0.071 C 
ATOM     24  C   UNL     1       1.229   3.372   1.701  1.00  0.00     0.071 C 
ATOM     25  C   UNL     1       1.164   3.772   0.231  1.00  0.00     0.181 C 
ATOM     26  H   UNL     1       1.284   2.313  -1.186  1.00  0.00     0.348 HD
ATOM     27  C   UNL     1       2.548   4.079  -0.340  1.00  0.00     0.075 C 
ENDBRANCH  19  20
ENDBRANCH   9  19
BRANCH  18  28
ATOM     28  C   UNL     1      -6.771   1.415  -0.289  1.00  0.00     0.429 C 
ATOM     29  F   UNL     1      -6.818   0.214  -0.918  1.00  0.00    -0.167 F 
ATOM     30  F   UNL     1      -8.055   1.787  -0.068  1.00  0.00    -0.167 F 
ATOM     31  F   UNL     1      -6.254   2.307  -1.164  1.00  0.00    -0.167 F 
ENDBRANCH  18  28
ENDBRANCH   5   8
ENDBRANCH   3   4
ENDBRANCH   2   3
ENDBRANCH   1   2
BRANCH   1  32
ATOM     32  C   UNL     1     -10.784  -1.211   4.027  1.00  0.00     0.116 C 
BRANCH  32  33
ATOM     33  N   UNL     1     -10.900  -2.230   2.992  1.00  0.00    -0.352 N 
ATOM     34  C   UNL     1     -12.012  -2.988   2.687  1.00  0.00     0.251 C 
ATOM     35  H   UNL     1     -10.096  -2.396   2.450  1.00  0.00     0.163 HD
ATOM     36  O   UNL     1     -11.963  -3.859   1.829  1.00  0.00    -0.269 OA
BRANCH  34  37
ATOM     37  C   UNL     1     -13.241  -2.751   3.469  1.00  0.00     0.039 A 
ATOM     38  C   UNL     1     -13.766  -1.461   3.557  1.00  0.00     0.014 A 
ATOM     39  C   UNL     1     -13.772  -3.794   4.230  1.00  0.00     0.014 A 
ATOM     40  C   UNL     1     -14.702  -1.176   4.542  1.00  0.00     0.010 A 
ATOM     41  C   UNL     1     -14.771  -3.517   5.166  1.00  0.00     0.010 A 
ATOM     42  C   UNL     1     -15.197  -2.196   5.373  1.00  0.00    -0.014 A 
BRANCH  42  43
ATOM     43  C   UNL     1     -16.140  -1.846   6.465  1.00  0.00     0.031 A 
ATOM     44  C   UNL     1     -15.751  -2.017   7.910  1.00  0.00     0.074 A 
ATOM     45  C   UNL     1     -17.337  -1.315   6.147  1.00  0.00     0.049 A 
ATOM     46  N   UNL     1     -16.439  -1.720   8.983  1.00  0.00    -0.248 NA
ATOM     47  C   UNL     1     -14.426  -2.594   8.194  1.00  0.00     0.031 C 
ATOM     48  C   UNL     1     -17.831  -1.117   4.783  1.00  0.00     0.029 A 
ATOM     49  N   UNL     1     -18.342  -0.826   6.940  1.00  0.00    -0.354 N 
ATOM     50  C   UNL     1     -15.658  -2.116  10.062  1.00  0.00     0.074 A 
ATOM     51  C   UNL     1     -14.437  -2.671   9.520  1.00  0.00     0.031 C 
ATOM     52  C   UNL     1     -19.023  -0.506   4.833  1.00  0.00     0.029 A 
ATOM     53  C   UNL     1     -19.400  -0.312   6.229  1.00  0.00     0.049 A 
ATOM     54  H   UNL     1     -18.309  -0.842   7.924  1.00  0.00     0.167 HD
ATOM     55  C   UNL     1     -15.925  -2.009  11.384  1.00  0.00     0.034 A 
ATOM     56  C   UNL     1     -20.548   0.253   6.650  1.00  0.00     0.034 A 
ATOM     57  C   UNL     1     -17.106  -1.392  11.924  1.00  0.00     0.049 A 
ATOM     58  C   UNL     1     -20.800   0.396   8.121  1.00  0.00     0.074 A 
ATOM     59  C   UNL     1     -17.434  -1.190  13.253  1.00  0.00     0.029 A 
ATOM     60  N   UNL     1     -18.142  -0.868  11.170  1.00  0.00    -0.354 N 
ATOM     61  N   UNL     1     -20.012   0.084   9.121  1.00  0.00    -0.248 NA
ATOM     62  C   UNL     1     -22.089   0.975   8.525  1.00  0.00     0.031 C 
ATOM     63  C   UNL     1     -18.670  -0.539  13.303  1.00  0.00     0.029 A 
ATOM     64  C   UNL     1     -19.111  -0.341  12.005  1.00  0.00     0.049 A 
ATOM     65  H   UNL     1     -18.184  -0.871  10.186  1.00  0.00     0.167 HD
ATOM     66  C   UNL     1     -20.706   0.431  10.272  1.00  0.00     0.074 A 
ATOM     67  C   UNL     1     -21.968   1.002   9.847  1.00  0.00     0.031 C 
ATOM     68  C   UNL     1     -20.339   0.267  11.565  1.00  0.00     0.034 A 
BRANCH  55  69
ATOM     69  C   UNL     1     -14.902  -2.513  12.363  1.00  0.00     0.023 A 
ATOM     70  C   UNL     1     -13.812  -1.687  12.700  1.00  0.00     0.012 A 
ATOM     71  C   UNL     1     -15.085  -3.735  13.037  1.00  0.00     0.148 A 
ATOM     72  C   UNL     1     -12.915  -2.072  13.695  1.00  0.00     0.002 A 
ATOM     73  C   UNL     1     -14.201  -4.101  14.046  1.00  0.00     0.091 A 
ATOM     74  F   UNL     1     -16.126  -4.506  12.689  1.00  0.00    -0.205 F 
ATOM     75  C   UNL     1     -13.115  -3.272  14.374  1.00  0.00     0.022 A 
BRANCH  73  76
ATOM     76  S   UNL     1     -14.395  -5.599  15.018  1.00  0.00     0.127 S 
ATOM     77  O   UNL     1     -13.203  -6.355  14.634  1.00  0.00    -0.237 OA
ATOM     78  O   UNL     1     -14.374  -5.081  16.386  1.00  0.00    -0.237 OA
ATOM     79  O   UNL     1     -15.660  -6.189  14.605  1.00  0.00    -0.744 OA
ENDBRANCH  73  76
ENDBRANCH  55  69
BRANCH  56  80
ATOM     80  C   UNL     1     -21.509   0.772   5.641  1.00  0.00     0.023 A 
ATOM     81  C   UNL     1     -21.611   2.161   5.439  1.00  0.00     0.012 A 
ATOM     82  C   UNL     1     -22.245  -0.103   4.820  1.00  0.00     0.148 A 
ATOM     83  C   UNL     1     -22.432   2.671   4.434  1.00  0.00     0.002 A 
ATOM     84  C   UNL     1     -23.023   0.409   3.789  1.00  0.00     0.091 A 
ATOM     85  F   UNL     1     -22.140  -1.421   5.043  1.00  0.00    -0.205 F 
ATOM     86  C   UNL     1     -23.125   1.796   3.600  1.00  0.00     0.022 A 
BRANCH  84  87
ATOM     87  S   UNL     1     -23.840  -0.647   2.588  1.00  0.00     0.127 S 
ATOM     88  O   UNL     1     -25.244  -0.493   2.963  1.00  0.00    -0.237 OA
ATOM     89  O   UNL     1     -23.466  -0.014   1.323  1.00  0.00    -0.237 OA
ATOM     90  O   UNL     1     -23.274  -1.975   2.784  1.00  0.00    -0.744 OA
ENDBRANCH  84  87
ENDBRANCH  56  80
BRANCH  68  91
ATOM     91  C   UNL     1     -21.304   0.699  12.631  1.00  0.00     0.023 A 
ATOM     92  C   UNL     1     -22.359  -0.164  12.985  1.00  0.00     0.012 A 
ATOM     93  C   UNL     1     -21.093   1.882  13.363  1.00  0.00     0.148 A 
ATOM     94  C   UNL     1     -23.196   0.148  14.053  1.00  0.00     0.002 A 
ATOM     95  C   UNL     1     -21.914   2.172  14.445  1.00  0.00     0.091 A 
ATOM     96  F   UNL     1     -20.085   2.687  12.997  1.00  0.00    -0.205 F 
ATOM     97  C   UNL     1     -22.967   1.308  14.790  1.00  0.00     0.022 A 
BRANCH  95  98
ATOM     98  S   UNL     1     -21.658   3.604  15.499  1.00  0.00     0.127 S 
ATOM     99  O   UNL     1     -22.849   4.402  15.210  1.00  0.00    -0.237 OA
ATOM    100  O   UNL     1     -21.633   3.005  16.833  1.00  0.00    -0.237 OA
ATOM    101  O   UNL     1     -20.398   4.198  15.075  1.00  0.00    -0.744 OA
ENDBRANCH  95  98
ENDBRANCH  68  91
ENDBRANCH  42  43
ENDBRANCH  34  37
ENDBRANCH  32  33
ENDBRANCH   1  32
TORSDOF 17
