REMARK SMILES CC1=C(C(=O)OCC(C)C)[C@@H](c2ccc(C(=O)NCCCCNC(=O)c3ccc(-c4c5nc(c(-c6cccc(S(=O)(=O)[O-])c6F)c6ccc([nH]6)c(-c6cccc(S(=O)(=O)[O-])c6F)c6nc(c(-c7cccc(S(=O)(=O)[O-])c7F)c7ccc4[nH]7)C=C6)C=C5)cc3)cc2)c2c(n(C)c(=O)n(C)c2=O)N1
REMARK SMILES IDX 19 1 18 2 16 3 17 4 15 6 12 7 13 8 90 9 14 10 89 11 11 12
REMARK SMILES IDX 1 13 2 14 3 15 101 16 92 17 91 19 93 20 99 21 94 22 95 23
REMARK SMILES IDX 97 24 100 25 96 26 98 27 4 28 5 29 6 30 7 31 8 32 9 33 10 34
REMARK SMILES IDX 20 35 21 36 22 37 23 38 24 39 25 41 26 42 27 43 88 44 28 45
REMARK SMILES IDX 87 46 29 47 30 48 31 49 81 50 32 51 86 52 80 53 82 54 33 55
REMARK SMILES IDX 85 56 79 57 78 58 34 60 66 61 46 62 65 63 47 64 50 65 64 66
REMARK SMILES IDX 83 67 48 68 49 69 63 71 84 72 51 73 35 74 36 75 44 76 37 77
REMARK SMILES IDX 39 78 45 79 38 80 40 81 41 82 42 83 43 84 67 85 68 86 76 87
REMARK SMILES IDX 69 88 71 89 77 90 70 91 72 92 73 93 74 94 75 95 52 96 53 97
REMARK SMILES IDX 61 98 54 99 56 100 62 101 55 102 57 103 58 104 59 105 60 106
REMARK H PARENT 18 5 101 18 23 40 82 59 50 70
REMARK Flexibility Score: inf
ROOT
ATOM      1  C   UNL     1      -5.784   0.706   7.007  1.00  0.00     0.116 C 
ENDROOT
BRANCH   1   2
ATOM      2  N   UNL     1      -6.376   0.343   5.737  1.00  0.00    -0.352 N 
ATOM      3  C   UNL     1      -5.824   0.019   4.526  1.00  0.00     0.251 C 
ATOM      4  O   UNL     1      -6.598  -0.256   3.607  1.00  0.00    -0.269 OA
ATOM      5  H   UNL     1      -7.361   0.327   5.746  1.00  0.00     0.163 HD
BRANCH   3   6
ATOM      6  C   UNL     1      -4.354  -0.075   4.280  1.00  0.00     0.039 A 
ATOM      7  C   UNL     1      -1.611  -0.489   3.723  1.00  0.00    -0.035 A 
ATOM      8  C   UNL     1      -2.598  -1.061   2.907  1.00  0.00     0.005 A 
ATOM      9  C   UNL     1      -2.010   0.342   4.774  1.00  0.00     0.005 A 
ATOM     10  C   UNL     1      -3.951  -0.864   3.192  1.00  0.00     0.014 A 
ATOM     11  C   UNL     1      -3.365   0.569   5.026  1.00  0.00     0.014 A 
BRANCH   7  12
ATOM     12  C   UNL     1      -0.121  -0.743   3.487  1.00  0.00     0.098 C 
ATOM     13  C   UNL     1       1.292  -0.178  -0.142  1.00  0.00     0.065 C 
ATOM     14  C   UNL     1       0.787  -0.749   1.158  1.00  0.00     0.025 C 
ATOM     15  C   UNL     1       0.336  -0.038   2.215  1.00  0.00     0.068 C 
ATOM     16  N   UNL     1       0.852  -2.135   1.250  1.00  0.00    -0.344 N 
ATOM     17  C   UNL     1       0.608  -2.885   2.391  1.00  0.00     0.123 A 
ATOM     18  H   UNL     1       1.092  -2.628   0.432  1.00  0.00     0.168 HD
ATOM     19  C   UNL     1       0.172  -2.236   3.485  1.00  0.00     0.071 A 
ATOM     20  N   UNL     1       0.800  -4.257   2.442  1.00  0.00    -0.282 N 
ATOM     21  C   UNL     1      -0.026  -2.966   4.753  1.00  0.00     0.262 A 
ATOM     22  C   UNL     1       1.317  -4.956   1.273  1.00  0.00     0.157 C 
ATOM     23  C   UNL     1       0.495  -5.027   3.564  1.00  0.00     0.332 A 
ATOM     24  N   UNL     1       0.027  -4.339   4.671  1.00  0.00    -0.263 N 
ATOM     25  O   UNL     1      -0.200  -2.350   5.801  1.00  0.00    -0.269 OA
ATOM     26  O   UNL     1       0.651  -6.251   3.585  1.00  0.00    -0.247 OA
ATOM     27  C   UNL     1      -0.300  -5.119   5.850  1.00  0.00     0.158 C 
BRANCH  15  28
ATOM     28  C   UNL     1       0.325   1.442   2.318  1.00  0.00     0.336 C 
ATOM     29  O   UNL     1       0.738   2.033   3.304  1.00  0.00    -0.246 OA
BRANCH  28  30
ATOM     30  O   UNL     1      -0.245   2.006   1.227  1.00  0.00    -0.462 OA
BRANCH  30  31
ATOM     31  C   UNL     1      -0.301   3.444   1.202  1.00  0.00     0.236 C 
BRANCH  31  32
ATOM     32  C   UNL     1      -1.755   3.921   1.288  1.00  0.00     0.021 C 
ATOM     33  C   UNL     1      -2.400   3.521   2.614  1.00  0.00     0.011 C 
ATOM     34  C   UNL     1      -1.833   5.434   1.097  1.00  0.00     0.011 C 
ENDBRANCH  31  32
ENDBRANCH  30  31
ENDBRANCH  28  30
ENDBRANCH  15  28
ENDBRANCH   7  12
ENDBRANCH   3   6
ENDBRANCH   1   2
BRANCH   1  35
ATOM     35  C   UNL     1      -5.667   2.227   7.124  1.00  0.00     0.023 C 
BRANCH  35  36
ATOM     36  C   UNL     1      -6.978   2.919   7.498  1.00  0.00     0.023 C 
BRANCH  36  37
ATOM     37  C   UNL     1      -7.564   2.481   8.832  1.00  0.00     0.116 C 
BRANCH  37  38
ATOM     38  N   UNL     1      -6.636   2.630   9.946  1.00  0.00    -0.352 N 
ATOM     39  C   UNL     1      -6.926   3.004  11.235  1.00  0.00     0.251 C 
ATOM     40  H   UNL     1      -5.689   2.440   9.751  1.00  0.00     0.163 HD
ATOM     41  O   UNL     1      -6.035   3.197  12.054  1.00  0.00    -0.269 OA
BRANCH  39  42
ATOM     42  C   UNL     1      -8.341   3.203  11.594  1.00  0.00     0.039 A 
ATOM     43  C   UNL     1      -8.741   4.433  12.115  1.00  0.00     0.014 A 
ATOM     44  C   UNL     1      -9.275   2.203  11.307  1.00  0.00     0.014 A 
ATOM     45  C   UNL     1     -10.101   4.682  12.298  1.00  0.00     0.010 A 
ATOM     46  C   UNL     1     -10.630   2.487  11.407  1.00  0.00     0.010 A 
ATOM     47  C   UNL     1     -11.055   3.722  11.917  1.00  0.00    -0.014 A 
BRANCH  47  48
ATOM     48  C   UNL     1     -12.505   3.990  12.069  1.00  0.00     0.031 A 
ATOM     49  C   UNL     1     -13.321   3.156  13.015  1.00  0.00     0.074 A 
ATOM     50  C   UNL     1     -13.090   4.950  11.328  1.00  0.00     0.049 A 
ATOM     51  N   UNL     1     -14.592   3.247  13.303  1.00  0.00    -0.248 NA
ATOM     52  C   UNL     1     -12.625   2.060  13.713  1.00  0.00     0.031 C 
ATOM     53  C   UNL     1     -12.412   5.775  10.327  1.00  0.00     0.029 A 
ATOM     54  N   UNL     1     -14.388   5.393  11.300  1.00  0.00    -0.354 N 
ATOM     55  C   UNL     1     -14.848   2.220  14.202  1.00  0.00     0.074 A 
ATOM     56  C   UNL     1     -13.621   1.474  14.358  1.00  0.00     0.031 C 
ATOM     57  C   UNL     1     -13.291   6.649   9.810  1.00  0.00     0.029 A 
ATOM     58  C   UNL     1     -14.599   6.428  10.420  1.00  0.00     0.049 A 
ATOM     59  H   UNL     1     -15.102   5.005  11.857  1.00  0.00     0.167 HD
ATOM     60  C   UNL     1     -15.989   1.952  14.880  1.00  0.00     0.034 A 
ATOM     61  C   UNL     1     -15.718   7.130  10.148  1.00  0.00     0.034 A 
ATOM     62  C   UNL     1     -17.196   2.717  14.742  1.00  0.00     0.049 A 
ATOM     63  C   UNL     1     -16.980   6.808  10.903  1.00  0.00     0.074 A 
ATOM     64  C   UNL     1     -18.389   2.567  15.423  1.00  0.00     0.029 A 
ATOM     65  N   UNL     1     -17.366   3.773  13.860  1.00  0.00    -0.354 N 
ATOM     66  N   UNL     1     -17.167   5.929  11.859  1.00  0.00    -0.248 NA
ATOM     67  C   UNL     1     -18.178   7.590  10.565  1.00  0.00     0.031 C 
ATOM     68  C   UNL     1     -19.291   3.514  14.931  1.00  0.00     0.029 A 
ATOM     69  C   UNL     1     -18.651   4.274  13.964  1.00  0.00     0.049 A 
ATOM     70  H   UNL     1     -16.674   4.116  13.248  1.00  0.00     0.167 HD
ATOM     71  C   UNL     1     -18.494   6.066  12.252  1.00  0.00     0.074 A 
ATOM     72  C   UNL     1     -19.057   7.131  11.447  1.00  0.00     0.031 C 
ATOM     73  C   UNL     1     -19.186   5.362  13.183  1.00  0.00     0.034 A 
BRANCH  60  74
ATOM     74  C   UNL     1     -15.953   0.825  15.880  1.00  0.00     0.023 A 
ATOM     75  C   UNL     1     -15.185   0.972  17.056  1.00  0.00     0.012 A 
ATOM     76  C   UNL     1     -16.701  -0.351  15.688  1.00  0.00     0.148 A 
ATOM     77  C   UNL     1     -15.127  -0.049  18.002  1.00  0.00     0.002 A 
ATOM     78  C   UNL     1     -16.679  -1.345  16.661  1.00  0.00     0.091 A 
ATOM     79  F   UNL     1     -17.407  -0.484  14.557  1.00  0.00    -0.205 F 
ATOM     80  C   UNL     1     -15.883  -1.202  17.810  1.00  0.00     0.022 A 
BRANCH  78  81
ATOM     81  S   UNL     1     -17.682  -2.831  16.554  1.00  0.00     0.127 S 
ATOM     82  O   UNL     1     -16.664  -3.857  16.327  1.00  0.00    -0.237 OA
ATOM     83  O   UNL     1     -18.307  -2.875  17.876  1.00  0.00    -0.237 OA
ATOM     84  O   UNL     1     -18.606  -2.614  15.450  1.00  0.00    -0.744 OA
ENDBRANCH  78  81
ENDBRANCH  60  74
BRANCH  61  85
ATOM     85  C   UNL     1     -15.655   8.272   9.190  1.00  0.00     0.023 A 
ATOM     86  C   UNL     1     -15.757   9.586   9.686  1.00  0.00     0.012 A 
ATOM     87  C   UNL     1     -15.421   8.073   7.815  1.00  0.00     0.148 A 
ATOM     88  C   UNL     1     -15.639  10.682   8.830  1.00  0.00     0.002 A 
ATOM     89  C   UNL     1     -15.250   9.170   6.977  1.00  0.00     0.091 A 
ATOM     90  F   UNL     1     -15.333   6.815   7.363  1.00  0.00    -0.205 F 
ATOM     91  C   UNL     1     -15.373  10.475   7.480  1.00  0.00     0.022 A 
BRANCH  89  92
ATOM     92  S   UNL     1     -14.772   9.010   5.252  1.00  0.00     0.127 S 
ATOM     93  O   UNL     1     -15.924   9.591   4.567  1.00  0.00    -0.237 OA
ATOM     94  O   UNL     1     -13.554   9.818   5.206  1.00  0.00    -0.237 OA
ATOM     95  O   UNL     1     -14.564   7.586   5.028  1.00  0.00    -0.744 OA
ENDBRANCH  89  92
ENDBRANCH  61  85
BRANCH  73  96
ATOM     96  C   UNL     1     -20.640   5.701  13.393  1.00  0.00     0.023 A 
ATOM     97  C   UNL     1     -21.585   5.322  12.420  1.00  0.00     0.012 A 
ATOM     98  C   UNL     1     -21.083   6.261  14.609  1.00  0.00     0.148 A 
ATOM     99  C   UNL     1     -22.948   5.508  12.647  1.00  0.00     0.002 A 
ATOM    100  C   UNL     1     -22.445   6.394  14.850  1.00  0.00     0.091 A 
ATOM    101  F   UNL     1     -20.165   6.624  15.517  1.00  0.00    -0.205 F 
ATOM    102  C   UNL     1     -23.378   6.027  13.866  1.00  0.00     0.022 A 
BRANCH 100 103
ATOM    103  S   UNL     1     -23.103   6.947  16.427  1.00  0.00     0.127 S 
ATOM    104  O   UNL     1     -23.724   8.219  16.061  1.00  0.00    -0.237 OA
ATOM    105  O   UNL     1     -24.047   5.880  16.758  1.00  0.00    -0.237 OA
ATOM    106  O   UNL     1     -21.962   7.053  17.327  1.00  0.00    -0.744 OA
ENDBRANCH 100 103
ENDBRANCH  73  96
ENDBRANCH  47  48
ENDBRANCH  39  42
ENDBRANCH  37  38
ENDBRANCH  36  37
ENDBRANCH  35  36
ENDBRANCH   1  35
TORSDOF 19
