REMARK SMILES C[C@H]1[C@@H](C(=O)NCCCCNC(=O)c2ccc(-c3c4nc(c(-c5cccc(S(=O)(=O)[O-])c5F)c5ccc([nH]5)c(-c5cccc(S(=O)(=O)[O-])c5F)c5nc(c(-c6cccc(S(=O)(=O)[O-])c6F)c6ccc3[nH]6)C=C5)C=C4)cc2)CCN1C(=O)N[C@@H]1CC[N@H+]2CCCC[C@H]12
REMARK SMILES IDX 9 1 8 2 7 3 6 4 4 5 5 6 3 8 1 9 2 10 79 11 77 12 78 13 80 14
REMARK SMILES IDX 81 15 82 16 83 18 84 19 91 20 85 21 86 22 90 23 87 24 89 26
REMARK SMILES IDX 88 27 10 28 11 29 12 30 13 32 14 33 15 34 76 35 16 36 75 37
REMARK SMILES IDX 17 38 18 39 19 40 69 41 20 42 74 43 68 44 70 45 21 46 73 47
REMARK SMILES IDX 67 48 66 49 22 51 54 52 34 53 53 54 35 55 38 56 52 57 71 58
REMARK SMILES IDX 36 59 37 60 51 62 72 63 39 64 23 65 24 66 32 67 25 68 27 69
REMARK SMILES IDX 33 70 26 71 28 72 29 73 30 74 31 75 55 76 56 77 64 78 57 79
REMARK SMILES IDX 59 80 65 81 58 82 60 83 61 84 62 85 63 86 40 87 41 88 49 89
REMARK SMILES IDX 42 90 44 91 50 92 43 93 45 94 46 95 47 96 48 97
REMARK H PARENT 6 7 82 17 86 25 11 31 70 50 38 61
REMARK Flexibility Score: inf
ROOT
ATOM      1  C   UNL     1      -4.639  -4.920  -1.828  1.00  0.00     0.023 C 
ENDROOT
BRANCH   1   2
ATOM      2  C   UNL     1      -3.759  -5.239  -0.616  1.00  0.00     0.023 C 
BRANCH   2   3
ATOM      3  C   UNL     1      -2.527  -6.090  -0.913  1.00  0.00     0.116 C 
BRANCH   3   4
ATOM      4  N   UNL     1      -1.665  -5.494  -1.915  1.00  0.00    -0.356 N 
ATOM      5  C   UNL     1      -0.383  -5.043  -1.817  1.00  0.00     0.225 C 
ATOM      6  O   UNL     1       0.214  -4.811  -2.866  1.00  0.00    -0.275 OA
ATOM      7  H   UNL     1      -2.070  -5.399  -2.807  1.00  0.00     0.163 HD
BRANCH   5   8
ATOM      8  C   UNL     1       0.266  -4.940  -0.447  1.00  0.00     0.102 C 
ATOM      9  C   UNL     1       1.255  -2.669  -1.263  1.00  0.00     0.032 C 
ATOM     10  C   UNL     1       1.181  -3.723  -0.164  1.00  0.00     0.096 C 
ATOM     11  N   UNL     1       2.500  -4.275   0.150  1.00  0.00    -0.321 N 
ATOM     12  C   UNL     1       1.155  -6.166  -0.211  1.00  0.00     0.037 C 
ATOM     13  C   UNL     1       2.570  -5.636  -0.355  1.00  0.00     0.122 C 
BRANCH  11  14
ATOM     14  C   UNL     1       3.611  -3.714   0.700  1.00  0.00     0.318 C 
ATOM     15  O   UNL     1       4.690  -4.319   0.716  1.00  0.00    -0.249 OA
ATOM     16  N   UNL     1       3.628  -2.495   1.271  1.00  0.00    -0.329 N 
ATOM     17  H   UNL     1       4.544  -2.220   1.506  1.00  0.00     0.165 HD
BRANCH  16  18
ATOM     18  C   UNL     1       2.654  -1.471   1.635  1.00  0.00     0.147 C 
ATOM     19  C   UNL     1       2.739  -0.247   0.702  1.00  0.00     0.092 C 
ATOM     20  C   UNL     1       2.857  -0.855   3.038  1.00  0.00     0.207 C 
ATOM     21  C   UNL     1       2.848   0.969   1.609  1.00  0.00     0.264 C 
ATOM     22  N   UNL     1       3.533   0.426   2.774  1.00  0.00    -0.331 N 
ATOM     23  C   UNL     1       3.644  -1.634   4.085  1.00  0.00     0.067 C 
ATOM     24  C   UNL     1       3.486   1.295   3.945  1.00  0.00     0.262 C 
ATOM     25  H   UNL     1       4.530   0.325   2.586  1.00  0.00     0.348 HD
ATOM     26  C   UNL     1       3.711  -0.807   5.376  1.00  0.00     0.012 C 
ATOM     27  C   UNL     1       4.215   0.617   5.111  1.00  0.00     0.062 C 
ENDBRANCH  16  18
ENDBRANCH  11  14
ENDBRANCH   5   8
ENDBRANCH   3   4
ENDBRANCH   2   3
ENDBRANCH   1   2
BRANCH   1  28
ATOM     28  C   UNL     1      -4.985  -6.103  -2.726  1.00  0.00     0.116 C 
BRANCH  28  29
ATOM     29  N   UNL     1      -5.664  -7.178  -2.019  1.00  0.00    -0.352 N 
ATOM     30  C   UNL     1      -6.758  -7.911  -2.414  1.00  0.00     0.251 C 
ATOM     31  H   UNL     1      -5.289  -7.412  -1.139  1.00  0.00     0.163 HD
ATOM     32  O   UNL     1      -7.271  -8.711  -1.636  1.00  0.00    -0.269 OA
BRANCH  30  33
ATOM     33  C   UNL     1      -7.332  -7.704  -3.760  1.00  0.00     0.039 A 
ATOM     34  C   UNL     1      -8.712  -7.524  -3.882  1.00  0.00     0.014 A 
ATOM     35  C   UNL     1      -6.514  -7.660  -4.893  1.00  0.00     0.014 A 
ATOM     36  C   UNL     1      -9.264  -7.234  -5.131  1.00  0.00     0.010 A 
ATOM     37  C   UNL     1      -7.057  -7.297  -6.123  1.00  0.00     0.010 A 
ATOM     38  C   UNL     1      -8.437  -7.082  -6.257  1.00  0.00    -0.014 A 
BRANCH  38  39
ATOM     39  C   UNL     1      -8.997  -6.681  -7.574  1.00  0.00     0.031 A 
ATOM     40  C   UNL     1      -8.886  -7.601  -8.760  1.00  0.00     0.074 A 
ATOM     41  C   UNL     1      -9.532  -5.453  -7.723  1.00  0.00     0.049 A 
ATOM     42  N   UNL     1      -9.274  -7.404  -9.994  1.00  0.00    -0.248 NA
ATOM     43  C   UNL     1      -8.231  -8.900  -8.539  1.00  0.00     0.031 C 
ATOM     44  C   UNL     1      -9.625  -4.437  -6.672  1.00  0.00     0.029 A 
ATOM     45  N   UNL     1     -10.075  -4.838  -8.824  1.00  0.00    -0.354 N 
ATOM     46  C   UNL     1      -8.882  -8.534 -10.701  1.00  0.00     0.074 A 
ATOM     47  C   UNL     1      -8.194  -9.398  -9.767  1.00  0.00     0.031 C 
ATOM     48  C   UNL     1     -10.194  -3.331  -7.176  1.00  0.00     0.029 A 
ATOM     49  C   UNL     1     -10.479  -3.544  -8.592  1.00  0.00     0.049 A 
ATOM     50  H   UNL     1     -10.168  -5.282  -9.698  1.00  0.00     0.167 HD
ATOM     51  C   UNL     1      -9.099  -8.840 -12.003  1.00  0.00     0.034 A 
ATOM     52  C   UNL     1     -11.010  -2.627  -9.425  1.00  0.00     0.034 A 
ATOM     53  C   UNL     1      -9.817  -7.996 -12.920  1.00  0.00     0.049 A 
ATOM     54  C   UNL     1     -11.273  -3.006 -10.858  1.00  0.00     0.074 A 
ATOM     55  C   UNL     1     -10.168  -8.257 -14.233  1.00  0.00     0.029 A 
ATOM     56  N   UNL     1     -10.284  -6.724 -12.627  1.00  0.00    -0.354 N 
ATOM     57  N   UNL     1     -11.043  -4.145 -11.466  1.00  0.00    -0.248 NA
ATOM     58  C   UNL     1     -11.901  -1.987 -11.711  1.00  0.00     0.031 C 
ATOM     59  C   UNL     1     -10.822  -7.131 -14.742  1.00  0.00     0.029 A 
ATOM     60  C   UNL     1     -10.909  -6.182 -13.736  1.00  0.00     0.049 A 
ATOM     61  H   UNL     1     -10.186  -6.274 -11.757  1.00  0.00     0.167 HD
ATOM     62  C   UNL     1     -11.531  -3.992 -12.759  1.00  0.00     0.074 A 
ATOM     63  C   UNL     1     -12.089  -2.658 -12.839  1.00  0.00     0.031 C 
ATOM     64  C   UNL     1     -11.506  -4.872 -13.790  1.00  0.00     0.034 A 
BRANCH  51  65
ATOM     65  C   UNL     1      -8.594 -10.169 -12.504  1.00  0.00     0.023 A 
ATOM     66  C   UNL     1      -9.221 -11.358 -12.076  1.00  0.00     0.012 A 
ATOM     67  C   UNL     1      -7.545 -10.241 -13.441  1.00  0.00     0.148 A 
ATOM     68  C   UNL     1      -8.788 -12.598 -12.543  1.00  0.00     0.002 A 
ATOM     69  C   UNL     1      -7.150 -11.478 -13.937  1.00  0.00     0.091 A 
ATOM     70  F   UNL     1      -6.948  -9.102 -13.821  1.00  0.00    -0.205 F 
ATOM     71  C   UNL     1      -7.761 -12.657 -13.480  1.00  0.00     0.022 A 
BRANCH  69  72
ATOM     72  S   UNL     1      -5.894 -11.656 -15.209  1.00  0.00     0.127 S 
ATOM     73  O   UNL     1      -4.796 -12.260 -14.455  1.00  0.00    -0.237 OA
ATOM     74  O   UNL     1      -6.546 -12.555 -16.161  1.00  0.00    -0.237 OA
ATOM     75  O   UNL     1      -5.640 -10.315 -15.715  1.00  0.00    -0.744 OA
ENDBRANCH  69  72
ENDBRANCH  51  65
BRANCH  52  76
ATOM     76  C   UNL     1     -11.388  -1.280  -8.909  1.00  0.00     0.023 A 
ATOM     77  C   UNL     1     -12.749  -0.935  -8.805  1.00  0.00     0.012 A 
ATOM     78  C   UNL     1     -10.411  -0.351  -8.501  1.00  0.00     0.148 A 
ATOM     79  C   UNL     1     -13.131   0.322  -8.337  1.00  0.00     0.002 A 
ATOM     80  C   UNL     1     -10.800   0.878  -7.982  1.00  0.00     0.091 A 
ATOM     81  F   UNL     1      -9.120  -0.695  -8.617  1.00  0.00    -0.205 F 
ATOM     82  C   UNL     1     -12.158   1.224  -7.917  1.00  0.00     0.022 A 
BRANCH  80  83
ATOM     83  S   UNL     1      -9.624   2.047  -7.292  1.00  0.00     0.127 S 
ATOM     84  O   UNL     1      -9.659   3.124  -8.278  1.00  0.00    -0.237 OA
ATOM     85  O   UNL     1     -10.239   2.370  -6.004  1.00  0.00    -0.237 OA
ATOM     86  O   UNL     1      -8.364   1.324  -7.189  1.00  0.00    -0.744 OA
ENDBRANCH  80  83
ENDBRANCH  52  76
BRANCH  64  87
ATOM     87  C   UNL     1     -12.134  -4.443 -15.091  1.00  0.00     0.023 A 
ATOM     88  C   UNL     1     -11.499  -3.475 -15.894  1.00  0.00     0.012 A 
ATOM     89  C   UNL     1     -13.317  -5.055 -15.552  1.00  0.00     0.148 A 
ATOM     90  C   UNL     1     -12.049  -3.098 -17.118  1.00  0.00     0.002 A 
ATOM     91  C   UNL     1     -13.831  -4.712 -16.796  1.00  0.00     0.091 A 
ATOM     92  F   UNL     1     -13.916  -5.961 -14.766  1.00  0.00    -0.205 F 
ATOM     93  C   UNL     1     -13.207  -3.724 -17.575  1.00  0.00     0.022 A 
BRANCH  91  94
ATOM     94  S   UNL     1     -15.261  -5.534 -17.508  1.00  0.00     0.127 S 
ATOM     95  O   UNL     1     -16.280  -4.490 -17.419  1.00  0.00    -0.237 OA
ATOM     96  O   UNL     1     -14.805  -5.827 -18.867  1.00  0.00    -0.237 OA
ATOM     97  O   UNL     1     -15.499  -6.712 -16.684  1.00  0.00    -0.744 OA
ENDBRANCH  91  94
ENDBRANCH  64  87
ENDBRANCH  38  39
ENDBRANCH  30  33
ENDBRANCH  28  29
ENDBRANCH   1  28
TORSDOF 16
