REMARK SMILES CCCc1nc(C[N@H+]2CCCC[C@@H]2C(=O)NCCCCNC(=O)c2ccc(-c3c4nc(c(-c5cccc(S(=O)(=O)[O-])c5F)c5ccc([nH]5)c(-c5cccc(S(=O)(=O)[O-])c5F)c5nc(c(-c6cccc(S(=O)(=O)[O-])c6F)c6ccc3[nH]6)C=C5)C=C4)cc2)cs1
REMARK SMILES IDX 18 1 17 2 16 3 14 4 15 5 13 7 8 8 9 9 10 11 12 12 11 13 7 14
REMARK SMILES IDX 6 15 4 16 5 17 88 18 87 19 3 20 2 21 1 22 19 23 20 24 21 25
REMARK SMILES IDX 22 26 23 28 24 29 25 30 86 31 26 32 85 33 27 34 28 35 29 36
REMARK SMILES IDX 79 37 30 38 84 39 78 40 80 41 31 42 83 43 77 44 76 45 32 47
REMARK SMILES IDX 64 48 44 49 63 50 45 51 48 52 62 53 81 54 46 55 47 56 61 58
REMARK SMILES IDX 82 59 49 60 33 61 34 62 42 63 35 64 37 65 43 66 36 67 38 68
REMARK SMILES IDX 39 69 40 70 41 71 65 72 66 73 74 74 67 75 69 76 75 77 68 78
REMARK SMILES IDX 70 79 71 80 72 81 73 82 50 83 51 84 59 85 52 86 54 87 60 88
REMARK SMILES IDX 53 89 55 90 56 91 57 92 58 93
REMARK H PARENT 16 6 8 10 21 27 80 46 48 57
REMARK Flexibility Score: inf
ROOT
ATOM      1  C   UNL     1      -1.476   6.395   6.838  1.00  0.00     0.023 C 
ENDROOT
BRANCH   1   2
ATOM      2  C   UNL     1      -0.579   5.450   6.040  1.00  0.00     0.116 C 
BRANCH   2   3
ATOM      3  N   UNL     1      -0.325   4.231   6.787  1.00  0.00    -0.351 N 
ATOM      4  C   UNL     1      -0.798   2.969   6.577  1.00  0.00     0.278 C 
ATOM      5  O   UNL     1      -0.488   2.092   7.391  1.00  0.00    -0.268 OA
ATOM      6  H   UNL     1       0.277   4.331   7.559  1.00  0.00     0.163 HD
BRANCH   4   7
ATOM      7  C   UNL     1      -1.648   2.618   5.335  1.00  0.00     0.274 C 
ATOM      8  N   UNL     1      -0.913   2.947   4.089  1.00  0.00    -0.320 N 
ATOM      9  C   UNL     1      -1.711   2.729   2.880  1.00  0.00     0.263 C 
ATOM     10  H   UNL     1      -0.741   3.951   4.153  1.00  0.00     0.349 HD
ATOM     11  C   UNL     1      -3.030   3.500   2.943  1.00  0.00     0.062 C 
ATOM     12  C   UNL     1      -3.035   3.274   5.429  1.00  0.00     0.076 C 
ATOM     13  C   UNL     1      -3.847   3.076   4.157  1.00  0.00     0.012 C 
BRANCH   8  14
ATOM     14  C   UNL     1       0.426   2.322   3.992  1.00  0.00     0.321 C 
BRANCH  14  15
ATOM     15  C   UNL     1       0.418   0.824   3.848  1.00  0.00     0.106 A 
ATOM     16  C   UNL     1       0.673  -1.032   2.647  1.00  0.00     0.093 A 
ATOM     17  N   UNL     1       0.654   0.282   2.591  1.00  0.00    -0.240 NA
ATOM     18  S   UNL     1       0.358  -1.699   4.200  1.00  0.00    -0.127 S 
ATOM     19  C   UNL     1       0.261  -0.118   4.848  1.00  0.00     0.096 A 
BRANCH  16  20
ATOM     20  C   UNL     1       1.012  -1.931   1.498  1.00  0.00     0.067 C 
BRANCH  20  21
ATOM     21  C   UNL     1       0.389  -1.507   0.166  1.00  0.00     0.004 C 
ATOM     22  C   UNL     1       0.954  -0.211  -0.403  1.00  0.00     0.004 C 
ENDBRANCH  20  21
ENDBRANCH  16  20
ENDBRANCH  14  15
ENDBRANCH   8  14
ENDBRANCH   4   7
ENDBRANCH   2   3
ENDBRANCH   1   2
BRANCH   1  23
ATOM     23  C   UNL     1      -0.808   7.000   8.073  1.00  0.00     0.023 C 
BRANCH  23  24
ATOM     24  C   UNL     1       0.453   7.807   7.789  1.00  0.00     0.116 C 
BRANCH  24  25
ATOM     25  N   UNL     1       0.219   8.909   6.866  1.00  0.00    -0.352 N 
ATOM     26  C   UNL     1       0.672  10.203   6.945  1.00  0.00     0.251 C 
ATOM     27  H   UNL     1      -0.337   8.698   6.081  1.00  0.00     0.163 HD
ATOM     28  O   UNL     1       0.263  11.051   6.156  1.00  0.00    -0.269 OA
BRANCH  26  29
ATOM     29  C   UNL     1       1.633  10.569   8.005  1.00  0.00     0.039 A 
ATOM     30  C   UNL     1       1.389  11.707   8.777  1.00  0.00     0.014 A 
ATOM     31  C   UNL     1       2.753   9.771   8.255  1.00  0.00     0.014 A 
ATOM     32  C   UNL     1       2.239  12.012   9.841  1.00  0.00     0.010 A 
ATOM     33  C   UNL     1       3.553  10.034   9.361  1.00  0.00     0.010 A 
ATOM     34  C   UNL     1       3.309  11.160  10.162  1.00  0.00    -0.014 A 
BRANCH  34  35
ATOM     35  C   UNL     1       4.181  11.425  11.334  1.00  0.00     0.031 A 
ATOM     36  C   UNL     1       5.648  11.700  11.138  1.00  0.00     0.074 A 
ATOM     37  C   UNL     1       3.671  11.331  12.578  1.00  0.00     0.049 A 
ATOM     38  N   UNL     1       6.575  11.901  12.038  1.00  0.00    -0.248 NA
ATOM     39  C   UNL     1       6.144  11.721   9.752  1.00  0.00     0.031 C 
ATOM     40  C   UNL     1       2.285  10.984  12.900  1.00  0.00     0.029 A 
ATOM     41  N   UNL     1       4.266  11.490  13.804  1.00  0.00    -0.354 N 
ATOM     42  C   UNL     1       7.765  12.036  11.334  1.00  0.00     0.074 A 
ATOM     43  C   UNL     1       7.450  11.857   9.933  1.00  0.00     0.031 C 
ATOM     44  C   UNL     1       2.136  10.962  14.234  1.00  0.00     0.029 A 
ATOM     45  C   UNL     1       3.417  11.266  14.863  1.00  0.00     0.049 A 
ATOM     46  H   UNL     1       5.211  11.741  13.915  1.00  0.00     0.167 HD
ATOM     47  C   UNL     1       9.004  12.315  11.805  1.00  0.00     0.034 A 
ATOM     48  C   UNL     1       3.647  11.298  16.191  1.00  0.00     0.034 A 
ATOM     49  C   UNL     1       9.303  12.542  13.192  1.00  0.00     0.049 A 
ATOM     50  C   UNL     1       5.019  11.666  16.685  1.00  0.00     0.074 A 
ATOM     51  C   UNL     1      10.505  12.924  13.761  1.00  0.00     0.029 A 
ATOM     52  N   UNL     1       8.395  12.405  14.230  1.00  0.00    -0.354 N 
ATOM     53  N   UNL     1       6.095  11.956  15.994  1.00  0.00    -0.248 NA
ATOM     54  C   UNL     1       5.201  11.752  18.142  1.00  0.00     0.031 C 
ATOM     55  C   UNL     1      10.328  12.999  15.147  1.00  0.00     0.029 A 
ATOM     56  C   UNL     1       9.009  12.688  15.438  1.00  0.00     0.049 A 
ATOM     57  H   UNL     1       7.452  12.144  14.124  1.00  0.00     0.167 HD
ATOM     58  C   UNL     1       7.069  12.293  16.928  1.00  0.00     0.074 A 
ATOM     59  C   UNL     1       6.448  12.193  18.233  1.00  0.00     0.031 C 
ATOM     60  C   UNL     1       8.364  12.640  16.724  1.00  0.00     0.034 A 
BRANCH  47  61
ATOM     61  C   UNL     1      10.120  12.452  10.802  1.00  0.00     0.023 A 
ATOM     62  C   UNL     1      10.153  13.575   9.950  1.00  0.00     0.012 A 
ATOM     63  C   UNL     1      11.162  11.507  10.740  1.00  0.00     0.148 A 
ATOM     64  C   UNL     1      11.186  13.739   9.029  1.00  0.00     0.002 A 
ATOM     65  C   UNL     1      12.213  11.701   9.850  1.00  0.00     0.091 A 
ATOM     66  F   UNL     1      11.103  10.434  11.542  1.00  0.00    -0.205 F 
ATOM     67  C   UNL     1      12.220  12.809   8.987  1.00  0.00     0.022 A 
BRANCH  65  68
ATOM     68  S   UNL     1      13.633  10.603   9.774  1.00  0.00     0.127 S 
ATOM     69  O   UNL     1      13.415   9.928   8.495  1.00  0.00    -0.237 OA
ATOM     70  O   UNL     1      14.752  11.546   9.782  1.00  0.00    -0.237 OA
ATOM     71  O   UNL     1      13.547   9.753  10.952  1.00  0.00    -0.744 OA
ENDBRANCH  65  68
ENDBRANCH  47  61
BRANCH  48  72
ATOM     72  C   UNL     1       2.530  11.049  17.146  1.00  0.00     0.023 A 
ATOM     73  C   UNL     1       2.021  12.120  17.907  1.00  0.00     0.012 A 
ATOM     74  C   UNL     1       1.954   9.772  17.287  1.00  0.00     0.148 A 
ATOM     75  C   UNL     1       0.982  11.917  18.815  1.00  0.00     0.002 A 
ATOM     76  C   UNL     1       0.882   9.588  18.154  1.00  0.00     0.091 A 
ATOM     77  F   UNL     1       2.459   8.763  16.563  1.00  0.00    -0.205 F 
ATOM     78  C   UNL     1       0.406  10.655  18.932  1.00  0.00     0.022 A 
BRANCH  76  79
ATOM     79  S   UNL     1      -0.005   8.030  18.269  1.00  0.00     0.127 S 
ATOM     80  O   UNL     1       0.423   7.539  19.576  1.00  0.00    -0.237 OA
ATOM     81  O   UNL     1      -1.399   8.470  18.201  1.00  0.00    -0.237 OA
ATOM     82  O   UNL     1       0.431   7.246  17.122  1.00  0.00    -0.744 OA
ENDBRANCH  76  79
ENDBRANCH  48  72
BRANCH  60  83
ATOM     83  C   UNL     1       9.195  12.977  17.934  1.00  0.00     0.023 A 
ATOM     84  C   UNL     1       9.611  11.951  18.806  1.00  0.00     0.012 A 
ATOM     85  C   UNL     1       9.626  14.298  18.164  1.00  0.00     0.148 A 
ATOM     86  C   UNL     1      10.416  12.241  19.907  1.00  0.00     0.002 A 
ATOM     87  C   UNL     1      10.468  14.572  19.235  1.00  0.00     0.091 A 
ATOM     88  F   UNL     1       9.204  15.263  17.334  1.00  0.00    -0.205 F 
ATOM     89  C   UNL     1      10.854  13.547  20.114  1.00  0.00     0.022 A 
BRANCH  87  90
ATOM     90  S   UNL     1      11.159  16.205  19.521  1.00  0.00     0.127 S 
ATOM     91  O   UNL     1      10.380  16.662  20.670  1.00  0.00    -0.237 OA
ATOM     92  O   UNL     1      12.560  15.904  19.815  1.00  0.00    -0.237 OA
ATOM     93  O   UNL     1      10.949  16.949  18.286  1.00  0.00    -0.744 OA
ENDBRANCH  87  90
ENDBRANCH  60  83
ENDBRANCH  34  35
ENDBRANCH  26  29
ENDBRANCH  24  25
ENDBRANCH  23  24
ENDBRANCH   1  23
TORSDOF 18
