REMARK SMILES C[C@@H](C(=O)NCCCCNC(=O)c1ccc(-c2c3nc(c(-c4cccc(S(=O)(=O)[O-])c4F)c4ccc([nH]4)c(-c4cccc(S(=O)(=O)[O-])c4F)c4nc(c(-c5cccc(S(=O)(=O)[O-])c5F)c5ccc2[nH]5)C=C4)C=C3)cc1)c1ccc(-c2cccc(OC(=O)NCCC3CCCCC3)c2)c(F)c1
REMARK SMILES IDX 3 1 4 2 5 3 2 5 1 6 76 7 77 8 100 9 78 10 98 11 79 12 99 13
REMARK SMILES IDX 80 14 81 15 97 16 82 17 84 18 83 19 85 20 86 21 87 22 88 23
REMARK SMILES IDX 89 25 90 26 91 27 92 28 96 29 93 30 95 31 94 32 6 33 7 34
REMARK SMILES IDX 8 35 9 36 10 37 11 38 12 40 13 41 14 42 75 43 15 44 74 45
REMARK SMILES IDX 16 46 17 47 18 48 68 49 19 50 73 51 67 52 69 53 20 54 72 55
REMARK SMILES IDX 66 56 65 57 21 59 53 60 33 61 52 62 34 63 37 64 51 65 70 66
REMARK SMILES IDX 35 67 36 68 50 70 71 71 38 72 22 73 23 74 31 75 24 76 26 77
REMARK SMILES IDX 32 78 25 79 27 80 28 81 29 82 30 83 54 84 55 85 63 86 56 87
REMARK SMILES IDX 58 88 64 89 57 90 59 91 60 92 61 93 62 94 39 95 40 96 48 97
REMARK SMILES IDX 41 98 43 99 49 100 42 101 44 102 45 103 46 104 47 105
REMARK H PARENT 5 4 88 24 10 39 69 58 37 69
REMARK Flexibility Score: inf
ROOT
ATOM      1  C   UNL     1       1.055  -0.960  -2.288  1.00  0.00     0.227 C 
ATOM      2  O   UNL     1       0.426  -1.748  -2.997  1.00  0.00    -0.274 OA
ATOM      3  N   UNL     1       2.409  -0.983  -2.426  1.00  0.00    -0.356 N 
ATOM      4  H   UNL     1       2.747  -1.651  -3.066  1.00  0.00     0.163 HD
ENDROOT
BRANCH   1   5
ATOM      5  C   UNL     1       0.385   0.054  -1.340  1.00  0.00     0.105 C 
ATOM      6  C   UNL     1       0.727  -0.169   0.137  1.00  0.00     0.023 C 
BRANCH   5   7
ATOM      7  C   UNL     1      -1.137   0.079  -1.455  1.00  0.00    -0.033 A 
ATOM      8  C   UNL     1      -1.826   1.298  -1.528  1.00  0.00     0.005 A 
ATOM      9  C   UNL     1      -1.882  -1.106  -1.389  1.00  0.00     0.044 A 
ATOM     10  C   UNL     1      -3.227   1.329  -1.520  1.00  0.00     0.012 A 
ATOM     11  C   UNL     1      -3.269  -1.069  -1.401  1.00  0.00     0.131 A 
ATOM     12  C   UNL     1      -3.973   0.142  -1.439  1.00  0.00     0.018 A 
ATOM     13  F   UNL     1      -3.931  -2.235  -1.332  1.00  0.00    -0.206 F 
BRANCH  12  14
ATOM     14  C   UNL     1      -5.434   0.163  -1.283  1.00  0.00    -0.012 A 
ATOM     15  C   UNL     1      -6.280   0.837  -2.173  1.00  0.00     0.009 A 
ATOM     16  C   UNL     1      -6.010  -0.506  -0.189  1.00  0.00     0.056 A 
ATOM     17  C   UNL     1      -7.665   0.832  -1.977  1.00  0.00     0.004 A 
ATOM     18  C   UNL     1      -7.384  -0.492   0.022  1.00  0.00     0.133 A 
ATOM     19  C   UNL     1      -8.218   0.169  -0.879  1.00  0.00     0.047 A 
BRANCH  18  20
ATOM     20  O   UNL     1      -8.020  -1.126   1.118  1.00  0.00    -0.410 OA
BRANCH  20  21
ATOM     21  C   UNL     1      -7.356  -1.611   2.244  1.00  0.00     0.412 C 
ATOM     22  O   UNL     1      -6.147  -1.600   2.450  1.00  0.00    -0.224 OA
ATOM     23  N   UNL     1      -8.184  -2.109   3.205  1.00  0.00    -0.321 N 
ATOM     24  H   UNL     1      -7.744  -2.461   4.012  1.00  0.00     0.167 HD
BRANCH  23  25
ATOM     25  C   UNL     1      -9.626  -2.185   3.186  1.00  0.00     0.119 C 
BRANCH  25  26
ATOM     26  C   UNL     1     -10.111  -3.635   3.215  1.00  0.00     0.025 C 
BRANCH  26  27
ATOM     27  C   UNL     1      -9.676  -4.434   4.463  1.00  0.00    -0.009 C 
ATOM     28  C   UNL     1     -10.321  -3.893   5.751  1.00  0.00     0.003 C 
ATOM     29  C   UNL     1     -10.013  -5.922   4.271  1.00  0.00     0.003 C 
ATOM     30  C   UNL     1      -9.969  -4.740   6.972  1.00  0.00     0.000 C 
ATOM     31  C   UNL     1      -9.639  -6.752   5.497  1.00  0.00     0.000 C 
ATOM     32  C   UNL     1     -10.305  -6.212   6.757  1.00  0.00     0.000 C 
ENDBRANCH  26  27
ENDBRANCH  25  26
ENDBRANCH  23  25
ENDBRANCH  20  21
ENDBRANCH  18  20
ENDBRANCH  12  14
ENDBRANCH   5   7
ENDBRANCH   1   5
BRANCH   3  33
ATOM     33  C   UNL     1       3.433  -0.186  -1.787  1.00  0.00     0.116 C 
BRANCH  33  34
ATOM     34  C   UNL     1       4.214  -1.003  -0.758  1.00  0.00     0.023 C 
BRANCH  34  35
ATOM     35  C   UNL     1       4.993  -2.185  -1.340  1.00  0.00     0.023 C 
BRANCH  35  36
ATOM     36  C   UNL     1       5.937  -1.841  -2.486  1.00  0.00     0.116 C 
BRANCH  36  37
ATOM     37  N   UNL     1       6.917  -0.827  -2.122  1.00  0.00    -0.352 N 
ATOM     38  C   UNL     1       8.281  -0.844  -2.282  1.00  0.00     0.251 C 
ATOM     39  H   UNL     1       6.550  -0.016  -1.701  1.00  0.00     0.163 HD
ATOM     40  O   UNL     1       8.971   0.040  -1.782  1.00  0.00    -0.269 OA
BRANCH  38  41
ATOM     41  C   UNL     1       8.913  -1.952  -3.029  1.00  0.00     0.039 A 
ATOM     42  C   UNL     1       9.986  -2.629  -2.446  1.00  0.00     0.014 A 
ATOM     43  C   UNL     1       8.413  -2.354  -4.271  1.00  0.00     0.014 A 
ATOM     44  C   UNL     1      10.500  -3.768  -3.068  1.00  0.00     0.010 A 
ATOM     45  C   UNL     1       8.882  -3.529  -4.854  1.00  0.00     0.010 A 
ATOM     46  C   UNL     1       9.916  -4.259  -4.248  1.00  0.00    -0.014 A 
BRANCH  46  47
ATOM     47  C   UNL     1      10.316  -5.574  -4.813  1.00  0.00     0.031 A 
ATOM     48  C   UNL     1      10.918  -5.671  -6.187  1.00  0.00     0.074 A 
ATOM     49  C   UNL     1      10.036  -6.697  -4.119  1.00  0.00     0.049 A 
ATOM     50  N   UNL     1      11.257  -6.739  -6.861  1.00  0.00    -0.248 NA
ATOM     51  C   UNL     1      11.152  -4.408  -6.908  1.00  0.00     0.031 C 
ATOM     52  C   UNL     1       9.380  -6.740  -2.808  1.00  0.00     0.029 A 
ATOM     53  N   UNL     1      10.232  -8.020  -4.431  1.00  0.00    -0.354 N 
ATOM     54  C   UNL     1      11.710  -6.286  -8.093  1.00  0.00     0.074 A 
ATOM     55  C   UNL     1      11.590  -4.844  -8.082  1.00  0.00     0.031 C 
ATOM     56  C   UNL     1       9.222  -8.019  -2.435  1.00  0.00     0.029 A 
ATOM     57  C   UNL     1       9.723  -8.889  -3.493  1.00  0.00     0.049 A 
ATOM     58  H   UNL     1      10.693  -8.319  -5.248  1.00  0.00     0.167 HD
ATOM     59  C   UNL     1      12.196  -7.005  -9.132  1.00  0.00     0.034 A 
ATOM     60  C   UNL     1       9.639 -10.235  -3.494  1.00  0.00     0.034 A 
ATOM     61  C   UNL     1      12.345  -8.436  -9.127  1.00  0.00     0.049 A 
ATOM     62  C   UNL     1      10.201 -11.002  -4.660  1.00  0.00     0.074 A 
ATOM     63  C   UNL     1      12.930  -9.239 -10.091  1.00  0.00     0.029 A 
ATOM     64  N   UNL     1      11.886  -9.280  -8.129  1.00  0.00    -0.354 N 
ATOM     65  N   UNL     1      10.800 -10.549  -5.734  1.00  0.00    -0.248 NA
ATOM     66  C   UNL     1      10.101 -12.468  -4.604  1.00  0.00     0.031 C 
ATOM     67  C   UNL     1      12.783 -10.572  -9.698  1.00  0.00     0.029 A 
ATOM     68  C   UNL     1      12.144 -10.597  -8.469  1.00  0.00     0.049 A 
ATOM     69  H   UNL     1      11.442  -8.987  -7.301  1.00  0.00     0.167 HD
ATOM     70  C   UNL     1      11.169 -11.672  -6.466  1.00  0.00     0.074 A 
ATOM     71  C   UNL     1      10.760 -12.827  -5.696  1.00  0.00     0.031 C 
ATOM     72  C   UNL     1      11.774 -11.740  -7.677  1.00  0.00     0.034 A 
BRANCH  59  73
ATOM     73  C   UNL     1      12.645  -6.266 -10.364  1.00  0.00     0.023 A 
ATOM     74  C   UNL     1      13.847  -5.531 -10.339  1.00  0.00     0.012 A 
ATOM     75  C   UNL     1      11.939  -6.399 -11.577  1.00  0.00     0.148 A 
ATOM     76  C   UNL     1      14.332  -4.927 -11.498  1.00  0.00     0.002 A 
ATOM     77  C   UNL     1      12.452  -5.832 -12.736  1.00  0.00     0.091 A 
ATOM     78  F   UNL     1      10.790  -7.089 -11.573  1.00  0.00    -0.205 F 
ATOM     79  C   UNL     1      13.643  -5.089 -12.698  1.00  0.00     0.022 A 
BRANCH  77  80
ATOM     80  S   UNL     1      11.687  -6.051 -14.347  1.00  0.00     0.127 S 
ATOM     81  O   UNL     1      11.279  -4.684 -14.668  1.00  0.00    -0.237 OA
ATOM     82  O   UNL     1      12.802  -6.559 -15.147  1.00  0.00    -0.237 OA
ATOM     83  O   UNL     1      10.594  -6.993 -14.152  1.00  0.00    -0.744 OA
ENDBRANCH  77  80
ENDBRANCH  59  73
BRANCH  60  84
ATOM     84  C   UNL     1       9.005 -10.953  -2.351  1.00  0.00     0.023 A 
ATOM     85  C   UNL     1       9.790 -11.780  -1.524  1.00  0.00     0.012 A 
ATOM     86  C   UNL     1       7.627 -10.832  -2.089  1.00  0.00     0.148 A 
ATOM     87  C   UNL     1       9.206 -12.511  -0.488  1.00  0.00     0.002 A 
ATOM     88  C   UNL     1       7.062 -11.513  -1.017  1.00  0.00     0.091 A 
ATOM     89  F   UNL     1       6.892 -10.053  -2.895  1.00  0.00    -0.205 F 
ATOM     90  C   UNL     1       7.845 -12.371  -0.229  1.00  0.00     0.022 A 
BRANCH  88  91
ATOM     91  S   UNL     1       5.349 -11.282  -0.531  1.00  0.00     0.127 S 
ATOM     92  O   UNL     1       4.745 -12.541  -0.959  1.00  0.00    -0.237 OA
ATOM     93  O   UNL     1       5.466 -11.114   0.918  1.00  0.00    -0.237 OA
ATOM     94  O   UNL     1       4.902 -10.088  -1.236  1.00  0.00    -0.744 OA
ENDBRANCH  88  91
ENDBRANCH  60  84
BRANCH  72  95
ATOM     95  C   UNL     1      12.053 -13.108  -8.243  1.00  0.00     0.023 A 
ATOM     96  C   UNL     1      10.987 -13.905  -8.707  1.00  0.00     0.012 A 
ATOM     97  C   UNL     1      13.376 -13.574  -8.382  1.00  0.00     0.148 A 
ATOM     98  C   UNL     1      11.231 -15.158  -9.267  1.00  0.00     0.002 A 
ATOM     99  C   UNL     1      13.614 -14.801  -8.989  1.00  0.00     0.091 A 
ATOM    100  F   UNL     1      14.375 -12.806  -7.922  1.00  0.00    -0.205 F 
ATOM    101  C   UNL     1      12.543 -15.600  -9.419  1.00  0.00     0.022 A 
BRANCH  99 102
ATOM    102  S   UNL     1      15.271 -15.414  -9.315  1.00  0.00     0.127 S 
ATOM    103  O   UNL     1      15.348 -16.560  -8.409  1.00  0.00    -0.237 OA
ATOM    104  O   UNL     1      15.197 -15.761 -10.734  1.00  0.00    -0.237 OA
ATOM    105  O   UNL     1      16.177 -14.316  -9.004  1.00  0.00    -0.744 OA
ENDBRANCH  99 102
ENDBRANCH  72  95
ENDBRANCH  46  47
ENDBRANCH  38  41
ENDBRANCH  36  37
ENDBRANCH  35  36
ENDBRANCH  34  35
ENDBRANCH  33  34
ENDBRANCH   3  33
TORSDOF 21
