REMARK SMILES O=C(NCCCCNC(=O)[C@H]1Sc2[nH]c(=O)sc2[C@H]2c3cc(Br)cc(Br)c3OC(=O)[C@H]21)c1ccc(-c2c3nc(c(-c4cccc(S(=O)(=O)[O-])c4F)c4ccc([nH]4)c(-c4cccc(S(=O)(=O)[O-])c4F)c4nc(c(-c5cccc(S(=O)(=O)[O-])c5F)c5ccc2[nH]5)C=C4)C=C3)cc1
REMARK SMILES IDX 4 1 3 2 1 3 2 4 32 6 33 7 94 8 34 9 93 10 35 11 36 12 37 13
REMARK SMILES IDX 87 14 38 15 92 16 86 17 88 18 39 19 91 20 85 21 84 22 40 24
REMARK SMILES IDX 72 25 52 26 71 27 53 28 56 29 70 30 89 31 54 32 55 33 69 35
REMARK SMILES IDX 90 36 57 37 41 38 42 39 50 40 43 41 45 42 51 43 44 44 46 45
REMARK SMILES IDX 47 46 48 47 49 48 73 49 74 50 82 51 75 52 77 53 83 54 76 55
REMARK SMILES IDX 78 56 79 57 80 58 81 59 58 60 59 61 67 62 60 63 62 64 68 65
REMARK SMILES IDX 61 66 63 67 64 68 65 69 66 70 5 71 6 72 7 73 8 74 9 75 10 77
REMARK SMILES IDX 11 78 12 79 31 80 13 81 19 82 29 83 14 84 18 85 20 86 28 87
REMARK SMILES IDX 30 88 15 89 17 91 21 92 27 93 16 94 22 95 25 96 23 97 24 98
REMARK SMILES IDX 26 99
REMARK H PARENT 3 5 88 23 56 34 8 76 14 90
REMARK Flexibility Score: inf
ROOT
ATOM      1  C   UNL     1       4.731  -0.598   0.662  1.00  0.00     0.116 C 
ENDROOT
BRANCH   1   2
ATOM      2  N   UNL     1       3.336  -0.882   0.397  1.00  0.00    -0.352 N 
ATOM      3  O   UNL     1       1.232  -0.783  -0.239  1.00  0.00    -0.269 OA
ATOM      4  C   UNL     1       2.272  -0.146  -0.050  1.00  0.00     0.251 C 
ATOM      5  H   UNL     1       3.099  -1.820   0.580  1.00  0.00     0.163 HD
BRANCH   4   6
ATOM      6  C   UNL     1       2.272   1.327  -0.273  1.00  0.00     0.039 A 
ATOM      7  C   UNL     1       3.374   2.167  -0.127  1.00  0.00     0.014 A 
ATOM      8  C   UNL     1       1.034   1.903  -0.627  1.00  0.00     0.014 A 
ATOM      9  C   UNL     1       3.238   3.542  -0.276  1.00  0.00     0.010 A 
ATOM     10  C   UNL     1       0.891   3.280  -0.782  1.00  0.00     0.010 A 
ATOM     11  C   UNL     1       1.994   4.100  -0.581  1.00  0.00    -0.014 A 
BRANCH  11  12
ATOM     12  C   UNL     1       1.956   5.540  -0.800  1.00  0.00     0.031 A 
ATOM     13  C   UNL     1       2.768   6.013  -1.955  1.00  0.00     0.074 A 
ATOM     14  C   UNL     1       1.223   6.406  -0.075  1.00  0.00     0.049 A 
ATOM     15  N   UNL     1       3.853   6.717  -1.926  1.00  0.00    -0.248 NA
ATOM     16  C   UNL     1       2.395   5.536  -3.292  1.00  0.00     0.031 C 
ATOM     17  C   UNL     1       0.162   6.110   0.888  1.00  0.00     0.029 A 
ATOM     18  N   UNL     1       1.213   7.768  -0.144  1.00  0.00    -0.354 N 
ATOM     19  C   UNL     1       4.188   6.952  -3.260  1.00  0.00     0.074 A 
ATOM     20  C   UNL     1       3.359   6.072  -4.041  1.00  0.00     0.031 C 
ATOM     21  C   UNL     1      -0.542   7.241   1.128  1.00  0.00     0.029 A 
ATOM     22  C   UNL     1       0.109   8.354   0.459  1.00  0.00     0.049 A 
ATOM     23  H   UNL     1       1.924   8.288  -0.583  1.00  0.00     0.167 HD
ATOM     24  C   UNL     1       4.971   8.005  -3.624  1.00  0.00     0.034 A 
ATOM     25  C   UNL     1      -0.270   9.650   0.348  1.00  0.00     0.034 A 
ATOM     26  C   UNL     1       5.697   8.538  -2.499  1.00  0.00     0.049 A 
ATOM     27  C   UNL     1       0.923  10.430  -0.049  1.00  0.00     0.074 A 
ATOM     28  C   UNL     1       6.623   8.050  -1.600  1.00  0.00     0.029 A 
ATOM     29  N   UNL     1       5.239   9.716  -1.962  1.00  0.00    -0.354 N 
ATOM     30  N   UNL     1       1.955  10.622   0.723  1.00  0.00    -0.248 NA
ATOM     31  C   UNL     1       1.134  10.704  -1.460  1.00  0.00     0.031 C 
ATOM     32  C   UNL     1       6.325   8.707  -0.370  1.00  0.00     0.029 A 
ATOM     33  C   UNL     1       5.261   9.582  -0.603  1.00  0.00     0.049 A 
ATOM     34  H   UNL     1       4.950  10.512  -2.465  1.00  0.00     0.167 HD
ATOM     35  C   UNL     1       3.041  10.600  -0.141  1.00  0.00     0.074 A 
ATOM     36  C   UNL     1       2.467  10.778  -1.472  1.00  0.00     0.031 C 
ATOM     37  C   UNL     1       4.263  10.155   0.275  1.00  0.00     0.034 A 
BRANCH  24  38
ATOM     38  C   UNL     1       4.827   8.805  -4.907  1.00  0.00     0.023 A 
ATOM     39  C   UNL     1       5.761   9.848  -5.122  1.00  0.00     0.012 A 
ATOM     40  C   UNL     1       3.691   8.791  -5.747  1.00  0.00     0.148 A 
ATOM     41  C   UNL     1       5.531  10.870  -6.049  1.00  0.00     0.002 A 
ATOM     42  C   UNL     1       3.505   9.767  -6.722  1.00  0.00     0.091 A 
ATOM     43  F   UNL     1       2.708   7.914  -5.538  1.00  0.00    -0.205 F 
ATOM     44  C   UNL     1       4.400  10.829  -6.851  1.00  0.00     0.022 A 
BRANCH  42  45
ATOM     45  S   UNL     1       2.089   9.729  -7.830  1.00  0.00     0.127 S 
ATOM     46  O   UNL     1       1.257  10.792  -7.275  1.00  0.00    -0.237 OA
ATOM     47  O   UNL     1       2.710  10.038  -9.119  1.00  0.00    -0.237 OA
ATOM     48  O   UNL     1       1.556   8.376  -7.736  1.00  0.00    -0.744 OA
ENDBRANCH  42  45
ENDBRANCH  24  38
BRANCH  25  49
ATOM     49  C   UNL     1      -1.628  10.236   0.287  1.00  0.00     0.023 A 
ATOM     50  C   UNL     1      -1.798  11.615   0.525  1.00  0.00     0.012 A 
ATOM     51  C   UNL     1      -2.695   9.523  -0.304  1.00  0.00     0.148 A 
ATOM     52  C   UNL     1      -2.973  12.273   0.144  1.00  0.00     0.002 A 
ATOM     53  C   UNL     1      -3.861  10.182  -0.680  1.00  0.00     0.091 A 
ATOM     54  F   UNL     1      -2.526   8.225  -0.583  1.00  0.00    -0.205 F 
ATOM     55  C   UNL     1      -3.998  11.560  -0.471  1.00  0.00     0.022 A 
BRANCH  53  56
ATOM     56  S   UNL     1      -5.211   9.339  -1.517  1.00  0.00     0.127 S 
ATOM     57  O   UNL     1      -6.367   9.765  -0.727  1.00  0.00    -0.237 OA
ATOM     58  O   UNL     1      -5.140   9.913  -2.857  1.00  0.00    -0.237 OA
ATOM     59  O   UNL     1      -4.912   7.916  -1.422  1.00  0.00    -0.744 OA
ENDBRANCH  53  56
ENDBRANCH  25  49
BRANCH  37  60
ATOM     60  C   UNL     1       4.492   9.956   1.753  1.00  0.00     0.023 A 
ATOM     61  C   UNL     1       3.744   9.028   2.508  1.00  0.00     0.012 A 
ATOM     62  C   UNL     1       5.612  10.566   2.345  1.00  0.00     0.148 A 
ATOM     63  C   UNL     1       4.093   8.730   3.827  1.00  0.00     0.002 A 
ATOM     64  C   UNL     1       5.989  10.226   3.638  1.00  0.00     0.091 A 
ATOM     65  F   UNL     1       6.315  11.445   1.614  1.00  0.00    -0.205 F 
ATOM     66  C   UNL     1       5.226   9.316   4.387  1.00  0.00     0.022 A 
BRANCH  64  67
ATOM     67  S   UNL     1       7.518  10.827   4.362  1.00  0.00     0.127 S 
ATOM     68  O   UNL     1       7.034  11.810   5.328  1.00  0.00    -0.237 OA
ATOM     69  O   UNL     1       8.082   9.613   4.955  1.00  0.00    -0.237 OA
ATOM     70  O   UNL     1       8.300  11.365   3.256  1.00  0.00    -0.744 OA
ENDBRANCH  64  67
ENDBRANCH  37  60
ENDBRANCH  11  12
ENDBRANCH   4   6
ENDBRANCH   1   2
BRANCH   1  71
ATOM     71  C   UNL     1       4.982  -0.112   2.092  1.00  0.00     0.023 C 
BRANCH  71  72
ATOM     72  C   UNL     1       4.528  -1.099   3.180  1.00  0.00     0.023 C 
BRANCH  72  73
ATOM     73  C   UNL     1       5.154  -2.496   3.068  1.00  0.00     0.116 C 
BRANCH  73  74
ATOM     74  N   UNL     1       6.549  -2.475   3.458  1.00  0.00    -0.355 N 
ATOM     75  C   UNL     1       7.144  -2.727   4.651  1.00  0.00     0.234 C 
ATOM     76  H   UNL     1       7.172  -2.238   2.733  1.00  0.00     0.163 HD
ATOM     77  O   UNL     1       8.199  -2.118   4.867  1.00  0.00    -0.274 OA
BRANCH  75  78
ATOM     78  C   UNL     1       6.628  -3.736   5.686  1.00  0.00     0.157 C 
ATOM     79  S   UNL     1       4.994  -3.274   6.352  1.00  0.00    -0.093 SA
ATOM     80  C   UNL     1       6.920  -5.241   5.491  1.00  0.00     0.135 C 
ATOM     81  C   UNL     1       3.996  -4.524   5.785  1.00  0.00     0.091 A 
ATOM     82  C   UNL     1       5.775  -6.175   5.013  1.00  0.00     0.082 C 
ATOM     83  C   UNL     1       8.195  -5.535   4.697  1.00  0.00     0.317 C 
ATOM     84  N   UNL     1       2.645  -4.349   5.831  1.00  0.00    -0.307 N 
ATOM     85  C   UNL     1       4.380  -5.697   5.274  1.00  0.00     0.049 A 
ATOM     86  C   UNL     1       6.092  -6.700   3.615  1.00  0.00     0.007 A 
ATOM     87  O   UNL     1       8.333  -6.884   4.434  1.00  0.00    -0.425 OA
ATOM     88  O   UNL     1       9.078  -4.741   4.419  1.00  0.00    -0.251 OA
ATOM     89  C   UNL     1       1.874  -5.400   5.407  1.00  0.00     0.305 A 
ATOM     90  H   UNL     1       2.243  -3.510   6.152  1.00  0.00     0.171 HD
ATOM     91  S   UNL     1       2.969  -6.731   5.035  1.00  0.00    -0.078 S 
ATOM     92  C   UNL     1       5.209  -6.840   2.542  1.00  0.00     0.024 A 
ATOM     93  C   UNL     1       7.411  -7.145   3.430  1.00  0.00     0.148 A 
ATOM     94  O   UNL     1       0.666  -5.442   5.293  1.00  0.00    -0.257 OA
ATOM     95  C   UNL     1       5.622  -7.477   1.365  1.00  0.00     0.019 A 
ATOM     96  C   UNL     1       7.819  -7.809   2.270  1.00  0.00     0.062 A 
ATOM     97  Br  UNL     1       4.398  -7.665  -0.065  1.00  0.00    -0.051 Br
ATOM     98  C   UNL     1       6.914  -7.982   1.230  1.00  0.00     0.035 A 
ATOM     99  Br  UNL     1       9.583  -8.467   2.072  1.00  0.00    -0.047 Br
ENDBRANCH  75  78
ENDBRANCH  73  74
ENDBRANCH  72  73
ENDBRANCH  71  72
ENDBRANCH   1  71
TORSDOF 14
