REMARK SMILES O=C(NCCCCNC(=O)c1nn(Cc2ccc(F)cc2)c2c1CN(C(=O)[C@H]1CC1(F)F)CC2)c1ccc(-c2c3nc(c(-c4cccc(S(=O)(=O)[O-])c4F)c4ccc([nH]4)c(-c4cccc(S(=O)(=O)[O-])c4F)c4nc(c(-c5cccc(S(=O)(=O)[O-])c5F)c5ccc2[nH]5)C=C4)C=C3)cc1
REMARK SMILES IDX 5 1 4 2 3 3 1 4 2 5 35 7 36 8 97 9 37 10 96 11 38 12 39 13
REMARK SMILES IDX 40 14 90 15 41 16 95 17 89 18 91 19 42 20 94 21 88 22 87 23
REMARK SMILES IDX 43 25 75 26 55 27 74 28 56 29 59 30 73 31 92 32 57 33 58 34
REMARK SMILES IDX 72 36 93 37 60 38 44 39 45 40 53 41 46 42 48 43 54 44 47 45
REMARK SMILES IDX 49 46 50 47 51 48 52 49 76 50 77 51 85 52 78 53 80 54 86 55
REMARK SMILES IDX 79 56 81 57 82 58 83 59 84 60 61 61 62 62 70 63 63 64 65 65
REMARK SMILES IDX 71 66 64 67 66 68 67 69 68 70 69 71 6 72 7 73 8 74 9 75
REMARK SMILES IDX 10 77 11 78 12 79 23 80 13 81 22 82 24 83 34 84 25 85 33 86
REMARK SMILES IDX 14 87 15 88 16 89 21 90 17 91 20 92 18 93 19 94 26 95 27 96
REMARK SMILES IDX 28 97 29 98 30 99 31 100 32 101
REMARK H PARENT 3 6 91 24 59 35 8 76
REMARK Flexibility Score: inf
ROOT
ATOM      1  C   UNL     1      19.163 -10.978  -2.207  1.00  0.00     0.023 C 
ENDROOT
BRANCH   1   2
ATOM      2  C   UNL     1      20.354 -11.767  -2.752  1.00  0.00     0.116 C 
BRANCH   2   3
ATOM      3  N   UNL     1      20.913 -11.265  -3.989  1.00  0.00    -0.352 N 
ATOM      4  O   UNL     1      22.319 -10.420  -5.462  1.00  0.00    -0.269 OA
ATOM      5  C   UNL     1      21.902 -10.371  -4.301  1.00  0.00     0.251 C 
ATOM      6  H   UNL     1      20.486 -11.655  -4.786  1.00  0.00     0.163 HD
BRANCH   5   7
ATOM      7  C   UNL     1      22.415  -9.312  -3.391  1.00  0.00     0.039 A 
ATOM      8  C   UNL     1      22.220  -9.256  -2.010  1.00  0.00     0.014 A 
ATOM      9  C   UNL     1      23.106  -8.257  -4.018  1.00  0.00     0.014 A 
ATOM     10  C   UNL     1      22.608  -8.128  -1.291  1.00  0.00     0.010 A 
ATOM     11  C   UNL     1      23.498  -7.130  -3.307  1.00  0.00     0.010 A 
ATOM     12  C   UNL     1      23.213  -7.053  -1.947  1.00  0.00    -0.014 A 
BRANCH  12  13
ATOM     13  C   UNL     1      23.746  -5.955  -1.142  1.00  0.00     0.031 A 
ATOM     14  C   UNL     1      24.920  -6.361  -0.315  1.00  0.00     0.074 A 
ATOM     15  C   UNL     1      23.328  -4.676  -1.262  1.00  0.00     0.049 A 
ATOM     16  N   UNL     1      25.041  -6.335   0.973  1.00  0.00    -0.248 NA
ATOM     17  C   UNL     1      26.043  -7.025  -1.006  1.00  0.00     0.031 C 
ATOM     18  C   UNL     1      22.385  -4.152  -2.254  1.00  0.00     0.029 A 
ATOM     19  N   UNL     1      23.762  -3.543  -0.629  1.00  0.00    -0.354 N 
ATOM     20  C   UNL     1      26.353  -6.735   1.222  1.00  0.00     0.074 A 
ATOM     21  C   UNL     1      26.839  -7.343   0.013  1.00  0.00     0.031 C 
ATOM     22  C   UNL     1      22.514  -2.809  -2.328  1.00  0.00     0.029 A 
ATOM     23  C   UNL     1      23.458  -2.365  -1.318  1.00  0.00     0.049 A 
ATOM     24  H   UNL     1      24.242  -3.556   0.231  1.00  0.00     0.167 HD
ATOM     25  C   UNL     1      27.050  -6.260   2.289  1.00  0.00     0.034 A 
ATOM     26  C   UNL     1      24.017  -1.138  -1.138  1.00  0.00     0.034 A 
ATOM     27  C   UNL     1      26.185  -5.741   3.309  1.00  0.00     0.049 A 
ATOM     28  C   UNL     1      24.658  -1.138   0.194  1.00  0.00     0.074 A 
ATOM     29  C   UNL     1      25.138  -6.247   4.052  1.00  0.00     0.029 A 
ATOM     30  N   UNL     1      26.108  -4.377   3.416  1.00  0.00    -0.354 N 
ATOM     31  N   UNL     1      24.003  -1.198   1.317  1.00  0.00    -0.248 NA
ATOM     32  C   UNL     1      26.069  -1.477   0.262  1.00  0.00     0.031 C 
ATOM     33  C   UNL     1      24.219  -5.166   4.167  1.00  0.00     0.029 A 
ATOM     34  C   UNL     1      24.789  -4.047   3.557  1.00  0.00     0.049 A 
ATOM     35  H   UNL     1      26.865  -3.748   3.394  1.00  0.00     0.167 HD
ATOM     36  C   UNL     1      24.782  -2.023   2.112  1.00  0.00     0.074 A 
ATOM     37  C   UNL     1      26.086  -2.073   1.455  1.00  0.00     0.031 C 
ATOM     38  C   UNL     1      24.211  -2.820   3.058  1.00  0.00     0.034 A 
BRANCH  25  39
ATOM     39  C   UNL     1      28.515  -5.899   2.224  1.00  0.00     0.023 A 
ATOM     40  C   UNL     1      29.187  -5.621   3.433  1.00  0.00     0.012 A 
ATOM     41  C   UNL     1      29.189  -5.562   1.026  1.00  0.00     0.148 A 
ATOM     42  C   UNL     1      30.458  -5.032   3.444  1.00  0.00     0.002 A 
ATOM     43  C   UNL     1      30.491  -5.082   1.040  1.00  0.00     0.091 A 
ATOM     44  F   UNL     1      28.526  -5.559  -0.135  1.00  0.00    -0.205 F 
ATOM     45  C   UNL     1      31.120  -4.784   2.247  1.00  0.00     0.022 A 
BRANCH  43  46
ATOM     46  S   UNL     1      31.410  -4.836  -0.483  1.00  0.00     0.127 S 
ATOM     47  O   UNL     1      31.444  -3.380  -0.575  1.00  0.00    -0.237 OA
ATOM     48  O   UNL     1      32.690  -5.468  -0.161  1.00  0.00    -0.237 OA
ATOM     49  O   UNL     1      30.648  -5.532  -1.513  1.00  0.00    -0.744 OA
ENDBRANCH  43  46
ENDBRANCH  25  39
BRANCH  26  50
ATOM     50  C   UNL     1      24.333  -0.064  -2.121  1.00  0.00     0.023 A 
ATOM     51  C   UNL     1      24.680   1.224  -1.652  1.00  0.00     0.012 A 
ATOM     52  C   UNL     1      24.613  -0.369  -3.470  1.00  0.00     0.148 A 
ATOM     53  C   UNL     1      25.331   2.150  -2.480  1.00  0.00     0.002 A 
ATOM     54  C   UNL     1      25.257   0.555  -4.290  1.00  0.00     0.091 A 
ATOM     55  F   UNL     1      24.338  -1.597  -3.925  1.00  0.00    -0.205 F 
ATOM     56  C   UNL     1      25.632   1.810  -3.794  1.00  0.00     0.022 A 
BRANCH  54  57
ATOM     57  S   UNL     1      25.716   0.171  -5.986  1.00  0.00     0.127 S 
ATOM     58  O   UNL     1      25.205   1.337  -6.708  1.00  0.00    -0.237 OA
ATOM     59  O   UNL     1      27.171   0.096  -5.895  1.00  0.00    -0.237 OA
ATOM     60  O   UNL     1      25.037  -1.077  -6.309  1.00  0.00    -0.744 OA
ENDBRANCH  54  57
ENDBRANCH  26  50
BRANCH  38  61
ATOM     61  C   UNL     1      22.780  -2.566   3.451  1.00  0.00     0.023 A 
ATOM     62  C   UNL     1      21.697  -2.744   2.566  1.00  0.00     0.012 A 
ATOM     63  C   UNL     1      22.524  -2.362   4.816  1.00  0.00     0.148 A 
ATOM     64  C   UNL     1      20.382  -2.721   3.042  1.00  0.00     0.002 A 
ATOM     65  C   UNL     1      21.223  -2.405   5.294  1.00  0.00     0.091 A 
ATOM     66  F   UNL     1      23.571  -2.181   5.635  1.00  0.00    -0.205 F 
ATOM     67  C   UNL     1      20.147  -2.575   4.409  1.00  0.00     0.022 A 
BRANCH  65  68
ATOM     68  S   UNL     1      20.879  -2.391   7.054  1.00  0.00     0.127 S 
ATOM     69  O   UNL     1      20.312  -1.057   7.243  1.00  0.00    -0.237 OA
ATOM     70  O   UNL     1      19.922  -3.490   7.193  1.00  0.00    -0.237 OA
ATOM     71  O   UNL     1      22.156  -2.627   7.716  1.00  0.00    -0.744 OA
ENDBRANCH  65  68
ENDBRANCH  38  61
ENDBRANCH  12  13
ENDBRANCH   5   7
ENDBRANCH   2   3
ENDBRANCH   1   2
BRANCH   1  72
ATOM     72  C   UNL     1      17.979 -10.817  -3.165  1.00  0.00     0.023 C 
BRANCH  72  73
ATOM     73  C   UNL     1      17.373 -12.111  -3.713  1.00  0.00     0.116 C 
BRANCH  73  74
ATOM     74  N   UNL     1      16.705 -12.895  -2.683  1.00  0.00    -0.351 N 
ATOM     75  C   UNL     1      15.382 -13.283  -2.600  1.00  0.00     0.272 C 
ATOM     76  H   UNL     1      17.279 -13.190  -1.939  1.00  0.00     0.163 HD
ATOM     77  O   UNL     1      14.981 -13.782  -1.548  1.00  0.00    -0.267 OA
BRANCH  75  78
ATOM     78  C   UNL     1      14.474 -13.053  -3.737  1.00  0.00     0.155 A 
ATOM     79  N   UNL     1      14.851 -13.224  -5.021  1.00  0.00    -0.167 NA
ATOM     80  C   UNL     1      13.101 -12.684  -3.674  1.00  0.00     0.026 A 
ATOM     81  N   UNL     1      13.800 -12.807  -5.758  1.00  0.00    -0.264 N 
ATOM     82  C   UNL     1      12.742 -12.439  -4.985  1.00  0.00     0.046 A 
ATOM     83  C   UNL     1      12.193 -12.470  -2.504  1.00  0.00     0.159 C 
ATOM     84  C   UNL     1      11.434 -11.876  -5.410  1.00  0.00     0.078 C 
ATOM     85  N   UNL     1      10.841 -12.122  -3.009  1.00  0.00    -0.337 N 
ATOM     86  C   UNL     1      10.790 -11.213  -4.171  1.00  0.00     0.126 C 
BRANCH  81  87
ATOM     87  C   UNL     1      13.859 -12.897  -7.211  1.00  0.00     0.180 C 
BRANCH  87  88
ATOM     88  C   UNL     1      14.789 -11.873  -7.817  1.00  0.00    -0.026 A 
ATOM     89  C   UNL     1      16.181 -12.062  -7.758  1.00  0.00     0.008 A 
ATOM     90  C   UNL     1      14.284 -10.729  -8.455  1.00  0.00     0.008 A 
ATOM     91  C   UNL     1      17.050 -11.135  -8.333  1.00  0.00     0.039 A 
ATOM     92  C   UNL     1      15.156  -9.806  -9.035  1.00  0.00     0.039 A 
ATOM     93  C   UNL     1      16.528 -10.019  -8.972  1.00  0.00     0.123 A 
ATOM     94  F   UNL     1      17.357  -9.136  -9.543  1.00  0.00    -0.207 F 
ENDBRANCH  87  88
ENDBRANCH  81  87
BRANCH  85  95
ATOM     95  C   UNL     1       9.729 -12.666  -2.374  1.00  0.00     0.232 C 
ATOM     96  O   UNL     1       9.793 -13.415  -1.419  1.00  0.00    -0.274 OA
BRANCH  95  97
ATOM     97  C   UNL     1       8.399 -12.238  -2.868  1.00  0.00     0.154 C 
ATOM     98  C   UNL     1       7.842 -12.738  -4.191  1.00  0.00     0.097 C 
ATOM     99  C   UNL     1       7.274 -13.204  -2.904  1.00  0.00     0.260 C 
ATOM    100  F   UNL     1       7.390 -14.535  -2.586  1.00  0.00    -0.206 F 
ATOM    101  F   UNL     1       5.996 -12.814  -2.570  1.00  0.00    -0.206 F 
ENDBRANCH  95  97
ENDBRANCH  85  95
ENDBRANCH  75  78
ENDBRANCH  73  74
ENDBRANCH  72  73
ENDBRANCH   1  72
TORSDOF 18
