REMARK SMILES CC(C)n1cncc1[C@@H](NC(=O)OC(C)(C)C)C(=O)NCCCCNC(=O)c1ccc(-c2c3nc(c(-c4cccc(S(=O)(=O)[O-])c4F)c4ccc([nH]4)c(-c4cccc(S(=O)(=O)[O-])c4F)c4nc(c(-c5cccc(S(=O)(=O)[O-])c5F)c5ccc2[nH]5)C=C4)C=C3)cc1
REMARK SMILES IDX 22 1 21 2 20 3 18 4 19 5 9 7 8 8 4 9 5 10 6 11 7 12 2 13
REMARK SMILES IDX 1 14 3 15 10 16 11 17 12 19 13 20 14 21 15 22 16 23 17 24
REMARK SMILES IDX 23 25 24 26 25 27 26 28 27 30 28 31 29 32 90 33 30 34 89 35
REMARK SMILES IDX 31 36 32 37 33 38 83 39 34 40 88 41 82 42 84 43 35 44 87 45
REMARK SMILES IDX 81 46 80 47 36 49 68 50 48 51 67 52 49 53 52 54 66 55 85 56
REMARK SMILES IDX 50 57 51 58 65 60 86 61 53 62 37 63 38 64 46 65 39 66 41 67
REMARK SMILES IDX 47 68 40 69 42 70 43 71 44 72 45 73 69 74 70 75 78 76 71 77
REMARK SMILES IDX 73 78 79 79 72 80 74 81 75 82 76 83 77 84 54 85 55 86 63 87
REMARK SMILES IDX 56 88 58 89 64 90 57 91 59 92 60 93 61 94 62 95
REMARK H PARENT 20 6 10 18 25 29 84 48 52 59
REMARK Flexibility Score: inf
ROOT
ATOM      1  C   UNL     1      -5.234  -0.016   1.043  1.00  0.00     0.023 C 
ENDROOT
BRANCH   1   2
ATOM      2  C   UNL     1      -4.490   1.219   0.536  1.00  0.00     0.116 C 
BRANCH   2   3
ATOM      3  N   UNL     1      -3.266   1.447   1.266  1.00  0.00    -0.354 N 
ATOM      4  C   UNL     1      -1.969   1.405   0.848  1.00  0.00     0.248 C 
ATOM      5  O   UNL     1      -1.112   1.447   1.744  1.00  0.00    -0.272 OA
ATOM      6  H   UNL     1      -3.387   1.668   2.218  1.00  0.00     0.163 HD
BRANCH   4   7
ATOM      7  C   UNL     1      -1.534   1.097  -0.627  1.00  0.00     0.223 C 
BRANCH   7   8
ATOM      8  C   UNL     1      -1.661  -0.402  -0.823  1.00  0.00     0.070 A 
ATOM      9  N   UNL     1      -0.752  -1.407  -0.539  1.00  0.00    -0.330 N 
ATOM     10  C   UNL     1      -1.442  -2.595  -0.703  1.00  0.00     0.199 A 
ATOM     11  N   UNL     1      -2.647  -2.429  -1.182  1.00  0.00    -0.245 NA
ATOM     12  C   UNL     1      -2.780  -1.084  -1.288  1.00  0.00     0.137 A 
BRANCH   9  13
ATOM     13  C   UNL     1       0.701  -1.397  -0.339  1.00  0.00     0.082 C 
ATOM     14  C   UNL     1       1.368  -0.081   0.054  1.00  0.00     0.031 C 
ATOM     15  C   UNL     1       1.172  -2.478   0.652  1.00  0.00     0.031 C 
ENDBRANCH   9  13
ENDBRANCH   7   8
BRANCH   7  16
ATOM     16  N   UNL     1      -2.215   1.681  -1.772  1.00  0.00    -0.304 N 
ATOM     17  C   UNL     1      -2.651   2.954  -1.900  1.00  0.00     0.408 C 
ATOM     18  H   UNL     1      -2.375   1.084  -2.539  1.00  0.00     0.168 HD
ATOM     19  O   UNL     1      -2.962   3.381  -3.015  1.00  0.00    -0.225 OA
BRANCH  17  20
ATOM     20  O   UNL     1      -2.847   3.559  -0.721  1.00  0.00    -0.444 OA
BRANCH  20  21
ATOM     21  C   UNL     1      -3.683   4.737  -0.646  1.00  0.00     0.106 C 
ATOM     22  C   UNL     1      -2.998   5.923  -1.309  1.00  0.00     0.056 C 
ATOM     23  C   UNL     1      -5.038   4.456  -1.301  1.00  0.00     0.056 C 
ATOM     24  C   UNL     1      -3.889   5.010   0.854  1.00  0.00     0.056 C 
ENDBRANCH  20  21
ENDBRANCH  17  20
ENDBRANCH   7  16
ENDBRANCH   4   7
ENDBRANCH   2   3
ENDBRANCH   1   2
BRANCH   1  25
ATOM     25  C   UNL     1      -6.065   0.210   2.313  1.00  0.00     0.023 C 
BRANCH  25  26
ATOM     26  C   UNL     1      -7.221   1.196   2.161  1.00  0.00     0.116 C 
BRANCH  26  27
ATOM     27  N   UNL     1      -8.205   0.794   1.145  1.00  0.00    -0.352 N 
ATOM     28  C   UNL     1      -9.282   1.522   0.657  1.00  0.00     0.251 C 
ATOM     29  H   UNL     1      -8.085  -0.105   0.763  1.00  0.00     0.163 HD
ATOM     30  O   UNL     1     -10.240   0.964   0.135  1.00  0.00    -0.269 OA
BRANCH  28  31
ATOM     31  C   UNL     1      -9.223   2.994   0.727  1.00  0.00     0.039 A 
ATOM     32  C   UNL     1     -10.320   3.812   1.017  1.00  0.00     0.014 A 
ATOM     33  C   UNL     1      -7.977   3.553   0.499  1.00  0.00     0.014 A 
ATOM     34  C   UNL     1     -10.121   5.194   1.126  1.00  0.00     0.010 A 
ATOM     35  C   UNL     1      -7.751   4.857   0.826  1.00  0.00     0.010 A 
ATOM     36  C   UNL     1      -8.823   5.708   1.021  1.00  0.00    -0.014 A 
BRANCH  36  37
ATOM     37  C   UNL     1      -8.470   7.102   1.261  1.00  0.00     0.031 A 
ATOM     38  C   UNL     1      -8.774   7.559   2.637  1.00  0.00     0.074 A 
ATOM     39  C   UNL     1      -7.657   7.789   0.422  1.00  0.00     0.049 A 
ATOM     40  N   UNL     1      -9.664   8.429   2.981  1.00  0.00    -0.248 NA
ATOM     41  C   UNL     1      -8.162   6.851   3.773  1.00  0.00     0.031 C 
ATOM     42  C   UNL     1      -7.064   7.333  -0.841  1.00  0.00     0.029 A 
ATOM     43  N   UNL     1      -7.048   8.992   0.598  1.00  0.00    -0.354 N 
ATOM     44  C   UNL     1      -9.514   8.578   4.356  1.00  0.00     0.074 A 
ATOM     45  C   UNL     1      -8.796   7.417   4.803  1.00  0.00     0.031 C 
ATOM     46  C   UNL     1      -5.991   8.099  -1.149  1.00  0.00     0.029 A 
ATOM     47  C   UNL     1      -5.939   9.211  -0.224  1.00  0.00     0.049 A 
ATOM     48  H   UNL     1      -7.363   9.656   1.254  1.00  0.00     0.167 HD
ATOM     49  C   UNL     1      -9.711   9.791   4.946  1.00  0.00     0.034 A 
ATOM     50  C   UNL     1      -5.049  10.235  -0.137  1.00  0.00     0.034 A 
ATOM     51  C   UNL     1     -10.389  10.697   4.045  1.00  0.00     0.049 A 
ATOM     52  C   UNL     1      -5.738  11.326   0.580  1.00  0.00     0.074 A 
ATOM     53  C   UNL     1     -11.581  10.679   3.347  1.00  0.00     0.029 A 
ATOM     54  N   UNL     1      -9.611  11.649   3.430  1.00  0.00    -0.354 N 
ATOM     55  N   UNL     1      -6.793  11.929   0.106  1.00  0.00    -0.248 NA
ATOM     56  C   UNL     1      -5.551  11.406   2.017  1.00  0.00     0.031 C 
ATOM     57  C   UNL     1     -11.271  11.255   2.078  1.00  0.00     0.029 A 
ATOM     58  C   UNL     1      -9.937  11.668   2.101  1.00  0.00     0.049 A 
ATOM     59  H   UNL     1      -8.938  12.218   3.869  1.00  0.00     0.167 HD
ATOM     60  C   UNL     1      -7.639  12.030   1.201  1.00  0.00     0.074 A 
ATOM     61  C   UNL     1      -6.780  11.796   2.365  1.00  0.00     0.031 C 
ATOM     62  C   UNL     1      -8.996  11.986   1.049  1.00  0.00     0.034 A 
BRANCH  49  63
ATOM     63  C   UNL     1      -8.940  10.315   6.144  1.00  0.00     0.023 A 
ATOM     64  C   UNL     1      -9.339  11.574   6.649  1.00  0.00     0.012 A 
ATOM     65  C   UNL     1      -7.705   9.808   6.611  1.00  0.00     0.148 A 
ATOM     66  C   UNL     1      -8.517  12.324   7.497  1.00  0.00     0.002 A 
ATOM     67  C   UNL     1      -6.924  10.524   7.511  1.00  0.00     0.091 A 
ATOM     68  F   UNL     1      -7.196   8.686   6.102  1.00  0.00    -0.205 F 
ATOM     69  C   UNL     1      -7.306  11.799   7.929  1.00  0.00     0.022 A 
BRANCH  67  70
ATOM     70  S   UNL     1      -5.365   9.873   8.129  1.00  0.00     0.127 S 
ATOM     71  O   UNL     1      -4.402  10.693   7.400  1.00  0.00    -0.237 OA
ATOM     72  O   UNL     1      -5.469  10.161   9.560  1.00  0.00    -0.237 OA
ATOM     73  O   UNL     1      -5.377   8.452   7.805  1.00  0.00    -0.744 OA
ENDBRANCH  67  70
ENDBRANCH  49  63
BRANCH  50  74
ATOM     74  C   UNL     1      -3.582  10.269  -0.353  1.00  0.00     0.023 A 
ATOM     75  C   UNL     1      -2.940  11.450  -0.772  1.00  0.00     0.012 A 
ATOM     76  C   UNL     1      -2.776   9.225   0.150  1.00  0.00     0.148 A 
ATOM     77  C   UNL     1      -1.544  11.580  -0.701  1.00  0.00     0.002 A 
ATOM     78  C   UNL     1      -1.386   9.339   0.181  1.00  0.00     0.091 A 
ATOM     79  F   UNL     1      -3.389   8.160   0.681  1.00  0.00    -0.205 F 
ATOM     80  C   UNL     1      -0.767  10.525  -0.229  1.00  0.00     0.022 A 
BRANCH  78  81
ATOM     81  S   UNL     1      -0.320   8.022   0.788  1.00  0.00     0.127 S 
ATOM     82  O   UNL     1       0.260   7.519  -0.457  1.00  0.00    -0.237 OA
ATOM     83  O   UNL     1       0.617   8.742   1.649  1.00  0.00    -0.237 OA
ATOM     84  O   UNL     1      -1.201   7.095   1.483  1.00  0.00    -0.744 OA
ENDBRANCH  78  81
ENDBRANCH  50  74
BRANCH  62  85
ATOM     85  C   UNL     1      -9.559  12.043  -0.353  1.00  0.00     0.023 A 
ATOM     86  C   UNL     1      -9.370  11.010  -1.297  1.00  0.00     0.012 A 
ATOM     87  C   UNL     1     -10.454  13.079  -0.659  1.00  0.00     0.148 A 
ATOM     88  C   UNL     1     -10.050  11.017  -2.521  1.00  0.00     0.002 A 
ATOM     89  C   UNL     1     -11.161  13.061  -1.856  1.00  0.00     0.091 A 
ATOM     90  F   UNL     1     -10.628  14.050   0.249  1.00  0.00    -0.205 F 
ATOM     91  C   UNL     1     -10.957  12.037  -2.794  1.00  0.00     0.022 A 
BRANCH  89  92
ATOM     92  S   UNL     1     -12.431  14.277  -2.209  1.00  0.00     0.127 S 
ATOM     93  O   UNL     1     -11.791  15.098  -3.234  1.00  0.00    -0.237 OA
ATOM     94  O   UNL     1     -13.535  13.445  -2.692  1.00  0.00    -0.237 OA
ATOM     95  O   UNL     1     -12.704  14.952  -0.946  1.00  0.00    -0.744 OA
ENDBRANCH  89  92
ENDBRANCH  62  85
ENDBRANCH  36  37
ENDBRANCH  28  31
ENDBRANCH  26  27
ENDBRANCH  25  26
ENDBRANCH   1  25
TORSDOF 19
