REMARK SMILES Cc1ccc(CCC(=O)N2CCC3(CC2)[C@H](C(=O)NCCCCNC(=O)c2ccc(-c4c5nc(c(-c6cccc(S(=O)(=O)[O-])c6F)c6ccc([nH]6)c(-c6cccc(S(=O)(=O)[O-])c6F)c6nc(c(-c7cccc(S(=O)(=O)[O-])c7F)c7ccc4[nH]7)C=C6)C=C5)cc2)CC(=O)N3C)cc1
REMARK SMILES IDX 21 1 20 2 19 3 17 4 18 5 16 7 8 8 9 9 10 10 11 11 15 12
REMARK SMILES IDX 12 13 14 14 13 15 93 16 90 17 91 18 94 19 92 20 7 21 6 22
REMARK SMILES IDX 5 23 1 24 2 25 3 26 96 27 4 28 95 29 22 30 23 31 24 32 25 33
REMARK SMILES IDX 26 35 27 36 28 37 89 38 29 39 88 40 30 41 31 42 32 43 82 44
REMARK SMILES IDX 33 45 87 46 81 47 83 48 34 49 86 50 80 51 79 52 35 54 67 55
REMARK SMILES IDX 47 56 66 57 48 58 51 59 65 60 84 61 49 62 50 63 64 65 85 66
REMARK SMILES IDX 52 67 36 68 37 69 45 70 38 71 40 72 46 73 39 74 41 75 42 76
REMARK SMILES IDX 43 77 44 78 68 79 69 80 77 81 70 82 72 83 78 84 71 85 73 86
REMARK SMILES IDX 74 87 75 88 76 89 53 90 54 91 62 92 55 93 57 94 63 95 56 96
REMARK SMILES IDX 58 97 59 98 60 99 61 100
REMARK H PARENT 19 6 24 34 83 53 51 64
REMARK Flexibility Score: inf
ROOT
ATOM      1  C   UNL     1       0.935  -5.548  -4.048  1.00  0.00     0.023 C 
ENDROOT
BRANCH   1   2
ATOM      2  C   UNL     1       2.127  -4.657  -4.461  1.00  0.00     0.116 C 
BRANCH   2   3
ATOM      3  N   UNL     1       1.814  -3.366  -5.066  1.00  0.00    -0.356 N 
ATOM      4  C   UNL     1       1.657  -2.097  -4.606  1.00  0.00     0.226 C 
ATOM      5  O   UNL     1       1.474  -1.220  -5.460  1.00  0.00    -0.275 OA
ATOM      6  H   UNL     1       1.686  -3.430  -6.040  1.00  0.00     0.163 HD
BRANCH   4   7
ATOM      7  C   UNL     1       1.670  -1.677  -3.130  1.00  0.00     0.113 C 
ATOM      8  C   UNL     1      -3.385  -1.793  -1.310  1.00  0.00     0.222 C 
ATOM      9  O   UNL     1      -4.395  -2.406  -1.664  1.00  0.00    -0.275 OA
ATOM     10  N   UNL     1      -2.145  -2.398  -1.312  1.00  0.00    -0.343 N 
ATOM     11  C   UNL     1      -1.773  -3.380  -2.304  1.00  0.00     0.122 C 
ATOM     12  C   UNL     1      -1.096  -2.139  -0.374  1.00  0.00     0.122 C 
ATOM     13  C   UNL     1      -0.551  -2.825  -3.020  1.00  0.00     0.051 C 
ATOM     14  C   UNL     1       0.132  -1.515  -1.051  1.00  0.00     0.051 C 
ATOM     15  C   UNL     1       0.696  -2.425  -2.168  1.00  0.00     0.058 C 
ATOM     16  N   UNL     1       1.648  -3.379  -1.532  1.00  0.00    -0.339 N 
ATOM     17  C   UNL     1       3.073  -1.795  -2.568  1.00  0.00     0.116 C 
ATOM     18  C   UNL     1       2.985  -2.965  -1.646  1.00  0.00     0.223 C 
ATOM     19  C   UNL     1       1.361  -4.393  -0.528  1.00  0.00     0.147 C 
ATOM     20  O   UNL     1       3.949  -3.444  -1.069  1.00  0.00    -0.275 OA
BRANCH   8  21
ATOM     21  C   UNL     1      -3.446  -0.270  -1.111  1.00  0.00     0.105 C 
BRANCH  21  22
ATOM     22  C   UNL     1      -3.327   0.360   0.291  1.00  0.00     0.045 C 
BRANCH  22  23
ATOM     23  C   UNL     1      -1.930   0.826   0.677  1.00  0.00    -0.047 A 
ATOM     24  C   UNL     1       2.350   0.952   0.867  1.00  0.00     0.044 C 
ATOM     25  C   UNL     1       0.856   1.089   0.961  1.00  0.00    -0.051 A 
ATOM     26  C   UNL     1       0.123   0.336   1.883  1.00  0.00     0.004 A 
ATOM     27  C   UNL     1       0.167   1.855   0.013  1.00  0.00     0.004 A 
ATOM     28  C   UNL     1      -1.269   0.247   1.772  1.00  0.00     0.004 A 
ATOM     29  C   UNL     1      -1.218   1.720  -0.133  1.00  0.00     0.004 A 
ENDBRANCH  22  23
ENDBRANCH  21  22
ENDBRANCH   8  21
ENDBRANCH   4   7
ENDBRANCH   2   3
ENDBRANCH   1   2
BRANCH   1  30
ATOM     30  C   UNL     1      -0.305  -5.629  -4.967  1.00  0.00     0.023 C 
BRANCH  30  31
ATOM     31  C   UNL     1      -0.263  -6.622  -6.113  1.00  0.00     0.116 C 
BRANCH  31  32
ATOM     32  N   UNL     1      -0.057  -7.982  -5.629  1.00  0.00    -0.352 N 
ATOM     33  C   UNL     1       0.651  -9.058  -6.142  1.00  0.00     0.251 C 
ATOM     34  H   UNL     1      -0.506  -8.173  -4.774  1.00  0.00     0.163 HD
ATOM     35  O   UNL     1       0.242 -10.175  -5.902  1.00  0.00    -0.269 OA
BRANCH  33  36
ATOM     36  C   UNL     1       1.893  -8.823  -6.915  1.00  0.00     0.039 A 
ATOM     37  C   UNL     1       2.699  -9.855  -7.400  1.00  0.00     0.014 A 
ATOM     38  C   UNL     1       2.356  -7.526  -7.010  1.00  0.00     0.014 A 
ATOM     39  C   UNL     1       3.994  -9.541  -7.820  1.00  0.00     0.010 A 
ATOM     40  C   UNL     1       3.422  -7.188  -7.758  1.00  0.00     0.010 A 
ATOM     41  C   UNL     1       4.343  -8.196  -7.918  1.00  0.00    -0.014 A 
BRANCH  41  42
ATOM     42  C   UNL     1       5.651  -7.625  -8.115  1.00  0.00     0.031 A 
ATOM     43  C   UNL     1       6.207  -7.680  -9.455  1.00  0.00     0.074 A 
ATOM     44  C   UNL     1       6.106  -6.804  -7.138  1.00  0.00     0.049 A 
ATOM     45  N   UNL     1       7.450  -7.530  -9.717  1.00  0.00    -0.248 NA
ATOM     46  C   UNL     1       5.376  -7.958 -10.620  1.00  0.00     0.031 C 
ATOM     47  C   UNL     1       7.057  -5.707  -7.234  1.00  0.00     0.029 A 
ATOM     48  N   UNL     1       5.753  -6.759  -5.800  1.00  0.00    -0.354 N 
ATOM     49  C   UNL     1       7.540  -7.370 -11.080  1.00  0.00     0.074 A 
ATOM     50  C   UNL     1       6.275  -7.829 -11.597  1.00  0.00     0.031 C 
ATOM     51  C   UNL     1       7.404  -5.319  -5.990  1.00  0.00     0.029 A 
ATOM     52  C   UNL     1       6.813  -6.262  -5.053  1.00  0.00     0.049 A 
ATOM     53  H   UNL     1       4.883  -7.038  -5.433  1.00  0.00     0.167 HD
ATOM     54  C   UNL     1       8.599  -6.670 -11.569  1.00  0.00     0.034 A 
ATOM     55  C   UNL     1       7.519  -7.091  -4.218  1.00  0.00     0.034 A 
ATOM     56  C   UNL     1       9.466  -6.234 -10.451  1.00  0.00     0.049 A 
ATOM     57  C   UNL     1       8.909  -7.399  -4.761  1.00  0.00     0.074 A 
ATOM     58  C   UNL     1       9.563  -5.037  -9.756  1.00  0.00     0.029 A 
ATOM     59  N   UNL     1      10.104  -7.189  -9.662  1.00  0.00    -0.354 N 
ATOM     60  N   UNL     1       9.326  -7.039  -5.945  1.00  0.00    -0.248 NA
ATOM     61  C   UNL     1       9.943  -8.118  -4.020  1.00  0.00     0.031 C 
ATOM     62  C   UNL     1      10.175  -5.306  -8.497  1.00  0.00     0.029 A 
ATOM     63  C   UNL     1      10.483  -6.655  -8.436  1.00  0.00     0.049 A 
ATOM     64  H   UNL     1      10.265  -8.120  -9.937  1.00  0.00     0.167 HD
ATOM     65  C   UNL     1      10.563  -7.560  -6.196  1.00  0.00     0.074 A 
ATOM     66  C   UNL     1      10.940  -8.159  -4.924  1.00  0.00     0.031 C 
ATOM     67  C   UNL     1      11.142  -7.501  -7.437  1.00  0.00     0.034 A 
BRANCH  54  68
ATOM     68  C   UNL     1       8.699  -6.090 -12.970  1.00  0.00     0.023 A 
ATOM     69  C   UNL     1       9.684  -5.100 -13.178  1.00  0.00     0.012 A 
ATOM     70  C   UNL     1       7.899  -6.402 -14.098  1.00  0.00     0.148 A 
ATOM     71  C   UNL     1       9.819  -4.411 -14.388  1.00  0.00     0.002 A 
ATOM     72  C   UNL     1       8.002  -5.688 -15.295  1.00  0.00     0.091 A 
ATOM     73  F   UNL     1       7.071  -7.444 -14.068  1.00  0.00    -0.205 F 
ATOM     74  C   UNL     1       8.962  -4.687 -15.442  1.00  0.00     0.022 A 
BRANCH  72  75
ATOM     75  S   UNL     1       6.906  -5.980 -16.700  1.00  0.00     0.127 S 
ATOM     76  O   UNL     1       6.372  -4.641 -16.956  1.00  0.00    -0.237 OA
ATOM     77  O   UNL     1       7.831  -6.471 -17.719  1.00  0.00    -0.237 OA
ATOM     78  O   UNL     1       5.906  -6.943 -16.253  1.00  0.00    -0.744 OA
ENDBRANCH  72  75
ENDBRANCH  54  68
BRANCH  55  79
ATOM     79  C   UNL     1       6.617  -8.059  -3.506  1.00  0.00     0.023 A 
ATOM     80  C   UNL     1       5.625  -7.484  -2.668  1.00  0.00     0.012 A 
ATOM     81  C   UNL     1       6.414  -9.363  -3.992  1.00  0.00     0.148 A 
ATOM     82  C   UNL     1       4.380  -8.095  -2.510  1.00  0.00     0.002 A 
ATOM     83  C   UNL     1       5.171  -9.973  -3.816  1.00  0.00     0.091 A 
ATOM     84  F   UNL     1       7.402  -9.962  -4.668  1.00  0.00    -0.205 F 
ATOM     85  C   UNL     1       4.136  -9.315  -3.130  1.00  0.00     0.022 A 
BRANCH  83  86
ATOM     86  S   UNL     1       4.804 -11.569  -4.561  1.00  0.00     0.127 S 
ATOM     87  O   UNL     1       5.187 -12.486  -3.491  1.00  0.00    -0.237 OA
ATOM     88  O   UNL     1       3.365 -11.487  -4.801  1.00  0.00    -0.237 OA
ATOM     89  O   UNL     1       5.612 -11.615  -5.771  1.00  0.00    -0.744 OA
ENDBRANCH  83  86
ENDBRANCH  55  79
BRANCH  67  90
ATOM     90  C   UNL     1      12.396  -8.249  -7.846  1.00  0.00     0.023 A 
ATOM     91  C   UNL     1      12.832  -9.411  -7.185  1.00  0.00     0.012 A 
ATOM     92  C   UNL     1      13.095  -7.886  -9.027  1.00  0.00     0.148 A 
ATOM     93  C   UNL     1      13.945 -10.136  -7.625  1.00  0.00     0.002 A 
ATOM     94  C   UNL     1      14.108  -8.688  -9.537  1.00  0.00     0.091 A 
ATOM     95  F   UNL     1      12.797  -6.741  -9.659  1.00  0.00    -0.205 F 
ATOM     96  C   UNL     1      14.566  -9.791  -8.818  1.00  0.00     0.022 A 
BRANCH  94  97
ATOM     97  S   UNL     1      14.734  -8.438 -11.204  1.00  0.00     0.127 S 
ATOM     98  O   UNL     1      15.940  -7.652 -10.960  1.00  0.00    -0.237 OA
ATOM     99  O   UNL     1      14.979  -9.810 -11.653  1.00  0.00    -0.237 OA
ATOM    100  O   UNL     1      13.659  -7.762 -11.918  1.00  0.00    -0.744 OA
ENDBRANCH  94  97
ENDBRANCH  67  90
ENDBRANCH  41  42
ENDBRANCH  33  36
ENDBRANCH  31  32
ENDBRANCH  30  31
ENDBRANCH   1  30
TORSDOF 17
