REMARK SMILES CC[C@@](C)([NH2+]CC(=O)N[C@@H](C)c1ccc(F)cc1)C(=O)NCCCCNC(=O)c1ccc(-c2c3nc(c(-c4cccc(S(=O)(=O)[O-])c4F)c4ccc([nH]4)c(-c4cccc(S(=O)(=O)[O-])c4F)c4nc(c(-c5cccc(S(=O)(=O)[O-])c5F)c5ccc2[nH]5)C=C4)C=C3)cc1
REMARK SMILES IDX 22 1 21 2 19 3 20 4 3 6 4 7 2 8 1 9 5 10 6 13 7 14 8 15 9 16
REMARK SMILES IDX 10 18 11 19 12 20 13 21 18 22 14 23 17 24 15 25 16 26 23 27
REMARK SMILES IDX 24 28 25 29 26 30 27 31 28 33 29 34 30 35 91 36 31 37 90 38
REMARK SMILES IDX 32 39 33 40 34 41 84 42 35 43 89 44 83 45 85 46 36 47 88 48
REMARK SMILES IDX 82 49 81 50 37 52 69 53 49 54 68 55 50 56 53 57 67 58 86 59
REMARK SMILES IDX 51 60 52 61 66 63 87 64 54 65 38 66 39 67 47 68 40 69 42 70
REMARK SMILES IDX 48 71 41 72 43 73 44 74 45 75 46 76 70 77 71 78 79 79 72 80
REMARK SMILES IDX 74 81 80 82 73 83 75 84 76 85 77 86 78 87 55 88 56 89 64 90
REMARK SMILES IDX 57 91 59 92 65 93 58 94 60 95 61 96 62 97 63 98
REMARK H PARENT 21 5 5 11 5 12 9 17 26 32 85 51 53 62
REMARK Flexibility Score: inf
ROOT
ATOM      1  C   UNL     1       3.355   4.387   0.252  1.00  0.00     0.116 C 
ENDROOT
BRANCH   1   2
ATOM      2  N   UNL     1       2.784   3.316   1.081  1.00  0.00    -0.351 N 
ATOM      3  C   UNL     1       2.082   2.261   0.520  1.00  0.00     0.281 C 
ATOM      4  O   UNL     1       2.719   1.343  -0.003  1.00  0.00    -0.268 OA
ATOM      5  H   UNL     1       2.903   3.349   2.058  1.00  0.00     0.163 HD
BRANCH   3   6
ATOM      6  C   UNL     1       0.505   2.164   0.732  1.00  0.00     0.172 C 
ATOM      7  C   UNL     1      -0.375   1.608  -0.406  1.00  0.00     0.090 C 
BRANCH   6   8
ATOM      8  C   UNL     1       0.350   1.127   1.902  1.00  0.00     0.075 C 
ATOM      9  C   UNL     1       0.497  -0.345   1.458  1.00  0.00     0.011 C 
ENDBRANCH   6   8
BRANCH   6  10
ATOM     10  N   UNL     1      -0.099   3.455   1.097  1.00  0.00    -0.326 N 
ATOM     11  H   UNL     1       0.252   3.686   2.027  1.00  0.00     0.347 HD
ATOM     12  H   UNL     1      -1.096   3.274   0.987  1.00  0.00     0.347 HD
BRANCH  10  13
ATOM     13  C   UNL     1       0.106   4.656   0.263  1.00  0.00     0.362 C 
BRANCH  13  14
ATOM     14  C   UNL     1      -0.186   4.754  -1.256  1.00  0.00     0.275 C 
ATOM     15  O   UNL     1      -1.146   5.457  -1.614  1.00  0.00    -0.268 OA
ATOM     16  N   UNL     1       0.604   4.325  -2.290  1.00  0.00    -0.345 N 
ATOM     17  H   UNL     1       0.647   4.970  -3.033  1.00  0.00     0.164 HD
BRANCH  16  18
ATOM     18  C   UNL     1       1.402   3.117  -2.534  1.00  0.00     0.109 C 
ATOM     19  C   UNL     1       0.657   2.167  -3.487  1.00  0.00     0.036 C 
BRANCH  18  20
ATOM     20  C   UNL     1       2.817   3.317  -3.049  1.00  0.00    -0.026 A 
ATOM     21  C   UNL     1       3.257   4.508  -3.634  1.00  0.00     0.009 A 
ATOM     22  C   UNL     1       3.722   2.232  -2.969  1.00  0.00     0.009 A 
ATOM     23  C   UNL     1       4.556   4.603  -4.144  1.00  0.00     0.039 A 
ATOM     24  C   UNL     1       5.017   2.328  -3.478  1.00  0.00     0.039 A 
ATOM     25  C   UNL     1       5.419   3.515  -4.068  1.00  0.00     0.123 A 
ATOM     26  F   UNL     1       6.655   3.615  -4.572  1.00  0.00    -0.207 F 
ENDBRANCH  18  20
ENDBRANCH  16  18
ENDBRANCH  13  14
ENDBRANCH  10  13
ENDBRANCH   6  10
ENDBRANCH   3   6
ENDBRANCH   1   2
BRANCH   1  27
ATOM     27  C   UNL     1       3.445   5.733   0.989  1.00  0.00     0.023 C 
BRANCH  27  28
ATOM     28  C   UNL     1       4.784   6.450   0.839  1.00  0.00     0.023 C 
BRANCH  28  29
ATOM     29  C   UNL     1       5.186   6.810  -0.587  1.00  0.00     0.116 C 
BRANCH  29  30
ATOM     30  N   UNL     1       4.357   7.837  -1.210  1.00  0.00    -0.352 N 
ATOM     31  C   UNL     1       4.772   8.889  -2.002  1.00  0.00     0.251 C 
ATOM     32  H   UNL     1       3.389   7.771  -1.047  1.00  0.00     0.163 HD
ATOM     33  O   UNL     1       3.965   9.710  -2.431  1.00  0.00    -0.269 OA
BRANCH  31  34
ATOM     34  C   UNL     1       6.215   9.040  -2.290  1.00  0.00     0.039 A 
ATOM     35  C   UNL     1       6.857  10.232  -1.946  1.00  0.00     0.014 A 
ATOM     36  C   UNL     1       6.946   7.962  -2.793  1.00  0.00     0.014 A 
ATOM     37  C   UNL     1       8.251  10.306  -2.013  1.00  0.00     0.010 A 
ATOM     38  C   UNL     1       8.336   8.013  -2.785  1.00  0.00     0.010 A 
ATOM     39  C   UNL     1       9.005   9.179  -2.383  1.00  0.00    -0.014 A 
BRANCH  39  40
ATOM     40  C   UNL     1      10.491   9.182  -2.316  1.00  0.00     0.031 A 
ATOM     41  C   UNL     1      11.305   8.964  -3.562  1.00  0.00     0.074 A 
ATOM     42  C   UNL     1      11.106   9.275  -1.120  1.00  0.00     0.049 A 
ATOM     43  N   UNL     1      12.603   8.868  -3.690  1.00  0.00    -0.248 NA
ATOM     44  C   UNL     1      10.565   8.805  -4.825  1.00  0.00     0.031 C 
ATOM     45  C   UNL     1      10.429   9.397   0.173  1.00  0.00     0.029 A 
ATOM     46  N   UNL     1      12.440   9.256  -0.791  1.00  0.00    -0.354 N 
ATOM     47  C   UNL     1      12.832   8.601  -5.034  1.00  0.00     0.074 A 
ATOM     48  C   UNL     1      11.539   8.514  -5.675  1.00  0.00     0.031 C 
ATOM     49  C   UNL     1      11.348   9.456   1.149  1.00  0.00     0.029 A 
ATOM     50  C   UNL     1      12.680   9.348   0.561  1.00  0.00     0.049 A 
ATOM     51  H   UNL     1      13.158   9.183  -1.461  1.00  0.00     0.167 HD
ATOM     52  C   UNL     1      14.013   8.477  -5.684  1.00  0.00     0.034 A 
ATOM     53  C   UNL     1      13.839   9.348   1.251  1.00  0.00     0.034 A 
ATOM     54  C   UNL     1      15.297   8.624  -5.055  1.00  0.00     0.049 A 
ATOM     55  C   UNL     1      15.140   9.267   0.499  1.00  0.00     0.074 A 
ATOM     56  C   UNL     1      16.547   8.614  -5.648  1.00  0.00     0.029 A 
ATOM     57  N   UNL     1      15.498   8.809  -3.697  1.00  0.00    -0.354 N 
ATOM     58  N   UNL     1      15.338   9.175  -0.794  1.00  0.00    -0.248 NA
ATOM     59  C   UNL     1      16.377   9.323   1.292  1.00  0.00     0.031 C 
ATOM     60  C   UNL     1      17.506   8.777  -4.645  1.00  0.00     0.029 A 
ATOM     61  C   UNL     1      16.852   8.909  -3.430  1.00  0.00     0.049 A 
ATOM     62  H   UNL     1      14.784   8.860  -3.021  1.00  0.00     0.167 HD
ATOM     63  C   UNL     1      16.717   9.193  -0.972  1.00  0.00     0.074 A 
ATOM     64  C   UNL     1      17.307   9.323   0.344  1.00  0.00     0.031 C 
ATOM     65  C   UNL     1      17.428   9.095  -2.122  1.00  0.00     0.034 A 
BRANCH  52  66
ATOM     66  C   UNL     1      13.976   8.244  -7.171  1.00  0.00     0.023 A 
ATOM     67  C   UNL     1      13.591   9.299  -8.024  1.00  0.00     0.012 A 
ATOM     68  C   UNL     1      14.396   7.021  -7.729  1.00  0.00     0.148 A 
ATOM     69  C   UNL     1      13.598   9.133  -9.407  1.00  0.00     0.002 A 
ATOM     70  C   UNL     1      14.444   6.878  -9.111  1.00  0.00     0.091 A 
ATOM     71  F   UNL     1      14.739   6.024  -6.901  1.00  0.00    -0.205 F 
ATOM     72  C   UNL     1      14.036   7.928  -9.950  1.00  0.00     0.022 A 
BRANCH  70  73
ATOM     73  S   UNL     1      15.072   5.398  -9.913  1.00  0.00     0.127 S 
ATOM     74  O   UNL     1      13.851   4.831 -10.483  1.00  0.00    -0.237 OA
ATOM     75  O   UNL     1      16.003   5.953 -10.896  1.00  0.00    -0.237 OA
ATOM     76  O   UNL     1      15.697   4.606  -8.863  1.00  0.00    -0.744 OA
ENDBRANCH  70  73
ENDBRANCH  52  66
BRANCH  53  77
ATOM     77  C   UNL     1      13.813   9.526   2.732  1.00  0.00     0.023 A 
ATOM     78  C   UNL     1      14.240  10.750   3.282  1.00  0.00     0.012 A 
ATOM     79  C   UNL     1      13.310   8.527   3.587  1.00  0.00     0.148 A 
ATOM     80  C   UNL     1      14.182  10.971   4.659  1.00  0.00     0.002 A 
ATOM     81  C   UNL     1      13.204   8.773   4.952  1.00  0.00     0.091 A 
ATOM     82  F   UNL     1      12.919   7.365   3.045  1.00  0.00    -0.205 F 
ATOM     83  C   UNL     1      13.653   9.989   5.491  1.00  0.00     0.022 A 
BRANCH  81  84
ATOM     84  S   UNL     1      12.408   7.626   6.083  1.00  0.00     0.127 S 
ATOM     85  O   UNL     1      13.535   7.177   6.897  1.00  0.00    -0.237 OA
ATOM     86  O   UNL     1      11.456   8.497   6.775  1.00  0.00    -0.237 OA
ATOM     87  O   UNL     1      11.790   6.609   5.245  1.00  0.00    -0.744 OA
ENDBRANCH  81  84
ENDBRANCH  53  77
BRANCH  65  88
ATOM     88  C   UNL     1      18.931   9.141  -2.037  1.00  0.00     0.023 A 
ATOM     89  C   UNL     1      19.634   8.017  -1.562  1.00  0.00     0.012 A 
ATOM     90  C   UNL     1      19.647  10.240  -2.552  1.00  0.00     0.148 A 
ATOM     91  C   UNL     1      21.027   7.992  -1.587  1.00  0.00     0.002 A 
ATOM     92  C   UNL     1      21.034  10.188  -2.617  1.00  0.00     0.091 A 
ATOM     93  F   UNL     1      18.958  11.306  -2.984  1.00  0.00    -0.205 F 
ATOM     94  C   UNL     1      21.726   9.069  -2.128  1.00  0.00     0.022 A 
BRANCH  92  95
ATOM     95  S   UNL     1      22.012  11.482  -3.392  1.00  0.00     0.127 S 
ATOM     96  O   UNL     1      22.654  12.103  -2.235  1.00  0.00    -0.237 OA
ATOM     97  O   UNL     1      22.915  10.716  -4.252  1.00  0.00    -0.237 OA
ATOM     98  O   UNL     1      21.067  12.326  -4.109  1.00  0.00    -0.744 OA
ENDBRANCH  92  95
ENDBRANCH  65  88
ENDBRANCH  39  40
ENDBRANCH  31  34
ENDBRANCH  29  30
ENDBRANCH  28  29
ENDBRANCH  27  28
ENDBRANCH   1  27
TORSDOF 20
