REMARK SMILES O=C(Cn1nc(-c2ccccc2)ccc1=O)N[C@@H](C(=O)NCCCCNC(=O)c1ccc(-c2c3nc(c(-c4cccc(S(=O)(=O)[O-])c4F)c4ccc([nH]4)c(-c4cccc(S(=O)(=O)[O-])c4F)c4nc(c(-c5cccc(S(=O)(=O)[O-])c5F)c5ccc2[nH]5)C=C4)C=C3)cc1)c1ccccc1
REMARK SMILES IDX 23 1 22 2 21 3 19 4 20 5 18 7 17 8 1 9 2 10 3 12 4 13 5 14
REMARK SMILES IDX 15 15 6 16 14 17 16 18 13 19 7 20 8 21 12 22 9 23 11 24
REMARK SMILES IDX 10 25 92 26 93 27 97 28 94 29 96 30 95 31 24 32 25 33 26 34
REMARK SMILES IDX 27 35 28 37 29 38 30 39 91 40 31 41 90 42 32 43 33 44 34 45
REMARK SMILES IDX 84 46 35 47 89 48 83 49 85 50 36 51 88 52 82 53 81 54 37 56
REMARK SMILES IDX 69 57 49 58 68 59 50 60 53 61 67 62 86 63 51 64 52 65 66 67
REMARK SMILES IDX 87 68 54 69 38 70 39 71 47 72 40 73 42 74 48 75 41 76 43 77
REMARK SMILES IDX 44 78 45 79 46 80 70 81 71 82 79 83 72 84 74 85 80 86 73 87
REMARK SMILES IDX 75 88 76 89 77 90 78 91 55 92 56 93 64 94 57 95 59 96 65 97
REMARK SMILES IDX 58 98 60 99 61 100 62 101 63 102
REMARK H PARENT 21 6 17 11 26 36 85 55 53 66
REMARK Flexibility Score: inf
ROOT
ATOM      1  C   UNL     1       2.392  -2.465   2.166  1.00  0.00     0.023 C 
ENDROOT
BRANCH   1   2
ATOM      2  C   UNL     1       1.428  -1.470   2.814  1.00  0.00     0.116 C 
BRANCH   2   3
ATOM      3  N   UNL     1       2.131  -0.549   3.682  1.00  0.00    -0.354 N 
ATOM      4  C   UNL     1       2.557   0.727   3.426  1.00  0.00     0.247 C 
ATOM      5  O   UNL     1       3.213   1.277   4.315  1.00  0.00    -0.272 OA
ATOM      6  H   UNL     1       2.332  -0.888   4.584  1.00  0.00     0.163 HD
BRANCH   4   7
ATOM      7  C   UNL     1       2.180   1.425   2.084  1.00  0.00     0.202 C 
BRANCH   7   8
ATOM      8  N   UNL     1       2.829   0.766   0.953  1.00  0.00    -0.339 N 
ATOM      9  O   UNL     1       0.904   0.232  -0.177  1.00  0.00    -0.273 OA
ATOM     10  C   UNL     1       2.132   0.238  -0.113  1.00  0.00     0.242 C 
ATOM     11  H   UNL     1       3.811   0.697   0.952  1.00  0.00     0.164 HD
BRANCH  10  12
ATOM     12  C   UNL     1       3.005  -0.436  -1.172  1.00  0.00     0.248 C 
BRANCH  12  13
ATOM     13  N   UNL     1       3.792   0.464  -2.002  1.00  0.00    -0.220 N 
ATOM     14  N   UNL     1       3.650   1.815  -1.801  1.00  0.00    -0.169 NA
ATOM     15  C   UNL     1       4.585  -0.088  -2.999  1.00  0.00     0.267 A 
ATOM     16  C   UNL     1       4.269   2.611  -2.609  1.00  0.00     0.091 A 
ATOM     17  C   UNL     1       5.285   0.871  -3.882  1.00  0.00     0.075 A 
ATOM     18  O   UNL     1       4.731  -1.292  -3.192  1.00  0.00    -0.268 OA
ATOM     19  C   UNL     1       5.138   2.187  -3.721  1.00  0.00     0.036 A 
BRANCH  16  20
ATOM     20  C   UNL     1       4.115   4.062  -2.434  1.00  0.00     0.002 A 
ATOM     21  C   UNL     1       4.873   4.715  -1.461  1.00  0.00     0.010 A 
ATOM     22  C   UNL     1       3.167   4.751  -3.194  1.00  0.00     0.010 A 
ATOM     23  C   UNL     1       4.684   6.080  -1.253  1.00  0.00     0.001 A 
ATOM     24  C   UNL     1       2.982   6.116  -2.977  1.00  0.00     0.001 A 
ATOM     25  C   UNL     1       3.739   6.778  -2.008  1.00  0.00     0.000 A 
ENDBRANCH  16  20
ENDBRANCH  12  13
ENDBRANCH  10  12
ENDBRANCH   7   8
BRANCH   7  26
ATOM     26  C   UNL     1       2.509   2.915   2.117  1.00  0.00    -0.016 A 
ATOM     27  C   UNL     1       1.489   3.848   2.369  1.00  0.00     0.006 A 
ATOM     28  C   UNL     1       3.826   3.385   1.987  1.00  0.00     0.006 A 
ATOM     29  C   UNL     1       1.778   5.209   2.483  1.00  0.00     0.000 A 
ATOM     30  C   UNL     1       4.113   4.747   2.104  1.00  0.00     0.000 A 
ATOM     31  C   UNL     1       3.090   5.659   2.349  1.00  0.00     0.000 A 
ENDBRANCH   7  26
ENDBRANCH   4   7
ENDBRANCH   2   3
ENDBRANCH   1   2
BRANCH   1  32
ATOM     32  C   UNL     1       3.049  -3.444   3.144  1.00  0.00     0.023 C 
BRANCH  32  33
ATOM     33  C   UNL     1       2.083  -4.269   3.985  1.00  0.00     0.116 C 
BRANCH  33  34
ATOM     34  N   UNL     1       1.163  -5.070   3.193  1.00  0.00    -0.352 N 
ATOM     35  C   UNL     1       0.620  -6.297   3.500  1.00  0.00     0.251 C 
ATOM     36  H   UNL     1       0.893  -4.686   2.328  1.00  0.00     0.163 HD
ATOM     37  O   UNL     1      -0.064  -6.892   2.671  1.00  0.00    -0.269 OA
BRANCH  35  38
ATOM     38  C   UNL     1       0.909  -6.910   4.816  1.00  0.00     0.039 A 
ATOM     39  C   UNL     1       0.814  -6.155   5.986  1.00  0.00     0.014 A 
ATOM     40  C   UNL     1       1.328  -8.242   4.871  1.00  0.00     0.014 A 
ATOM     41  C   UNL     1       1.295  -6.677   7.181  1.00  0.00     0.010 A 
ATOM     42  C   UNL     1       1.733  -8.792   6.091  1.00  0.00     0.010 A 
ATOM     43  C   UNL     1       1.770  -7.998   7.247  1.00  0.00    -0.014 A 
BRANCH  43  44
ATOM     44  C   UNL     1       2.288  -8.514   8.541  1.00  0.00     0.031 A 
ATOM     45  C   UNL     1       3.737  -8.890   8.705  1.00  0.00     0.074 A 
ATOM     46  C   UNL     1       1.453  -8.583   9.596  1.00  0.00     0.049 A 
ATOM     47  N   UNL     1       4.366  -9.265   9.790  1.00  0.00    -0.248 NA
ATOM     48  C   UNL     1       4.592  -8.846   7.507  1.00  0.00     0.031 C 
ATOM     49  C   UNL     1       0.021  -8.278   9.553  1.00  0.00     0.029 A 
ATOM     50  N   UNL     1       1.686  -8.904  10.909  1.00  0.00    -0.354 N 
ATOM     51  C   UNL     1       5.672  -9.537   9.402  1.00  0.00     0.074 A 
ATOM     52  C   UNL     1       5.750  -9.290   7.979  1.00  0.00     0.031 C 
ATOM     53  C   UNL     1      -0.484  -8.370  10.792  1.00  0.00     0.029 A 
ATOM     54  C   UNL     1       0.575  -8.780  11.709  1.00  0.00     0.049 A 
ATOM     55  H   UNL     1       2.564  -9.195  11.246  1.00  0.00     0.167 HD
ATOM     56  C   UNL     1       6.717  -9.932  10.166  1.00  0.00     0.034 A 
ATOM     57  C   UNL     1       0.421  -8.966  13.034  1.00  0.00     0.034 A 
ATOM     58  C   UNL     1       6.657 -10.115  11.591  1.00  0.00     0.049 A 
ATOM     59  C   UNL     1       1.604  -9.367  13.864  1.00  0.00     0.074 A 
ATOM     60  C   UNL     1       7.685 -10.453  12.453  1.00  0.00     0.029 A 
ATOM     61  N   UNL     1       5.516  -9.970  12.362  1.00  0.00    -0.354 N 
ATOM     62  N   UNL     1       2.851  -9.523  13.491  1.00  0.00    -0.248 NA
ATOM     63  C   UNL     1       1.369  -9.605  15.295  1.00  0.00     0.031 C 
ATOM     64  C   UNL     1       7.165 -10.514  13.749  1.00  0.00     0.029 A 
ATOM     65  C   UNL     1       5.813 -10.213  13.691  1.00  0.00     0.049 A 
ATOM     66  H   UNL     1       4.626  -9.730  12.016  1.00  0.00     0.167 HD
ATOM     67  C   UNL     1       3.550  -9.871  14.639  1.00  0.00     0.074 A 
ATOM     68  C   UNL     1       2.594  -9.880  15.727  1.00  0.00     0.031 C 
ATOM     69  C   UNL     1       4.863 -10.175  14.771  1.00  0.00     0.034 A 
BRANCH  56  70
ATOM     70  C   UNL     1       8.048 -10.135   9.498  1.00  0.00     0.023 A 
ATOM     71  C   UNL     1       8.854  -9.013   9.223  1.00  0.00     0.012 A 
ATOM     72  C   UNL     1       8.548 -11.429   9.251  1.00  0.00     0.148 A 
ATOM     73  C   UNL     1      10.138  -9.174   8.705  1.00  0.00     0.002 A 
ATOM     74  C   UNL     1       9.839 -11.582   8.759  1.00  0.00     0.091 A 
ATOM     75  F   UNL     1       7.756 -12.479   9.511  1.00  0.00    -0.205 F 
ATOM     76  C   UNL     1      10.633 -10.457   8.483  1.00  0.00     0.022 A 
BRANCH  74  77
ATOM     77  S   UNL     1      10.594 -13.190   8.489  1.00  0.00     0.127 S 
ATOM     78  O   UNL     1      10.730 -13.210   7.032  1.00  0.00    -0.237 OA
ATOM     79  O   UNL     1      11.857 -13.062   9.217  1.00  0.00    -0.237 OA
ATOM     80  O   UNL     1       9.668 -14.169   9.038  1.00  0.00    -0.744 OA
ENDBRANCH  74  77
ENDBRANCH  56  70
BRANCH  57  81
ATOM     81  C   UNL     1      -0.906  -8.698  13.651  1.00  0.00     0.023 A 
ATOM     82  C   UNL     1      -1.091  -7.519  14.397  1.00  0.00     0.012 A 
ATOM     83  C   UNL     1      -2.002  -9.551  13.420  1.00  0.00     0.148 A 
ATOM     84  C   UNL     1      -2.348  -7.193  14.904  1.00  0.00     0.002 A 
ATOM     85  C   UNL     1      -3.261  -9.197  13.889  1.00  0.00     0.091 A 
ATOM     86  F   UNL     1      -1.795 -10.670  12.712  1.00  0.00    -0.205 F 
ATOM     87  C   UNL     1      -3.435  -8.023  14.639  1.00  0.00     0.022 A 
BRANCH  85  88
ATOM     88  S   UNL     1      -4.739 -10.138  13.495  1.00  0.00     0.127 S 
ATOM     89  O   UNL     1      -5.126 -10.649  14.807  1.00  0.00    -0.237 OA
ATOM     90  O   UNL     1      -5.618  -9.101  12.953  1.00  0.00    -0.237 OA
ATOM     91  O   UNL     1      -4.323 -11.143  12.527  1.00  0.00    -0.744 OA
ENDBRANCH  85  88
ENDBRANCH  57  81
BRANCH  69  92
ATOM     92  C   UNL     1       5.368 -10.555  16.133  1.00  0.00     0.023 A 
ATOM     93  C   UNL     1       5.176 -11.873  16.589  1.00  0.00     0.012 A 
ATOM     94  C   UNL     1       6.149  -9.661  16.890  1.00  0.00     0.148 A 
ATOM     95  C   UNL     1       5.755 -12.298  17.783  1.00  0.00     0.002 A 
ATOM     96  C   UNL     1       6.749 -10.100  18.064  1.00  0.00     0.091 A 
ATOM     97  F   UNL     1       6.311  -8.411  16.432  1.00  0.00    -0.205 F 
ATOM     98  C   UNL     1       6.550 -11.417  18.513  1.00  0.00     0.022 A 
BRANCH  96  99
ATOM     99  S   UNL     1       7.849  -9.067  19.038  1.00  0.00     0.127 S 
ATOM    100  O   UNL     1       7.104  -8.936  20.290  1.00  0.00    -0.237 OA
ATOM    101  O   UNL     1       9.051  -9.896  19.127  1.00  0.00    -0.237 OA
ATOM    102  O   UNL     1       8.015  -7.830  18.287  1.00  0.00    -0.744 OA
ENDBRANCH  96  99
ENDBRANCH  69  92
ENDBRANCH  43  44
ENDBRANCH  35  38
ENDBRANCH  33  34
ENDBRANCH  32  33
ENDBRANCH   1  32
TORSDOF 19
