REMARK SMILES C[C@H]1Cc2cc(C(=O)[C@H](Br)CC(=O)NCCCCNC(=O)c3ccc(-c4c5nc(c(-c6cccc(S(=O)(=O)[O-])c6F)c6ccc([nH]6)c(-c6cccc(S(=O)(=O)[O-])c6F)c6nc(c(-c7cccc(S(=O)(=O)[O-])c7F)c7ccc4[nH]7)C=C6)C=C5)cc3)ccc2O1
REMARK SMILES IDX 16 1 15 2 14 3 12 4 13 5 11 7 9 8 10 9 7 10 8 11 6 12 1 13
REMARK SMILES IDX 2 14 3 15 88 16 4 17 87 18 5 19 86 20 85 21 17 22 18 23
REMARK SMILES IDX 19 24 20 25 21 27 22 28 23 29 84 30 24 31 83 32 25 33 26 34
REMARK SMILES IDX 27 35 77 36 28 37 82 38 76 39 78 40 29 41 81 42 75 43 74 44
REMARK SMILES IDX 30 46 62 47 42 48 61 49 43 50 46 51 60 52 79 53 44 54 45 55
REMARK SMILES IDX 59 57 80 58 47 59 31 60 32 61 40 62 33 63 35 64 41 65 34 66
REMARK SMILES IDX 36 67 37 68 38 69 39 70 63 71 64 72 72 73 65 74 67 75 73 76
REMARK SMILES IDX 66 77 68 78 69 79 70 80 71 81 48 82 49 83 57 84 50 85 52 86
REMARK SMILES IDX 58 87 51 88 53 89 54 90 55 91 56 92
REMARK H PARENT 14 6 19 26 78 45 46 56
REMARK Flexibility Score: inf
ROOT
ATOM      1  C   UNL     1       0.588   4.823  -3.945  1.00  0.00     0.023 C 
ENDROOT
BRANCH   1   2
ATOM      2  C   UNL     1       1.902   5.441  -3.466  1.00  0.00     0.116 C 
BRANCH   2   3
ATOM      3  N   UNL     1       2.241   6.602  -4.273  1.00  0.00    -0.356 N 
ATOM      4  C   UNL     1       2.165   7.928  -3.962  1.00  0.00     0.221 C 
ATOM      5  O   UNL     1       2.296   8.766  -4.852  1.00  0.00    -0.275 OA
ATOM      6  H   UNL     1       2.574   6.401  -5.178  1.00  0.00     0.163 HD
BRANCH   4   7
ATOM      7  C   UNL     1       1.991   8.343  -2.522  1.00  0.00     0.123 C 
BRANCH   7   8
ATOM      8  C   UNL     1       0.579   8.754  -2.154  1.00  0.00     0.138 C 
ATOM      9  Br  UNL     1      -0.730   7.324  -1.999  1.00  0.00    -0.080 Br
BRANCH   8  10
ATOM     10  C   UNL     1       0.476   9.531  -0.849  1.00  0.00     0.176 C 
ATOM     11  O   UNL     1       0.072  10.698  -0.864  1.00  0.00    -0.293 OA
BRANCH  10  12
ATOM     12  C   UNL     1       0.835   8.928   0.487  1.00  0.00     0.019 A 
ATOM     13  C   UNL     1       2.494   9.570   5.696  1.00  0.00     0.053 C 
ATOM     14  C   UNL     1       1.331   8.786   5.098  1.00  0.00     0.174 C 
ATOM     15  C   UNL     1       0.426   9.667   4.221  1.00  0.00     0.084 C 
ATOM     16  O   UNL     1       1.855   7.688   4.307  1.00  0.00    -0.490 OA
ATOM     17  C   UNL     1       0.795   9.161   2.882  1.00  0.00    -0.001 A 
ATOM     18  C   UNL     1       1.550   8.013   3.016  1.00  0.00     0.123 A 
ATOM     19  C   UNL     1       0.439   9.641   1.632  1.00  0.00     0.019 A 
ATOM     20  C   UNL     1       1.921   7.265   1.924  1.00  0.00     0.047 A 
ATOM     21  C   UNL     1       1.533   7.714   0.657  1.00  0.00     0.015 A 
ENDBRANCH  10  12
ENDBRANCH   8  10
ENDBRANCH   7   8
ENDBRANCH   4   7
ENDBRANCH   2   3
ENDBRANCH   1   2
BRANCH   1  22
ATOM     22  C   UNL     1       0.730   3.939  -5.175  1.00  0.00     0.023 C 
BRANCH  22  23
ATOM     23  C   UNL     1       1.515   2.662  -4.933  1.00  0.00     0.116 C 
BRANCH  23  24
ATOM     24  N   UNL     1       0.877   1.758  -3.982  1.00  0.00    -0.352 N 
ATOM     25  C   UNL     1       0.689   0.395  -4.102  1.00  0.00     0.251 C 
ATOM     26  H   UNL     1       0.540   2.170  -3.154  1.00  0.00     0.163 HD
ATOM     27  O   UNL     1       0.065  -0.232  -3.265  1.00  0.00    -0.269 OA
BRANCH  25  28
ATOM     28  C   UNL     1       1.228  -0.260  -5.312  1.00  0.00     0.039 A 
ATOM     29  C   UNL     1       2.563  -0.053  -5.662  1.00  0.00     0.014 A 
ATOM     30  C   UNL     1       0.350  -0.912  -6.179  1.00  0.00     0.014 A 
ATOM     31  C   UNL     1       2.962  -0.303  -6.967  1.00  0.00     0.010 A 
ATOM     32  C   UNL     1       0.789  -1.257  -7.459  1.00  0.00     0.010 A 
ATOM     33  C   UNL     1       2.075  -0.891  -7.886  1.00  0.00    -0.014 A 
BRANCH  33  34
ATOM     34  C   UNL     1       2.515  -1.093  -9.291  1.00  0.00     0.031 A 
ATOM     35  C   UNL     1       1.812  -0.411 -10.437  1.00  0.00     0.074 A 
ATOM     36  C   UNL     1       3.594  -1.864  -9.529  1.00  0.00     0.049 A 
ATOM     37  N   UNL     1       2.071  -0.487 -11.717  1.00  0.00    -0.248 NA
ATOM     38  C   UNL     1       0.673   0.466 -10.113  1.00  0.00     0.031 C 
ATOM     39  C   UNL     1       4.352  -2.586  -8.504  1.00  0.00     0.029 A 
ATOM     40  N   UNL     1       4.252  -2.154 -10.695  1.00  0.00    -0.354 N 
ATOM     41  C   UNL     1       1.098   0.275 -12.353  1.00  0.00     0.074 A 
ATOM     42  C   UNL     1       0.247   0.820 -11.319  1.00  0.00     0.031 C 
ATOM     43  C   UNL     1       5.400  -3.191  -9.078  1.00  0.00     0.029 A 
ATOM     44  C   UNL     1       5.353  -2.957 -10.517  1.00  0.00     0.049 A 
ATOM     45  H   UNL     1       3.963  -1.821 -11.576  1.00  0.00     0.167 HD
ATOM     46  C   UNL     1       0.938   0.510 -13.676  1.00  0.00     0.034 A 
ATOM     47  C   UNL     1       6.225  -3.464 -11.408  1.00  0.00     0.034 A 
ATOM     48  C   UNL     1       1.830   0.033 -14.698  1.00  0.00     0.049 A 
ATOM     49  C   UNL     1       6.047  -3.156 -12.863  1.00  0.00     0.074 A 
ATOM     50  C   UNL     1       1.777   0.269 -16.061  1.00  0.00     0.029 A 
ATOM     51  N   UNL     1       2.941  -0.763 -14.472  1.00  0.00    -0.354 N 
ATOM     52  N   UNL     1       5.153  -2.386 -13.434  1.00  0.00    -0.248 NA
ATOM     53  C   UNL     1       6.996  -3.777 -13.796  1.00  0.00     0.031 C 
ATOM     54  C   UNL     1       2.858  -0.384 -16.660  1.00  0.00     0.029 A 
ATOM     55  C   UNL     1       3.583  -1.027 -15.669  1.00  0.00     0.049 A 
ATOM     56  H   UNL     1       3.230  -1.093 -13.591  1.00  0.00     0.167 HD
ATOM     57  C   UNL     1       5.430  -2.429 -14.793  1.00  0.00     0.074 A 
ATOM     58  C   UNL     1       6.593  -3.278 -14.959  1.00  0.00     0.031 C 
ATOM     59  C   UNL     1       4.763  -1.839 -15.813  1.00  0.00     0.034 A 
BRANCH  46  60
ATOM     60  C   UNL     1      -0.219   1.367 -14.112  1.00  0.00     0.023 A 
ATOM     61  C   UNL     1      -0.103   2.769 -14.042  1.00  0.00     0.012 A 
ATOM     62  C   UNL     1      -1.368   0.792 -14.688  1.00  0.00     0.148 A 
ATOM     63  C   UNL     1      -1.119   3.588 -14.535  1.00  0.00     0.002 A 
ATOM     64  C   UNL     1      -2.365   1.615 -15.201  1.00  0.00     0.091 A 
ATOM     65  F   UNL     1      -1.460  -0.545 -14.729  1.00  0.00    -0.205 F 
ATOM     66  C   UNL     1      -2.242   3.012 -15.123  1.00  0.00     0.022 A 
BRANCH  64  67
ATOM     67  S   UNL     1      -3.827   0.975 -16.027  1.00  0.00     0.127 S 
ATOM     68  O   UNL     1      -4.880   1.331 -15.077  1.00  0.00    -0.237 OA
ATOM     69  O   UNL     1      -3.840   1.746 -17.270  1.00  0.00    -0.237 OA
ATOM     70  O   UNL     1      -3.600  -0.453 -16.197  1.00  0.00    -0.744 OA
ENDBRANCH  64  67
ENDBRANCH  46  60
BRANCH  47  71
ATOM     71  C   UNL     1       7.363  -4.281 -10.912  1.00  0.00     0.023 A 
ATOM     72  C   UNL     1       8.650  -3.713 -10.873  1.00  0.00     0.012 A 
ATOM     73  C   UNL     1       7.154  -5.564 -10.371  1.00  0.00     0.148 A 
ATOM     74  C   UNL     1       9.712  -4.411 -10.298  1.00  0.00     0.002 A 
ATOM     75  C   UNL     1       8.204  -6.232  -9.755  1.00  0.00     0.091 A 
ATOM     76  F   UNL     1       5.918  -6.082 -10.429  1.00  0.00    -0.205 F 
ATOM     77  C   UNL     1       9.486  -5.661  -9.726  1.00  0.00     0.022 A 
BRANCH  75  78
ATOM     78  S   UNL     1       7.978  -7.779  -8.871  1.00  0.00     0.127 S 
ATOM     79  O   UNL     1       8.746  -8.708  -9.697  1.00  0.00    -0.237 OA
ATOM     80  O   UNL     1       8.575  -7.470  -7.571  1.00  0.00    -0.237 OA
ATOM     81  O   UNL     1       6.541  -8.008  -8.835  1.00  0.00    -0.744 OA
ENDBRANCH  75  78
ENDBRANCH  47  71
BRANCH  59  82
ATOM     82  C   UNL     1       5.259  -2.087 -17.208  1.00  0.00     0.023 A 
ATOM     83  C   UNL     1       4.904  -3.286 -17.855  1.00  0.00     0.012 A 
ATOM     84  C   UNL     1       5.975  -1.100 -17.910  1.00  0.00     0.148 A 
ATOM     85  C   UNL     1       5.264  -3.504 -19.184  1.00  0.00     0.002 A 
ATOM     86  C   UNL     1       6.305  -1.311 -19.243  1.00  0.00     0.091 A 
ATOM     87  F   UNL     1       6.312   0.026 -17.263  1.00  0.00    -0.205 F 
ATOM     88  C   UNL     1       5.953  -2.513 -19.880  1.00  0.00     0.022 A 
BRANCH  86  89
ATOM     89  S   UNL     1       7.131  -0.067 -20.241  1.00  0.00     0.127 S 
ATOM     90  O   UNL     1       8.457  -0.658 -20.415  1.00  0.00    -0.237 OA
ATOM     91  O   UNL     1       6.309  -0.044 -21.451  1.00  0.00    -0.237 OA
ATOM     92  O   UNL     1       7.094   1.163 -19.462  1.00  0.00    -0.744 OA
ENDBRANCH  86  89
ENDBRANCH  59  82
ENDBRANCH  33  34
ENDBRANCH  25  28
ENDBRANCH  23  24
ENDBRANCH  22  23
ENDBRANCH   1  22
TORSDOF 17
