REMARK SMILES CC(/C=C1\SC(=S)N(CC(=O)NCC(=O)NCCCCNC(=O)c2ccc(-c3c4nc(c(-c5cccc(S(=O)(=O)[O-])c5F)c5ccc([nH]5)c(-c5cccc(S(=O)(=O)[O-])c5F)c5nc(c(-c6cccc(S(=O)(=O)[O-])c6F)c6ccc3[nH]6)C=C5)C=C4)cc2)C1=O)=C\c1ccccc1
REMARK SMILES IDX 17 1 16 2 14 3 15 4 13 6 12 7 10 8 11 9 9 11 8 12 3 13 4 14
REMARK SMILES IDX 5 15 87 16 6 17 88 18 7 19 2 20 1 21 89 22 90 23 91 24 95 25
REMARK SMILES IDX 92 26 94 27 93 28 18 29 19 30 20 31 21 32 22 33 23 35 24 36
REMARK SMILES IDX 25 37 86 38 26 39 85 40 27 41 28 42 29 43 79 44 30 45 84 46
REMARK SMILES IDX 78 47 80 48 31 49 83 50 77 51 76 52 32 54 64 55 44 56 63 57
REMARK SMILES IDX 45 58 48 59 62 60 81 61 46 62 47 63 61 65 82 66 49 67 33 68
REMARK SMILES IDX 34 69 42 70 35 71 37 72 43 73 36 74 38 75 39 76 40 77 41 78
REMARK SMILES IDX 65 79 66 80 74 81 67 82 69 83 75 84 68 85 70 86 71 87 72 88
REMARK SMILES IDX 73 89 50 90 51 91 59 92 52 93 54 94 60 95 53 96 55 97 56 98
REMARK SMILES IDX 57 99 58 100
REMARK H PARENT 16 5 12 10 21 34 80 53 48 64
REMARK Flexibility Score: inf
ROOT
ATOM      1  C   UNL     1      -3.251  -3.092   0.148  1.00  0.00     0.116 C 
ENDROOT
BRANCH   1   2
ATOM      2  N   UNL     1      -4.513  -2.937  -0.539  1.00  0.00    -0.355 N 
ATOM      3  C   UNL     1      -5.657  -2.341  -0.078  1.00  0.00     0.239 C 
ATOM      4  O   UNL     1      -6.538  -2.053  -0.890  1.00  0.00    -0.273 OA
ATOM      5  H   UNL     1      -4.557  -3.305  -1.452  1.00  0.00     0.163 HD
BRANCH   3   6
ATOM      6  C   UNL     1      -5.764  -1.888   1.389  1.00  0.00     0.216 C 
BRANCH   6   7
ATOM      7  N   UNL     1      -5.386  -2.909   2.353  1.00  0.00    -0.345 N 
ATOM      8  C   UNL     1      -4.684  -2.860   3.515  1.00  0.00     0.240 C 
ATOM      9  O   UNL     1      -4.727  -3.878   4.217  1.00  0.00    -0.273 OA
ATOM     10  H   UNL     1      -5.699  -3.812   2.118  1.00  0.00     0.164 HD
BRANCH   8  11
ATOM     11  C   UNL     1      -4.028  -1.583   4.070  1.00  0.00     0.227 C 
BRANCH  11  12
ATOM     12  N   UNL     1      -3.201  -0.790   3.159  1.00  0.00    -0.283 N 
ATOM     13  C   UNL     1      -0.255  -0.821   1.069  1.00  0.00     0.024 C 
ATOM     14  C   UNL     1      -1.329  -0.428   1.765  1.00  0.00     0.080 C 
ATOM     15  S   UNL     1      -2.188   1.051   1.661  1.00  0.00    -0.054 SA
ATOM     16  C   UNL     1      -2.000  -1.341   2.734  1.00  0.00     0.266 C 
ATOM     17  C   UNL     1      -3.432   0.518   2.790  1.00  0.00     0.148 C 
ATOM     18  O   UNL     1      -1.569  -2.432   3.049  1.00  0.00    -0.268 OA
ATOM     19  S   UNL     1      -4.668   1.524   3.282  1.00  0.00    -0.052 S 
BRANCH  13  20
ATOM     20  C   UNL     1       0.515  -0.070   0.083  1.00  0.00    -0.049 C 
ATOM     21  C   UNL     1       1.341   1.063   0.627  1.00  0.00     0.044 C 
ATOM     22  C   UNL     1       0.514  -0.480  -1.202  1.00  0.00     0.011 C 
BRANCH  22  23
ATOM     23  C   UNL     1       1.423  -0.066  -2.292  1.00  0.00    -0.025 A 
ATOM     24  C   UNL     1       0.959  -0.036  -3.614  1.00  0.00     0.008 A 
ATOM     25  C   UNL     1       2.795   0.134  -2.067  1.00  0.00     0.008 A 
ATOM     26  C   UNL     1       1.830   0.249  -4.671  1.00  0.00     0.001 A 
ATOM     27  C   UNL     1       3.661   0.439  -3.120  1.00  0.00     0.001 A 
ATOM     28  C   UNL     1       3.176   0.505  -4.421  1.00  0.00     0.000 A 
ENDBRANCH  22  23
ENDBRANCH  13  20
ENDBRANCH  11  12
ENDBRANCH   8  11
ENDBRANCH   6   7
ENDBRANCH   3   6
ENDBRANCH   1   2
BRANCH   1  29
ATOM     29  C   UNL     1      -2.872  -4.541   0.436  1.00  0.00     0.023 C 
BRANCH  29  30
ATOM     30  C   UNL     1      -2.067  -5.216  -0.677  1.00  0.00     0.023 C 
BRANCH  30  31
ATOM     31  C   UNL     1      -0.695  -4.602  -0.969  1.00  0.00     0.116 C 
BRANCH  31  32
ATOM     32  N   UNL     1       0.244  -4.657   0.144  1.00  0.00    -0.352 N 
ATOM     33  C   UNL     1       1.623  -4.707   0.102  1.00  0.00     0.251 C 
ATOM     34  H   UNL     1      -0.158  -4.659   1.042  1.00  0.00     0.163 HD
ATOM     35  O   UNL     1       2.261  -4.836   1.144  1.00  0.00    -0.269 OA
BRANCH  33  36
ATOM     36  C   UNL     1       2.342  -4.638  -1.195  1.00  0.00     0.039 A 
ATOM     37  C   UNL     1       3.394  -5.523  -1.450  1.00  0.00     0.014 A 
ATOM     38  C   UNL     1       1.976  -3.712  -2.171  1.00  0.00     0.014 A 
ATOM     39  C   UNL     1       3.997  -5.542  -2.715  1.00  0.00     0.010 A 
ATOM     40  C   UNL     1       2.543  -3.754  -3.441  1.00  0.00     0.010 A 
ATOM     41  C   UNL     1       3.538  -4.691  -3.735  1.00  0.00    -0.014 A 
BRANCH  41  42
ATOM     42  C   UNL     1       3.970  -4.855  -5.146  1.00  0.00     0.031 A 
ATOM     43  C   UNL     1       4.734  -3.780  -5.864  1.00  0.00     0.074 A 
ATOM     44  C   UNL     1       3.515  -5.927  -5.825  1.00  0.00     0.049 A 
ATOM     45  N   UNL     1       5.136  -3.747  -7.109  1.00  0.00    -0.248 NA
ATOM     46  C   UNL     1       5.063  -2.571  -5.096  1.00  0.00     0.031 C 
ATOM     47  C   UNL     1       2.644  -6.967  -5.270  1.00  0.00     0.029 A 
ATOM     48  N   UNL     1       3.688  -6.303  -7.132  1.00  0.00    -0.354 N 
ATOM     49  C   UNL     1       5.732  -2.504  -7.287  1.00  0.00     0.074 A 
ATOM     50  C   UNL     1       5.622  -1.805  -6.024  1.00  0.00     0.031 C 
ATOM     51  C   UNL     1       2.362  -7.863  -6.227  1.00  0.00     0.029 A 
ATOM     52  C   UNL     1       3.020  -7.458  -7.464  1.00  0.00     0.049 A 
ATOM     53  H   UNL     1       4.237  -5.794  -7.771  1.00  0.00     0.167 HD
ATOM     54  C   UNL     1       6.336  -2.003  -8.393  1.00  0.00     0.034 A 
ATOM     55  C   UNL     1       2.953  -8.125  -8.633  1.00  0.00     0.034 A 
ATOM     56  C   UNL     1       6.483  -2.734  -9.626  1.00  0.00     0.049 A 
ATOM     57  C   UNL     1       3.739  -7.612  -9.806  1.00  0.00     0.074 A 
ATOM     58  C   UNL     1       7.186  -2.374 -10.763  1.00  0.00     0.029 A 
ATOM     59  N   UNL     1       5.916  -3.973  -9.884  1.00  0.00    -0.354 N 
ATOM     60  N   UNL     1       4.464  -6.523  -9.898  1.00  0.00    -0.248 NA
ATOM     61  C   UNL     1       3.741  -8.441 -11.018  1.00  0.00     0.031 C 
ATOM     62  C   UNL     1       7.033  -3.391 -11.713  1.00  0.00     0.029 A 
ATOM     63  C   UNL     1       6.253  -4.393 -11.160  1.00  0.00     0.049 A 
ATOM     64  H   UNL     1       5.356  -4.479  -9.253  1.00  0.00     0.167 HD
ATOM     65  C   UNL     1       5.036  -6.553 -11.163  1.00  0.00     0.074 A 
ATOM     66  C   UNL     1       4.591  -7.780 -11.793  1.00  0.00     0.031 C 
ATOM     67  C   UNL     1       5.844  -5.639 -11.756  1.00  0.00     0.034 A 
BRANCH  54  68
ATOM     68  C   UNL     1       6.951  -0.626  -8.307  1.00  0.00     0.023 A 
ATOM     69  C   UNL     1       8.100  -0.430  -7.512  1.00  0.00     0.012 A 
ATOM     70  C   UNL     1       6.454   0.449  -9.071  1.00  0.00     0.148 A 
ATOM     71  C   UNL     1       8.720   0.818  -7.448  1.00  0.00     0.002 A 
ATOM     72  C   UNL     1       7.107   1.678  -9.040  1.00  0.00     0.091 A 
ATOM     73  F   UNL     1       5.352   0.255  -9.809  1.00  0.00    -0.205 F 
ATOM     74  C   UNL     1       8.231   1.867  -8.220  1.00  0.00     0.022 A 
BRANCH  72  75
ATOM     75  S   UNL     1       6.611   3.069 -10.065  1.00  0.00     0.127 S 
ATOM     76  O   UNL     1       6.038   3.976  -9.071  1.00  0.00    -0.237 OA
ATOM     77  O   UNL     1       7.889   3.509 -10.627  1.00  0.00    -0.237 OA
ATOM     78  O   UNL     1       5.672   2.534 -11.040  1.00  0.00    -0.744 OA
ENDBRANCH  72  75
ENDBRANCH  54  68
BRANCH  55  79
ATOM     79  C   UNL     1       2.206  -9.411  -8.702  1.00  0.00     0.023 A 
ATOM     80  C   UNL     1       2.927 -10.618  -8.774  1.00  0.00     0.012 A 
ATOM     81  C   UNL     1       0.800  -9.452  -8.631  1.00  0.00     0.148 A 
ATOM     82  C   UNL     1       2.262 -11.844  -8.804  1.00  0.00     0.002 A 
ATOM     83  C   UNL     1       0.146 -10.679  -8.606  1.00  0.00     0.091 A 
ATOM     84  F   UNL     1       0.133  -8.292  -8.567  1.00  0.00    -0.205 F 
ATOM     85  C   UNL     1       0.874 -11.875  -8.709  1.00  0.00     0.022 A 
BRANCH  83  86
ATOM     86  S   UNL     1      -1.625 -10.817  -8.343  1.00  0.00     0.127 S 
ATOM     87  O   UNL     1      -2.096 -11.200  -9.671  1.00  0.00    -0.237 OA
ATOM     88  O   UNL     1      -1.702 -11.874  -7.333  1.00  0.00    -0.237 OA
ATOM     89  O   UNL     1      -2.053  -9.507  -7.869  1.00  0.00    -0.744 OA
ENDBRANCH  83  86
ENDBRANCH  55  79
BRANCH  67  90
ATOM     90  C   UNL     1       6.325  -5.941 -13.151  1.00  0.00     0.023 A 
ATOM     91  C   UNL     1       5.428  -5.856 -14.234  1.00  0.00     0.012 A 
ATOM     92  C   UNL     1       7.678  -6.248 -13.395  1.00  0.00     0.148 A 
ATOM     93  C   UNL     1       5.862  -6.107 -15.535  1.00  0.00     0.002 A 
ATOM     94  C   UNL     1       8.114  -6.451 -14.699  1.00  0.00     0.091 A 
ATOM     95  F   UNL     1       8.512  -6.344 -12.349  1.00  0.00    -0.205 F 
ATOM     96  C   UNL     1       7.206  -6.393 -15.768  1.00  0.00     0.022 A 
BRANCH  94  97
ATOM     97  S   UNL     1       9.841  -6.735 -15.103  1.00  0.00     0.127 S 
ATOM     98  O   UNL     1       9.840  -8.159 -15.431  1.00  0.00    -0.237 OA
ATOM     99  O   UNL     1      10.043  -5.845 -16.247  1.00  0.00    -0.237 OA
ATOM    100  O   UNL     1      10.596  -6.367 -13.912  1.00  0.00    -0.744 OA
ENDBRANCH  94  97
ENDBRANCH  67  90
ENDBRANCH  41  42
ENDBRANCH  33  36
ENDBRANCH  31  32
ENDBRANCH  30  31
ENDBRANCH  29  30
ENDBRANCH   1  29
TORSDOF 19
