REMARK SMILES C[NH2+][C@]1(C(=O)NCCCCNC(=O)c2ccc(-c3c4nc(c(-c5cccc(S(=O)(=O)[O-])c5F)c5ccc([nH]5)c(-c5cccc(S(=O)(=O)[O-])c5F)c5nc(c(-c6cccc(S(=O)(=O)[O-])c6F)c6ccc3[nH]6)C=C5)C=C4)cc2)CCC[C@@H]([N@@H+](C)C2CCCCCC2)C1
REMARK SMILES IDX 7 1 6 2 4 3 5 4 3 6 77 7 90 8 78 9 80 10 79 11 2 12 1 13
REMARK SMILES IDX 81 16 82 17 83 19 84 20 85 21 86 22 87 23 89 25 88 26 8 28
REMARK SMILES IDX 9 29 10 30 11 31 12 32 13 34 14 35 15 36 76 37 16 38 75 39
REMARK SMILES IDX 17 40 18 41 19 42 69 43 20 44 74 45 68 46 70 47 21 48 73 49
REMARK SMILES IDX 67 50 66 51 22 53 54 54 34 55 53 56 35 57 38 58 52 59 71 60
REMARK SMILES IDX 36 61 37 62 51 64 72 65 39 66 23 67 24 68 32 69 25 70 27 71
REMARK SMILES IDX 33 72 26 73 28 74 29 75 30 76 31 77 55 78 56 79 64 80 57 81
REMARK SMILES IDX 59 82 65 83 58 84 60 85 61 86 62 87 63 88 40 89 41 90 49 91
REMARK SMILES IDX 42 92 44 93 50 94 43 95 45 96 46 97 47 98 48 99
REMARK H PARENT 6 5 2 14 2 15 81 18 11 33 70 52 38 63
REMARK Flexibility Score: 80.00
ROOT
ATOM      1  C   UNL     1       0.859  -0.026   2.784  1.00  0.00     0.116 C 
ENDROOT
BRANCH   1   2
ATOM      2  N   UNL     1       1.195   0.215   1.398  1.00  0.00    -0.351 N 
ATOM      3  C   UNL     1       0.468   0.600   0.310  1.00  0.00     0.281 C 
ATOM      4  O   UNL     1       1.138   0.707  -0.725  1.00  0.00    -0.268 OA
ATOM      5  H   UNL     1       2.148   0.070   1.198  1.00  0.00     0.163 HD
BRANCH   3   6
ATOM      6  C   UNL     1      -1.098   0.871   0.340  1.00  0.00     0.181 C 
ATOM      7  C   UNL     1      -1.819  -0.445   0.726  1.00  0.00     0.079 C 
ATOM      8  C   UNL     1      -1.487   1.977   1.351  1.00  0.00     0.144 C 
ATOM      9  C   UNL     1      -3.337  -0.301   0.830  1.00  0.00     0.013 C 
ATOM     10  C   UNL     1      -3.004   2.171   1.553  1.00  0.00     0.190 C 
ATOM     11  C   UNL     1      -3.772   0.842   1.746  1.00  0.00     0.065 C 
BRANCH   6  12
ATOM     12  N   UNL     1      -1.570   1.193  -1.048  1.00  0.00    -0.336 N 
ATOM     13  C   UNL     1      -1.111   2.455  -1.611  1.00  0.00     0.331 C 
ATOM     14  H   UNL     1      -1.254   0.445  -1.665  1.00  0.00     0.346 HD
ATOM     15  H   UNL     1      -2.584   1.280  -0.977  1.00  0.00     0.346 HD
ENDBRANCH   6  12
BRANCH  10  16
ATOM     16  N   UNL     1      -3.354   3.259   2.509  1.00  0.00    -0.332 N 
ATOM     17  C   UNL     1      -4.769   3.637   2.385  1.00  0.00     0.333 C 
ATOM     18  H   UNL     1      -2.701   3.963   2.164  1.00  0.00     0.348 HD
BRANCH  16  19
ATOM     19  C   UNL     1      -2.925   3.257   3.938  1.00  0.00     0.184 C 
BRANCH  19  20
ATOM     20  C   UNL     1      -3.370   2.080   4.830  1.00  0.00     0.065 C 
BRANCH  20  21
ATOM     21  C   UNL     1      -2.416   0.899   4.960  1.00  0.00     0.006 C 
BRANCH  21  22
ATOM     22  C   UNL     1      -1.350   1.074   6.032  1.00  0.00     0.000 C 
BRANCH  22  23
ATOM     23  C   UNL     1      -0.319   2.158   5.752  1.00  0.00     0.000 CG0
ATOM     24  G   UNL     1      -0.887   3.559   5.536  1.00  0.00     0.000 G0
ENDBRANCH  22  23
ENDBRANCH  21  22
ENDBRANCH  20  21
ENDBRANCH  19  20
BRANCH  19  25
ATOM     25  C   UNL     1      -1.477   3.761   4.136  1.00  0.00     0.065 C 
BRANCH  25  26
ATOM     26  C   UNL     1      -0.887   3.559   5.536  1.00  0.00     0.006 CG0
ATOM     27  G   UNL     1      -0.319   2.158   5.752  1.00  0.00     0.000 G0
ENDBRANCH  25  26
ENDBRANCH  19  25
ENDBRANCH  16  19
ENDBRANCH  10  16
ENDBRANCH   3   6
ENDBRANCH   1   2
BRANCH   1  28
ATOM     28  C   UNL     1       1.085  -1.472   3.212  1.00  0.00     0.023 C 
BRANCH  28  29
ATOM     29  C   UNL     1       2.530  -1.810   3.576  1.00  0.00     0.023 C 
BRANCH  29  30
ATOM     30  C   UNL     1       3.121  -1.015   4.739  1.00  0.00     0.116 C 
BRANCH  30  31
ATOM     31  N   UNL     1       2.373  -1.144   5.983  1.00  0.00    -0.352 N 
ATOM     32  C   UNL     1       2.862  -1.232   7.267  1.00  0.00     0.251 C 
ATOM     33  H   UNL     1       1.393  -1.172   5.894  1.00  0.00     0.163 HD
ATOM     34  O   UNL     1       2.100  -1.421   8.210  1.00  0.00    -0.269 OA
BRANCH  32  35
ATOM     35  C   UNL     1       4.321  -1.140   7.491  1.00  0.00     0.039 A 
ATOM     36  C   UNL     1       4.961  -2.150   8.213  1.00  0.00     0.014 A 
ATOM     37  C   UNL     1       5.059  -0.092   6.934  1.00  0.00     0.014 A 
ATOM     38  C   UNL     1       6.356  -2.154   8.305  1.00  0.00     0.010 A 
ATOM     39  C   UNL     1       6.449  -0.134   6.971  1.00  0.00     0.010 A 
ATOM     40  C   UNL     1       7.113  -1.169   7.648  1.00  0.00    -0.014 A 
BRANCH  40  41
ATOM     41  C   UNL     1       8.598  -1.221   7.626  1.00  0.00     0.031 A 
ATOM     42  C   UNL     1       9.405  -0.123   8.263  1.00  0.00     0.074 A 
ATOM     43  C   UNL     1       9.219  -2.204   6.944  1.00  0.00     0.049 A 
ATOM     44  N   UNL     1      10.703   0.038   8.286  1.00  0.00    -0.248 NA
ATOM     45  C   UNL     1       8.656   0.949   8.939  1.00  0.00     0.031 C 
ATOM     46  C   UNL     1       8.549  -3.281   6.212  1.00  0.00     0.029 A 
ATOM     47  N   UNL     1      10.555  -2.443   6.732  1.00  0.00    -0.354 N 
ATOM     48  C   UNL     1      10.925   1.240   8.945  1.00  0.00     0.074 A 
ATOM     49  C   UNL     1       9.627   1.786   9.277  1.00  0.00     0.031 C 
ATOM     50  C   UNL     1       9.474  -4.067   5.638  1.00  0.00     0.029 A 
ATOM     51  C   UNL     1      10.801  -3.539   5.938  1.00  0.00     0.049 A 
ATOM     52  H   UNL     1      11.269  -1.882   7.113  1.00  0.00     0.167 HD
ATOM     53  C   UNL     1      12.102   1.823   9.276  1.00  0.00     0.034 A 
ATOM     54  C   UNL     1      11.965  -4.061   5.501  1.00  0.00     0.034 A 
ATOM     55  C   UNL     1      13.392   1.255   8.991  1.00  0.00     0.049 A 
ATOM     56  C   UNL     1      13.259  -3.420   5.925  1.00  0.00     0.074 A 
ATOM     57  C   UNL     1      14.639   1.725   9.361  1.00  0.00     0.029 A 
ATOM     58  N   UNL     1      13.601   0.091   8.268  1.00  0.00    -0.354 N 
ATOM     59  N   UNL     1      13.450  -2.371   6.687  1.00  0.00    -0.248 NA
ATOM     60  C   UNL     1      14.501  -4.057   5.459  1.00  0.00     0.031 C 
ATOM     61  C   UNL     1      15.605   0.849   8.853  1.00  0.00     0.029 A 
ATOM     62  C   UNL     1      14.957  -0.173   8.178  1.00  0.00     0.049 A 
ATOM     63  H   UNL     1      12.891  -0.466   7.875  1.00  0.00     0.167 HD
ATOM     64  C   UNL     1      14.828  -2.243   6.823  1.00  0.00     0.074 A 
ATOM     65  C   UNL     1      15.424  -3.334   6.080  1.00  0.00     0.031 C 
ATOM     66  C   UNL     1      15.535  -1.297   7.489  1.00  0.00     0.034 A 
BRANCH  53  67
ATOM     67  C   UNL     1      12.047   3.114  10.050  1.00  0.00     0.023 A 
ATOM     68  C   UNL     1      11.660   3.087  11.405  1.00  0.00     0.012 A 
ATOM     69  C   UNL     1      12.428   4.336   9.464  1.00  0.00     0.148 A 
ATOM     70  C   UNL     1      11.620   4.259  12.157  1.00  0.00     0.002 A 
ATOM     71  C   UNL     1      12.425   5.496  10.231  1.00  0.00     0.091 A 
ATOM     72  F   UNL     1      12.771   4.346   8.168  1.00  0.00    -0.205 F 
ATOM     73  C   UNL     1      12.012   5.461  11.574  1.00  0.00     0.022 A 
BRANCH  71  74
ATOM     74  S   UNL     1      12.982   7.080   9.593  1.00  0.00     0.127 S 
ATOM     75  O   UNL     1      11.717   7.798   9.441  1.00  0.00    -0.237 OA
ATOM     76  O   UNL     1      13.833   7.569  10.678  1.00  0.00    -0.237 OA
ATOM     77  O   UNL     1      13.690   6.785   8.355  1.00  0.00    -0.744 OA
ENDBRANCH  71  74
ENDBRANCH  53  67
BRANCH  54  78
ATOM     78  C   UNL     1      11.962  -5.308   4.685  1.00  0.00     0.023 A 
ATOM     79  C   UNL     1      12.419  -6.507   5.266  1.00  0.00     0.012 A 
ATOM     80  C   UNL     1      11.488  -5.324   3.359  1.00  0.00     0.148 A 
ATOM     81  C   UNL     1      12.431  -7.694   4.533  1.00  0.00     0.002 A 
ATOM     82  C   UNL     1      11.455  -6.521   2.651  1.00  0.00     0.091 A 
ATOM     83  F   UNL     1      11.072  -4.170   2.819  1.00  0.00    -0.205 F 
ATOM     84  C   UNL     1      11.941  -7.703   3.231  1.00  0.00     0.022 A 
BRANCH  82  85
ATOM     85  S   UNL     1      10.721  -6.649   1.017  1.00  0.00     0.127 S 
ATOM     86  O   UNL     1      11.902  -6.785   0.168  1.00  0.00    -0.237 OA
ATOM     87  O   UNL     1       9.909  -7.861   1.142  1.00  0.00    -0.237 OA
ATOM     88  O   UNL     1       9.947  -5.428   0.841  1.00  0.00    -0.744 OA
ENDBRANCH  82  85
ENDBRANCH  54  78
BRANCH  66  89
ATOM     89  C   UNL     1      17.037  -1.410   7.478  1.00  0.00     0.023 A 
ATOM     90  C   UNL     1      17.752  -1.082   6.309  1.00  0.00     0.012 A 
ATOM     91  C   UNL     1      17.742  -1.760   8.646  1.00  0.00     0.148 A 
ATOM     92  C   UNL     1      19.145  -1.127   6.295  1.00  0.00     0.002 A 
ATOM     93  C   UNL     1      19.132  -1.759   8.637  1.00  0.00     0.091 A 
ATOM     94  F   UNL     1      17.043  -2.089   9.742  1.00  0.00    -0.205 F 
ATOM     95  C   UNL     1      19.835  -1.452   7.461  1.00  0.00     0.022 A 
BRANCH  93  96
ATOM     96  S   UNL     1      20.100  -2.075  10.117  1.00  0.00     0.127 S 
ATOM     97  O   UNL     1      20.578  -3.436   9.876  1.00  0.00    -0.237 OA
ATOM     98  O   UNL     1      21.135  -1.043  10.041  1.00  0.00    -0.237 OA
ATOM     99  O   UNL     1      19.180  -1.922  11.236  1.00  0.00    -0.744 OA
ENDBRANCH  93  96
ENDBRANCH  66  89
ENDBRANCH  40  41
ENDBRANCH  32  35
ENDBRANCH  30  31
ENDBRANCH  29  30
ENDBRANCH  28  29
ENDBRANCH   1  28
TORSDOF 17
