REMARK SMILES CC1(C)OC(=O)C(/C=N/[C@@H](CCC(N)=O)C(=O)NCCCCNC(=O)c2ccc(-c3c4nc(c(-c5cccc(S(=O)(=O)[O-])c5F)c5ccc([nH]5)c(-c5cccc(S(=O)(=O)[O-])c5F)c5nc(c(-c6cccc(S(=O)(=O)[O-])c6F)c6ccc3[nH]6)C=C5)C=C4)cc2)C(=O)O1
REMARK SMILES IDX 20 1 19 2 18 3 16 4 17 5 10 7 9 8 8 9 7 10 1 11 2 12 3 13
REMARK SMILES IDX 4 14 91 15 5 16 89 17 6 18 90 19 11 20 12 21 13 22 14 23
REMARK SMILES IDX 15 24 21 27 22 28 23 29 24 30 25 32 26 33 27 34 88 35 28 36
REMARK SMILES IDX 87 37 29 38 30 39 31 40 81 41 32 42 86 43 80 44 82 45 33 46
REMARK SMILES IDX 85 47 79 48 78 49 34 51 66 52 46 53 65 54 47 55 50 56 64 57
REMARK SMILES IDX 83 58 48 59 49 60 63 62 84 63 51 64 35 65 36 66 44 67 37 68
REMARK SMILES IDX 39 69 45 70 38 71 40 72 41 73 42 74 43 75 67 76 68 77 76 78
REMARK SMILES IDX 69 79 71 80 77 81 70 82 72 83 73 84 74 85 75 86 52 87 53 88
REMARK SMILES IDX 61 89 54 90 56 91 62 92 55 93 57 94 58 95 59 96 60 97
REMARK H PARENT 18 6 14 25 14 26 23 31 82 50 50 61
REMARK Flexibility Score: inf
ROOT
ATOM      1  C   UNL     1       2.029   0.776   2.658  1.00  0.00     0.023 C 
ENDROOT
BRANCH   1   2
ATOM      2  C   UNL     1       1.321   1.745   3.591  1.00  0.00     0.116 C 
BRANCH   2   3
ATOM      3  N   UNL     1       1.848   3.081   3.539  1.00  0.00    -0.354 N 
ATOM      4  C   UNL     1       1.272   4.229   3.083  1.00  0.00     0.244 C 
ATOM      5  O   UNL     1       1.890   5.284   3.262  1.00  0.00    -0.273 OA
ATOM      6  H   UNL     1       2.764   3.183   3.885  1.00  0.00     0.163 HD
BRANCH   4   7
ATOM      7  C   UNL     1      -0.086   4.237   2.353  1.00  0.00     0.194 C 
BRANCH   7   8
ATOM      8  N   UNL     1      -0.041   3.420   1.118  1.00  0.00    -0.283 NA
ATOM      9  C   UNL     1      -0.690   2.342   0.916  1.00  0.00     0.105 C 
BRANCH   9  10
ATOM     10  C   UNL     1      -0.583   1.617  -0.404  1.00  0.00     0.250 C 
ATOM     11  C   UNL     1      -0.328  -2.015   0.893  1.00  0.00     0.106 C 
ATOM     12  C   UNL     1      -0.231  -1.190  -0.389  1.00  0.00     0.252 C 
ATOM     13  C   UNL     1       0.086  -2.096  -1.576  1.00  0.00     0.106 C 
ATOM     14  O   UNL     1       0.863  -0.294  -0.234  1.00  0.00    -0.422 OA
ATOM     15  O   UNL     1      -1.515  -0.613  -0.636  1.00  0.00    -0.422 OA
ATOM     16  C   UNL     1       0.742   0.986  -0.617  1.00  0.00     0.329 C 
ATOM     17  C   UNL     1      -1.736   0.706  -0.587  1.00  0.00     0.329 C 
ATOM     18  O   UNL     1       1.720   1.607  -1.016  1.00  0.00    -0.251 OA
ATOM     19  O   UNL     1      -2.885   1.138  -0.646  1.00  0.00    -0.251 OA
ENDBRANCH   9  10
ENDBRANCH   7   8
BRANCH   7  20
ATOM     20  C   UNL     1      -1.390   4.266   3.168  1.00  0.00     0.047 C 
BRANCH  20  21
ATOM     21  C   UNL     1      -1.760   3.154   4.152  1.00  0.00     0.102 C 
BRANCH  21  22
ATOM     22  C   UNL     1      -0.974   3.158   5.445  1.00  0.00     0.217 C 
ATOM     23  N   UNL     1      -1.082   2.007   6.172  1.00  0.00    -0.370 N 
ATOM     24  O   UNL     1      -0.311   4.100   5.850  1.00  0.00    -0.275 OA
ATOM     25  H   UNL     1      -1.620   1.257   5.830  1.00  0.00     0.159 HD
ATOM     26  H   UNL     1      -0.621   1.928   7.038  1.00  0.00     0.159 HD
ENDBRANCH  21  22
ENDBRANCH  20  21
ENDBRANCH   7  20
ENDBRANCH   4   7
ENDBRANCH   2   3
ENDBRANCH   1   2
BRANCH   1  27
ATOM     27  C   UNL     1       3.099  -0.089   3.315  1.00  0.00     0.023 C 
BRANCH  27  28
ATOM     28  C   UNL     1       2.643  -0.892   4.530  1.00  0.00     0.116 C 
BRANCH  28  29
ATOM     29  N   UNL     1       1.462  -1.720   4.298  1.00  0.00    -0.352 N 
ATOM     30  C   UNL     1       1.185  -2.959   4.837  1.00  0.00     0.251 C 
ATOM     31  H   UNL     1       0.786  -1.351   3.685  1.00  0.00     0.163 HD
ATOM     32  O   UNL     1       0.185  -3.578   4.506  1.00  0.00    -0.269 OA
BRANCH  30  33
ATOM     33  C   UNL     1       2.158  -3.523   5.796  1.00  0.00     0.039 A 
ATOM     34  C   UNL     1       2.788  -4.732   5.497  1.00  0.00     0.014 A 
ATOM     35  C   UNL     1       2.550  -2.763   6.900  1.00  0.00     0.014 A 
ATOM     36  C   UNL     1       3.892  -5.131   6.256  1.00  0.00     0.010 A 
ATOM     37  C   UNL     1       3.695  -3.121   7.598  1.00  0.00     0.010 A 
ATOM     38  C   UNL     1       4.386  -4.300   7.276  1.00  0.00    -0.014 A 
BRANCH  38  39
ATOM     39  C   UNL     1       5.643  -4.614   8.003  1.00  0.00     0.031 A 
ATOM     40  C   UNL     1       5.617  -4.808   9.494  1.00  0.00     0.074 A 
ATOM     41  C   UNL     1       6.821  -4.592   7.346  1.00  0.00     0.049 A 
ATOM     42  N   UNL     1       6.615  -4.971  10.322  1.00  0.00    -0.248 NA
ATOM     43  C   UNL     1       4.296  -4.774  10.146  1.00  0.00     0.031 C 
ATOM     44  C   UNL     1       6.992  -4.314   5.917  1.00  0.00     0.029 A 
ATOM     45  N   UNL     1       8.104  -4.773   7.801  1.00  0.00    -0.354 N 
ATOM     46  C   UNL     1       6.051  -5.007  11.591  1.00  0.00     0.074 A 
ATOM     47  C   UNL     1       4.627  -4.815  11.428  1.00  0.00     0.031 C 
ATOM     48  C   UNL     1       8.301  -4.349   5.614  1.00  0.00     0.029 A 
ATOM     49  C   UNL     1       9.064  -4.626   6.826  1.00  0.00     0.049 A 
ATOM     50  H   UNL     1       8.317  -4.988   8.738  1.00  0.00     0.167 HD
ATOM     51  C   UNL     1       6.657  -5.218  12.783  1.00  0.00     0.034 A 
ATOM     52  C   UNL     1      10.408  -4.706   6.901  1.00  0.00     0.034 A 
ATOM     53  C   UNL     1       8.059  -5.485  12.935  1.00  0.00     0.049 A 
ATOM     54  C   UNL     1      11.048  -5.028   8.225  1.00  0.00     0.074 A 
ATOM     55  C   UNL     1       8.752  -5.822  14.084  1.00  0.00     0.029 A 
ATOM     56  N   UNL     1       8.985  -5.455  11.903  1.00  0.00    -0.354 N 
ATOM     57  N   UNL     1      10.477  -5.230   9.388  1.00  0.00    -0.248 NA
ATOM     58  C   UNL     1      12.511  -5.170   8.242  1.00  0.00     0.031 C 
ATOM     59  C   UNL     1      10.098  -5.995  13.747  1.00  0.00     0.029 A 
ATOM     60  C   UNL     1      10.242  -5.771  12.387  1.00  0.00     0.049 A 
ATOM     61  H   UNL     1       8.778  -5.240  10.965  1.00  0.00     0.167 HD
ATOM     62  C   UNL     1      11.505  -5.557  10.265  1.00  0.00     0.074 A 
ATOM     63  C   UNL     1      12.731  -5.546   9.495  1.00  0.00     0.031 C 
ATOM     64  C   UNL     1      11.441  -5.825  11.593  1.00  0.00     0.034 A 
BRANCH  51  65
ATOM     65  C   UNL     1       5.785  -5.250  14.009  1.00  0.00     0.023 A 
ATOM     66  C   UNL     1       4.937  -6.356  14.222  1.00  0.00     0.012 A 
ATOM     67  C   UNL     1       5.832  -4.220  14.967  1.00  0.00     0.148 A 
ATOM     68  C   UNL     1       4.123  -6.421  15.351  1.00  0.00     0.002 A 
ATOM     69  C   UNL     1       5.048  -4.311  16.112  1.00  0.00     0.091 A 
ATOM     70  F   UNL     1       6.624  -3.163  14.735  1.00  0.00    -0.205 F 
ATOM     71  C   UNL     1       4.186  -5.405  16.300  1.00  0.00     0.022 A 
BRANCH  69  72
ATOM     72  S   UNL     1       5.112  -3.088  17.426  1.00  0.00     0.127 S 
ATOM     73  O   UNL     1       3.860  -2.363  17.214  1.00  0.00    -0.237 OA
ATOM     74  O   UNL     1       5.135  -3.924  18.627  1.00  0.00    -0.237 OA
ATOM     75  O   UNL     1       6.330  -2.323  17.198  1.00  0.00    -0.744 OA
ENDBRANCH  69  72
ENDBRANCH  51  65
BRANCH  52  76
ATOM     76  C   UNL     1      11.233  -4.573   5.667  1.00  0.00     0.023 A 
ATOM     77  C   UNL     1      11.853  -5.719   5.132  1.00  0.00     0.012 A 
ATOM     78  C   UNL     1      11.386  -3.339   5.006  1.00  0.00     0.148 A 
ATOM     79  C   UNL     1      12.633  -5.636   3.978  1.00  0.00     0.002 A 
ATOM     80  C   UNL     1      12.123  -3.272   3.828  1.00  0.00     0.091 A 
ATOM     81  F   UNL     1      10.802  -2.256   5.537  1.00  0.00    -0.205 F 
ATOM     82  C   UNL     1      12.760  -4.415   3.321  1.00  0.00     0.022 A 
BRANCH  80  83
ATOM     83  S   UNL     1      12.228  -1.770   2.849  1.00  0.00     0.127 S 
ATOM     84  O   UNL     1      13.576  -1.303   3.161  1.00  0.00    -0.237 OA
ATOM     85  O   UNL     1      12.051  -2.279   1.488  1.00  0.00    -0.237 OA
ATOM     86  O   UNL     1      11.134  -0.928   3.317  1.00  0.00    -0.744 OA
ENDBRANCH  80  83
ENDBRANCH  52  76
BRANCH  64  87
ATOM     87  C   UNL     1      12.724  -6.163  12.302  1.00  0.00     0.023 A 
ATOM     88  C   UNL     1      13.642  -5.139  12.604  1.00  0.00     0.012 A 
ATOM     89  C   UNL     1      12.975  -7.475  12.750  1.00  0.00     0.148 A 
ATOM     90  C   UNL     1      14.803  -5.420  13.325  1.00  0.00     0.002 A 
ATOM     91  C   UNL     1      14.112  -7.739  13.504  1.00  0.00     0.091 A 
ATOM     92  F   UNL     1      12.098  -8.439  12.431  1.00  0.00    -0.205 F 
ATOM     93  C   UNL     1      15.030  -6.715  13.785  1.00  0.00     0.022 A 
BRANCH  91  94
ATOM     94  S   UNL     1      14.433  -9.358  14.214  1.00  0.00     0.127 S 
ATOM     95  O   UNL     1      15.463  -9.878  13.317  1.00  0.00    -0.237 OA
ATOM     96  O   UNL     1      14.906  -9.023  15.558  1.00  0.00    -0.237 OA
ATOM     97  O   UNL     1      13.159 -10.064  14.185  1.00  0.00    -0.744 OA
ENDBRANCH  91  94
ENDBRANCH  64  87
ENDBRANCH  38  39
ENDBRANCH  30  33
ENDBRANCH  28  29
ENDBRANCH  27  28
ENDBRANCH   1  27
TORSDOF 19
