REMARK SMILES O=C(NCCCCNC(=O)[C@H]1C[C@](O)(c2ccccc2Cl)[C@@H](c2ccccc2Cl)O1)c1ccc(-c2c3nc(c(-c4cccc(S(=O)(=O)[O-])c4F)c4ccc([nH]4)c(-c4cccc(S(=O)(=O)[O-])c4F)c4nc(c(-c5cccc(S(=O)(=O)[O-])c5F)c5ccc2[nH]5)C=C4)C=C3)cc1
REMARK SMILES IDX 4 1 3 2 1 3 2 4 31 6 32 7 93 8 33 9 92 10 34 11 35 12 36 13
REMARK SMILES IDX 86 14 37 15 91 16 85 17 87 18 38 19 90 20 84 21 83 22 39 24
REMARK SMILES IDX 71 25 51 26 70 27 52 28 55 29 69 30 88 31 53 32 54 33 68 35
REMARK SMILES IDX 89 36 56 37 40 38 41 39 49 40 42 41 44 42 50 43 43 44 45 45
REMARK SMILES IDX 46 46 47 47 48 48 72 49 73 50 81 51 74 52 76 53 82 54 75 55
REMARK SMILES IDX 77 56 78 57 79 58 80 59 57 60 58 61 66 62 59 63 61 64 67 65
REMARK SMILES IDX 60 66 62 67 63 68 64 69 65 70 5 71 6 72 7 73 8 74 9 75 10 77
REMARK SMILES IDX 11 78 12 79 30 80 13 81 22 82 15 83 16 84 20 85 17 86 19 87
REMARK SMILES IDX 21 88 18 89 14 90 23 92 24 93 28 94 25 95 27 96 29 97 26 98
REMARK H PARENT 3 5 87 23 55 34 8 76 14 91
REMARK Flexibility Score: inf
ROOT
ATOM      1  C   UNL     1       1.672   9.150   0.742  1.00  0.00     0.116 C 
ENDROOT
BRANCH   1   2
ATOM      2  N   UNL     1       1.987  10.570   0.824  1.00  0.00    -0.352 N 
ATOM      3  O   UNL     1       1.586  12.790   0.709  1.00  0.00    -0.269 OA
ATOM      4  C   UNL     1       1.140  11.657   0.753  1.00  0.00     0.251 C 
ATOM      5  H   UNL     1       2.940  10.785   0.947  1.00  0.00     0.163 HD
BRANCH   4   6
ATOM      6  C   UNL     1      -0.319  11.412   0.703  1.00  0.00     0.039 A 
ATOM      7  C   UNL     1      -0.909  10.546   1.625  1.00  0.00     0.014 A 
ATOM      8  C   UNL     1      -1.083  12.011  -0.301  1.00  0.00     0.014 A 
ATOM      9  C   UNL     1      -2.226  10.147   1.441  1.00  0.00     0.010 A 
ATOM     10  C   UNL     1      -2.435  11.678  -0.426  1.00  0.00     0.010 A 
ATOM     11  C   UNL     1      -3.008  10.716   0.421  1.00  0.00    -0.014 A 
BRANCH  11  12
ATOM     12  C   UNL     1      -4.444  10.355   0.330  1.00  0.00     0.031 A 
ATOM     13  C   UNL     1      -5.008   9.646  -0.870  1.00  0.00     0.074 A 
ATOM     14  C   UNL     1      -5.243  10.682   1.365  1.00  0.00     0.049 A 
ATOM     15  N   UNL     1      -6.237   9.248  -1.081  1.00  0.00    -0.248 NA
ATOM     16  C   UNL     1      -4.087   9.349  -1.980  1.00  0.00     0.031 C 
ATOM     17  C   UNL     1      -4.811  11.418   2.557  1.00  0.00     0.029 A 
ATOM     18  N   UNL     1      -6.575  10.448   1.586  1.00  0.00    -0.354 N 
ATOM     19  C   UNL     1      -6.250   8.697  -2.357  1.00  0.00     0.074 A 
ATOM     20  C   UNL     1      -4.903   8.805  -2.875  1.00  0.00     0.031 C 
ATOM     21  C   UNL     1      -5.849  11.554   3.392  1.00  0.00     0.029 A 
ATOM     22  C   UNL     1      -7.031  10.967   2.774  1.00  0.00     0.049 A 
ATOM     23  H   UNL     1      -7.149   9.956   0.955  1.00  0.00     0.167 HD
ATOM     24  C   UNL     1      -7.290   8.143  -3.026  1.00  0.00     0.034 A 
ATOM     25  C   UNL     1      -8.269  10.991   3.303  1.00  0.00     0.034 A 
ATOM     26  C   UNL     1      -8.614   7.994  -2.480  1.00  0.00     0.049 A 
ATOM     27  C   UNL     1      -9.387  10.333   2.551  1.00  0.00     0.074 A 
ATOM     28  C   UNL     1      -9.710   7.363  -3.045  1.00  0.00     0.029 A 
ATOM     29  N   UNL     1      -9.028   8.487  -1.253  1.00  0.00    -0.354 N 
ATOM     30  N   UNL     1      -9.344   9.687   1.412  1.00  0.00    -0.248 NA
ATOM     31  C   UNL     1     -10.720  10.388   3.165  1.00  0.00     0.031 C 
ATOM     32  C   UNL     1     -10.790   7.490  -2.166  1.00  0.00     0.029 A 
ATOM     33  C   UNL     1     -10.365   8.190  -1.049  1.00  0.00     0.049 A 
ATOM     34  H   UNL     1      -8.455   8.976  -0.619  1.00  0.00     0.167 HD
ATOM     35  C   UNL     1     -10.639   9.247   1.177  1.00  0.00     0.074 A 
ATOM     36  C   UNL     1     -11.436   9.667   2.312  1.00  0.00     0.031 C 
ATOM     37  C   UNL     1     -11.132   8.579   0.106  1.00  0.00     0.034 A 
BRANCH  24  38
ATOM     38  C   UNL     1      -7.046   7.604  -4.411  1.00  0.00     0.023 A 
ATOM     39  C   UNL     1      -6.402   6.361  -4.568  1.00  0.00     0.012 A 
ATOM     40  C   UNL     1      -7.560   8.266  -5.545  1.00  0.00     0.148 A 
ATOM     41  C   UNL     1      -6.264   5.788  -5.833  1.00  0.00     0.002 A 
ATOM     42  C   UNL     1      -7.447   7.673  -6.798  1.00  0.00     0.091 A 
ATOM     43  F   UNL     1      -8.154   9.455  -5.375  1.00  0.00    -0.205 F 
ATOM     44  C   UNL     1      -6.796   6.437  -6.944  1.00  0.00     0.022 A 
BRANCH  42  45
ATOM     45  S   UNL     1      -8.161   8.393  -8.283  1.00  0.00     0.127 S 
ATOM     46  O   UNL     1      -6.963   8.791  -9.021  1.00  0.00    -0.237 OA
ATOM     47  O   UNL     1      -8.883   7.258  -8.859  1.00  0.00    -0.237 OA
ATOM     48  O   UNL     1      -9.008   9.488  -7.832  1.00  0.00    -0.744 OA
ENDBRANCH  42  45
ENDBRANCH  24  38
BRANCH  25  49
ATOM     49  C   UNL     1      -8.491  11.633   4.627  1.00  0.00     0.023 A 
ATOM     50  C   UNL     1      -8.806  10.836   5.743  1.00  0.00     0.012 A 
ATOM     51  C   UNL     1      -8.333  13.022   4.798  1.00  0.00     0.148 A 
ATOM     52  C   UNL     1      -8.980  11.413   7.001  1.00  0.00     0.002 A 
ATOM     53  C   UNL     1      -8.446  13.582   6.065  1.00  0.00     0.091 A 
ATOM     54  F   UNL     1      -8.056  13.773   3.722  1.00  0.00    -0.205 F 
ATOM     55  C   UNL     1      -8.786  12.783   7.166  1.00  0.00     0.022 A 
BRANCH  53  56
ATOM     56  S   UNL     1      -8.044  15.308   6.361  1.00  0.00     0.127 S 
ATOM     57  O   UNL     1      -9.357  15.940   6.287  1.00  0.00    -0.237 OA
ATOM     58  O   UNL     1      -7.454  15.268   7.700  1.00  0.00    -0.237 OA
ATOM     59  O   UNL     1      -7.098  15.657   5.309  1.00  0.00    -0.744 OA
ENDBRANCH  53  56
ENDBRANCH  25  49
BRANCH  37  60
ATOM     60  C   UNL     1     -12.602   8.262   0.112  1.00  0.00     0.023 A 
ATOM     61  C   UNL     1     -13.530   9.295  -0.126  1.00  0.00     0.012 A 
ATOM     62  C   UNL     1     -13.061   6.945   0.300  1.00  0.00     0.148 A 
ATOM     63  C   UNL     1     -14.898   9.026  -0.146  1.00  0.00     0.002 A 
ATOM     64  C   UNL     1     -14.423   6.678   0.236  1.00  0.00     0.091 A 
ATOM     65  F   UNL     1     -12.162   5.982   0.548  1.00  0.00    -0.205 F 
ATOM     66  C   UNL     1     -15.343   7.717   0.024  1.00  0.00     0.022 A 
BRANCH  64  67
ATOM     67  S   UNL     1     -15.075   5.009   0.360  1.00  0.00     0.127 S 
ATOM     68  O   UNL     1     -15.588   4.989   1.728  1.00  0.00    -0.237 OA
ATOM     69  O   UNL     1     -16.107   4.996  -0.678  1.00  0.00    -0.237 OA
ATOM     70  O   UNL     1     -13.949   4.123   0.097  1.00  0.00    -0.744 OA
ENDBRANCH  64  67
ENDBRANCH  37  60
ENDBRANCH  11  12
ENDBRANCH   4   6
ENDBRANCH   1   2
BRANCH   1  71
ATOM     71  C   UNL     1       2.357   8.446  -0.424  1.00  0.00     0.023 C 
BRANCH  71  72
ATOM     72  C   UNL     1       3.877   8.530  -0.427  1.00  0.00     0.023 C 
BRANCH  72  73
ATOM     73  C   UNL     1       4.557   8.014   0.835  1.00  0.00     0.116 C 
BRANCH  73  74
ATOM     74  N   UNL     1       4.583   6.574   0.945  1.00  0.00    -0.354 N 
ATOM     75  C   UNL     1       5.379   5.742   1.664  1.00  0.00     0.249 C 
ATOM     76  H   UNL     1       3.903   6.115   0.402  1.00  0.00     0.163 HD
ATOM     77  O   UNL     1       5.074   4.542   1.608  1.00  0.00    -0.272 OA
BRANCH  75  78
ATOM     78  C   UNL     1       6.575   6.167   2.565  1.00  0.00     0.211 C 
ATOM     79  C   UNL     1       7.382   7.407   2.295  1.00  0.00     0.085 C 
ATOM     80  O   UNL     1       6.303   6.178   3.962  1.00  0.00    -0.357 OA
ATOM     81  C   UNL     1       6.972   8.441   3.367  1.00  0.00     0.124 C 
ATOM     82  C   UNL     1       6.253   7.543   4.446  1.00  0.00     0.187 C 
BRANCH  81  83
ATOM     83  C   UNL     1       8.219   9.323   3.568  1.00  0.00     0.005 A 
ATOM     84  C   UNL     1       8.569  10.135   2.445  1.00  0.00     0.008 A 
ATOM     85  C   UNL     1       9.096   9.375   4.660  1.00  0.00     0.047 A 
ATOM     86  C   UNL     1       9.709  10.937   2.405  1.00  0.00     0.001 A 
ATOM     87  C   UNL     1      10.238  10.202   4.622  1.00  0.00     0.021 A 
ATOM     88  Cl  UNL     1       8.935   8.447   6.099  1.00  0.00    -0.084 Cl
ATOM     89  C   UNL     1      10.548  10.973   3.503  1.00  0.00     0.002 A 
ENDBRANCH  81  83
BRANCH  81  90
ATOM     90  O   UNL     1       6.005   9.350   2.805  1.00  0.00    -0.382 OA
ATOM     91  H   UNL     1       5.174   8.878   2.642  1.00  0.00     0.212 HD
ENDBRANCH  81  90
BRANCH  82  92
ATOM     92  C   UNL     1       4.793   7.864   4.802  1.00  0.00     0.003 A 
ATOM     93  C   UNL     1       3.756   6.953   4.498  1.00  0.00     0.008 A 
ATOM     94  C   UNL     1       4.427   9.039   5.481  1.00  0.00     0.046 A 
ATOM     95  C   UNL     1       2.421   7.222   4.806  1.00  0.00     0.000 A 
ATOM     96  C   UNL     1       3.087   9.306   5.796  1.00  0.00     0.021 A 
ATOM     97  Cl  UNL     1       5.598  10.214   5.963  1.00  0.00    -0.084 Cl
ATOM     98  C   UNL     1       2.084   8.403   5.450  1.00  0.00     0.002 A 
ENDBRANCH  82  92
ENDBRANCH  75  78
ENDBRANCH  73  74
ENDBRANCH  72  73
ENDBRANCH  71  72
ENDBRANCH   1  71
TORSDOF 17
