REMARK SMILES CC[C@H](C)[C@H](C(=O)NCCCCNC(=O)c1ccc(-c2c3nc(c(-c4cccc(S(=O)(=O)[O-])c4F)c4ccc([nH]4)c(-c4cccc(S(=O)(=O)[O-])c4F)c4nc(c(-c5cccc(S(=O)(=O)[O-])c5F)c5ccc2[nH]5)C=C4)C=C3)cc1)[NH+]1CC2(CC2)C1
REMARK SMILES IDX 11 1 10 2 9 3 8 4 6 5 7 6 5 8 3 9 4 10 2 11 1 12 79 13 80 14
REMARK SMILES IDX 84 15 81 17 82 18 83 19 12 20 13 21 14 22 15 24 16 25 17 26
REMARK SMILES IDX 78 27 18 28 77 29 19 30 20 31 21 32 71 33 22 34 76 35 70 36
REMARK SMILES IDX 72 37 23 38 75 39 69 40 68 41 24 43 56 44 36 45 55 46 37 47
REMARK SMILES IDX 40 48 54 49 73 50 38 51 39 52 53 54 74 55 41 56 25 57 26 58
REMARK SMILES IDX 34 59 27 60 29 61 35 62 28 63 30 64 31 65 32 66 33 67 57 68
REMARK SMILES IDX 58 69 66 70 59 71 61 72 67 73 60 74 62 75 63 76 64 77 65 78
REMARK SMILES IDX 42 79 43 80 51 81 44 82 46 83 52 84 45 85 47 86 48 87 49 88
REMARK SMILES IDX 50 89
REMARK H PARENT 8 7 79 16 13 23 72 42 40 53
REMARK Flexibility Score: inf
ROOT
ATOM      1  C   UNL     1      -2.273  -0.305  -0.718  1.00  0.00     0.023 C 
ENDROOT
BRANCH   1   2
ATOM      2  C   UNL     1      -2.333  -0.894   0.694  1.00  0.00     0.023 C 
BRANCH   2   3
ATOM      3  C   UNL     1      -0.994  -1.390   1.230  1.00  0.00     0.116 C 
BRANCH   3   4
ATOM      4  N   UNL     1      -0.013  -0.324   1.247  1.00  0.00    -0.351 N 
ATOM      5  C   UNL     1       0.732   0.196   2.268  1.00  0.00     0.278 C 
ATOM      6  O   UNL     1       1.537   1.067   1.938  1.00  0.00    -0.268 OA
ATOM      7  H   UNL     1       0.145   0.098   0.372  1.00  0.00     0.163 HD
BRANCH   5   8
ATOM      8  C   UNL     1       0.615  -0.425   3.680  1.00  0.00     0.277 C 
BRANCH   8   9
ATOM      9  C   UNL     1       1.417  -1.783   3.705  1.00  0.00     0.054 C 
ATOM     10  C   UNL     1       2.724  -1.758   2.901  1.00  0.00     0.014 C 
BRANCH   9  11
ATOM     11  C   UNL     1       1.642  -2.348   5.129  1.00  0.00     0.006 C 
ATOM     12  C   UNL     1       2.855  -1.789   5.869  1.00  0.00     0.004 C 
ENDBRANCH   9  11
ENDBRANCH   8   9
BRANCH   8  13
ATOM     13  N   UNL     1       0.974   0.416   4.859  1.00  0.00    -0.323 N 
ATOM     14  C   UNL     1       1.330   1.833   4.662  1.00  0.00     0.275 C 
ATOM     15  C   UNL     1      -0.240   0.853   5.599  1.00  0.00     0.275 C 
ATOM     16  H   UNL     1       1.697  -0.197   5.238  1.00  0.00     0.348 HD
ATOM     17  C   UNL     1      -0.081   2.157   4.933  1.00  0.00     0.068 C 
ATOM     18  C   UNL     1      -1.063   2.832   4.033  1.00  0.00     0.020 C 
ATOM     19  C   UNL     1      -0.637   3.484   5.327  1.00  0.00     0.020 C 
ENDBRANCH   8  13
ENDBRANCH   5   8
ENDBRANCH   3   4
ENDBRANCH   2   3
ENDBRANCH   1   2
BRANCH   1  20
ATOM     20  C   UNL     1      -1.659  -1.219  -1.773  1.00  0.00     0.116 C 
BRANCH  20  21
ATOM     21  N   UNL     1      -2.402  -2.461  -1.931  1.00  0.00    -0.352 N 
ATOM     22  C   UNL     1      -2.935  -3.006  -3.073  1.00  0.00     0.251 C 
ATOM     23  H   UNL     1      -2.542  -2.981  -1.106  1.00  0.00     0.163 HD
ATOM     24  O   UNL     1      -3.692  -3.971  -3.000  1.00  0.00    -0.269 OA
BRANCH  22  25
ATOM     25  C   UNL     1      -2.610  -2.409  -4.385  1.00  0.00     0.039 A 
ATOM     26  C   UNL     1      -3.644  -2.143  -5.285  1.00  0.00     0.014 A 
ATOM     27  C   UNL     1      -1.290  -2.089  -4.712  1.00  0.00     0.014 A 
ATOM     28  C   UNL     1      -3.359  -1.497  -6.490  1.00  0.00     0.010 A 
ATOM     29  C   UNL     1      -1.020  -1.374  -5.875  1.00  0.00     0.010 A 
ATOM     30  C   UNL     1      -2.050  -1.075  -6.780  1.00  0.00    -0.014 A 
BRANCH  30  31
ATOM     31  C   UNL     1      -1.742  -0.311  -8.016  1.00  0.00     0.031 A 
ATOM     32  C   UNL     1      -0.793  -0.873  -9.040  1.00  0.00     0.074 A 
ATOM     33  C   UNL     1      -2.250   0.928  -8.178  1.00  0.00     0.049 A 
ATOM     34  N   UNL     1      -0.364  -0.332 -10.151  1.00  0.00    -0.248 NA
ATOM     35  C   UNL     1      -0.229  -2.206  -8.768  1.00  0.00     0.031 C 
ATOM     36  C   UNL     1      -3.118   1.617  -7.221  1.00  0.00     0.029 A 
ATOM     37  N   UNL     1      -2.088   1.838  -9.193  1.00  0.00    -0.354 N 
ATOM     38  C   UNL     1       0.544  -1.236 -10.689  1.00  0.00     0.074 A 
ATOM     39  C   UNL     1       0.631  -2.346  -9.766  1.00  0.00     0.031 C 
ATOM     40  C   UNL     1      -3.416   2.837  -7.695  1.00  0.00     0.029 A 
ATOM     41  C   UNL     1      -2.735   3.033  -8.971  1.00  0.00     0.049 A 
ATOM     42  H   UNL     1      -1.560   1.654 -10.002  1.00  0.00     0.167 HD
ATOM     43  C   UNL     1       1.223  -1.164 -11.858  1.00  0.00     0.034 A 
ATOM     44  C   UNL     1      -2.766   4.162  -9.705  1.00  0.00     0.034 A 
ATOM     45  C   UNL     1       1.107  -0.075 -12.790  1.00  0.00     0.049 A 
ATOM     46  C   UNL     1      -2.028   4.204 -11.015  1.00  0.00     0.074 A 
ATOM     47  C   UNL     1       1.683   0.049 -14.042  1.00  0.00     0.029 A 
ATOM     48  N   UNL     1       0.379   1.083 -12.568  1.00  0.00    -0.354 N 
ATOM     49  N   UNL     1      -1.302   3.272 -11.583  1.00  0.00    -0.248 NA
ATOM     50  C   UNL     1      -2.143   5.439 -11.805  1.00  0.00     0.031 C 
ATOM     51  C   UNL     1       1.332   1.299 -14.562  1.00  0.00     0.029 A 
ATOM     52  C   UNL     1       0.501   1.934 -13.653  1.00  0.00     0.049 A 
ATOM     53  H   UNL     1      -0.148   1.272 -11.758  1.00  0.00     0.167 HD
ATOM     54  C   UNL     1      -0.907   3.791 -12.811  1.00  0.00     0.074 A 
ATOM     55  C   UNL     1      -1.490   5.112 -12.912  1.00  0.00     0.031 C 
ATOM     56  C   UNL     1      -0.125   3.227 -13.764  1.00  0.00     0.034 A 
BRANCH  43  57
ATOM     57  C   UNL     1       2.126  -2.317 -12.217  1.00  0.00     0.023 A 
ATOM     58  C   UNL     1       1.565  -3.565 -12.560  1.00  0.00     0.012 A 
ATOM     59  C   UNL     1       3.524  -2.150 -12.273  1.00  0.00     0.148 A 
ATOM     60  C   UNL     1       2.381  -4.639 -12.913  1.00  0.00     0.002 A 
ATOM     61  C   UNL     1       4.327  -3.211 -12.675  1.00  0.00     0.091 A 
ATOM     62  F   UNL     1       4.041  -0.963 -11.926  1.00  0.00    -0.205 F 
ATOM     63  C   UNL     1       3.760  -4.459 -12.981  1.00  0.00     0.022 A 
BRANCH  61  64
ATOM     64  S   UNL     1       6.106  -3.058 -12.877  1.00  0.00     0.127 S 
ATOM     65  O   UNL     1       6.599  -3.880 -11.772  1.00  0.00    -0.237 OA
ATOM     66  O   UNL     1       6.314  -3.635 -14.205  1.00  0.00    -0.237 OA
ATOM     67  O   UNL     1       6.402  -1.636 -12.777  1.00  0.00    -0.744 OA
ENDBRANCH  61  64
ENDBRANCH  43  57
BRANCH  44  68
ATOM     68  C   UNL     1      -3.570   5.330  -9.242  1.00  0.00     0.023 A 
ATOM     69  C   UNL     1      -4.737   5.690  -9.943  1.00  0.00     0.012 A 
ATOM     70  C   UNL     1      -3.198   6.068  -8.102  1.00  0.00     0.148 A 
ATOM     71  C   UNL     1      -5.500   6.786  -9.538  1.00  0.00     0.002 A 
ATOM     72  C   UNL     1      -3.993   7.122  -7.670  1.00  0.00     0.091 A 
ATOM     73  F   UNL     1      -2.079   5.713  -7.455  1.00  0.00    -0.205 F 
ATOM     74  C   UNL     1      -5.134   7.496  -8.397  1.00  0.00     0.022 A 
BRANCH  72  75
ATOM     75  S   UNL     1      -3.674   8.008  -6.141  1.00  0.00     0.127 S 
ATOM     76  O   UNL     1      -3.283   9.325  -6.635  1.00  0.00    -0.237 OA
ATOM     77  O   UNL     1      -4.982   7.957  -5.487  1.00  0.00    -0.237 OA
ATOM     78  O   UNL     1      -2.632   7.253  -5.458  1.00  0.00    -0.744 OA
ENDBRANCH  72  75
ENDBRANCH  44  68
BRANCH  56  79
ATOM     79  C   UNL     1       0.113   4.008 -15.031  1.00  0.00     0.023 A 
ATOM     80  C   UNL     1       0.943   5.146 -15.015  1.00  0.00     0.012 A 
ATOM     81  C   UNL     1      -0.429   3.563 -16.254  1.00  0.00     0.148 A 
ATOM     82  C   UNL     1       1.204   5.848 -16.192  1.00  0.00     0.002 A 
ATOM     83  C   UNL     1      -0.121   4.236 -17.429  1.00  0.00     0.091 A 
ATOM     84  F   UNL     1      -1.231   2.489 -16.244  1.00  0.00    -0.205 F 
ATOM     85  C   UNL     1       0.683   5.386 -17.399  1.00  0.00     0.022 A 
BRANCH  83  86
ATOM     86  S   UNL     1      -0.663   3.657 -19.041  1.00  0.00     0.127 S 
ATOM     87  O   UNL     1      -1.649   4.673 -19.406  1.00  0.00    -0.237 OA
ATOM     88  O   UNL     1       0.576   3.702 -19.818  1.00  0.00    -0.237 OA
ATOM     89  O   UNL     1      -1.197   2.318 -18.831  1.00  0.00    -0.744 OA
ENDBRANCH  83  86
ENDBRANCH  56  79
ENDBRANCH  30  31
ENDBRANCH  22  25
ENDBRANCH  20  21
ENDBRANCH   1  20
TORSDOF 17
