REMARK SMILES [NH3+][C@H](C(=O)NCCCCNC(=O)c1ccc(-c2c3nc(c(-c4cccc(S(=O)(=O)[O-])c4F)c4ccc([nH]4)c(-c4cccc(S(=O)(=O)[O-])c4F)c4nc(c(-c5cccc(S(=O)(=O)[O-])c5F)c5ccc2[nH]5)C=C4)C=C3)cc1)c1ccc(OCC(=O)N2CCCC2)cc1
REMARK SMILES IDX 7 1 6 2 5 3 3 4 4 5 2 7 1 8 76 12 77 13 90 14 78 15 89 16
REMARK SMILES IDX 79 17 80 18 81 19 82 20 83 21 84 22 85 23 88 24 86 25 87 26
REMARK SMILES IDX 8 27 9 28 10 29 11 30 12 32 13 33 14 34 75 35 15 36 74 37
REMARK SMILES IDX 16 38 17 39 18 40 68 41 19 42 73 43 67 44 69 45 20 46 72 47
REMARK SMILES IDX 66 48 65 49 21 51 53 52 33 53 52 54 34 55 37 56 51 57 70 58
REMARK SMILES IDX 35 59 36 60 50 62 71 63 38 64 22 65 23 66 31 67 24 68 26 69
REMARK SMILES IDX 32 70 25 71 27 72 28 73 29 74 30 75 54 76 55 77 63 78 56 79
REMARK SMILES IDX 58 80 64 81 57 82 59 83 60 84 61 85 62 86 39 87 40 88 48 89
REMARK SMILES IDX 41 90 43 91 49 92 42 93 44 94 45 95 46 96 47 97
REMARK H PARENT 5 6 1 9 1 10 1 11 10 31 69 50 37 61
REMARK Flexibility Score: inf
ROOT
ATOM      1  C   UNL     1       0.340   2.837   2.422  1.00  0.00     0.023 C 
ENDROOT
BRANCH   1   2
ATOM      2  C   UNL     1      -0.152   1.715   1.516  1.00  0.00     0.116 C 
BRANCH   2   3
ATOM      3  N   UNL     1       0.834   1.282   0.540  1.00  0.00    -0.351 N 
ATOM      4  C   UNL     1       1.048   0.051  -0.022  1.00  0.00     0.283 C 
ATOM      5  O   UNL     1       1.812   0.005  -0.993  1.00  0.00    -0.268 OA
ATOM      6  H   UNL     1       1.449   1.987   0.234  1.00  0.00     0.163 HD
BRANCH   4   7
ATOM      7  C   UNL     1       0.451  -1.255   0.568  1.00  0.00     0.302 C 
BRANCH   7   8
ATOM      8  N   UNL     1       1.027  -1.479   1.918  1.00  0.00    -0.343 N 
ATOM      9  H   UNL     1       0.640  -2.335   2.314  1.00  0.00     0.345 HD
ATOM     10  H   UNL     1       0.795  -0.690   2.521  1.00  0.00     0.345 HD
ATOM     11  H   UNL     1       2.040  -1.565   1.845  1.00  0.00     0.345 HD
ENDBRANCH   7   8
BRANCH   7  12
ATOM     12  C   UNL     1      -1.064  -1.387   0.577  1.00  0.00     0.019 A 
ATOM     13  C   UNL     1      -1.915  -0.410   0.052  1.00  0.00     0.014 A 
ATOM     14  C   UNL     1      -1.655  -2.532   1.147  1.00  0.00     0.014 A 
ATOM     15  C   UNL     1      -3.286  -0.474   0.274  1.00  0.00     0.047 A 
ATOM     16  C   UNL     1      -3.042  -2.643   1.286  1.00  0.00     0.047 A 
ATOM     17  C   UNL     1      -3.853  -1.592   0.878  1.00  0.00     0.120 A 
BRANCH  17  18
ATOM     18  O   UNL     1      -5.202  -1.519   1.052  1.00  0.00    -0.484 OA
BRANCH  18  19
ATOM     19  C   UNL     1      -5.923  -2.716   0.858  1.00  0.00     0.329 C 
BRANCH  19  20
ATOM     20  C   UNL     1      -5.885  -3.443  -0.499  1.00  0.00     0.260 C 
ATOM     21  O   UNL     1      -5.863  -4.678  -0.530  1.00  0.00    -0.271 OA
ATOM     22  N   UNL     1      -6.019  -2.699  -1.652  1.00  0.00    -0.340 N 
ATOM     23  C   UNL     1      -5.898  -1.263  -1.817  1.00  0.00     0.119 C 
ATOM     24  C   UNL     1      -6.269  -3.343  -2.927  1.00  0.00     0.119 C 
ATOM     25  C   UNL     1      -6.698  -0.971  -3.070  1.00  0.00     0.023 C 
ATOM     26  C   UNL     1      -6.472  -2.210  -3.928  1.00  0.00     0.023 C 
ENDBRANCH  19  20
ENDBRANCH  18  19
ENDBRANCH  17  18
ENDBRANCH   7  12
ENDBRANCH   4   7
ENDBRANCH   2   3
ENDBRANCH   1   2
BRANCH   1  27
ATOM     27  C   UNL     1       0.757   4.122   1.704  1.00  0.00     0.023 C 
BRANCH  27  28
ATOM     28  C   UNL     1      -0.255   4.698   0.718  1.00  0.00     0.116 C 
BRANCH  28  29
ATOM     29  N   UNL     1      -1.515   5.075   1.341  1.00  0.00    -0.352 N 
ATOM     30  C   UNL     1      -2.132   6.306   1.402  1.00  0.00     0.251 C 
ATOM     31  H   UNL     1      -1.999   4.341   1.786  1.00  0.00     0.163 HD
ATOM     32  O   UNL     1      -3.134   6.453   2.089  1.00  0.00    -0.269 OA
BRANCH  30  33
ATOM     33  C   UNL     1      -1.563   7.456   0.661  1.00  0.00     0.039 A 
ATOM     34  C   UNL     1      -1.409   8.676   1.324  1.00  0.00     0.014 A 
ATOM     35  C   UNL     1      -1.166   7.329  -0.671  1.00  0.00     0.014 A 
ATOM     36  C   UNL     1      -0.780   9.742   0.675  1.00  0.00     0.010 A 
ATOM     37  C   UNL     1      -0.465   8.363  -1.286  1.00  0.00     0.010 A 
ATOM     38  C   UNL     1      -0.262   9.582  -0.621  1.00  0.00    -0.014 A 
BRANCH  38  39
ATOM     39  C   UNL     1       0.516  10.664  -1.283  1.00  0.00     0.031 A 
ATOM     40  C   UNL     1       0.039  11.266  -2.578  1.00  0.00     0.074 A 
ATOM     41  C   UNL     1       1.704  11.042  -0.767  1.00  0.00     0.049 A 
ATOM     42  N   UNL     1       0.613  12.172  -3.326  1.00  0.00    -0.248 NA
ATOM     43  C   UNL     1      -1.236  10.765  -3.118  1.00  0.00     0.031 C 
ATOM     44  C   UNL     1       2.323  10.478   0.434  1.00  0.00     0.029 A 
ATOM     45  N   UNL     1       2.618  11.970  -1.205  1.00  0.00    -0.354 N 
ATOM     46  C   UNL     1      -0.205  12.321  -4.440  1.00  0.00     0.074 A 
ATOM     47  C   UNL     1      -1.300  11.389  -4.285  1.00  0.00     0.031 C 
ATOM     48  C   UNL     1       3.510  11.072   0.639  1.00  0.00     0.029 A 
ATOM     49  C   UNL     1       3.755  12.033  -0.431  1.00  0.00     0.049 A 
ATOM     50  H   UNL     1       2.474  12.536  -1.997  1.00  0.00     0.167 HD
ATOM     51  C   UNL     1      -0.073  13.174  -5.484  1.00  0.00     0.034 A 
ATOM     52  C   UNL     1       4.874  12.770  -0.572  1.00  0.00     0.034 A 
ATOM     53  C   UNL     1       0.994  14.129  -5.616  1.00  0.00     0.049 A 
ATOM     54  C   UNL     1       4.975  13.741  -1.717  1.00  0.00     0.074 A 
ATOM     55  C   UNL     1       1.159  15.102  -6.587  1.00  0.00     0.029 A 
ATOM     56  N   UNL     1       2.083  14.225  -4.765  1.00  0.00    -0.354 N 
ATOM     57  N   UNL     1       4.110  13.983  -2.671  1.00  0.00    -0.248 NA
ATOM     58  C   UNL     1       6.190  14.566  -1.786  1.00  0.00     0.031 C 
ATOM     59  C   UNL     1       2.367  15.764  -6.341  1.00  0.00     0.029 A 
ATOM     60  C   UNL     1       2.933  15.230  -5.194  1.00  0.00     0.049 A 
ATOM     61  H   UNL     1       2.230  13.661  -3.971  1.00  0.00     0.167 HD
ATOM     62  C   UNL     1       4.657  15.011  -3.431  1.00  0.00     0.074 A 
ATOM     63  C   UNL     1       5.919  15.360  -2.813  1.00  0.00     0.031 C 
ATOM     64  C   UNL     1       4.163  15.604  -4.546  1.00  0.00     0.034 A 
BRANCH  51  65
ATOM     65  C   UNL     1      -1.135  13.145  -6.553  1.00  0.00     0.023 A 
ATOM     66  C   UNL     1      -2.427  13.633  -6.269  1.00  0.00     0.012 A 
ATOM     67  C   UNL     1      -0.837  12.700  -7.856  1.00  0.00     0.148 A 
ATOM     68  C   UNL     1      -3.415  13.646  -7.252  1.00  0.00     0.002 A 
ATOM     69  C   UNL     1      -1.813  12.761  -8.844  1.00  0.00     0.091 A 
ATOM     70  F   UNL     1       0.391  12.222  -8.103  1.00  0.00    -0.205 F 
ATOM     71  C   UNL     1      -3.105  13.221  -8.541  1.00  0.00     0.022 A 
BRANCH  69  72
ATOM     72  S   UNL     1      -1.492  12.316 -10.554  1.00  0.00     0.127 S 
ATOM     73  O   UNL     1      -2.282  11.093 -10.693  1.00  0.00    -0.237 OA
ATOM     74  O   UNL     1      -2.025  13.471 -11.277  1.00  0.00    -0.237 OA
ATOM     75  O   UNL     1      -0.050  12.142 -10.662  1.00  0.00    -0.744 OA
ENDBRANCH  69  72
ENDBRANCH  51  65
BRANCH  52  76
ATOM     76  C   UNL     1       5.971  12.657   0.432  1.00  0.00     0.023 A 
ATOM     77  C   UNL     1       6.225  13.729   1.309  1.00  0.00     0.012 A 
ATOM     78  C   UNL     1       6.744  11.484   0.538  1.00  0.00     0.148 A 
ATOM     79  C   UNL     1       7.250  13.649   2.252  1.00  0.00     0.002 A 
ATOM     80  C   UNL     1       7.725  11.389   1.518  1.00  0.00     0.091 A 
ATOM     81  F   UNL     1       6.493  10.479  -0.312  1.00  0.00    -0.205 F 
ATOM     82  C   UNL     1       7.993  12.477   2.363  1.00  0.00     0.022 A 
BRANCH  80  83
ATOM     83  S   UNL     1       8.638   9.873   1.824  1.00  0.00     0.127 S 
ATOM     84  O   UNL     1       9.983  10.241   1.391  1.00  0.00    -0.237 OA
ATOM     85  O   UNL     1       8.477   9.713   3.270  1.00  0.00    -0.237 OA
ATOM     86  O   UNL     1       7.976   8.847   1.029  1.00  0.00    -0.744 OA
ENDBRANCH  80  83
ENDBRANCH  52  76
BRANCH  64  87
ATOM     87  C   UNL     1       4.963  16.725  -5.158  1.00  0.00     0.023 A 
ATOM     88  C   UNL     1       6.170  16.447  -5.829  1.00  0.00     0.012 A 
ATOM     89  C   UNL     1       4.476  18.047  -5.131  1.00  0.00     0.148 A 
ATOM     90  C   UNL     1       6.897  17.472  -6.434  1.00  0.00     0.002 A 
ATOM     91  C   UNL     1       5.178  19.055  -5.780  1.00  0.00     0.091 A 
ATOM     92  F   UNL     1       3.334  18.295  -4.472  1.00  0.00    -0.205 F 
ATOM     93  C   UNL     1       6.396  18.772  -6.420  1.00  0.00     0.022 A 
BRANCH  91  94
ATOM     94  S   UNL     1       4.561  20.737  -5.900  1.00  0.00     0.127 S 
ATOM     95  O   UNL     1       5.473  21.454  -5.011  1.00  0.00    -0.237 OA
ATOM     96  O   UNL     1       4.738  21.031  -7.323  1.00  0.00    -0.237 OA
ATOM     97  O   UNL     1       3.172  20.688  -5.462  1.00  0.00    -0.744 OA
ENDBRANCH  91  94
ENDBRANCH  64  87
ENDBRANCH  38  39
ENDBRANCH  30  33
ENDBRANCH  28  29
ENDBRANCH  27  28
ENDBRANCH   1  27
TORSDOF 19
