REMARK SMILES O=C(NCCCCNC(=O)[C@@H]1CCC(=O)N(CCCOC2CCCCC2)[C@H]1c1ccco1)c1ccc(-c2c3nc(c(-c4cccc(S(=O)(=O)[O-])c4F)c4ccc([nH]4)c(-c4cccc(S(=O)(=O)[O-])c4F)c4nc(c(-c5cccc(S(=O)(=O)[O-])c5F)c5ccc2[nH]5)C=C4)C=C3)cc1
REMARK SMILES IDX 6 1 5 2 4 3 3 4 1 5 2 6 33 8 34 9 95 10 35 11 94 12 36 13
REMARK SMILES IDX 37 14 38 15 88 16 39 17 93 18 87 19 89 20 40 21 92 22 86 23
REMARK SMILES IDX 85 24 41 26 73 27 53 28 72 29 54 30 57 31 71 32 90 33 55 34
REMARK SMILES IDX 56 35 70 37 91 38 58 39 42 40 43 41 51 42 44 43 46 44 52 45
REMARK SMILES IDX 45 46 47 47 48 48 49 49 50 50 74 51 75 52 83 53 76 54 78 55
REMARK SMILES IDX 84 56 77 57 79 58 80 59 81 60 82 61 59 62 60 63 68 64 61 65
REMARK SMILES IDX 63 66 69 67 62 68 64 69 65 70 66 71 67 72 7 73 8 74 9 75
REMARK SMILES IDX 10 77 11 78 12 79 27 80 13 81 16 82 14 83 15 84 28 85 29 86
REMARK SMILES IDX 32 87 30 88 31 89 17 90 18 91 19 92 20 93 21 94 22 95 26 96
REMARK SMILES IDX 23 97 25 98 24 99
REMARK H PARENT 3 7 89 25 57 36 8 76
REMARK Flexibility Score: inf
ROOT
ATOM      1  C   UNL     1       4.573   1.102  -3.330  1.00  0.00     0.023 C 
ENDROOT
BRANCH   1   2
ATOM      2  C   UNL     1       5.074   0.008  -2.394  1.00  0.00     0.023 C 
BRANCH   2   3
ATOM      3  C   UNL     1       4.529   0.070  -0.973  1.00  0.00     0.116 C 
BRANCH   3   4
ATOM      4  N   UNL     1       3.082   0.221  -0.867  1.00  0.00    -0.352 N 
ATOM      5  O   UNL     1       1.059  -0.058   0.116  1.00  0.00    -0.269 OA
ATOM      6  C   UNL     1       2.263  -0.216   0.161  1.00  0.00     0.251 C 
ATOM      7  H   UNL     1       2.637   0.688  -1.610  1.00  0.00     0.163 HD
BRANCH   6   8
ATOM      8  C   UNL     1       2.908  -0.929   1.285  1.00  0.00     0.039 A 
ATOM      9  C   UNL     1       4.022  -0.360   1.898  1.00  0.00     0.014 A 
ATOM     10  C   UNL     1       2.498  -2.225   1.607  1.00  0.00     0.014 A 
ATOM     11  C   UNL     1       4.851  -1.163   2.663  1.00  0.00     0.010 A 
ATOM     12  C   UNL     1       3.271  -2.990   2.487  1.00  0.00     0.010 A 
ATOM     13  C   UNL     1       4.483  -2.484   2.980  1.00  0.00    -0.014 A 
BRANCH  13  14
ATOM     14  C   UNL     1       5.372  -3.261   3.883  1.00  0.00     0.031 A 
ATOM     15  C   UNL     1       6.029  -4.545   3.453  1.00  0.00     0.074 A 
ATOM     16  C   UNL     1       5.635  -2.740   5.098  1.00  0.00     0.049 A 
ATOM     17  N   UNL     1       6.886  -5.285   4.111  1.00  0.00    -0.248 NA
ATOM     18  C   UNL     1       5.679  -5.081   2.127  1.00  0.00     0.031 C 
ATOM     19  C   UNL     1       5.010  -1.529   5.640  1.00  0.00     0.029 A 
ATOM     20  N   UNL     1       6.506  -3.128   6.081  1.00  0.00    -0.354 N 
ATOM     21  C   UNL     1       7.142  -6.390   3.309  1.00  0.00     0.074 A 
ATOM     22  C   UNL     1       6.349  -6.228   2.109  1.00  0.00     0.031 C 
ATOM     23  C   UNL     1       5.569  -1.232   6.819  1.00  0.00     0.029 A 
ATOM     24  C   UNL     1       6.531  -2.272   7.157  1.00  0.00     0.049 A 
ATOM     25  H   UNL     1       7.061  -3.939   6.023  1.00  0.00     0.167 HD
ATOM     26  C   UNL     1       7.971  -7.436   3.547  1.00  0.00     0.034 A 
ATOM     27  C   UNL     1       7.237  -2.320   8.302  1.00  0.00     0.034 A 
ATOM     28  C   UNL     1       8.789  -7.564   4.727  1.00  0.00     0.049 A 
ATOM     29  C   UNL     1       8.200  -3.450   8.502  1.00  0.00     0.074 A 
ATOM     30  C   UNL     1       9.681  -8.572   5.051  1.00  0.00     0.029 A 
ATOM     31  N   UNL     1       8.822  -6.654   5.773  1.00  0.00    -0.354 N 
ATOM     32  N   UNL     1       8.486  -4.438   7.689  1.00  0.00    -0.248 NA
ATOM     33  C   UNL     1       8.949  -3.465   9.764  1.00  0.00     0.031 C 
ATOM     34  C   UNL     1      10.251  -8.273   6.294  1.00  0.00     0.029 A 
ATOM     35  C   UNL     1       9.723  -7.072   6.739  1.00  0.00     0.049 A 
ATOM     36  H   UNL     1       8.284  -5.831   5.822  1.00  0.00     0.167 HD
ATOM     37  C   UNL     1       9.447  -5.197   8.342  1.00  0.00     0.074 A 
ATOM     38  C   UNL     1       9.732  -4.521   9.593  1.00  0.00     0.031 C 
ATOM     39  C   UNL     1      10.016  -6.366   7.960  1.00  0.00     0.034 A 
BRANCH  26  40
ATOM     40  C   UNL     1       8.082  -8.510   2.493  1.00  0.00     0.023 A 
ATOM     41  C   UNL     1       8.815  -8.252   1.317  1.00  0.00     0.012 A 
ATOM     42  C   UNL     1       7.544  -9.796   2.702  1.00  0.00     0.148 A 
ATOM     43  C   UNL     1       8.996  -9.249   0.358  1.00  0.00     0.002 A 
ATOM     44  C   UNL     1       7.759 -10.796   1.759  1.00  0.00     0.091 A 
ATOM     45  F   UNL     1       6.834 -10.018   3.818  1.00  0.00    -0.205 F 
ATOM     46  C   UNL     1       8.478 -10.522   0.584  1.00  0.00     0.022 A 
BRANCH  44  47
ATOM     47  S   UNL     1       7.197 -12.488   1.989  1.00  0.00     0.127 S 
ATOM     48  O   UNL     1       6.114 -12.575   1.010  1.00  0.00    -0.237 OA
ATOM     49  O   UNL     1       8.392 -13.260   1.645  1.00  0.00    -0.237 OA
ATOM     50  O   UNL     1       6.791 -12.589   3.383  1.00  0.00    -0.744 OA
ENDBRANCH  44  47
ENDBRANCH  26  40
BRANCH  27  51
ATOM     51  C   UNL     1       7.065  -1.241   9.314  1.00  0.00     0.023 A 
ATOM     52  C   UNL     1       8.114  -0.336   9.559  1.00  0.00     0.012 A 
ATOM     53  C   UNL     1       5.833  -1.056   9.972  1.00  0.00     0.148 A 
ATOM     54  C   UNL     1       7.944   0.723  10.452  1.00  0.00     0.002 A 
ATOM     55  C   UNL     1       5.647   0.042  10.801  1.00  0.00     0.091 A 
ATOM     56  F   UNL     1       4.850  -1.940   9.748  1.00  0.00    -0.205 F 
ATOM     57  C   UNL     1       6.706   0.923  11.058  1.00  0.00     0.022 A 
BRANCH  55  58
ATOM     58  S   UNL     1       4.023   0.452  11.451  1.00  0.00     0.127 S 
ATOM     59  O   UNL     1       4.070  -0.147  12.781  1.00  0.00    -0.237 OA
ATOM     60  O   UNL     1       4.038   1.916  11.433  1.00  0.00    -0.237 OA
ATOM     61  O   UNL     1       3.082  -0.139  10.508  1.00  0.00    -0.744 OA
ENDBRANCH  55  58
ENDBRANCH  27  51
BRANCH  39  62
ATOM     62  C   UNL     1      10.996  -6.985   8.918  1.00  0.00     0.023 A 
ATOM     63  C   UNL     1      10.518  -7.596  10.095  1.00  0.00     0.012 A 
ATOM     64  C   UNL     1      12.376  -6.987   8.647  1.00  0.00     0.148 A 
ATOM     65  C   UNL     1      11.404  -8.164  11.008  1.00  0.00     0.002 A 
ATOM     66  C   UNL     1      13.250  -7.593   9.542  1.00  0.00     0.091 A 
ATOM     67  F   UNL     1      12.813  -6.378   7.535  1.00  0.00    -0.205 F 
ATOM     68  C   UNL     1      12.768  -8.171  10.728  1.00  0.00     0.022 A 
BRANCH  66  69
ATOM     69  S   UNL     1      15.012  -7.712   9.217  1.00  0.00     0.127 S 
ATOM     70  O   UNL     1      15.542  -6.625  10.038  1.00  0.00    -0.237 OA
ATOM     71  O   UNL     1      15.333  -9.055   9.702  1.00  0.00    -0.237 OA
ATOM     72  O   UNL     1      15.158  -7.545   7.777  1.00  0.00    -0.744 OA
ENDBRANCH  66  69
ENDBRANCH  39  62
ENDBRANCH  13  14
ENDBRANCH   6   8
ENDBRANCH   3   4
ENDBRANCH   2   3
ENDBRANCH   1   2
BRANCH   1  73
ATOM     73  C   UNL     1       4.819   2.529  -2.849  1.00  0.00     0.116 C 
BRANCH  73  74
ATOM     74  N   UNL     1       5.984   3.119  -3.470  1.00  0.00    -0.356 N 
ATOM     75  C   UNL     1       6.179   3.926  -4.531  1.00  0.00     0.225 C 
ATOM     76  H   UNL     1       6.823   2.875  -3.015  1.00  0.00     0.163 HD
ATOM     77  O   UNL     1       7.350   4.308  -4.681  1.00  0.00    -0.275 OA
BRANCH  75  78
ATOM     78  C   UNL     1       5.128   4.438  -5.520  1.00  0.00     0.109 C 
ATOM     79  C   UNL     1       3.638   4.198  -5.406  1.00  0.00     0.026 C 
ATOM     80  C   UNL     1       5.595   4.098  -6.950  1.00  0.00     0.164 C 
ATOM     81  C   UNL     1       3.165   2.873  -5.965  1.00  0.00     0.101 C 
ATOM     82  N   UNL     1       5.214   2.752  -7.401  1.00  0.00    -0.332 N 
ATOM     83  C   UNL     1       4.033   2.157  -6.981  1.00  0.00     0.223 C 
ATOM     84  O   UNL     1       3.676   1.041  -7.367  1.00  0.00    -0.275 OA
BRANCH  80  85
ATOM     85  C   UNL     1       5.121   5.132  -7.934  1.00  0.00     0.127 A 
ATOM     86  C   UNL     1       5.578   6.401  -8.234  1.00  0.00     0.048 A 
ATOM     87  O   UNL     1       4.037   4.837  -8.709  1.00  0.00    -0.467 OA
ATOM     88  C   UNL     1       4.738   6.896  -9.259  1.00  0.00     0.042 A 
ATOM     89  C   UNL     1       3.823   5.903  -9.518  1.00  0.00     0.195 A 
ENDBRANCH  80  85
BRANCH  82  90
ATOM     90  C   UNL     1       6.093   1.965  -8.296  1.00  0.00     0.122 C 
BRANCH  90  91
ATOM     91  C   UNL     1       6.793   2.660  -9.474  1.00  0.00     0.050 C 
BRANCH  91  92
ATOM     92  C   UNL     1       8.067   3.481  -9.228  1.00  0.00     0.162 C 
BRANCH  92  93
ATOM     93  O   UNL     1       9.289   2.752  -9.205  1.00  0.00    -0.378 OA
BRANCH  93  94
ATOM     94  C   UNL     1       9.722   2.058  -8.028  1.00  0.00     0.118 C 
ATOM     95  C   UNL     1       9.134   2.515  -6.687  1.00  0.00     0.032 C 
ATOM     96  C   UNL     1       9.608   0.557  -8.307  1.00  0.00     0.032 C 
ATOM     97  C   UNL     1       9.348   1.554  -5.521  1.00  0.00     0.003 C 
ATOM     98  C   UNL     1       9.942  -0.294  -7.091  1.00  0.00     0.003 C 
ATOM     99  C   UNL     1       9.077   0.105  -5.906  1.00  0.00     0.000 C 
ENDBRANCH  93  94
ENDBRANCH  92  93
ENDBRANCH  91  92
ENDBRANCH  90  91
ENDBRANCH  82  90
ENDBRANCH  75  78
ENDBRANCH  73  74
ENDBRANCH   1  73
TORSDOF 20
