REMARK SMILES Cc1cccc(C(=O)Nc2cc(C(=O)NCCCCNC(=O)c3ccc(-c4c5nc(c(-c6cccc(S(=O)(=O)[O-])c6F)c6ccc([nH]6)c(-c6cccc(S(=O)(=O)[O-])c6F)c6nc(c(-c7cccc(S(=O)(=O)[O-])c7F)c7ccc4[nH]7)C=C6)C=C5)cc3)ccc2N2CC[NH+](CC(=O)NC(C)(C)C)CC2)c1
REMARK SMILES IDX 17 1 16 2 15 3 13 4 14 5 12 7 10 8 11 9 88 10 87 11 86 12
REMARK SMILES IDX 9 13 7 14 8 15 6 17 1 18 2 19 3 20 103 21 4 22 5 23 89 24
REMARK SMILES IDX 90 25 102 26 91 27 101 28 92 29 93 31 94 32 95 33 96 34
REMARK SMILES IDX 97 36 98 37 99 38 100 39 18 40 19 41 20 42 21 43 22 45 23 46
REMARK SMILES IDX 24 47 85 48 25 49 84 50 26 51 27 52 28 53 78 54 29 55 83 56
REMARK SMILES IDX 77 57 79 58 30 59 82 60 76 61 75 62 31 64 63 65 43 66 62 67
REMARK SMILES IDX 44 68 47 69 61 70 80 71 45 72 46 73 60 75 81 76 48 77 32 78
REMARK SMILES IDX 33 79 41 80 34 81 36 82 42 83 35 84 37 85 38 86 39 87 40 88
REMARK SMILES IDX 64 89 65 90 73 91 66 92 68 93 74 94 67 95 69 96 70 97 71 98
REMARK SMILES IDX 72 99 49 100 50 101 58 102 51 103 53 104 59 105 52 106
REMARK SMILES IDX 54 107 55 108 56 109 57 110
REMARK H PARENT 15 6 9 16 92 30 96 35 20 44 79 63 47 74
REMARK Flexibility Score: inf
ROOT
ATOM      1  C   UNL     1       0.730   1.704  -4.254  1.00  0.00     0.023 C 
ENDROOT
BRANCH   1   2
ATOM      2  C   UNL     1       1.504   0.975  -3.141  1.00  0.00     0.116 C 
BRANCH   2   3
ATOM      3  N   UNL     1       2.872   1.448  -2.966  1.00  0.00    -0.352 N 
ATOM      4  C   UNL     1       3.438   2.479  -2.250  1.00  0.00     0.251 C 
ATOM      5  O   UNL     1       4.669   2.534  -2.210  1.00  0.00    -0.269 OA
ATOM      6  H   UNL     1       3.532   0.917  -3.468  1.00  0.00     0.163 HD
BRANCH   4   7
ATOM      7  C   UNL     1       2.664   3.516  -1.505  1.00  0.00     0.042 A 
ATOM      8  C   UNL     1       0.589   4.454  -0.711  1.00  0.00     0.065 A 
ATOM      9  C   UNL     1       1.288   3.608  -1.554  1.00  0.00     0.042 A 
ATOM     10  C   UNL     1       1.236   5.410   0.098  1.00  0.00     0.061 A 
ATOM     11  C   UNL     1       2.632   5.381   0.097  1.00  0.00     0.029 A 
ATOM     12  C   UNL     1       3.335   4.418  -0.661  1.00  0.00     0.016 A 
BRANCH   8  13
ATOM     13  N   UNL     1      -0.800   4.271  -0.602  1.00  0.00    -0.320 N 
ATOM     14  C   UNL     1      -1.460   3.126  -0.173  1.00  0.00     0.255 C 
ATOM     15  O   UNL     1      -2.657   3.205   0.108  1.00  0.00    -0.269 OA
ATOM     16  H   UNL     1      -1.366   5.035  -0.857  1.00  0.00     0.170 HD
BRANCH  14  17
ATOM     17  C   UNL     1      -0.772   1.812   0.007  1.00  0.00     0.040 A 
ATOM     18  C   UNL     1       2.594   0.218   0.902  1.00  0.00     0.044 C 
ATOM     19  C   UNL     1       1.152   0.389   0.514  1.00  0.00    -0.050 A 
ATOM     20  C   UNL     1       0.471  -0.697  -0.038  1.00  0.00     0.003 A 
ATOM     21  C   UNL     1       0.497   1.632   0.593  1.00  0.00     0.017 A 
ATOM     22  C   UNL     1      -0.821  -0.535  -0.530  1.00  0.00     0.001 A 
ATOM     23  C   UNL     1      -1.446   0.706  -0.507  1.00  0.00     0.014 A 
ENDBRANCH  14  17
ENDBRANCH   8  13
BRANCH  10  24
ATOM     24  N   UNL     1       0.491   6.207   0.945  1.00  0.00    -0.359 N 
ATOM     25  C   UNL     1       0.827   7.567   1.378  1.00  0.00     0.178 C 
ATOM     26  C   UNL     1      -0.320   5.497   1.930  1.00  0.00     0.178 C 
ATOM     27  C   UNL     1      -0.476   8.320   1.837  1.00  0.00     0.284 C 
ATOM     28  C   UNL     1      -1.669   6.225   2.043  1.00  0.00     0.284 C 
ATOM     29  N   UNL     1      -1.533   7.581   2.576  1.00  0.00    -0.324 N 
ATOM     30  H   UNL     1      -2.384   8.113   2.394  1.00  0.00     0.348 HD
BRANCH  29  31
ATOM     31  C   UNL     1      -1.490   7.619   4.050  1.00  0.00     0.363 C 
BRANCH  31  32
ATOM     32  C   UNL     1      -0.381   6.807   4.711  1.00  0.00     0.275 C 
ATOM     33  O   UNL     1       0.755   7.294   4.801  1.00  0.00    -0.268 OA
ATOM     34  N   UNL     1      -0.534   5.550   5.217  1.00  0.00    -0.347 N 
ATOM     35  H   UNL     1       0.289   5.275   5.681  1.00  0.00     0.164 HD
BRANCH  34  36
ATOM     36  C   UNL     1      -1.550   4.456   5.293  1.00  0.00     0.032 C 
ATOM     37  C   UNL     1      -1.386   3.429   4.153  1.00  0.00     0.034 C 
ATOM     38  C   UNL     1      -1.242   3.682   6.595  1.00  0.00     0.034 C 
ATOM     39  C   UNL     1      -3.004   4.926   5.371  1.00  0.00     0.034 C 
ENDBRANCH  34  36
ENDBRANCH  31  32
ENDBRANCH  29  31
ENDBRANCH  10  24
ENDBRANCH   4   7
ENDBRANCH   2   3
ENDBRANCH   1   2
BRANCH   1  40
ATOM     40  C   UNL     1       1.189   1.356  -5.662  1.00  0.00     0.023 C 
BRANCH  40  41
ATOM     41  C   UNL     1       0.842  -0.067  -6.050  1.00  0.00     0.116 C 
BRANCH  41  42
ATOM     42  N   UNL     1      -0.443  -0.215  -6.700  1.00  0.00    -0.352 N 
ATOM     43  C   UNL     1      -1.030  -1.360  -7.211  1.00  0.00     0.251 C 
ATOM     44  H   UNL     1      -0.972   0.610  -6.792  1.00  0.00     0.163 HD
ATOM     45  O   UNL     1      -1.986  -1.231  -7.973  1.00  0.00    -0.269 OA
BRANCH  43  46
ATOM     46  C   UNL     1      -0.622  -2.704  -6.714  1.00  0.00     0.039 A 
ATOM     47  C   UNL     1      -1.645  -3.634  -6.479  1.00  0.00     0.014 A 
ATOM     48  C   UNL     1       0.653  -2.951  -6.217  1.00  0.00     0.014 A 
ATOM     49  C   UNL     1      -1.474  -4.620  -5.512  1.00  0.00     0.010 A 
ATOM     50  C   UNL     1       0.796  -3.843  -5.182  1.00  0.00     0.010 A 
ATOM     51  C   UNL     1      -0.297  -4.615  -4.780  1.00  0.00    -0.014 A 
BRANCH  51  52
ATOM     52  C   UNL     1      -0.078  -5.344  -3.548  1.00  0.00     0.031 A 
ATOM     53  C   UNL     1       0.632  -6.625  -3.584  1.00  0.00     0.074 A 
ATOM     54  C   UNL     1      -0.262  -4.665  -2.396  1.00  0.00     0.049 A 
ATOM     55  N   UNL     1       0.795  -7.393  -2.565  1.00  0.00    -0.248 NA
ATOM     56  C   UNL     1       1.174  -7.166  -4.822  1.00  0.00     0.031 C 
ATOM     57  C   UNL     1       0.371  -4.903  -1.108  1.00  0.00     0.029 A 
ATOM     58  N   UNL     1      -1.262  -3.728  -2.128  1.00  0.00    -0.354 N 
ATOM     59  C   UNL     1       1.702  -8.363  -2.931  1.00  0.00     0.074 A 
ATOM     60  C   UNL     1       1.794  -8.255  -4.365  1.00  0.00     0.031 C 
ATOM     61  C   UNL     1      -0.393  -4.357  -0.150  1.00  0.00     0.029 A 
ATOM     62  C   UNL     1      -1.627  -3.925  -0.788  1.00  0.00     0.049 A 
ATOM     63  H   UNL     1      -1.634  -3.063  -2.752  1.00  0.00     0.167 HD
ATOM     64  C   UNL     1       2.380  -9.014  -1.944  1.00  0.00     0.034 A 
ATOM     65  C   UNL     1      -2.889  -4.231  -0.373  1.00  0.00     0.034 A 
ATOM     66  C   UNL     1       1.796  -8.691  -0.625  1.00  0.00     0.049 A 
ATOM     67  C   UNL     1      -2.906  -5.532   0.397  1.00  0.00     0.074 A 
ATOM     68  C   UNL     1       2.165  -7.818   0.386  1.00  0.00     0.029 A 
ATOM     69  N   UNL     1       0.484  -9.075  -0.345  1.00  0.00    -0.354 N 
ATOM     70  N   UNL     1      -1.905  -6.370   0.412  1.00  0.00    -0.248 NA
ATOM     71  C   UNL     1      -4.019  -5.989   1.219  1.00  0.00     0.031 C 
ATOM     72  C   UNL     1       1.027  -7.597   1.212  1.00  0.00     0.029 A 
ATOM     73  C   UNL     1      -0.024  -8.366   0.735  1.00  0.00     0.049 A 
ATOM     74  H   UNL     1      -0.016  -9.758  -0.848  1.00  0.00     0.167 HD
ATOM     75  C   UNL     1      -2.226  -7.478   1.139  1.00  0.00     0.074 A 
ATOM     76  C   UNL     1      -3.544  -7.164   1.672  1.00  0.00     0.031 C 
ATOM     77  C   UNL     1      -1.402  -8.570   1.191  1.00  0.00     0.034 A 
BRANCH  64  78
ATOM     78  C   UNL     1       3.738  -9.698  -2.113  1.00  0.00     0.023 A 
ATOM     79  C   UNL     1       4.463  -9.989  -0.934  1.00  0.00     0.012 A 
ATOM     80  C   UNL     1       4.410 -10.001  -3.324  1.00  0.00     0.148 A 
ATOM     81  C   UNL     1       5.780 -10.473  -0.953  1.00  0.00     0.002 A 
ATOM     82  C   UNL     1       5.732 -10.459  -3.349  1.00  0.00     0.091 A 
ATOM     83  F   UNL     1       3.781  -9.893  -4.489  1.00  0.00    -0.205 F 
ATOM     84  C   UNL     1       6.424 -10.690  -2.162  1.00  0.00     0.022 A 
BRANCH  82  85
ATOM     85  S   UNL     1       6.634 -10.739  -4.889  1.00  0.00     0.127 S 
ATOM     86  O   UNL     1       7.812  -9.887  -4.713  1.00  0.00    -0.237 OA
ATOM     87  O   UNL     1       6.907 -12.174  -4.834  1.00  0.00    -0.237 OA
ATOM     88  O   UNL     1       5.750 -10.320  -5.971  1.00  0.00    -0.744 OA
ENDBRANCH  82  85
ENDBRANCH  64  78
BRANCH  65  89
ATOM     89  C   UNL     1      -3.959  -3.689  -1.263  1.00  0.00     0.023 A 
ATOM     90  C   UNL     1      -4.061  -2.277  -1.323  1.00  0.00     0.012 A 
ATOM     91  C   UNL     1      -4.480  -4.446  -2.326  1.00  0.00     0.148 A 
ATOM     92  C   UNL     1      -4.471  -1.635  -2.492  1.00  0.00     0.002 A 
ATOM     93  C   UNL     1      -4.907  -3.796  -3.486  1.00  0.00     0.091 A 
ATOM     94  F   UNL     1      -4.457  -5.781  -2.230  1.00  0.00    -0.205 F 
ATOM     95  C   UNL     1      -4.851  -2.397  -3.590  1.00  0.00     0.022 A 
BRANCH  93  96
ATOM     96  S   UNL     1      -5.401  -4.721  -4.948  1.00  0.00     0.127 S 
ATOM     97  O   UNL     1      -6.846  -4.806  -4.768  1.00  0.00    -0.237 OA
ATOM     98  O   UNL     1      -4.967  -3.849  -6.038  1.00  0.00    -0.237 OA
ATOM     99  O   UNL     1      -4.661  -5.971  -4.857  1.00  0.00    -0.744 OA
ENDBRANCH  93  96
ENDBRANCH  65  89
BRANCH  77 100
ATOM    100  C   UNL     1      -1.833  -9.939   1.680  1.00  0.00     0.023 A 
ATOM    101  C   UNL     1      -3.189 -10.317   1.745  1.00  0.00     0.012 A 
ATOM    102  C   UNL     1      -0.880 -10.959   1.929  1.00  0.00     0.148 A 
ATOM    103  C   UNL     1      -3.587 -11.609   2.101  1.00  0.00     0.002 A 
ATOM    104  C   UNL     1      -1.279 -12.273   2.157  1.00  0.00     0.091 A 
ATOM    105  F   UNL     1       0.427 -10.662   1.960  1.00  0.00    -0.205 F 
ATOM    106  C   UNL     1      -2.631 -12.596   2.281  1.00  0.00     0.022 A 
BRANCH 104 107
ATOM    107  S   UNL     1      -0.087 -13.619   2.115  1.00  0.00     0.127 S 
ATOM    108  O   UNL     1       0.248 -13.772   3.528  1.00  0.00    -0.237 OA
ATOM    109  O   UNL     1      -0.874 -14.718   1.552  1.00  0.00    -0.237 OA
ATOM    110  O   UNL     1       0.981 -13.147   1.244  1.00  0.00    -0.744 OA
ENDBRANCH 104 107
ENDBRANCH  77 100
ENDBRANCH  51  52
ENDBRANCH  43  46
ENDBRANCH  41  42
ENDBRANCH  40  41
ENDBRANCH   1  40
TORSDOF 20
