REMARK SMILES O=C(NCCCCNC(=O)[C@@H](Cc1ccccc1)N1C(=O)/C(=C/c2ccncc2)SC1=S)c1ccc(-c2c3nc(c(-c4cccc(S(=O)(=O)[O-])c4F)c4ccc([nH]4)c(-c4cccc(S(=O)(=O)[O-])c4F)c4nc(c(-c5cccc(S(=O)(=O)[O-])c5F)c5ccc2[nH]5)C=C4)C=C3)cc1
REMARK SMILES IDX 5 1 4 2 3 3 1 4 2 5 33 7 34 8 95 9 35 10 94 11 36 12 37 13
REMARK SMILES IDX 38 14 88 15 39 16 93 17 87 18 89 19 40 20 92 21 86 22 85 23
REMARK SMILES IDX 41 25 73 26 53 27 72 28 54 29 57 30 71 31 90 32 55 33 56 34
REMARK SMILES IDX 70 36 91 37 58 38 42 39 43 40 51 41 44 42 46 43 52 44 45 45
REMARK SMILES IDX 47 46 48 47 49 48 50 49 74 50 75 51 83 52 76 53 78 54 84 55
REMARK SMILES IDX 77 56 79 57 80 58 81 59 82 60 59 61 60 62 68 63 61 64 63 65
REMARK SMILES IDX 69 66 62 67 64 68 65 69 66 70 67 71 6 72 7 73 8 74 9 75
REMARK SMILES IDX 10 77 11 78 12 79 13 80 14 81 18 82 15 83 17 84 16 85 19 86
REMARK SMILES IDX 20 87 31 88 21 89 22 90 30 91 32 92 23 93 24 94 25 95 29 96
REMARK SMILES IDX 26 97 28 98 27 99
REMARK H PARENT 3 6 89 24 57 35 8 76
REMARK Flexibility Score: inf
ROOT
ATOM      1  C   UNL     1       5.868   0.286   1.745  1.00  0.00     0.023 C 
ENDROOT
BRANCH   1   2
ATOM      2  C   UNL     1       5.111  -0.295   0.552  1.00  0.00     0.116 C 
BRANCH   2   3
ATOM      3  N   UNL     1       3.672  -0.443   0.749  1.00  0.00    -0.352 N 
ATOM      4  O   UNL     1       1.471  -0.117   0.304  1.00  0.00    -0.269 OA
ATOM      5  C   UNL     1       2.642   0.049  -0.025  1.00  0.00     0.251 C 
ATOM      6  H   UNL     1       3.401  -0.963   1.540  1.00  0.00     0.163 HD
BRANCH   5   7
ATOM      7  C   UNL     1       2.982   0.835  -1.228  1.00  0.00     0.039 A 
ATOM      8  C   UNL     1       3.914   0.337  -2.141  1.00  0.00     0.014 A 
ATOM      9  C   UNL     1       2.478   2.129  -1.360  1.00  0.00     0.014 A 
ATOM     10  C   UNL     1       4.516   1.209  -3.036  1.00  0.00     0.010 A 
ATOM     11  C   UNL     1       3.002   2.968  -2.345  1.00  0.00     0.010 A 
ATOM     12  C   UNL     1       4.070   2.536  -3.148  1.00  0.00    -0.014 A 
BRANCH  12  13
ATOM     13  C   UNL     1       4.707   3.450  -4.130  1.00  0.00     0.031 A 
ATOM     14  C   UNL     1       5.360   4.733  -3.691  1.00  0.00     0.074 A 
ATOM     15  C   UNL     1       4.669   3.121  -5.435  1.00  0.00     0.049 A 
ATOM     16  N   UNL     1       5.870   5.688  -4.425  1.00  0.00    -0.248 NA
ATOM     17  C   UNL     1       5.442   4.986  -2.243  1.00  0.00     0.031 C 
ATOM     18  C   UNL     1       4.041   1.914  -5.977  1.00  0.00     0.029 A 
ATOM     19  N   UNL     1       5.145   3.775  -6.542  1.00  0.00    -0.354 N 
ATOM     20  C   UNL     1       6.271   6.681  -3.539  1.00  0.00     0.074 A 
ATOM     21  C   UNL     1       5.957   6.208  -2.208  1.00  0.00     0.031 C 
ATOM     22  C   UNL     1       4.174   1.909  -7.309  1.00  0.00     0.029 A 
ATOM     23  C   UNL     1       4.824   3.146  -7.721  1.00  0.00     0.049 A 
ATOM     24  H   UNL     1       5.664   4.610  -6.497  1.00  0.00     0.167 HD
ATOM     25  C   UNL     1       6.856   7.873  -3.812  1.00  0.00     0.034 A 
ATOM     26  C   UNL     1       4.987   3.537  -8.999  1.00  0.00     0.034 A 
ATOM     27  C   UNL     1       7.216   8.306  -5.136  1.00  0.00     0.049 A 
ATOM     28  C   UNL     1       5.662   4.844  -9.275  1.00  0.00     0.074 A 
ATOM     29  C   UNL     1       7.883   9.458  -5.513  1.00  0.00     0.029 A 
ATOM     30  N   UNL     1       6.938   7.606  -6.301  1.00  0.00    -0.354 N 
ATOM     31  N   UNL     1       6.128   5.722  -8.421  1.00  0.00    -0.248 NA
ATOM     32  C   UNL     1       5.857   5.209 -10.684  1.00  0.00     0.031 C 
ATOM     33  C   UNL     1       7.993   9.463  -6.908  1.00  0.00     0.029 A 
ATOM     34  C   UNL     1       7.410   8.305  -7.399  1.00  0.00     0.049 A 
ATOM     35  H   UNL     1       6.472   6.739  -6.342  1.00  0.00     0.167 HD
ATOM     36  C   UNL     1       6.691   6.735  -9.184  1.00  0.00     0.074 A 
ATOM     37  C   UNL     1       6.523   6.352 -10.573  1.00  0.00     0.031 C 
ATOM     38  C   UNL     1       7.279   7.884  -8.772  1.00  0.00     0.034 A 
BRANCH  25  39
ATOM     39  C   UNL     1       7.171   8.787  -2.655  1.00  0.00     0.023 A 
ATOM     40  C   UNL     1       8.252   8.489  -1.801  1.00  0.00     0.012 A 
ATOM     41  C   UNL     1       6.435   9.971  -2.446  1.00  0.00     0.148 A 
ATOM     42  C   UNL     1       8.575   9.335  -0.740  1.00  0.00     0.002 A 
ATOM     43  C   UNL     1       6.787  10.829  -1.408  1.00  0.00     0.091 A 
ATOM     44  F   UNL     1       5.394  10.230  -3.250  1.00  0.00    -0.205 F 
ATOM     45  C   UNL     1       7.850  10.509  -0.550  1.00  0.00     0.022 A 
BRANCH  43  46
ATOM     46  S   UNL     1       5.947  12.396  -1.144  1.00  0.00     0.127 S 
ATOM     47  O   UNL     1       4.993  12.047  -0.093  1.00  0.00    -0.237 OA
ATOM     48  O   UNL     1       7.037  13.271  -0.709  1.00  0.00    -0.237 OA
ATOM     49  O   UNL     1       5.372  12.752  -2.434  1.00  0.00    -0.744 OA
ENDBRANCH  43  46
ENDBRANCH  25  39
BRANCH  26  50
ATOM     50  C   UNL     1       4.506   2.640 -10.085  1.00  0.00     0.023 A 
ATOM     51  C   UNL     1       5.439   1.915 -10.849  1.00  0.00     0.012 A 
ATOM     52  C   UNL     1       3.129   2.400 -10.265  1.00  0.00     0.148 A 
ATOM     53  C   UNL     1       5.007   0.965 -11.775  1.00  0.00     0.002 A 
ATOM     54  C   UNL     1       2.709   1.408 -11.142  1.00  0.00     0.091 A 
ATOM     55  F   UNL     1       2.260   3.110  -9.531  1.00  0.00    -0.205 F 
ATOM     56  C   UNL     1       3.646   0.699 -11.908  1.00  0.00     0.022 A 
BRANCH  54  57
ATOM     57  S   UNL     1       0.993   0.884 -11.249  1.00  0.00     0.127 S 
ATOM     58  O   UNL     1       0.609   1.387 -12.565  1.00  0.00    -0.237 OA
ATOM     59  O   UNL     1       1.117  -0.572 -11.157  1.00  0.00    -0.237 OA
ATOM     60  O   UNL     1       0.322   1.500 -10.113  1.00  0.00    -0.744 OA
ENDBRANCH  54  57
ENDBRANCH  26  50
BRANCH  38  61
ATOM     61  C   UNL     1       7.814   8.809  -9.829  1.00  0.00     0.023 A 
ATOM     62  C   UNL     1       6.924   9.617 -10.561  1.00  0.00     0.012 A 
ATOM     63  C   UNL     1       9.202   8.946 -10.025  1.00  0.00     0.148 A 
ATOM     64  C   UNL     1       7.408  10.541 -11.486  1.00  0.00     0.002 A 
ATOM     65  C   UNL     1       9.678   9.897 -10.918  1.00  0.00     0.091 A 
ATOM     66  F   UNL     1      10.027   8.150  -9.330  1.00  0.00    -0.205 F 
ATOM     67  C   UNL     1       8.783  10.690 -11.655  1.00  0.00     0.022 A 
BRANCH  65  68
ATOM     68  S   UNL     1      11.432  10.221 -11.136  1.00  0.00     0.127 S 
ATOM     69  O   UNL     1      11.671   9.680 -12.473  1.00  0.00    -0.237 OA
ATOM     70  O   UNL     1      11.491  11.680 -11.049  1.00  0.00    -0.237 OA
ATOM     71  O   UNL     1      12.108   9.523 -10.051  1.00  0.00    -0.744 OA
ENDBRANCH  65  68
ENDBRANCH  38  61
ENDBRANCH  12  13
ENDBRANCH   5   7
ENDBRANCH   2   3
ENDBRANCH   1   2
BRANCH   1  72
ATOM     72  C   UNL     1       5.666  -0.431   3.070  1.00  0.00     0.023 C 
BRANCH  72  73
ATOM     73  C   UNL     1       5.864  -1.933   3.003  1.00  0.00     0.116 C 
BRANCH  73  74
ATOM     74  N   UNL     1       7.053  -2.443   3.630  1.00  0.00    -0.354 N 
ATOM     75  C   UNL     1       7.182  -3.699   4.146  1.00  0.00     0.243 C 
ATOM     76  H   UNL     1       7.830  -1.842   3.692  1.00  0.00     0.163 HD
ATOM     77  O   UNL     1       8.275  -4.254   3.980  1.00  0.00    -0.273 OA
BRANCH  75  78
ATOM     78  C   UNL     1       6.038  -4.436   4.896  1.00  0.00     0.185 C 
BRANCH  78  79
ATOM     79  C   UNL     1       5.255  -3.692   6.018  1.00  0.00     0.071 C 
BRANCH  79  80
ATOM     80  C   UNL     1       4.073  -2.805   5.725  1.00  0.00    -0.045 A 
ATOM     81  C   UNL     1       4.168  -1.417   5.924  1.00  0.00     0.004 A 
ATOM     82  C   UNL     1       2.854  -3.329   5.284  1.00  0.00     0.004 A 
ATOM     83  C   UNL     1       3.105  -0.572   5.595  1.00  0.00     0.000 A 
ATOM     84  C   UNL     1       1.802  -2.482   4.927  1.00  0.00     0.000 A 
ATOM     85  C   UNL     1       1.933  -1.104   5.067  1.00  0.00     0.000 A 
ENDBRANCH  79  80
ENDBRANCH  78  79
BRANCH  78  86
ATOM     86  N   UNL     1       5.368  -5.591   4.228  1.00  0.00    -0.280 N 
ATOM     87  C   UNL     1       5.743  -6.879   4.624  1.00  0.00     0.266 C 
ATOM     88  C   UNL     1       4.407  -5.574   3.236  1.00  0.00     0.149 C 
ATOM     89  O   UNL     1       6.585  -7.188   5.455  1.00  0.00    -0.268 OA
ATOM     90  C   UNL     1       4.955  -7.897   3.880  1.00  0.00     0.081 C 
ATOM     91  S   UNL     1       3.603  -7.132   3.165  1.00  0.00    -0.054 SA
ATOM     92  S   UNL     1       3.962  -4.440   2.112  1.00  0.00    -0.052 S 
ATOM     93  C   UNL     1       5.308  -9.181   3.726  1.00  0.00     0.029 C 
BRANCH  93  94
ATOM     94  C   UNL     1       4.532 -10.098   2.881  1.00  0.00    -0.021 A 
ATOM     95  C   UNL     1       4.541  -9.960   1.490  1.00  0.00     0.028 A 
ATOM     96  C   UNL     1       3.675 -11.027   3.465  1.00  0.00     0.028 A 
ATOM     97  C   UNL     1       3.669 -10.736   0.746  1.00  0.00     0.111 A 
ATOM     98  C   UNL     1       2.849 -11.765   2.632  1.00  0.00     0.111 A 
ATOM     99  N   UNL     1       2.827 -11.641   1.288  1.00  0.00    -0.265 NA
ENDBRANCH  93  94
ENDBRANCH  78  86
ENDBRANCH  75  78
ENDBRANCH  73  74
ENDBRANCH  72  73
ENDBRANCH   1  72
TORSDOF 18
