REMARK SMILES CC(C)CCn1nc(C(=O)NCCCCNC(=O)c2ccc(-c3c4nc(c(-c5cccc(S(=O)(=O)[O-])c5F)c5ccc([nH]5)c(-c5cccc(S(=O)(=O)[O-])c5F)c5nc(c(-c6cccc(S(=O)(=O)[O-])c6F)c6ccc3[nH]6)C=C5)C=C4)cc2)c2c1CCN(C(=O)[C@@H]1CCc3nn(C)c(=O)n3C1)C2
REMARK SMILES IDX 13 1 12 2 11 3 9 4 10 5 8 7 6 8 7 9 83 10 82 11 84 12 100 13
REMARK SMILES IDX 85 14 86 15 5 16 4 17 2 18 1 19 3 20 87 21 88 22 89 23 90 24
REMARK SMILES IDX 99 25 91 26 98 27 92 28 96 29 93 30 94 31 97 32 95 33 14 34
REMARK SMILES IDX 15 35 16 36 17 37 18 39 19 40 20 41 81 42 21 43 80 44 22 45
REMARK SMILES IDX 23 46 24 47 74 48 25 49 79 50 73 51 75 52 26 53 78 54 72 55
REMARK SMILES IDX 71 56 27 58 59 59 39 60 58 61 40 62 43 63 57 64 76 65 41 66
REMARK SMILES IDX 42 67 56 69 77 70 44 71 28 72 29 73 37 74 30 75 32 76 38 77
REMARK SMILES IDX 31 78 33 79 34 80 35 81 36 82 60 83 61 84 69 85 62 86 64 87
REMARK SMILES IDX 70 88 63 89 65 90 66 91 67 92 68 93 45 94 46 95 54 96 47 97
REMARK SMILES IDX 49 98 55 99 48 100 50 101 51 102 52 103 53 104
REMARK H PARENT 11 6 16 38 75 57 43 68
REMARK Flexibility Score: inf
ROOT
ATOM      1  C   UNL     1      -0.790   6.376  -6.356  1.00  0.00     0.023 C 
ENDROOT
BRANCH   1   2
ATOM      2  C   UNL     1      -0.084   6.663  -5.016  1.00  0.00     0.116 C 
BRANCH   2   3
ATOM      3  N   UNL     1      -1.022   6.659  -3.901  1.00  0.00    -0.351 N 
ATOM      4  C   UNL     1      -1.469   5.742  -2.971  1.00  0.00     0.272 C 
ATOM      5  O   UNL     1      -2.243   6.218  -2.130  1.00  0.00    -0.267 OA
ATOM      6  H   UNL     1      -1.448   7.538  -3.779  1.00  0.00     0.163 HD
BRANCH   4   7
ATOM      7  C   UNL     1      -1.109   4.295  -2.932  1.00  0.00     0.155 A 
ATOM      8  N   UNL     1      -0.927   2.337  -1.998  1.00  0.00    -0.268 N 
ATOM      9  N   UNL     1      -1.270   3.621  -1.766  1.00  0.00    -0.167 NA
ATOM     10  C   UNL     1      -0.480   2.169  -3.269  1.00  0.00     0.046 A 
ATOM     11  C   UNL     1      -0.702   3.366  -3.929  1.00  0.00     0.026 A 
ATOM     12  C   UNL     1       0.090   0.979  -3.939  1.00  0.00     0.078 C 
ATOM     13  C   UNL     1      -0.519   3.511  -5.392  1.00  0.00     0.159 C 
ATOM     14  C   UNL     1       0.788   1.463  -5.218  1.00  0.00     0.126 C 
ATOM     15  N   UNL     1      -0.110   2.262  -6.046  1.00  0.00    -0.338 N 
BRANCH   8  16
ATOM     16  C   UNL     1      -1.269   1.380  -0.956  1.00  0.00     0.145 C 
BRANCH  16  17
ATOM     17  C   UNL     1      -0.849  -0.091  -1.092  1.00  0.00     0.027 C 
BRANCH  17  18
ATOM     18  C   UNL     1       0.646  -0.366  -0.834  1.00  0.00    -0.016 C 
ATOM     19  C   UNL     1       0.996  -0.308   0.653  1.00  0.00     0.007 C 
ATOM     20  C   UNL     1       1.032  -1.736  -1.403  1.00  0.00     0.007 C 
ENDBRANCH  17  18
ENDBRANCH  16  17
ENDBRANCH   8  16
BRANCH  15  21
ATOM     21  C   UNL     1      -0.403   2.152  -7.391  1.00  0.00     0.227 C 
ATOM     22  O   UNL     1      -1.061   3.046  -7.946  1.00  0.00    -0.274 OA
BRANCH  21  23
ATOM     23  C   UNL     1      -0.022   0.953  -8.275  1.00  0.00     0.099 C 
ATOM     24  C   UNL     1      -0.901  -0.287  -8.095  1.00  0.00     0.023 C 
ATOM     25  C   UNL     1       1.458   0.629  -8.412  1.00  0.00     0.142 C 
ATOM     26  C   UNL     1      -0.414  -1.280  -7.050  1.00  0.00     0.078 C 
ATOM     27  N   UNL     1       1.871  -0.487  -7.592  1.00  0.00    -0.278 N 
ATOM     28  C   UNL     1       1.077  -1.332  -6.907  1.00  0.00     0.133 A 
ATOM     29  C   UNL     1       3.133  -0.639  -7.074  1.00  0.00     0.345 A 
ATOM     30  N   UNL     1       1.685  -2.039  -5.998  1.00  0.00    -0.155 NA
ATOM     31  N   UNL     1       2.993  -1.606  -6.072  1.00  0.00    -0.216 N 
ATOM     32  O   UNL     1       4.123   0.021  -7.339  1.00  0.00    -0.246 OA
ATOM     33  C   UNL     1       3.940  -1.818  -5.010  1.00  0.00     0.179 C 
ENDBRANCH  21  23
ENDBRANCH  15  21
ENDBRANCH   4   7
ENDBRANCH   2   3
ENDBRANCH   1   2
BRANCH   1  34
ATOM     34  C   UNL     1      -0.962   7.551  -7.320  1.00  0.00     0.023 C 
BRANCH  34  35
ATOM     35  C   UNL     1       0.287   7.836  -8.153  1.00  0.00     0.116 C 
BRANCH  35  36
ATOM     36  N   UNL     1       0.588   6.779  -9.128  1.00  0.00    -0.352 N 
ATOM     37  C   UNL     1       1.768   6.592  -9.819  1.00  0.00     0.251 C 
ATOM     38  H   UNL     1      -0.132   6.131  -9.308  1.00  0.00     0.163 HD
ATOM     39  O   UNL     1       1.830   5.899 -10.831  1.00  0.00    -0.269 OA
BRANCH  37  40
ATOM     40  C   UNL     1       2.970   7.255  -9.293  1.00  0.00     0.039 A 
ATOM     41  C   UNL     1       3.645   8.213 -10.052  1.00  0.00     0.014 A 
ATOM     42  C   UNL     1       3.299   7.013  -7.961  1.00  0.00     0.014 A 
ATOM     43  C   UNL     1       4.586   9.025  -9.422  1.00  0.00     0.010 A 
ATOM     44  C   UNL     1       4.167   7.874  -7.323  1.00  0.00     0.010 A 
ATOM     45  C   UNL     1       4.814   8.887  -8.043  1.00  0.00    -0.014 A 
BRANCH  45  46
ATOM     46  C   UNL     1       5.548   9.936  -7.314  1.00  0.00     0.031 A 
ATOM     47  C   UNL     1       5.004  11.325  -7.456  1.00  0.00     0.074 A 
ATOM     48  C   UNL     1       6.443   9.661  -6.338  1.00  0.00     0.049 A 
ATOM     49  N   UNL     1       5.633  12.402  -7.802  1.00  0.00    -0.248 NA
ATOM     50  C   UNL     1       3.559  11.526  -7.252  1.00  0.00     0.031 C 
ATOM     51  C   UNL     1       6.812   8.327  -5.849  1.00  0.00     0.029 A 
ATOM     52  N   UNL     1       7.062  10.498  -5.447  1.00  0.00    -0.354 N 
ATOM     53  C   UNL     1       4.718  13.448  -7.637  1.00  0.00     0.074 A 
ATOM     54  C   UNL     1       3.429  12.834  -7.476  1.00  0.00     0.031 C 
ATOM     55  C   UNL     1       7.323   8.435  -4.606  1.00  0.00     0.029 A 
ATOM     56  C   UNL     1       7.492   9.842  -4.296  1.00  0.00     0.049 A 
ATOM     57  H   UNL     1       7.190  11.461  -5.604  1.00  0.00     0.167 HD
ATOM     58  C   UNL     1       5.134  14.719  -7.373  1.00  0.00     0.034 A 
ATOM     59  C   UNL     1       7.933  10.389  -3.141  1.00  0.00     0.034 A 
ATOM     60  C   UNL     1       6.543  14.872  -7.622  1.00  0.00     0.049 A 
ATOM     61  C   UNL     1       8.398  11.761  -3.420  1.00  0.00     0.074 A 
ATOM     62  C   UNL     1       7.384  15.024  -8.699  1.00  0.00     0.029 A 
ATOM     63  N   UNL     1       7.316  14.602  -6.527  1.00  0.00    -0.354 N 
ATOM     64  N   UNL     1       9.432  12.029  -4.168  1.00  0.00    -0.248 NA
ATOM     65  C   UNL     1       7.571  12.906  -3.058  1.00  0.00     0.031 C 
ATOM     66  C   UNL     1       8.687  14.669  -8.236  1.00  0.00     0.029 A 
ATOM     67  C   UNL     1       8.599  14.312  -6.892  1.00  0.00     0.049 A 
ATOM     68  H   UNL     1       6.990  14.616  -5.598  1.00  0.00     0.167 HD
ATOM     69  C   UNL     1       9.129  13.255  -4.723  1.00  0.00     0.074 A 
ATOM     70  C   UNL     1       8.109  13.830  -3.858  1.00  0.00     0.031 C 
ATOM     71  C   UNL     1       9.448  13.531  -6.019  1.00  0.00     0.034 A 
BRANCH  58  72
ATOM     72  C   UNL     1       4.445  15.720  -6.448  1.00  0.00     0.023 A 
ATOM     73  C   UNL     1       5.064  16.990  -6.314  1.00  0.00     0.012 A 
ATOM     74  C   UNL     1       3.467  15.396  -5.481  1.00  0.00     0.148 A 
ATOM     75  C   UNL     1       4.795  17.843  -5.237  1.00  0.00     0.002 A 
ATOM     76  C   UNL     1       3.155  16.277  -4.446  1.00  0.00     0.091 A 
ATOM     77  F   UNL     1       2.914  14.182  -5.464  1.00  0.00    -0.205 F 
ATOM     78  C   UNL     1       3.840  17.485  -4.299  1.00  0.00     0.022 A 
BRANCH  76  79
ATOM     79  S   UNL     1       1.904  15.873  -3.220  1.00  0.00     0.127 S 
ATOM     80  O   UNL     1       2.729  15.460  -2.089  1.00  0.00    -0.237 OA
ATOM     81  O   UNL     1       1.217  17.154  -3.054  1.00  0.00    -0.237 OA
ATOM     82  O   UNL     1       1.086  14.835  -3.836  1.00  0.00    -0.744 OA
ENDBRANCH  76  79
ENDBRANCH  58  72
BRANCH  59  83
ATOM     83  C   UNL     1       7.930   9.836  -1.770  1.00  0.00     0.023 A 
ATOM     84  C   UNL     1       8.907  10.256  -0.848  1.00  0.00     0.012 A 
ATOM     85  C   UNL     1       6.834   9.084  -1.293  1.00  0.00     0.148 A 
ATOM     86  C   UNL     1       8.781   9.969   0.514  1.00  0.00     0.002 A 
ATOM     87  C   UNL     1       6.717   8.793   0.062  1.00  0.00     0.091 A 
ATOM     88  F   UNL     1       5.870   8.732  -2.156  1.00  0.00    -0.205 F 
ATOM     89  C   UNL     1       7.683   9.245   0.971  1.00  0.00     0.022 A 
BRANCH  87  90
ATOM     90  S   UNL     1       5.325   7.871   0.728  1.00  0.00     0.127 S 
ATOM     91  O   UNL     1       5.989   6.922   1.624  1.00  0.00    -0.237 OA
ATOM     92  O   UNL     1       4.565   8.920   1.401  1.00  0.00    -0.237 OA
ATOM     93  O   UNL     1       4.679   7.252  -0.423  1.00  0.00    -0.744 OA
ENDBRANCH  87  90
ENDBRANCH  59  83
BRANCH  71  94
ATOM     94  C   UNL     1      10.578  12.770  -6.645  1.00  0.00     0.023 A 
ATOM     95  C   UNL     1      10.511  11.384  -6.888  1.00  0.00     0.012 A 
ATOM     96  C   UNL     1      11.693  13.492  -7.100  1.00  0.00     0.148 A 
ATOM     97  C   UNL     1      11.550  10.728  -7.552  1.00  0.00     0.002 A 
ATOM     98  C   UNL     1      12.701  12.845  -7.801  1.00  0.00     0.091 A 
ATOM     99  F   UNL     1      11.741  14.810  -6.852  1.00  0.00    -0.205 F 
ATOM    100  C   UNL     1      12.639  11.460  -8.020  1.00  0.00     0.022 A 
BRANCH  98 101
ATOM    101  S   UNL     1      14.058  13.761  -8.535  1.00  0.00     0.127 S 
ATOM    102  O   UNL     1      15.135  13.539  -7.573  1.00  0.00    -0.237 OA
ATOM    103  O   UNL     1      14.237  13.088  -9.822  1.00  0.00    -0.237 OA
ATOM    104  O   UNL     1      13.586  15.137  -8.650  1.00  0.00    -0.744 OA
ENDBRANCH  98 101
ENDBRANCH  71  94
ENDBRANCH  45  46
ENDBRANCH  37  40
ENDBRANCH  35  36
ENDBRANCH  34  35
ENDBRANCH   1  34
TORSDOF 19
