REMARK SMILES CC(C)[C@@H](C(=O)NCCCCNC(=O)c1ccc(-c2c3nc(c(-c4cccc(S(=O)(=O)[O-])c4F)c4ccc([nH]4)c(-c4cccc(S(=O)(=O)[O-])c4F)c4nc(c(-c5cccc(S(=O)(=O)[O-])c5F)c5ccc2[nH]5)C=C4)C=C3)cc1)N1C(=O)c2cccc([N+](=O)[O-])c2C1=O
REMARK SMILES IDX 10 1 9 2 8 3 7 4 5 5 6 6 4 8 2 9 1 10 3 11 78 12 79 13 90 14
REMARK SMILES IDX 80 15 81 16 89 17 91 18 82 19 85 20 83 21 84 22 86 23 87 24
REMARK SMILES IDX 88 25 11 26 12 27 13 28 14 30 15 31 16 32 77 33 17 34 76 35
REMARK SMILES IDX 18 36 19 37 20 38 70 39 21 40 75 41 69 42 71 43 22 44 74 45
REMARK SMILES IDX 68 46 67 47 23 49 55 50 35 51 54 52 36 53 39 54 53 55 72 56
REMARK SMILES IDX 37 57 38 58 52 60 73 61 40 62 24 63 25 64 33 65 26 66 28 67
REMARK SMILES IDX 34 68 27 69 29 70 30 71 31 72 32 73 56 74 57 75 65 76 58 77
REMARK SMILES IDX 60 78 66 79 59 80 61 81 62 82 63 83 64 84 41 85 42 86 50 87
REMARK SMILES IDX 43 88 45 89 51 90 44 91 46 92 47 93 48 94 49 95
REMARK H PARENT 7 7 12 29 71 48 39 59
REMARK Flexibility Score: inf
ROOT
ATOM      1  C   UNL     1       0.437  -2.118   2.969  1.00  0.00     0.023 C 
ENDROOT
BRANCH   1   2
ATOM      2  C   UNL     1       0.623  -1.509   1.583  1.00  0.00     0.023 C 
BRANCH   2   3
ATOM      3  C   UNL     1      -0.669  -1.114   0.862  1.00  0.00     0.116 C 
BRANCH   3   4
ATOM      4  N   UNL     1      -1.199   0.108   1.419  1.00  0.00    -0.354 N 
ATOM      5  C   UNL     1      -1.244   1.390   0.979  1.00  0.00     0.243 C 
ATOM      6  O   UNL     1      -1.803   2.169   1.766  1.00  0.00    -0.273 OA
ATOM      7  H   UNL     1      -1.615  -0.015   2.303  1.00  0.00     0.163 HD
BRANCH   5   8
ATOM      8  C   UNL     1      -0.802   1.860  -0.449  1.00  0.00     0.185 C 
BRANCH   8   9
ATOM      9  C   UNL     1       0.667   1.841  -0.983  1.00  0.00     0.015 C 
ATOM     10  C   UNL     1       1.547   0.633  -0.737  1.00  0.00     0.010 C 
ATOM     11  C   UNL     1       0.672   2.123  -2.497  1.00  0.00     0.010 C 
ENDBRANCH   8   9
BRANCH   8  12
ATOM     12  N   UNL     1      -1.256   3.277  -0.477  1.00  0.00    -0.261 N 
ATOM     13  C   UNL     1      -0.585   4.277   0.182  1.00  0.00     0.262 C 
ATOM     14  C   UNL     1      -2.373   3.757  -1.104  1.00  0.00     0.269 C 
ATOM     15  O   UNL     1       0.409   4.243   0.874  1.00  0.00    -0.269 OA
ATOM     16  C   UNL     1      -1.277   5.513  -0.128  1.00  0.00     0.060 A 
ATOM     17  C   UNL     1      -2.417   5.202  -0.843  1.00  0.00     0.130 A 
ATOM     18  O   UNL     1      -3.127   3.168  -1.855  1.00  0.00    -0.268 OA
ATOM     19  C   UNL     1      -0.874   6.807   0.161  1.00  0.00     0.015 A 
ATOM     20  C   UNL     1      -3.252   6.224  -1.236  1.00  0.00     0.282 A 
ATOM     21  C   UNL     1      -1.683   7.845  -0.295  1.00  0.00     0.008 A 
ATOM     22  C   UNL     1      -2.880   7.560  -0.976  1.00  0.00     0.086 A 
BRANCH  20  23
ATOM     23  N   UNL     1      -4.533   5.964  -1.857  1.00  0.00     0.063 N 
ATOM     24  O   UNL     1      -4.861   6.707  -2.793  1.00  0.00    -0.258 OA
ATOM     25  O   UNL     1      -5.248   5.094  -1.348  1.00  0.00    -0.258 OA
ENDBRANCH  20  23
ENDBRANCH   8  12
ENDBRANCH   5   8
ENDBRANCH   3   4
ENDBRANCH   2   3
ENDBRANCH   1   2
BRANCH   1  26
ATOM     26  C   UNL     1      -0.249  -3.471   2.987  1.00  0.00     0.116 C 
BRANCH  26  27
ATOM     27  N   UNL     1       0.458  -4.481   2.211  1.00  0.00    -0.352 N 
ATOM     28  C   UNL     1       0.771  -5.774   2.558  1.00  0.00     0.251 C 
ATOM     29  H   UNL     1       0.752  -4.198   1.315  1.00  0.00     0.163 HD
ATOM     30  O   UNL     1       1.484  -6.450   1.822  1.00  0.00    -0.269 OA
BRANCH  28  31
ATOM     31  C   UNL     1       0.271  -6.327   3.834  1.00  0.00     0.039 A 
ATOM     32  C   UNL     1       1.143  -7.051   4.650  1.00  0.00     0.014 A 
ATOM     33  C   UNL     1      -1.046  -6.097   4.241  1.00  0.00     0.014 A 
ATOM     34  C   UNL     1       0.709  -7.489   5.903  1.00  0.00     0.010 A 
ATOM     35  C   UNL     1      -1.440  -6.442   5.527  1.00  0.00     0.010 A 
ATOM     36  C   UNL     1      -0.576  -7.160   6.365  1.00  0.00    -0.014 A 
BRANCH  36  37
ATOM     37  C   UNL     1      -1.047  -7.574   7.711  1.00  0.00     0.031 A 
ATOM     38  C   UNL     1      -2.253  -8.467   7.842  1.00  0.00     0.074 A 
ATOM     39  C   UNL     1      -0.451  -7.076   8.812  1.00  0.00     0.049 A 
ATOM     40  N   UNL     1      -2.847  -8.897   8.925  1.00  0.00    -0.248 NA
ATOM     41  C   UNL     1      -2.904  -8.904   6.593  1.00  0.00     0.031 C 
ATOM     42  C   UNL     1       0.657  -6.117   8.818  1.00  0.00     0.029 A 
ATOM     43  N   UNL     1      -0.711  -7.287  10.143  1.00  0.00    -0.354 N 
ATOM     44  C   UNL     1      -3.960  -9.608   8.491  1.00  0.00     0.074 A 
ATOM     45  C   UNL     1      -3.985  -9.519   7.049  1.00  0.00     0.031 C 
ATOM     46  C   UNL     1       0.985  -5.829  10.088  1.00  0.00     0.029 A 
ATOM     47  C   UNL     1       0.101  -6.565  10.987  1.00  0.00     0.049 A 
ATOM     48  H   UNL     1      -1.414  -7.897  10.464  1.00  0.00     0.167 HD
ATOM     49  C   UNL     1      -4.861 -10.305   9.223  1.00  0.00     0.034 A 
ATOM     50  C   UNL     1       0.132  -6.508  12.333  1.00  0.00     0.034 A 
ATOM     51  C   UNL     1      -4.789 -10.451  10.650  1.00  0.00     0.049 A 
ATOM     52  C   UNL     1      -0.816  -7.375  13.119  1.00  0.00     0.074 A 
ATOM     53  C   UNL     1      -5.583 -11.226  11.476  1.00  0.00     0.029 A 
ATOM     54  N   UNL     1      -3.868  -9.811  11.463  1.00  0.00    -0.354 N 
ATOM     55  N   UNL     1      -1.748  -8.185  12.681  1.00  0.00    -0.248 NA
ATOM     56  C   UNL     1      -0.674  -7.358  14.582  1.00  0.00     0.031 C 
ATOM     57  C   UNL     1      -5.149 -11.043  12.794  1.00  0.00     0.029 A 
ATOM     58  C   UNL     1      -4.071 -10.172  12.783  1.00  0.00     0.049 A 
ATOM     59  H   UNL     1      -3.171  -9.191  11.148  1.00  0.00     0.167 HD
ATOM     60  C   UNL     1      -2.278  -8.802  13.808  1.00  0.00     0.074 A 
ATOM     61  C   UNL     1      -1.544  -8.290  14.947  1.00  0.00     0.031 C 
ATOM     62  C   UNL     1      -3.291  -9.700  13.897  1.00  0.00     0.034 A 
BRANCH  49  63
ATOM     63  C   UNL     1      -5.963 -11.020   8.485  1.00  0.00     0.023 A 
ATOM     64  C   UNL     1      -5.657 -12.158   7.710  1.00  0.00     0.012 A 
ATOM     65  C   UNL     1      -7.303 -10.606   8.605  1.00  0.00     0.148 A 
ATOM     66  C   UNL     1      -6.662 -12.851   7.038  1.00  0.00     0.002 A 
ATOM     67  C   UNL     1      -8.306 -11.331   7.971  1.00  0.00     0.091 A 
ATOM     68  F   UNL     1      -7.572  -9.509   9.328  1.00  0.00    -0.205 F 
ATOM     69  C   UNL     1      -7.986 -12.445   7.178  1.00  0.00     0.022 A 
BRANCH  67  70
ATOM     70  S   UNL     1     -10.049 -10.940   8.154  1.00  0.00     0.127 S 
ATOM     71  O   UNL     1     -10.381 -10.440   6.820  1.00  0.00    -0.237 OA
ATOM     72  O   UNL     1     -10.624 -12.247   8.475  1.00  0.00    -0.237 OA
ATOM     73  O   UNL     1     -10.132  -9.959   9.227  1.00  0.00    -0.744 OA
ENDBRANCH  67  70
ENDBRANCH  49  63
BRANCH  50  74
ATOM     74  C   UNL     1       1.150  -5.666  13.022  1.00  0.00     0.023 A 
ATOM     75  C   UNL     1       2.210  -6.287  13.712  1.00  0.00     0.012 A 
ATOM     76  C   UNL     1       1.090  -4.260  12.983  1.00  0.00     0.148 A 
ATOM     77  C   UNL     1       3.168  -5.526  14.383  1.00  0.00     0.002 A 
ATOM     78  C   UNL     1       2.079  -3.507  13.606  1.00  0.00     0.091 A 
ATOM     79  F   UNL     1       0.069  -3.685  12.332  1.00  0.00    -0.205 F 
ATOM     80  C   UNL     1       3.108  -4.137  14.322  1.00  0.00     0.022 A 
BRANCH  78  81
ATOM     81  S   UNL     1       2.154  -1.717  13.465  1.00  0.00     0.127 S 
ATOM     82  O   UNL     1       1.711  -1.294  14.791  1.00  0.00    -0.237 OA
ATOM     83  O   UNL     1       3.573  -1.492  13.188  1.00  0.00    -0.237 OA
ATOM     84  O   UNL     1       1.269  -1.378  12.359  1.00  0.00    -0.744 OA
ENDBRANCH  78  81
ENDBRANCH  50  74
BRANCH  62  85
ATOM     85  C   UNL     1      -3.641 -10.223  15.264  1.00  0.00     0.023 A 
ATOM     86  C   UNL     1      -4.296  -9.387  16.189  1.00  0.00     0.012 A 
ATOM     87  C   UNL     1      -3.380 -11.565  15.606  1.00  0.00     0.148 A 
ATOM     88  C   UNL     1      -4.652  -9.868  17.449  1.00  0.00     0.002 A 
ATOM     89  C   UNL     1      -3.783 -12.050  16.844  1.00  0.00     0.091 A 
ATOM     90  F   UNL     1      -2.737 -12.340  14.720  1.00  0.00    -0.205 F 
ATOM     91  C   UNL     1      -4.406 -11.201  17.772  1.00  0.00     0.022 A 
BRANCH  89  92
ATOM     92  S   UNL     1      -3.594 -13.778  17.297  1.00  0.00     0.127 S 
ATOM     93  O   UNL     1      -2.427 -13.731  18.175  1.00  0.00    -0.237 OA
ATOM     94  O   UNL     1      -4.858 -14.065  17.978  1.00  0.00    -0.237 OA
ATOM     95  O   UNL     1      -3.413 -14.499  16.044  1.00  0.00    -0.744 OA
ENDBRANCH  89  92
ENDBRANCH  62  85
ENDBRANCH  36  37
ENDBRANCH  28  31
ENDBRANCH  26  27
ENDBRANCH   1  26
TORSDOF 17
