REMARK SMILES C=CCN1C(=O)/C(=C/c2ccccn2)S/C1=[NH+]\c1ccc(C(=O)NCCCCNC(=O)c2ccc(-c3c4nc(c(-c5cccc(S(=O)(=O)[O-])c5F)c5ccc([nH]5)c(-c5cccc(S(=O)(=O)[O-])c5F)c5nc(c(-c6cccc(S(=O)(=O)[O-])c6F)c6ccc3[nH]6)C=C5)C=C4)cc2)cc1
REMARK SMILES IDX 26 1 25 2 24 3 22 4 23 5 21 7 18 8 19 9 96 10 20 11 95 12
REMARK SMILES IDX 17 13 4 14 5 15 16 16 6 17 7 18 15 19 8 20 3 22 2 23 1 24
REMARK SMILES IDX 9 25 10 26 14 27 11 28 13 29 12 30 27 31 28 32 29 33 30 34
REMARK SMILES IDX 31 36 32 37 33 38 94 39 34 40 93 41 35 42 36 43 37 44 87 45
REMARK SMILES IDX 38 46 92 47 86 48 88 49 39 50 91 51 85 52 84 53 40 55 72 56
REMARK SMILES IDX 52 57 71 58 53 59 56 60 70 61 89 62 54 63 55 64 69 66 90 67
REMARK SMILES IDX 57 68 41 69 42 70 50 71 43 72 45 73 51 74 44 75 46 76 47 77
REMARK SMILES IDX 48 78 49 79 73 80 74 81 82 82 75 83 77 84 83 85 76 86 78 87
REMARK SMILES IDX 79 88 80 89 81 90 58 91 59 92 67 93 60 94 62 95 68 96 61 97
REMARK SMILES IDX 63 98 64 99 65 100 66 101
REMARK H PARENT 24 6 17 21 29 35 88 54 56 65
REMARK Flexibility Score: inf
ROOT
ATOM      1  C   UNL     1      -0.342  -7.010  -8.051  1.00  0.00     0.023 C 
ENDROOT
BRANCH   1   2
ATOM      2  C   UNL     1      -1.812  -6.657  -7.812  1.00  0.00     0.116 C 
BRANCH   2   3
ATOM      3  N   UNL     1      -2.430  -7.620  -6.922  1.00  0.00    -0.352 N 
ATOM      4  C   UNL     1      -2.718  -7.574  -5.581  1.00  0.00     0.251 C 
ATOM      5  O   UNL     1      -3.301  -8.535  -5.079  1.00  0.00    -0.269 OA
ATOM      6  H   UNL     1      -2.692  -8.462  -7.360  1.00  0.00     0.163 HD
BRANCH   4   7
ATOM      7  C   UNL     1      -2.412  -6.394  -4.725  1.00  0.00     0.040 A 
ATOM      8  C   UNL     1      -2.033  -4.147  -3.064  1.00  0.00     0.125 A 
ATOM      9  C   UNL     1      -3.069  -5.042  -2.805  1.00  0.00     0.052 A 
ATOM     10  C   UNL     1      -1.138  -4.430  -4.100  1.00  0.00     0.052 A 
ATOM     11  C   UNL     1      -3.261  -6.155  -3.633  1.00  0.00     0.018 A 
ATOM     12  C   UNL     1      -1.317  -5.550  -4.914  1.00  0.00     0.018 A 
BRANCH   8  13
ATOM     13  N   UNL     1      -1.839  -3.023  -2.254  1.00  0.00    -0.234 N 
ATOM     14  N   UNL     1      -1.790  -0.704  -2.004  1.00  0.00    -0.182 N 
ATOM     15  C   UNL     1      -1.987   0.502  -2.643  1.00  0.00     0.349 C 
ATOM     16  C   UNL     1      -2.076  -1.839  -2.718  1.00  0.00     0.324 C 
ATOM     17  O   UNL     1      -1.784   1.617  -2.174  1.00  0.00    -0.240 OA
ATOM     18  C   UNL     1      -2.523   0.271  -4.011  1.00  0.00     0.111 C 
ATOM     19  S   UNL     1      -2.753  -1.413  -4.274  1.00  0.00     0.007 SA
ATOM     20  C   UNL     1      -2.750   1.272  -4.872  1.00  0.00     0.052 C 
ATOM     21  H   UNL     1      -1.522  -3.133  -1.328  1.00  0.00     0.313 HD
BRANCH  14  22
ATOM     22  C   UNL     1      -1.279  -0.754  -0.650  1.00  0.00     0.275 C 
BRANCH  22  23
ATOM     23  C   UNL     1       0.222  -0.813  -0.687  1.00  0.00     0.011 C 
ATOM     24  C   UNL     1       1.026   0.101  -0.128  1.00  0.00     0.008 C 
ENDBRANCH  22  23
ENDBRANCH  14  22
BRANCH  20  25
ATOM     25  C   UNL     1      -3.311   1.122  -6.214  1.00  0.00     0.064 A 
ATOM     26  C   UNL     1      -4.598   0.629  -6.412  1.00  0.00     0.028 A 
ATOM     27  N   UNL     1      -2.514   1.527  -7.227  1.00  0.00    -0.257 NA
ATOM     28  C   UNL     1      -5.073   0.500  -7.713  1.00  0.00     0.004 A 
ATOM     29  C   UNL     1      -3.000   1.381  -8.481  1.00  0.00     0.111 A 
ATOM     30  C   UNL     1      -4.256   0.875  -8.772  1.00  0.00     0.020 A 
ENDBRANCH  20  25
ENDBRANCH   8  13
ENDBRANCH   4   7
ENDBRANCH   2   3
ENDBRANCH   1   2
BRANCH   1  31
ATOM     31  C   UNL     1      -0.129  -8.154  -9.046  1.00  0.00     0.023 C 
BRANCH  31  32
ATOM     32  C   UNL     1      -0.632  -7.877 -10.457  1.00  0.00     0.116 C 
BRANCH  32  33
ATOM     33  N   UNL     1      -0.038  -6.688 -11.053  1.00  0.00    -0.352 N 
ATOM     34  C   UNL     1       0.313  -6.476 -12.364  1.00  0.00     0.251 C 
ATOM     35  H   UNL     1       0.134  -5.940 -10.436  1.00  0.00     0.163 HD
ATOM     36  O   UNL     1       0.919  -5.458 -12.684  1.00  0.00    -0.269 OA
BRANCH  34  37
ATOM     37  C   UNL     1      -0.018  -7.502 -13.373  1.00  0.00     0.039 A 
ATOM     38  C   UNL     1       0.979  -7.933 -14.249  1.00  0.00     0.014 A 
ATOM     39  C   UNL     1      -1.297  -8.062 -13.424  1.00  0.00     0.014 A 
ATOM     40  C   UNL     1       0.708  -8.973 -15.140  1.00  0.00     0.010 A 
ATOM     41  C   UNL     1      -1.540  -9.151 -14.255  1.00  0.00     0.010 A 
ATOM     42  C   UNL     1      -0.542  -9.613 -15.126  1.00  0.00    -0.014 A 
BRANCH  42  43
ATOM     43  C   UNL     1      -0.819 -10.774 -16.010  1.00  0.00     0.031 A 
ATOM     44  C   UNL     1      -1.901 -10.694 -17.052  1.00  0.00     0.074 A 
ATOM     45  C   UNL     1      -0.143 -11.926 -15.825  1.00  0.00     0.049 A 
ATOM     46  N   UNL     1      -2.303 -11.611 -17.893  1.00  0.00    -0.248 NA
ATOM     47  C   UNL     1      -2.647  -9.428 -17.146  1.00  0.00     0.031 C 
ATOM     48  C   UNL     1       0.874 -12.154 -14.795  1.00  0.00     0.029 A 
ATOM     49  N   UNL     1      -0.223 -13.127 -16.483  1.00  0.00    -0.354 N 
ATOM     50  C   UNL     1      -3.364 -11.048 -18.592  1.00  0.00     0.074 A 
ATOM     51  C   UNL     1      -3.571  -9.724 -18.049  1.00  0.00     0.031 C 
ATOM     52  C   UNL     1       1.332 -13.412 -14.899  1.00  0.00     0.029 A 
ATOM     53  C   UNL     1       0.621 -14.090 -15.978  1.00  0.00     0.049 A 
ATOM     54  H   UNL     1      -0.827 -13.286 -17.244  1.00  0.00     0.167 HD
ATOM     55  C   UNL     1      -4.081 -11.570 -19.615  1.00  0.00     0.034 A 
ATOM     56  C   UNL     1       0.797 -15.376 -16.340  1.00  0.00     0.034 A 
ATOM     57  C   UNL     1      -3.851 -12.876 -20.173  1.00  0.00     0.049 A 
ATOM     58  C   UNL     1       0.005 -15.924 -17.496  1.00  0.00     0.074 A 
ATOM     59  C   UNL     1      -4.469 -13.467 -21.261  1.00  0.00     0.029 A 
ATOM     60  N   UNL     1      -2.940 -13.798 -19.681  1.00  0.00    -0.354 N 
ATOM     61  N   UNL     1      -0.887 -15.322 -18.245  1.00  0.00    -0.248 NA
ATOM     62  C   UNL     1       0.270 -17.318 -17.880  1.00  0.00     0.031 C 
ATOM     63  C   UNL     1      -3.955 -14.759 -21.405  1.00  0.00     0.029 A 
ATOM     64  C   UNL     1      -2.987 -14.958 -20.435  1.00  0.00     0.049 A 
ATOM     65  H   UNL     1      -2.346 -13.649 -18.910  1.00  0.00     0.167 HD
ATOM     66  C   UNL     1      -1.260 -16.248 -19.213  1.00  0.00     0.074 A 
ATOM     67  C   UNL     1      -0.481 -17.444 -18.966  1.00  0.00     0.031 C 
ATOM     68  C   UNL     1      -2.172 -16.124 -20.208  1.00  0.00     0.034 A 
BRANCH  55  69
ATOM     69  C   UNL     1      -5.155 -10.709 -20.229  1.00  0.00     0.023 A 
ATOM     70  C   UNL     1      -4.794  -9.575 -20.985  1.00  0.00     0.012 A 
ATOM     71  C   UNL     1      -6.516 -11.050 -20.105  1.00  0.00     0.148 A 
ATOM     72  C   UNL     1      -5.769  -8.772 -21.575  1.00  0.00     0.002 A 
ATOM     73  C   UNL     1      -7.480 -10.273 -20.737  1.00  0.00     0.091 A 
ATOM     74  F   UNL     1      -6.843 -12.120 -19.367  1.00  0.00    -0.205 F 
ATOM     75  C   UNL     1      -7.110  -9.127 -21.460  1.00  0.00     0.022 A 
BRANCH  73  76
ATOM     76  S   UNL     1      -9.227 -10.689 -20.720  1.00  0.00     0.127 S 
ATOM     77  O   UNL     1      -9.777  -9.615 -19.893  1.00  0.00    -0.237 OA
ATOM     78  O   UNL     1      -9.576 -10.606 -22.138  1.00  0.00    -0.237 OA
ATOM     79  O   UNL     1      -9.318 -12.025 -20.147  1.00  0.00    -0.744 OA
ENDBRANCH  73  76
ENDBRANCH  55  69
BRANCH  56  80
ATOM     80  C   UNL     1       1.808 -16.218 -15.640  1.00  0.00     0.023 A 
ATOM     81  C   UNL     1       2.972 -16.619 -16.326  1.00  0.00     0.012 A 
ATOM     82  C   UNL     1       1.633 -16.609 -14.299  1.00  0.00     0.148 A 
ATOM     83  C   UNL     1       3.924 -17.426 -15.702  1.00  0.00     0.002 A 
ATOM     84  C   UNL     1       2.613 -17.365 -13.665  1.00  0.00     0.091 A 
ATOM     85  F   UNL     1       0.516 -16.224 -13.666  1.00  0.00    -0.205 F 
ATOM     86  C   UNL     1       3.749 -17.791 -14.370  1.00  0.00     0.022 A 
BRANCH  84  87
ATOM     87  S   UNL     1       2.536 -17.773 -11.918  1.00  0.00     0.127 S 
ATOM     88  O   UNL     1       2.326 -19.218 -11.957  1.00  0.00    -0.237 OA
ATOM     89  O   UNL     1       3.858 -17.353 -11.454  1.00  0.00    -0.237 OA
ATOM     90  O   UNL     1       1.433 -16.989 -11.379  1.00  0.00    -0.744 OA
ENDBRANCH  84  87
ENDBRANCH  56  80
BRANCH  68  91
ATOM     91  C   UNL     1      -2.350 -17.294 -21.142  1.00  0.00     0.023 A 
ATOM     92  C   UNL     1      -2.974 -18.473 -20.687  1.00  0.00     0.012 A 
ATOM     93  C   UNL     1      -1.956 -17.197 -22.491  1.00  0.00     0.148 A 
ATOM     94  C   UNL     1      -3.166 -19.551 -21.550  1.00  0.00     0.002 A 
ATOM     95  C   UNL     1      -2.201 -18.254 -23.359  1.00  0.00     0.091 A 
ATOM     96  F   UNL     1      -1.350 -16.073 -22.901  1.00  0.00    -0.205 F 
ATOM     97  C   UNL     1      -2.791 -19.438 -22.887  1.00  0.00     0.022 A 
BRANCH  95  98
ATOM     98  S   UNL     1      -1.844 -18.160 -25.117  1.00  0.00     0.127 S 
ATOM     99  O   UNL     1      -0.705 -19.068 -25.239  1.00  0.00    -0.237 OA
ATOM    100  O   UNL     1      -3.086 -18.655 -25.711  1.00  0.00    -0.237 OA
ATOM    101  O   UNL     1      -1.558 -16.759 -25.395  1.00  0.00    -0.744 OA
ENDBRANCH  95  98
ENDBRANCH  68  91
ENDBRANCH  42  43
ENDBRANCH  34  37
ENDBRANCH  32  33
ENDBRANCH  31  32
ENDBRANCH   1  31
TORSDOF 18
