REMARK SMILES CCCCOCc1cc(C(=O)NCCCCNC(=O)c2ccc(-c3c4nc(c(-c5cccc(S(=O)(=O)[O-])c5F)c5ccc([nH]5)c(-c5cccc(S(=O)(=O)[O-])c5F)c5nc(c(-c6cccc(S(=O)(=O)[O-])c6F)c6ccc3[nH]6)C=C5)C=C4)cc2)[nH]n1
REMARK SMILES IDX 13 1 12 2 10 3 11 4 9 6 7 7 8 8 84 9 83 10 6 12 5 13 4 14
REMARK SMILES IDX 3 15 2 16 1 17 14 18 15 19 16 20 17 21 18 22 19 24 20 25
REMARK SMILES IDX 21 26 82 27 22 28 81 29 23 30 24 31 25 32 75 33 26 34 80 35
REMARK SMILES IDX 74 36 76 37 27 38 79 39 73 40 72 41 28 43 60 44 40 45 59 46
REMARK SMILES IDX 41 47 44 48 58 49 77 50 42 51 43 52 57 54 78 55 45 56 29 57
REMARK SMILES IDX 30 58 38 59 31 60 33 61 39 62 32 63 34 64 35 65 36 66 37 67
REMARK SMILES IDX 61 68 62 69 70 70 63 71 65 72 71 73 64 74 66 75 67 76 68 77
REMARK SMILES IDX 69 78 46 79 47 80 55 81 48 82 50 83 56 84 49 85 51 86 52 87
REMARK SMILES IDX 53 88 54 89
REMARK H PARENT 12 5 83 11 17 23 76 42 44 53
REMARK Flexibility Score: inf
ROOT
ATOM      1  C   UNL     1       1.114  -0.823   2.878  1.00  0.00     0.116 C 
ENDROOT
BRANCH   1   2
ATOM      2  N   UNL     1       0.737  -2.210   3.059  1.00  0.00    -0.351 N 
ATOM      3  C   UNL     1       0.100  -3.073   2.204  1.00  0.00     0.269 C 
ATOM      4  O   UNL     1       0.103  -4.269   2.490  1.00  0.00    -0.268 OA
ATOM      5  H   UNL     1       0.975  -2.594   3.934  1.00  0.00     0.163 HD
BRANCH   3   6
ATOM      6  C   UNL     1      -0.496  -2.602   0.983  1.00  0.00     0.123 A 
ATOM      7  C   UNL     1      -1.332  -1.580  -0.816  1.00  0.00     0.089 A 
ATOM      8  C   UNL     1      -1.030  -1.403   0.557  1.00  0.00     0.061 A 
ATOM      9  N   UNL     1      -1.141  -2.853  -1.190  1.00  0.00    -0.178 NA
ATOM     10  N   UNL     1      -0.674  -3.449  -0.080  1.00  0.00    -0.273 N 
ATOM     11  H   UNL     1      -0.477  -4.413  -0.034  1.00  0.00     0.190 HD
BRANCH   7  12
ATOM     12  C   UNL     1      -1.783  -0.527  -1.783  1.00  0.00     0.218 C 
BRANCH  12  13
ATOM     13  O   UNL     1      -1.043  -0.432  -3.009  1.00  0.00    -0.375 OA
BRANCH  13  14
ATOM     14  C   UNL     1       0.376  -0.343  -2.902  1.00  0.00     0.160 C 
BRANCH  14  15
ATOM     15  C   UNL     1       0.882   1.084  -2.681  1.00  0.00     0.028 C 
BRANCH  15  16
ATOM     16  C   UNL     1       0.971   1.549  -1.225  1.00  0.00    -0.001 C 
ATOM     17  C   UNL     1       1.985   0.772  -0.401  1.00  0.00     0.004 C 
ENDBRANCH  15  16
ENDBRANCH  14  15
ENDBRANCH  13  14
ENDBRANCH  12  13
ENDBRANCH   7  12
ENDBRANCH   3   6
ENDBRANCH   1   2
BRANCH   1  18
ATOM     18  C   UNL     1       0.376   0.105   3.837  1.00  0.00     0.023 C 
BRANCH  18  19
ATOM     19  C   UNL     1       0.923   0.089   5.268  1.00  0.00     0.023 C 
BRANCH  19  20
ATOM     20  C   UNL     1       2.377   0.532   5.419  1.00  0.00     0.116 C 
BRANCH  20  21
ATOM     21  N   UNL     1       2.623   1.883   4.935  1.00  0.00    -0.352 N 
ATOM     22  C   UNL     1       3.391   2.878   5.493  1.00  0.00     0.251 C 
ATOM     23  H   UNL     1       2.176   2.116   4.089  1.00  0.00     0.163 HD
ATOM     24  O   UNL     1       3.388   4.000   4.993  1.00  0.00    -0.269 OA
BRANCH  22  25
ATOM     25  C   UNL     1       4.191   2.606   6.708  1.00  0.00     0.039 A 
ATOM     26  C   UNL     1       4.157   3.530   7.756  1.00  0.00     0.014 A 
ATOM     27  C   UNL     1       4.961   1.446   6.824  1.00  0.00     0.014 A 
ATOM     28  C   UNL     1       4.841   3.258   8.944  1.00  0.00     0.010 A 
ATOM     29  C   UNL     1       5.582   1.142   8.034  1.00  0.00     0.010 A 
ATOM     30  C   UNL     1       5.531   2.044   9.107  1.00  0.00    -0.014 A 
BRANCH  30  31
ATOM     31  C   UNL     1       6.181   1.697  10.398  1.00  0.00     0.031 A 
ATOM     32  C   UNL     1       7.671   1.498  10.476  1.00  0.00     0.074 A 
ATOM     33  C   UNL     1       5.417   1.478  11.487  1.00  0.00     0.049 A 
ATOM     34  N   UNL     1       8.404   1.167  11.508  1.00  0.00    -0.248 NA
ATOM     35  C   UNL     1       8.435   1.663   9.229  1.00  0.00     0.031 C 
ATOM     36  C   UNL     1       3.954   1.547  11.523  1.00  0.00     0.029 A 
ATOM     37  N   UNL     1       5.763   1.131  12.770  1.00  0.00    -0.354 N 
ATOM     38  C   UNL     1       9.704   1.053  11.032  1.00  0.00     0.074 A 
ATOM     39  C   UNL     1       9.655   1.313   9.609  1.00  0.00     0.031 C 
ATOM     40  C   UNL     1       3.530   1.259  12.764  1.00  0.00     0.029 A 
ATOM     41  C   UNL     1       4.684   0.963  13.607  1.00  0.00     0.049 A 
ATOM     42  H   UNL     1       6.695   1.012  13.063  1.00  0.00     0.167 HD
ATOM     43  C   UNL     1      10.842   0.788  11.718  1.00  0.00     0.034 A 
ATOM     44  C   UNL     1       4.628   0.614  14.907  1.00  0.00     0.034 A 
ATOM     45  C   UNL     1      10.896   0.578  13.140  1.00  0.00     0.049 A 
ATOM     46  C   UNL     1       5.911   0.384  15.660  1.00  0.00     0.074 A 
ATOM     47  C   UNL     1      12.010   0.399  13.941  1.00  0.00     0.029 A 
ATOM     48  N   UNL     1       9.791   0.513  13.973  1.00  0.00    -0.354 N 
ATOM     49  N   UNL     1       7.146   0.454  15.225  1.00  0.00    -0.248 NA
ATOM     50  C   UNL     1       5.795   0.068  17.091  1.00  0.00     0.031 C 
ATOM     51  C   UNL     1      11.577   0.208  15.257  1.00  0.00     0.029 A 
ATOM     52  C   UNL     1      10.194   0.290  15.279  1.00  0.00     0.049 A 
ATOM     53  H   UNL     1       8.856   0.611  13.680  1.00  0.00     0.167 HD
ATOM     54  C   UNL     1       7.954   0.227  16.334  1.00  0.00     0.074 A 
ATOM     55  C   UNL     1       7.068   0.040  17.464  1.00  0.00     0.031 C 
ATOM     56  C   UNL     1       9.306   0.161  16.406  1.00  0.00     0.034 A 
BRANCH  43  57
ATOM     57  C   UNL     1      12.137   0.775  10.947  1.00  0.00     0.023 A 
ATOM     58  C   UNL     1      12.670   1.990  10.470  1.00  0.00     0.012 A 
ATOM     59  C   UNL     1      12.854  -0.420  10.746  1.00  0.00     0.148 A 
ATOM     60  C   UNL     1      13.878   2.012   9.774  1.00  0.00     0.002 A 
ATOM     61  C   UNL     1      14.080  -0.384  10.090  1.00  0.00     0.091 A 
ATOM     62  F   UNL     1      12.322  -1.569  11.187  1.00  0.00    -0.205 F 
ATOM     63  C   UNL     1      14.587   0.828   9.594  1.00  0.00     0.022 A 
BRANCH  61  64
ATOM     64  S   UNL     1      15.107  -1.843   9.875  1.00  0.00     0.127 S 
ATOM     65  O   UNL     1      14.960  -2.099   8.443  1.00  0.00    -0.237 OA
ATOM     66  O   UNL     1      16.427  -1.352  10.274  1.00  0.00    -0.237 OA
ATOM     67  O   UNL     1      14.547  -2.860  10.754  1.00  0.00    -0.744 OA
ENDBRANCH  61  64
ENDBRANCH  43  57
BRANCH  44  68
ATOM     68  C   UNL     1       3.312   0.540  15.602  1.00  0.00     0.023 A 
ATOM     69  C   UNL     1       2.981   1.520  16.559  1.00  0.00     0.012 A 
ATOM     70  C   UNL     1       2.377  -0.469  15.302  1.00  0.00     0.148 A 
ATOM     71  C   UNL     1       1.757   1.478  17.227  1.00  0.00     0.002 A 
ATOM     72  C   UNL     1       1.137  -0.473  15.931  1.00  0.00     0.091 A 
ATOM     73  F   UNL     1       2.715  -1.399  14.398  1.00  0.00    -0.205 F 
ATOM     74  C   UNL     1       0.832   0.488  16.907  1.00  0.00     0.022 A 
BRANCH  72  75
ATOM     75  S   UNL     1      -0.164  -1.628  15.482  1.00  0.00     0.127 S 
ATOM     76  O   UNL     1      -0.183  -2.521  16.638  1.00  0.00    -0.237 OA
ATOM     77  O   UNL     1      -1.325  -0.745  15.365  1.00  0.00    -0.237 OA
ATOM     78  O   UNL     1       0.261  -2.225  14.224  1.00  0.00    -0.744 OA
ENDBRANCH  72  75
ENDBRANCH  44  68
BRANCH  56  79
ATOM     79  C   UNL     1       9.922  -0.093  17.757  1.00  0.00     0.023 A 
ATOM     80  C   UNL     1       9.829  -1.373  18.339  1.00  0.00     0.012 A 
ATOM     81  C   UNL     1      10.651   0.915  18.418  1.00  0.00     0.148 A 
ATOM     82  C   UNL     1      10.421  -1.635  19.574  1.00  0.00     0.002 A 
ATOM     83  C   UNL     1      11.280   0.633  19.625  1.00  0.00     0.091 A 
ATOM     84  F   UNL     1      10.712   2.133  17.859  1.00  0.00    -0.205 F 
ATOM     85  C   UNL     1      11.156  -0.637  20.210  1.00  0.00     0.022 A 
BRANCH  83  86
ATOM     86  S   UNL     1      12.324   1.829  20.466  1.00  0.00     0.127 S 
ATOM     87  O   UNL     1      11.462   2.256  21.567  1.00  0.00    -0.237 OA
ATOM     88  O   UNL     1      13.470   1.015  20.869  1.00  0.00    -0.237 OA
ATOM     89  O   UNL     1      12.632   2.853  19.476  1.00  0.00    -0.744 OA
ENDBRANCH  83  86
ENDBRANCH  56  79
ENDBRANCH  30  31
ENDBRANCH  22  25
ENDBRANCH  20  21
ENDBRANCH  19  20
ENDBRANCH  18  19
ENDBRANCH   1  18
TORSDOF 19
