REMARK SMILES CS(=O)(=O)c1ccc(/C=C(/C(=O)NCCCCNC(=O)c2ccc(-c3c4nc(c(-c5cccc(S(=O)(=O)[O-])c5F)c5ccc([nH]5)c(-c5cccc(S(=O)(=O)[O-])c5F)c5nc(c(-c6cccc(S(=O)(=O)[O-])c6F)c6ccc3[nH]6)C=C5)C=C4)cc2)c2ccc(F)cc2)cc1
REMARK SMILES IDX 16 1 15 2 14 3 13 4 11 5 12 6 10 8 9 9 8 10 5 11 6 12 92 13
REMARK SMILES IDX 7 14 91 15 2 16 1 17 3 18 4 19 84 20 85 21 90 22 86 23 89 24
REMARK SMILES IDX 87 25 88 26 17 27 18 28 19 29 20 31 21 32 22 33 83 34 23 35
REMARK SMILES IDX 82 36 24 37 25 38 26 39 76 40 27 41 81 42 75 43 77 44 28 45
REMARK SMILES IDX 80 46 74 47 73 48 29 50 61 51 41 52 60 53 42 54 45 55 59 56
REMARK SMILES IDX 78 57 43 58 44 59 58 61 79 62 46 63 30 64 31 65 39 66 32 67
REMARK SMILES IDX 34 68 40 69 33 70 35 71 36 72 37 73 38 74 62 75 63 76 71 77
REMARK SMILES IDX 64 78 66 79 72 80 65 81 67 82 68 83 69 84 70 85 47 86 48 87
REMARK SMILES IDX 56 88 49 89 51 90 57 91 50 92 52 93 53 94 54 95 55 96
REMARK H PARENT 13 7 18 30 77 49 45 60
REMARK Flexibility Score: inf
ROOT
ATOM      1  C   UNL     1       0.609  11.296   1.096  1.00  0.00     0.023 C 
ENDROOT
BRANCH   1   2
ATOM      2  C   UNL     1       0.774   9.835   0.657  1.00  0.00     0.023 C 
BRANCH   2   3
ATOM      3  C   UNL     1       2.220   9.331   0.660  1.00  0.00     0.116 C 
BRANCH   3   4
ATOM      4  N   UNL     1       2.691   9.159   2.020  1.00  0.00    -0.352 N 
ATOM      5  C   UNL     1       2.801   8.088   2.849  1.00  0.00     0.251 C 
ATOM      6  O   UNL     1       3.219   8.320   3.987  1.00  0.00    -0.269 OA
ATOM      7  H   UNL     1       2.997  10.000   2.432  1.00  0.00     0.163 HD
BRANCH   5   8
ATOM      8  C   UNL     1       2.524   6.662   2.422  1.00  0.00     0.047 C 
ATOM      9  C   UNL     1       1.559   6.353   1.527  1.00  0.00     0.022 C 
BRANCH   9  10
ATOM     10  C   UNL     1       1.208   5.051   0.921  1.00  0.00    -0.025 A 
ATOM     11  C   UNL     1       0.603   2.639  -0.388  1.00  0.00     0.067 A 
ATOM     12  C   UNL     1       0.775   2.655   0.996  1.00  0.00     0.021 A 
ATOM     13  C   UNL     1       0.699   3.823  -1.122  1.00  0.00     0.021 A 
ATOM     14  C   UNL     1       1.057   3.864   1.646  1.00  0.00     0.009 A 
ATOM     15  C   UNL     1       0.996   5.021  -0.467  1.00  0.00     0.009 A 
BRANCH  11  16
ATOM     16  S   UNL     1       0.286   1.132  -1.273  1.00  0.00     0.175 S 
ATOM     17  C   UNL     1       0.985  -0.183  -0.315  1.00  0.00     0.163 C 
ATOM     18  O   UNL     1       1.046   1.200  -2.505  1.00  0.00    -0.224 OA
ATOM     19  O   UNL     1      -1.155   0.956  -1.289  1.00  0.00    -0.224 OA
ENDBRANCH  11  16
ENDBRANCH   9  10
BRANCH   8  20
ATOM     20  C   UNL     1       3.243   5.592   3.160  1.00  0.00    -0.013 A 
ATOM     21  C   UNL     1       2.961   5.409   4.528  1.00  0.00     0.012 A 
ATOM     22  C   UNL     1       4.142   4.721   2.529  1.00  0.00     0.012 A 
ATOM     23  C   UNL     1       3.545   4.366   5.245  1.00  0.00     0.040 A 
ATOM     24  C   UNL     1       4.716   3.667   3.247  1.00  0.00     0.040 A 
ATOM     25  C   UNL     1       4.408   3.497   4.594  1.00  0.00     0.123 A 
ATOM     26  F   UNL     1       4.944   2.473   5.270  1.00  0.00    -0.207 F 
ENDBRANCH   8  20
ENDBRANCH   5   8
ENDBRANCH   3   4
ENDBRANCH   2   3
ENDBRANCH   1   2
BRANCH   1  27
ATOM     27  C   UNL     1       1.332  12.321   0.226  1.00  0.00     0.116 C 
BRANCH  27  28
ATOM     28  N   UNL     1       0.947  12.247  -1.174  1.00  0.00    -0.352 N 
ATOM     29  C   UNL     1       0.883  13.255  -2.103  1.00  0.00     0.251 C 
ATOM     30  H   UNL     1       0.698  11.352  -1.500  1.00  0.00     0.163 HD
ATOM     31  O   UNL     1       0.419  13.027  -3.216  1.00  0.00    -0.269 OA
BRANCH  29  32
ATOM     32  C   UNL     1       1.344  14.615  -1.751  1.00  0.00     0.039 A 
ATOM     33  C   UNL     1       0.548  15.707  -2.112  1.00  0.00     0.014 A 
ATOM     34  C   UNL     1       2.555  14.818  -1.084  1.00  0.00     0.014 A 
ATOM     35  C   UNL     1       0.949  17.000  -1.769  1.00  0.00     0.010 A 
ATOM     36  C   UNL     1       2.920  16.101  -0.686  1.00  0.00     0.010 A 
ATOM     37  C   UNL     1       2.130  17.206  -1.039  1.00  0.00    -0.014 A 
BRANCH  37  38
ATOM     38  C   UNL     1       2.572  18.571  -0.659  1.00  0.00     0.031 A 
ATOM     39  C   UNL     1       3.846  19.133  -1.229  1.00  0.00     0.074 A 
ATOM     40  C   UNL     1       1.872  19.270   0.255  1.00  0.00     0.049 A 
ATOM     41  N   UNL     1       4.424  20.280  -0.984  1.00  0.00    -0.248 NA
ATOM     42  C   UNL     1       4.586  18.281  -2.176  1.00  0.00     0.031 C 
ATOM     43  C   UNL     1       0.667  18.799   0.940  1.00  0.00     0.029 A 
ATOM     44  N   UNL     1       2.089  20.517   0.784  1.00  0.00    -0.354 N 
ATOM     45  C   UNL     1       5.608  20.273  -1.711  1.00  0.00     0.074 A 
ATOM     46  C   UNL     1       5.686  18.993  -2.380  1.00  0.00     0.031 C 
ATOM     47  C   UNL     1       0.250  19.746   1.797  1.00  0.00     0.029 A 
ATOM     48  C   UNL     1       1.166  20.881   1.736  1.00  0.00     0.049 A 
ATOM     49  H   UNL     1       2.835  21.097   0.508  1.00  0.00     0.167 HD
ATOM     50  C   UNL     1       6.532  21.254  -1.839  1.00  0.00     0.034 A 
ATOM     51  C   UNL     1       1.067  22.006   2.473  1.00  0.00     0.034 A 
ATOM     52  C   UNL     1       6.419  22.548  -1.223  1.00  0.00     0.049 A 
ATOM     53  C   UNL     1       2.066  23.110   2.254  1.00  0.00     0.074 A 
ATOM     54  C   UNL     1       7.252  23.643  -1.363  1.00  0.00     0.029 A 
ATOM     55  N   UNL     1       5.407  22.922  -0.353  1.00  0.00    -0.354 N 
ATOM     56  N   UNL     1       3.091  23.147   1.437  1.00  0.00    -0.248 NA
ATOM     57  C   UNL     1       1.871  24.346   3.027  1.00  0.00     0.031 C 
ATOM     58  C   UNL     1       6.746  24.680  -0.570  1.00  0.00     0.029 A 
ATOM     59  C   UNL     1       5.591  24.232   0.051  1.00  0.00     0.049 A 
ATOM     60  H   UNL     1       4.667  22.341  -0.065  1.00  0.00     0.167 HD
ATOM     61  C   UNL     1       3.638  24.419   1.566  1.00  0.00     0.074 A 
ATOM     62  C   UNL     1       2.819  25.129   2.527  1.00  0.00     0.031 C 
ATOM     63  C   UNL     1       4.728  24.946   0.957  1.00  0.00     0.034 A 
BRANCH  50  64
ATOM     64  C   UNL     1       7.712  20.989  -2.737  1.00  0.00     0.023 A 
ATOM     65  C   UNL     1       7.522  20.951  -4.134  1.00  0.00     0.012 A 
ATOM     66  C   UNL     1       9.008  20.829  -2.212  1.00  0.00     0.148 A 
ATOM     67  C   UNL     1       8.596  20.721  -4.992  1.00  0.00     0.002 A 
ATOM     68  C   UNL     1      10.082  20.643  -3.077  1.00  0.00     0.091 A 
ATOM     69  F   UNL     1       9.167  20.846  -0.881  1.00  0.00    -0.205 F 
ATOM     70  C   UNL     1       9.876  20.577  -4.465  1.00  0.00     0.022 A 
BRANCH  68  71
ATOM     71  S   UNL     1      11.779  20.522  -2.499  1.00  0.00     0.127 S 
ATOM     72  O   UNL     1      12.052  19.098  -2.681  1.00  0.00    -0.237 OA
ATOM     73  O   UNL     1      12.486  21.402  -3.431  1.00  0.00    -0.237 OA
ATOM     74  O   UNL     1      11.765  20.988  -1.120  1.00  0.00    -0.744 OA
ENDBRANCH  68  71
ENDBRANCH  50  64
BRANCH  51  75
ATOM     75  C   UNL     1      -0.073  22.179   3.416  1.00  0.00     0.023 A 
ATOM     76  C   UNL     1      -1.093  23.097   3.099  1.00  0.00     0.012 A 
ATOM     77  C   UNL     1      -0.172  21.425   4.601  1.00  0.00     0.148 A 
ATOM     78  C   UNL     1      -2.174  23.286   3.961  1.00  0.00     0.002 A 
ATOM     79  C   UNL     1      -1.278  21.581   5.430  1.00  0.00     0.091 A 
ATOM     80  F   UNL     1       0.815  20.566   4.892  1.00  0.00    -0.205 F 
ATOM     81  C   UNL     1      -2.272  22.521   5.120  1.00  0.00     0.022 A 
BRANCH  79  82
ATOM     82  S   UNL     1      -1.548  20.546   6.874  1.00  0.00     0.127 S 
ATOM     83  O   UNL     1      -1.241  21.468   7.964  1.00  0.00    -0.237 OA
ATOM     84  O   UNL     1      -2.964  20.200   6.740  1.00  0.00    -0.237 OA
ATOM     85  O   UNL     1      -0.641  19.417   6.718  1.00  0.00    -0.744 OA
ENDBRANCH  79  82
ENDBRANCH  51  75
BRANCH  63  86
ATOM     86  C   UNL     1       5.085  26.373   1.274  1.00  0.00     0.023 A 
ATOM     87  C   UNL     1       5.663  26.689   2.519  1.00  0.00     0.012 A 
ATOM     88  C   UNL     1       4.927  27.386   0.308  1.00  0.00     0.148 A 
ATOM     89  C   UNL     1       6.052  27.996   2.809  1.00  0.00     0.002 A 
ATOM     90  C   UNL     1       5.358  28.677   0.586  1.00  0.00     0.091 A 
ATOM     91  F   UNL     1       4.355  27.070  -0.864  1.00  0.00    -0.205 F 
ATOM     92  C   UNL     1       5.911  28.986   1.839  1.00  0.00     0.022 A 
BRANCH  90  93
ATOM     93  S   UNL     1       5.303  29.989  -0.640  1.00  0.00     0.127 S 
ATOM     94  O   UNL     1       4.148  30.766  -0.195  1.00  0.00    -0.237 OA
ATOM     95  O   UNL     1       6.594  30.652  -0.450  1.00  0.00    -0.237 OA
ATOM     96  O   UNL     1       5.155  29.323  -1.928  1.00  0.00    -0.744 OA
ENDBRANCH  90  93
ENDBRANCH  63  86
ENDBRANCH  37  38
ENDBRANCH  29  32
ENDBRANCH  27  28
ENDBRANCH   1  27
TORSDOF 17
