REMARK SMILES O=C(NCCCCNC(=O)c1ccc(-c2c3nc(c(-c4cccc(S(=O)(=O)[O-])c4F)c4ccc([nH]4)c(-c4cccc(S(=O)(=O)[O-])c4F)c4nc(c(-c5cccc(S(=O)(=O)[O-])c5F)c5ccc2[nH]5)C=C4)C=C3)cc1)C1=Cc2cc(OC(F)(F)F)ccc2O[C@@H]1C(F)(F)F
REMARK SMILES IDX 6 1 5 2 4 3 3 4 1 5 2 6 74 8 75 9 88 10 76 11 87 12 77 13
REMARK SMILES IDX 86 14 78 15 85 16 84 17 89 18 90 19 91 20 92 21 79 22 80 23
REMARK SMILES IDX 81 24 82 25 83 26 7 27 8 28 9 29 10 31 11 32 12 33 73 34
REMARK SMILES IDX 13 35 72 36 14 37 15 38 16 39 66 40 17 41 71 42 65 43 67 44
REMARK SMILES IDX 18 45 70 46 64 47 63 48 19 50 51 51 31 52 50 53 32 54 35 55
REMARK SMILES IDX 49 56 68 57 33 58 34 59 48 61 69 62 36 63 20 64 21 65 29 66
REMARK SMILES IDX 22 67 24 68 30 69 23 70 25 71 26 72 27 73 28 74 52 75 53 76
REMARK SMILES IDX 61 77 54 78 56 79 62 80 55 81 57 82 58 83 59 84 60 85 37 86
REMARK SMILES IDX 38 87 46 88 39 89 41 90 47 91 40 92 42 93 43 94 44 95 45 96
REMARK H PARENT 3 7 8 30 67 49 35 60
REMARK Flexibility Score: inf
ROOT
ATOM      1  C   UNL     1       4.085  -0.302   4.334  1.00  0.00     0.023 C 
ENDROOT
BRANCH   1   2
ATOM      2  C   UNL     1       4.309   0.553   3.088  1.00  0.00     0.023 C 
BRANCH   2   3
ATOM      3  C   UNL     1       3.767  -0.049   1.791  1.00  0.00     0.116 C 
BRANCH   3   4
ATOM      4  N   UNL     1       2.631   0.682   1.223  1.00  0.00    -0.352 N 
ATOM      5  O   UNL     1       1.224   1.371  -0.426  1.00  0.00    -0.270 OA
ATOM      6  C   UNL     1       2.320   0.939  -0.095  1.00  0.00     0.251 C 
ATOM      7  H   UNL     1       1.994   1.044   1.881  1.00  0.00     0.163 HD
BRANCH   6   8
ATOM      8  C   UNL     1       3.323   0.579  -1.117  1.00  0.00     0.067 C 
ATOM      9  C   UNL     1       4.525   1.170  -1.079  1.00  0.00     0.025 C 
ATOM     10  C   UNL     1       3.080  -0.677  -1.898  1.00  0.00     0.314 C 
ATOM     11  C   UNL     1       5.629   0.196  -1.152  1.00  0.00     0.021 A 
ATOM     12  O   UNL     1       4.104  -1.667  -1.637  1.00  0.00    -0.475 OA
ATOM     13  C   UNL     1       6.875   0.587  -0.646  1.00  0.00     0.058 A 
ATOM     14  C   UNL     1       5.335  -1.176  -1.276  1.00  0.00     0.128 A 
ATOM     15  C   UNL     1       7.764  -0.374  -0.157  1.00  0.00     0.130 A 
ATOM     16  C   UNL     1       6.250  -2.132  -0.844  1.00  0.00     0.051 A 
ATOM     17  C   UNL     1       7.454  -1.732  -0.262  1.00  0.00     0.050 A 
BRANCH  10  18
ATOM     18  C   UNL     1       2.956  -0.398  -3.406  1.00  0.00     0.429 C 
ATOM     19  F   UNL     1       2.624  -1.522  -4.088  1.00  0.00    -0.167 F 
ATOM     20  F   UNL     1       1.995   0.518  -3.675  1.00  0.00    -0.167 F 
ATOM     21  F   UNL     1       4.108   0.066  -3.947  1.00  0.00    -0.167 F 
ENDBRANCH  10  18
BRANCH  15  22
ATOM     22  O   UNL     1       8.905   0.113   0.420  1.00  0.00    -0.406 OA
BRANCH  22  23
ATOM     23  C   UNL     1       9.257  -0.506   1.656  1.00  0.00     0.573 C 
ATOM     24  F   UNL     1       8.187  -0.564   2.477  1.00  0.00    -0.132 F 
ATOM     25  F   UNL     1       9.762  -1.737   1.445  1.00  0.00    -0.132 F 
ATOM     26  F   UNL     1      10.210   0.248   2.247  1.00  0.00    -0.132 F 
ENDBRANCH  22  23
ENDBRANCH  15  22
ENDBRANCH   6   8
ENDBRANCH   3   4
ENDBRANCH   2   3
ENDBRANCH   1   2
BRANCH   1  27
ATOM     27  C   UNL     1       4.646  -1.723   4.304  1.00  0.00     0.116 C 
BRANCH  27  28
ATOM     28  N   UNL     1       6.085  -1.821   4.102  1.00  0.00    -0.352 N 
ATOM     29  C   UNL     1       6.972  -2.693   4.698  1.00  0.00     0.251 C 
ATOM     30  H   UNL     1       6.474  -1.183   3.461  1.00  0.00     0.163 HD
ATOM     31  O   UNL     1       8.169  -2.656   4.418  1.00  0.00    -0.269 OA
BRANCH  29  32
ATOM     32  C   UNL     1       6.483  -3.644   5.721  1.00  0.00     0.039 A 
ATOM     33  C   UNL     1       7.109  -3.667   6.971  1.00  0.00     0.014 A 
ATOM     34  C   UNL     1       5.370  -4.452   5.476  1.00  0.00     0.014 A 
ATOM     35  C   UNL     1       6.564  -4.437   8.002  1.00  0.00     0.010 A 
ATOM     36  C   UNL     1       4.785  -5.154   6.526  1.00  0.00     0.010 A 
ATOM     37  C   UNL     1       5.374  -5.154   7.800  1.00  0.00    -0.014 A 
BRANCH  37  38
ATOM     38  C   UNL     1       4.732  -5.909   8.908  1.00  0.00     0.031 A 
ATOM     39  C   UNL     1       4.585  -7.404   8.813  1.00  0.00     0.074 A 
ATOM     40  C   UNL     1       4.215  -5.245   9.962  1.00  0.00     0.049 A 
ATOM     41  N   UNL     1       4.013  -8.232   9.648  1.00  0.00    -0.248 NA
ATOM     42  C   UNL     1       5.123  -8.051   7.604  1.00  0.00     0.031 C 
ATOM     43  C   UNL     1       4.206  -3.789  10.127  1.00  0.00     0.029 A 
ATOM     44  N   UNL     1       3.573  -5.707  11.085  1.00  0.00    -0.354 N 
ATOM     45  C   UNL     1       4.098  -9.486   9.057  1.00  0.00     0.074 A 
ATOM     46  C   UNL     1       4.730  -9.305   7.769  1.00  0.00     0.031 C 
ATOM     47  C   UNL     1       3.594  -3.479  11.283  1.00  0.00     0.029 A 
ATOM     48  C   UNL     1       3.156  -4.708  11.935  1.00  0.00     0.049 A 
ATOM     49  H   UNL     1       3.425  -6.663  11.264  1.00  0.00     0.167 HD
ATOM     50  C   UNL     1       3.726 -10.689   9.556  1.00  0.00     0.034 A 
ATOM     51  C   UNL     1       2.502  -4.779  13.113  1.00  0.00     0.034 A 
ATOM     52  C   UNL     1       3.145 -10.874  10.857  1.00  0.00     0.049 A 
ATOM     53  C   UNL     1       2.183  -6.135  13.685  1.00  0.00     0.074 A 
ATOM     54  C   UNL     1       2.769 -12.053  11.475  1.00  0.00     0.029 A 
ATOM     55  N   UNL     1       2.871  -9.849  11.749  1.00  0.00    -0.354 N 
ATOM     56  N   UNL     1       2.400  -7.321  13.169  1.00  0.00    -0.248 NA
ATOM     57  C   UNL     1       1.577  -6.167  15.024  1.00  0.00     0.031 C 
ATOM     58  C   UNL     1       2.277 -11.741  12.748  1.00  0.00     0.029 A 
ATOM     59  C   UNL     1       2.356 -10.369  12.923  1.00  0.00     0.049 A 
ATOM     60  H   UNL     1       3.022  -8.893  11.573  1.00  0.00     0.167 HD
ATOM     61  C   UNL     1       2.000  -8.237  14.135  1.00  0.00     0.074 A 
ATOM     62  C   UNL     1       1.549  -7.468  15.277  1.00  0.00     0.031 C 
ATOM     63  C   UNL     1       1.987  -9.591  14.077  1.00  0.00     0.034 A 
BRANCH  50  64
ATOM     64  C   UNL     1       4.021 -11.907   8.719  1.00  0.00     0.023 A 
ATOM     65  C   UNL     1       5.359 -12.333   8.582  1.00  0.00     0.012 A 
ATOM     66  C   UNL     1       2.994 -12.649   8.108  1.00  0.00     0.148 A 
ATOM     67  C   UNL     1       5.674 -13.456   7.819  1.00  0.00     0.002 A 
ATOM     68  C   UNL     1       3.312 -13.793   7.383  1.00  0.00     0.091 A 
ATOM     69  F   UNL     1       1.730 -12.218   8.232  1.00  0.00    -0.205 F 
ATOM     70  C   UNL     1       4.651 -14.191   7.229  1.00  0.00     0.022 A 
BRANCH  68  71
ATOM     71  S   UNL     1       2.065 -14.852   6.641  1.00  0.00     0.127 S 
ATOM     72  O   UNL     1       2.269 -14.594   5.216  1.00  0.00    -0.237 OA
ATOM     73  O   UNL     1       2.485 -16.181   7.087  1.00  0.00    -0.237 OA
ATOM     74  O   UNL     1       0.787 -14.407   7.180  1.00  0.00    -0.744 OA
ENDBRANCH  68  71
ENDBRANCH  50  64
BRANCH  51  75
ATOM     75  C   UNL     1       2.194  -3.536  13.877  1.00  0.00     0.023 A 
ATOM     76  C   UNL     1       2.895  -3.266  15.069  1.00  0.00     0.012 A 
ATOM     77  C   UNL     1       1.224  -2.619  13.432  1.00  0.00     0.148 A 
ATOM     78  C   UNL     1       2.605  -2.130  15.826  1.00  0.00     0.002 A 
ATOM     79  C   UNL     1       0.978  -1.460  14.163  1.00  0.00     0.091 A 
ATOM     80  F   UNL     1       0.554  -2.895  12.304  1.00  0.00    -0.205 F 
ATOM     81  C   UNL     1       1.654  -1.223  15.369  1.00  0.00     0.022 A 
BRANCH  79  82
ATOM     82  S   UNL     1      -0.135  -0.182  13.567  1.00  0.00     0.127 S 
ATOM     83  O   UNL     1      -1.349  -0.461  14.328  1.00  0.00    -0.237 OA
ATOM     84  O   UNL     1       0.566   1.045  13.952  1.00  0.00    -0.237 OA
ATOM     85  O   UNL     1      -0.217  -0.390  12.127  1.00  0.00    -0.744 OA
ENDBRANCH  79  82
ENDBRANCH  51  75
BRANCH  63  86
ATOM     86  C   UNL     1       1.519 -10.336  15.298  1.00  0.00     0.023 A 
ATOM     87  C   UNL     1       0.150 -10.351  15.628  1.00  0.00     0.012 A 
ATOM     88  C   UNL     1       2.429 -11.071  16.083  1.00  0.00     0.148 A 
ATOM     89  C   UNL     1      -0.302 -11.059  16.741  1.00  0.00     0.002 A 
ATOM     90  C   UNL     1       1.965 -11.810  17.165  1.00  0.00     0.091 A 
ATOM     91  F   UNL     1       3.732 -11.025  15.769  1.00  0.00    -0.205 F 
ATOM     92  C   UNL     1       0.602 -11.796  17.502  1.00  0.00     0.022 A 
BRANCH  90  93
ATOM     93  S   UNL     1       3.056 -12.858  18.134  1.00  0.00     0.127 S 
ATOM     94  O   UNL     1       3.341 -12.007  19.288  1.00  0.00    -0.237 OA
ATOM     95  O   UNL     1       2.208 -14.015  18.425  1.00  0.00    -0.237 OA
ATOM     96  O   UNL     1       4.189 -13.150  17.266  1.00  0.00    -0.744 OA
ENDBRANCH  90  93
ENDBRANCH  63  86
ENDBRANCH  37  38
ENDBRANCH  29  32
ENDBRANCH  27  28
ENDBRANCH   1  27
TORSDOF 17
