REMARK SMILES O=C(CCC(=O)Nc1ncccn1)NCCCCNC(=O)c1ccc(-c2c3nc(c(-c4cccc(S(=O)(=O)[O-])c4F)c4ccc([nH]4)c(-c4cccc(S(=O)(=O)[O-])c4F)c4nc(c(-c5cccc(S(=O)(=O)[O-])c5F)c5ccc2[nH]5)C=C4)C=C3)cc1
REMARK SMILES IDX 16 1 15 2 14 3 1 4 2 5 3 7 4 8 5 9 6 10 7 11 8 13 9 14 13 15
REMARK SMILES IDX 10 16 12 17 11 18 17 19 18 20 19 21 20 22 21 24 22 25 23 26
REMARK SMILES IDX 84 27 24 28 83 29 25 30 26 31 27 32 77 33 28 34 82 35 76 36
REMARK SMILES IDX 78 37 29 38 81 39 75 40 74 41 30 43 62 44 42 45 61 46 43 47
REMARK SMILES IDX 46 48 60 49 79 50 44 51 45 52 59 54 80 55 47 56 31 57 32 58
REMARK SMILES IDX 40 59 33 60 35 61 41 62 34 63 36 64 37 65 38 66 39 67 63 68
REMARK SMILES IDX 64 69 72 70 65 71 67 72 73 73 66 74 68 75 69 76 70 77 71 78
REMARK SMILES IDX 48 79 49 80 57 81 50 82 52 83 58 84 51 85 53 86 54 87 55 88
REMARK SMILES IDX 56 89
REMARK H PARENT 14 6 7 12 19 23 78 42 46 53
REMARK Flexibility Score: inf
ROOT
ATOM      1  C   UNL     1       2.924  -3.352  -1.966  1.00  0.00     0.023 C 
ENDROOT
BRANCH   1   2
ATOM      2  C   UNL     1       2.363  -2.292  -1.024  1.00  0.00     0.116 C 
BRANCH   2   3
ATOM      3  N   UNL     1       3.157  -1.081  -0.961  1.00  0.00    -0.356 N 
ATOM      4  O   UNL     1       1.383   0.387  -1.032  1.00  0.00    -0.275 OA
ATOM      5  C   UNL     1       2.581   0.169  -0.866  1.00  0.00     0.220 C 
ATOM      6  H   UNL     1       4.138  -1.153  -0.987  1.00  0.00     0.163 HD
BRANCH   5   7
ATOM      7  C   UNL     1       3.559   1.270  -0.503  1.00  0.00     0.110 C 
BRANCH   7   8
ATOM      8  C   UNL     1       3.847   1.355   0.994  1.00  0.00     0.110 C 
BRANCH   8   9
ATOM      9  C   UNL     1       4.615   0.157   1.514  1.00  0.00     0.227 C 
ATOM     10  O   UNL     1       5.823   0.060   1.267  1.00  0.00    -0.275 OA
ATOM     11  N   UNL     1       4.031  -0.857   2.196  1.00  0.00    -0.295 N 
ATOM     12  H   UNL     1       4.661  -1.483   2.622  1.00  0.00     0.173 HD
BRANCH  11  13
ATOM     13  C   UNL     1       2.696  -1.159   2.393  1.00  0.00     0.229 A 
ATOM     14  N   UNL     1       2.469  -2.390   2.874  1.00  0.00    -0.221 NA
ATOM     15  N   UNL     1       1.737  -0.338   1.966  1.00  0.00    -0.221 NA
ATOM     16  C   UNL     1       1.192  -2.823   2.846  1.00  0.00     0.117 A 
ATOM     17  C   UNL     1       0.481  -0.818   1.932  1.00  0.00     0.117 A 
ATOM     18  C   UNL     1       0.148  -2.078   2.355  1.00  0.00     0.040 A 
ENDBRANCH  11  13
ENDBRANCH   8   9
ENDBRANCH   7   8
ENDBRANCH   5   7
ENDBRANCH   2   3
ENDBRANCH   1   2
BRANCH   1  19
ATOM     19  C   UNL     1       4.367  -3.783  -1.691  1.00  0.00     0.023 C 
BRANCH  19  20
ATOM     20  C   UNL     1       4.642  -4.319  -0.287  1.00  0.00     0.116 C 
BRANCH  20  21
ATOM     21  N   UNL     1       4.024  -5.615  -0.045  1.00  0.00    -0.352 N 
ATOM     22  C   UNL     1       4.600  -6.853   0.127  1.00  0.00     0.251 C 
ATOM     23  H   UNL     1       3.040  -5.604   0.003  1.00  0.00     0.163 HD
ATOM     24  O   UNL     1       3.886  -7.853   0.164  1.00  0.00    -0.269 OA
BRANCH  22  25
ATOM     25  C   UNL     1       6.071  -6.995   0.240  1.00  0.00     0.039 A 
ATOM     26  C   UNL     1       6.712  -8.005  -0.484  1.00  0.00     0.014 A 
ATOM     27  C   UNL     1       6.821  -6.151   1.062  1.00  0.00     0.014 A 
ATOM     28  C   UNL     1       8.107  -8.113  -0.448  1.00  0.00     0.010 A 
ATOM     29  C   UNL     1       8.214  -6.208   1.034  1.00  0.00     0.010 A 
ATOM     30  C   UNL     1       8.876  -7.187   0.277  1.00  0.00    -0.014 A 
BRANCH  30  31
ATOM     31  C   UNL     1      10.364  -7.208   0.230  1.00  0.00     0.031 A 
ATOM     32  C   UNL     1      11.170  -7.427   1.484  1.00  0.00     0.074 A 
ATOM     33  C   UNL     1      10.998  -6.938  -0.930  1.00  0.00     0.049 A 
ATOM     34  N   UNL     1      12.469  -7.420   1.641  1.00  0.00    -0.248 NA
ATOM     35  C   UNL     1      10.419  -7.658   2.729  1.00  0.00     0.031 C 
ATOM     36  C   UNL     1      10.341  -6.633  -2.202  1.00  0.00     0.029 A 
ATOM     37  N   UNL     1      12.338  -6.849  -1.222  1.00  0.00    -0.354 N 
ATOM     38  C   UNL     1      12.691  -7.605   3.001  1.00  0.00     0.074 A 
ATOM     39  C   UNL     1      11.391  -7.692   3.630  1.00  0.00     0.031 C 
ATOM     40  C   UNL     1      11.275  -6.396  -3.137  1.00  0.00     0.029 A 
ATOM     41  C   UNL     1      12.597  -6.497  -2.527  1.00  0.00     0.049 A 
ATOM     42  H   UNL     1      13.046  -7.020  -0.560  1.00  0.00     0.167 HD
ATOM     43  C   UNL     1      13.867  -7.718   3.666  1.00  0.00     0.034 A 
ATOM     44  C   UNL     1      13.764  -6.270  -3.162  1.00  0.00     0.034 A 
ATOM     45  C   UNL     1      15.160  -7.669   3.036  1.00  0.00     0.049 A 
ATOM     46  C   UNL     1      15.056  -6.431  -2.407  1.00  0.00     0.074 A 
ATOM     47  C   UNL     1      16.403  -7.870   3.610  1.00  0.00     0.029 A 
ATOM     48  N   UNL     1      15.380  -7.388   1.697  1.00  0.00    -0.354 N 
ATOM     49  N   UNL     1      15.244  -6.771  -1.156  1.00  0.00    -0.248 NA
ATOM     50  C   UNL     1      16.299  -6.211  -3.162  1.00  0.00     0.031 C 
ATOM     51  C   UNL     1      17.377  -7.677   2.625  1.00  0.00     0.029 A 
ATOM     52  C   UNL     1      16.739  -7.394   1.428  1.00  0.00     0.049 A 
ATOM     53  H   UNL     1      14.674  -7.211   1.034  1.00  0.00     0.167 HD
ATOM     54  C   UNL     1      16.622  -6.844  -0.983  1.00  0.00     0.074 A 
ATOM     55  C   UNL     1      17.221  -6.532  -2.264  1.00  0.00     0.031 C 
ATOM     56  C   UNL     1      17.327  -7.133   0.139  1.00  0.00     0.034 A 
BRANCH  43  57
ATOM     57  C   UNL     1      13.813  -7.949   5.155  1.00  0.00     0.023 A 
ATOM     58  C   UNL     1      13.365  -9.190   5.653  1.00  0.00     0.012 A 
ATOM     59  C   UNL     1      14.263  -6.965   6.058  1.00  0.00     0.148 A 
ATOM     60  C   UNL     1      13.329  -9.434   7.025  1.00  0.00     0.002 A 
ATOM     61  C   UNL     1      14.269  -7.234   7.422  1.00  0.00     0.091 A 
ATOM     62  F   UNL     1      14.670  -5.785   5.569  1.00  0.00    -0.205 F 
ATOM     63  C   UNL     1      13.790  -8.462   7.908  1.00  0.00     0.022 A 
BRANCH  61  64
ATOM     64  S   UNL     1      14.922  -6.080   8.634  1.00  0.00     0.127 S 
ATOM     65  O   UNL     1      13.700  -5.642   9.310  1.00  0.00    -0.237 OA
ATOM     66  O   UNL     1      15.788  -6.941   9.443  1.00  0.00    -0.237 OA
ATOM     67  O   UNL     1      15.621  -5.054   7.879  1.00  0.00    -0.744 OA
ENDBRANCH  61  64
ENDBRANCH  43  57
BRANCH  44  68
ATOM     68  C   UNL     1      13.769  -5.927  -4.614  1.00  0.00     0.023 A 
ATOM     69  C   UNL     1      14.260  -6.864  -5.543  1.00  0.00     0.012 A 
ATOM     70  C   UNL     1      13.275  -4.693  -5.079  1.00  0.00     0.148 A 
ATOM     71  C   UNL     1      14.291  -6.567  -6.906  1.00  0.00     0.002 A 
ATOM     72  C   UNL     1      13.257  -4.425  -6.443  1.00  0.00     0.091 A 
ATOM     73  F   UNL     1      12.822  -3.810  -4.178  1.00  0.00    -0.205 F 
ATOM     74  C   UNL     1      13.781  -5.353  -7.357  1.00  0.00     0.022 A 
BRANCH  72  75
ATOM     75  S   UNL     1      12.502  -2.946  -7.127  1.00  0.00     0.127 S 
ATOM     76  O   UNL     1      13.666  -2.221  -7.630  1.00  0.00    -0.237 OA
ATOM     77  O   UNL     1      11.629  -3.504  -8.160  1.00  0.00    -0.237 OA
ATOM     78  O   UNL     1      11.795  -2.316  -6.020  1.00  0.00    -0.744 OA
ENDBRANCH  72  75
ENDBRANCH  44  68
BRANCH  56  79
ATOM     79  C   UNL     1      18.830  -7.171   0.034  1.00  0.00     0.023 A 
ATOM     80  C   UNL     1      19.557  -5.975  -0.125  1.00  0.00     0.012 A 
ATOM     81  C   UNL     1      19.526  -8.389   0.167  1.00  0.00     0.148 A 
ATOM     82  C   UNL     1      20.950  -5.994  -0.185  1.00  0.00     0.002 A 
ATOM     83  C   UNL     1      20.916  -8.395   0.159  1.00  0.00     0.091 A 
ATOM     84  F   UNL     1      18.817  -9.520   0.300  1.00  0.00    -0.205 F 
ATOM     85  C   UNL     1      21.629  -7.201  -0.030  1.00  0.00     0.022 A 
BRANCH  83  86
ATOM     86  S   UNL     1      21.876  -9.886   0.449  1.00  0.00     0.127 S 
ATOM     87  O   UNL     1      22.431 -10.145  -0.878  1.00  0.00    -0.237 OA
ATOM     88  O   UNL     1      22.853  -9.436   1.442  1.00  0.00    -0.237 OA
ATOM     89  O   UNL     1      20.933 -10.883   0.938  1.00  0.00    -0.744 OA
ENDBRANCH  83  86
ENDBRANCH  56  79
ENDBRANCH  30  31
ENDBRANCH  22  25
ENDBRANCH  20  21
ENDBRANCH  19  20
ENDBRANCH   1  19
TORSDOF 17
