REMARK SMILES O=C(NCCCCNC(=O)c1ccnc(Oc2cccc(C(F)(F)F)c2)c1)c1ccc(-c2c3nc(c(-c4cccc(S(=O)(=O)[O-])c4F)c4ccc([nH]4)c(-c4cccc(S(=O)(=O)[O-])c4F)c4nc(c(-c5cccc(S(=O)(=O)[O-])c5F)c5ccc2[nH]5)C=C4)C=C3)cc1
REMARK SMILES IDX 5 1 4 2 3 3 1 4 2 5 28 7 29 8 90 9 30 10 89 11 31 12 32 13
REMARK SMILES IDX 33 14 83 15 34 16 88 17 82 18 84 19 35 20 87 21 81 22 80 23
REMARK SMILES IDX 36 25 68 26 48 27 67 28 49 29 52 30 66 31 85 32 50 33 51 34
REMARK SMILES IDX 65 36 86 37 53 38 37 39 38 40 46 41 39 42 41 43 47 44 40 45
REMARK SMILES IDX 42 46 43 47 44 48 45 49 69 50 70 51 78 52 71 53 73 54 79 55
REMARK SMILES IDX 72 56 74 57 75 58 76 59 77 60 54 61 55 62 63 63 56 64 58 65
REMARK SMILES IDX 64 66 57 67 59 68 60 69 61 70 62 71 6 72 7 73 8 74 9 75
REMARK SMILES IDX 10 77 11 78 12 79 27 80 13 81 15 82 14 83 16 84 17 85 18 86
REMARK SMILES IDX 26 87 19 88 21 89 20 90 22 91 23 92 24 93 25 94
REMARK H PARENT 3 6 84 24 52 35 8 76
REMARK Flexibility Score: inf
ROOT
ATOM      1  C   UNL     1       4.972  -2.742  -0.241  1.00  0.00     0.023 C 
ENDROOT
BRANCH   1   2
ATOM      2  C   UNL     1       4.659  -1.287  -0.569  1.00  0.00     0.116 C 
BRANCH   2   3
ATOM      3  N   UNL     1       3.235  -1.004  -0.663  1.00  0.00    -0.352 N 
ATOM      4  O   UNL     1       1.268  -0.026  -0.169  1.00  0.00    -0.269 OA
ATOM      5  C   UNL     1       2.489  -0.038  -0.026  1.00  0.00     0.251 C 
ATOM      6  H   UNL     1       2.731  -1.590  -1.273  1.00  0.00     0.163 HD
BRANCH   5   7
ATOM      7  C   UNL     1       3.148   0.947   0.862  1.00  0.00     0.039 A 
ATOM      8  C   UNL     1       4.331   1.581   0.479  1.00  0.00     0.014 A 
ATOM      9  C   UNL     1       2.587   1.217   2.114  1.00  0.00     0.014 A 
ATOM     10  C   UNL     1       5.048   2.325   1.411  1.00  0.00     0.010 A 
ATOM     11  C   UNL     1       3.265   2.042   3.018  1.00  0.00     0.010 A 
ATOM     12  C   UNL     1       4.531   2.556   2.697  1.00  0.00    -0.014 A 
BRANCH  12  13
ATOM     13  C   UNL     1       5.332   3.343   3.674  1.00  0.00     0.031 A 
ATOM     14  C   UNL     1       5.834   2.725   4.954  1.00  0.00     0.074 A 
ATOM     15  C   UNL     1       5.640   4.623   3.384  1.00  0.00     0.049 A 
ATOM     16  N   UNL     1       6.613   3.247   5.867  1.00  0.00    -0.248 NA
ATOM     17  C   UNL     1       5.401   1.351   5.258  1.00  0.00     0.031 C 
ATOM     18  C   UNL     1       5.174   5.353   2.203  1.00  0.00     0.029 A 
ATOM     19  N   UNL     1       6.425   5.532   4.048  1.00  0.00    -0.354 N 
ATOM     20  C   UNL     1       6.726   2.291   6.870  1.00  0.00     0.074 A 
ATOM     21  C   UNL     1       5.930   1.156   6.458  1.00  0.00     0.031 C 
ATOM     22  C   UNL     1       5.715   6.580   2.202  1.00  0.00     0.029 A 
ATOM     23  C   UNL     1       6.534   6.740   3.400  1.00  0.00     0.049 A 
ATOM     24  H   UNL     1       6.867   5.338   4.905  1.00  0.00     0.167 HD
ATOM     25  C   UNL     1       7.444   2.343   8.019  1.00  0.00     0.034 A 
ATOM     26  C   UNL     1       7.221   7.852   3.725  1.00  0.00     0.034 A 
ATOM     27  C   UNL     1       8.286   3.446   8.400  1.00  0.00     0.049 A 
ATOM     28  C   UNL     1       8.060   7.856   4.971  1.00  0.00     0.074 A 
ATOM     29  C   UNL     1       9.109   3.558   9.507  1.00  0.00     0.029 A 
ATOM     30  N   UNL     1       8.415   4.627   7.686  1.00  0.00    -0.354 N 
ATOM     31  N   UNL     1       8.263   6.887   5.830  1.00  0.00    -0.248 NA
ATOM     32  C   UNL     1       8.790   9.094   5.275  1.00  0.00     0.031 C 
ATOM     33  C   UNL     1       9.731   4.811   9.466  1.00  0.00     0.029 A 
ATOM     34  C   UNL     1       9.303   5.475   8.329  1.00  0.00     0.049 A 
ATOM     35  H   UNL     1       7.946   4.834   6.846  1.00  0.00     0.167 HD
ATOM     36  C   UNL     1       9.165   7.388   6.761  1.00  0.00     0.074 A 
ATOM     37  C   UNL     1       9.490   8.737   6.344  1.00  0.00     0.031 C 
ATOM     38  C   UNL     1       9.664   6.792   7.871  1.00  0.00     0.034 A 
BRANCH  25  39
ATOM     39  C   UNL     1       7.396   1.146   8.934  1.00  0.00     0.023 A 
ATOM     40  C   UNL     1       8.113  -0.018   8.591  1.00  0.00     0.012 A 
ATOM     41  C   UNL     1       6.709   1.198  10.163  1.00  0.00     0.148 A 
ATOM     42  C   UNL     1       8.126  -1.121   9.445  1.00  0.00     0.002 A 
ATOM     43  C   UNL     1       6.757   0.107  11.025  1.00  0.00     0.091 A 
ATOM     44  F   UNL     1       6.013   2.303  10.462  1.00  0.00    -0.205 F 
ATOM     45  C   UNL     1       7.458  -1.055  10.664  1.00  0.00     0.022 A 
BRANCH  43  46
ATOM     46  S   UNL     1       5.987   0.131  12.649  1.00  0.00     0.127 S 
ATOM     47  O   UNL     1       4.780  -0.660  12.416  1.00  0.00    -0.237 OA
ATOM     48  O   UNL     1       6.994  -0.526  13.483  1.00  0.00    -0.237 OA
ATOM     49  O   UNL     1       5.770   1.536  12.963  1.00  0.00    -0.744 OA
ENDBRANCH  43  46
ENDBRANCH  25  39
BRANCH  26  50
ATOM     50  C   UNL     1       7.204   9.023   2.804  1.00  0.00     0.023 A 
ATOM     51  C   UNL     1       8.366   9.346   2.078  1.00  0.00     0.012 A 
ATOM     52  C   UNL     1       6.034   9.780   2.601  1.00  0.00     0.148 A 
ATOM     53  C   UNL     1       8.370  10.415   1.182  1.00  0.00     0.002 A 
ATOM     54  C   UNL     1       6.029  10.807   1.664  1.00  0.00     0.091 A 
ATOM     55  F   UNL     1       4.943   9.472   3.316  1.00  0.00    -0.205 F 
ATOM     56  C   UNL     1       7.199  11.136   0.964  1.00  0.00     0.022 A 
BRANCH  54  57
ATOM     57  S   UNL     1       4.523  11.681   1.222  1.00  0.00     0.127 S 
ATOM     58  O   UNL     1       4.680  12.936   1.951  1.00  0.00    -0.237 OA
ATOM     59  O   UNL     1       4.646  11.793  -0.232  1.00  0.00    -0.237 OA
ATOM     60  O   UNL     1       3.435  10.817   1.661  1.00  0.00    -0.744 OA
ENDBRANCH  54  57
ENDBRANCH  26  50
BRANCH  38  61
ATOM     61  C   UNL     1      10.634   7.582   8.707  1.00  0.00     0.023 A 
ATOM     62  C   UNL     1      10.159   8.633   9.515  1.00  0.00     0.012 A 
ATOM     63  C   UNL     1      12.002   7.248   8.739  1.00  0.00     0.148 A 
ATOM     64  C   UNL     1      11.036   9.360  10.320  1.00  0.00     0.002 A 
ATOM     65  C   UNL     1      12.863   7.949   9.576  1.00  0.00     0.091 A 
ATOM     66  F   UNL     1      12.441   6.261   7.944  1.00  0.00    -0.205 F 
ATOM     67  C   UNL     1      12.384   9.011  10.359  1.00  0.00     0.022 A 
BRANCH  65  68
ATOM     68  S   UNL     1      14.594   7.500   9.744  1.00  0.00     0.127 S 
ATOM     69  O   UNL     1      15.241   8.454   8.846  1.00  0.00    -0.237 OA
ATOM     70  O   UNL     1      14.847   7.734  11.167  1.00  0.00    -0.237 OA
ATOM     71  O   UNL     1      14.674   6.100   9.346  1.00  0.00    -0.744 OA
ENDBRANCH  65  68
ENDBRANCH  38  61
ENDBRANCH  12  13
ENDBRANCH   5   7
ENDBRANCH   2   3
ENDBRANCH   1   2
BRANCH   1  72
ATOM     72  C   UNL     1       4.481  -3.775  -1.253  1.00  0.00     0.023 C 
BRANCH  72  73
ATOM     73  C   UNL     1       4.839  -3.500  -2.711  1.00  0.00     0.116 C 
BRANCH  73  74
ATOM     74  N   UNL     1       6.271  -3.382  -2.937  1.00  0.00    -0.352 N 
ATOM     75  C   UNL     1       7.101  -4.112  -3.747  1.00  0.00     0.251 C 
ATOM     76  H   UNL     1       6.713  -2.665  -2.427  1.00  0.00     0.163 HD
ATOM     77  O   UNL     1       8.315  -3.930  -3.721  1.00  0.00    -0.269 OA
BRANCH  75  78
ATOM     78  C   UNL     1       6.554  -5.154  -4.633  1.00  0.00     0.046 A 
ATOM     79  C   UNL     1       5.520  -4.884  -5.522  1.00  0.00     0.034 A 
ATOM     80  C   UNL     1       7.130  -6.423  -4.582  1.00  0.00     0.082 A 
ATOM     81  C   UNL     1       5.041  -5.938  -6.271  1.00  0.00     0.116 A 
ATOM     82  C   UNL     1       6.571  -7.426  -5.357  1.00  0.00     0.219 A 
ATOM     83  N   UNL     1       5.530  -7.194  -6.193  1.00  0.00    -0.222 NA
BRANCH  82  84
ATOM     84  O   UNL     1       6.997  -8.736  -5.384  1.00  0.00    -0.439 OA
BRANCH  84  85
ATOM     85  C   UNL     1       7.991  -9.141  -4.529  1.00  0.00     0.130 A 
ATOM     86  C   UNL     1       9.178  -9.601  -5.097  1.00  0.00     0.047 A 
ATOM     87  C   UNL     1       7.804  -9.182  -3.145  1.00  0.00     0.060 A 
ATOM     88  C   UNL     1      10.210 -10.052  -4.276  1.00  0.00     0.004 A 
ATOM     89  C   UNL     1       8.848  -9.606  -2.308  1.00  0.00     0.059 A 
ATOM     90  C   UNL     1      10.050 -10.045  -2.889  1.00  0.00     0.013 A 
BRANCH  89  91
ATOM     91  C   UNL     1       8.697  -9.598  -0.807  1.00  0.00     0.416 C 
ATOM     92  F   UNL     1       8.706 -10.853  -0.279  1.00  0.00    -0.166 F 
ATOM     93  F   UNL     1       9.702  -8.923  -0.186  1.00  0.00    -0.166 F 
ATOM     94  F   UNL     1       7.539  -9.021  -0.381  1.00  0.00    -0.166 F 
ENDBRANCH  89  91
ENDBRANCH  84  85
ENDBRANCH  82  84
ENDBRANCH  75  78
ENDBRANCH  73  74
ENDBRANCH  72  73
ENDBRANCH   1  72
TORSDOF 17
