REMARK SMILES COc1ccc(S(=O)(=O)N2CCC[C@H](C(=O)N3CCC[C@H](C(=O)NCCCCNC(=O)c4ccc(-c5c6nc(c(-c7cccc(S(=O)(=O)[O-])c7F)c7ccc([nH]7)c(-c7cccc(S(=O)(=O)[O-])c7F)c7nc(c(-c8cccc(S(=O)(=O)[O-])c8F)c8ccc5[nH]8)C=C7)C=C6)cc4)C3)C2)cc1
REMARK SMILES IDX 25 1 24 2 22 3 23 4 21 6 17 7 18 8 95 9 19 10 20 11 15 12
REMARK SMILES IDX 16 13 14 14 10 15 11 16 96 17 12 18 13 19 7 20 8 21 9 22
REMARK SMILES IDX 6 23 3 24 4 25 98 26 5 27 97 28 2 29 1 30 26 31 27 32 28 33
REMARK SMILES IDX 29 34 30 35 31 37 32 38 33 39 94 40 34 41 93 42 35 43 36 44
REMARK SMILES IDX 37 45 87 46 38 47 92 48 86 49 88 50 39 51 91 52 85 53 84 54
REMARK SMILES IDX 40 56 72 57 52 58 71 59 53 60 56 61 70 62 89 63 54 64 55 65
REMARK SMILES IDX 69 67 90 68 57 69 41 70 42 71 50 72 43 73 45 74 51 75 44 76
REMARK SMILES IDX 46 77 47 78 48 79 49 80 73 81 74 82 82 83 75 84 77 85 83 86
REMARK SMILES IDX 76 87 78 88 79 89 80 90 81 91 58 92 59 93 67 94 60 95 62 96
REMARK SMILES IDX 68 97 61 98 63 99 64 100 65 101 66 102
REMARK H PARENT 24 5 29 36 88 55 56 66
REMARK Flexibility Score: inf
ROOT
ATOM      1  C   UNL     1       8.006   2.200  10.483  1.00  0.00     0.116 C 
ENDROOT
BRANCH   1   2
ATOM      2  N   UNL     1       8.554   0.906  10.808  1.00  0.00    -0.356 N 
ATOM      3  C   UNL     1       7.989  -0.324  10.712  1.00  0.00     0.224 C 
ATOM      4  O   UNL     1       8.737  -1.298  10.851  1.00  0.00    -0.275 OA
ATOM      5  H   UNL     1       9.477   0.917  11.151  1.00  0.00     0.163 HD
BRANCH   3   6
ATOM      6  C   UNL     1       6.498  -0.564  10.440  1.00  0.00     0.098 C 
ATOM      7  N   UNL     1       5.364   0.998   8.827  1.00  0.00    -0.342 N 
ATOM      8  C   UNL     1       4.318   1.316   9.793  1.00  0.00     0.119 C 
ATOM      9  C   UNL     1       6.054  -0.270   9.005  1.00  0.00     0.133 C 
ATOM     10  C   UNL     1       4.781   1.206  11.240  1.00  0.00     0.022 C 
ATOM     11  C   UNL     1       5.538  -0.086  11.534  1.00  0.00     0.017 C 
BRANCH   7  12
ATOM     12  C   UNL     1       5.771   1.982   7.947  1.00  0.00     0.227 C 
ATOM     13  O   UNL     1       5.889   3.153   8.328  1.00  0.00    -0.275 OA
BRANCH  12  14
ATOM     14  C   UNL     1       5.829   1.703   6.444  1.00  0.00     0.094 C 
ATOM     15  N   UNL     1       3.445   1.117   6.213  1.00  0.00    -0.197 NA
ATOM     16  C   UNL     1       3.715  -0.321   6.043  1.00  0.00     0.102 C 
ATOM     17  C   UNL     1       4.479   2.108   5.864  1.00  0.00     0.116 C 
ATOM     18  C   UNL     1       5.175  -0.723   5.854  1.00  0.00     0.018 C 
ATOM     19  C   UNL     1       6.241   0.365   5.858  1.00  0.00     0.016 C 
BRANCH  15  20
ATOM     20  S   UNL     1       1.820   1.607   6.150  1.00  0.00     0.243 S 
ATOM     21  O   UNL     1       1.736   2.993   6.539  1.00  0.00    -0.207 OA
ATOM     22  O   UNL     1       1.041   0.583   6.825  1.00  0.00    -0.207 OA
BRANCH  20  23
ATOM     23  C   UNL     1       1.343   1.529   4.435  1.00  0.00     0.082 A 
ATOM     24  C   UNL     1       0.439   1.259   1.804  1.00  0.00     0.118 A 
ATOM     25  C   UNL     1      -0.447   1.639   2.815  1.00  0.00     0.048 A 
ATOM     26  C   UNL     1       1.787   1.071   2.102  1.00  0.00     0.048 A 
ATOM     27  C   UNL     1      -0.001   1.765   4.133  1.00  0.00     0.025 A 
ATOM     28  C   UNL     1       2.239   1.199   3.416  1.00  0.00     0.025 A 
BRANCH  24  29
ATOM     29  O   UNL     1      -0.105   1.116   0.557  1.00  0.00    -0.497 OA
ATOM     30  C   UNL     1       0.546   0.152  -0.267  1.00  0.00     0.278 C 
ENDBRANCH  24  29
ENDBRANCH  20  23
ENDBRANCH  15  20
ENDBRANCH  12  14
ENDBRANCH   7  12
ENDBRANCH   3   6
ENDBRANCH   1   2
BRANCH   1  31
ATOM     31  C   UNL     1       8.002   3.185  11.644  1.00  0.00     0.023 C 
BRANCH  31  32
ATOM     32  C   UNL     1       9.142   4.195  11.614  1.00  0.00     0.023 C 
BRANCH  32  33
ATOM     33  C   UNL     1       9.234   5.046  10.349  1.00  0.00     0.116 C 
BRANCH  33  34
ATOM     34  N   UNL     1       8.037   5.821  10.044  1.00  0.00    -0.352 N 
ATOM     35  C   UNL     1       7.976   7.122   9.588  1.00  0.00     0.251 C 
ATOM     36  H   UNL     1       7.175   5.365  10.180  1.00  0.00     0.163 HD
ATOM     37  O   UNL     1       6.907   7.704   9.438  1.00  0.00    -0.269 OA
BRANCH  35  38
ATOM     38  C   UNL     1       9.249   7.821   9.313  1.00  0.00     0.039 A 
ATOM     39  C   UNL     1       9.544   8.999  10.001  1.00  0.00     0.014 A 
ATOM     40  C   UNL     1      10.195   7.224   8.477  1.00  0.00     0.014 A 
ATOM     41  C   UNL     1      10.835   9.527   9.927  1.00  0.00     0.010 A 
ATOM     42  C   UNL     1      11.499   7.705   8.473  1.00  0.00     0.010 A 
ATOM     43  C   UNL     1      11.837   8.853   9.207  1.00  0.00    -0.014 A 
BRANCH  43  44
ATOM     44  C   UNL     1      13.253   9.303   9.235  1.00  0.00     0.031 A 
ATOM     45  C   UNL     1      13.941   9.704   7.959  1.00  0.00     0.074 A 
ATOM     46  C   UNL     1      13.952   9.239  10.386  1.00  0.00     0.049 A 
ATOM     47  N   UNL     1      15.190  10.038   7.766  1.00  0.00    -0.248 NA
ATOM     48  C   UNL     1      13.128   9.692   6.730  1.00  0.00     0.031 C 
ATOM     49  C   UNL     1      13.431   8.768  11.672  1.00  0.00     0.029 A 
ATOM     50  N   UNL     1      15.264   9.542  10.656  1.00  0.00    -0.354 N 
ATOM     51  C   UNL     1      15.323  10.233   6.397  1.00  0.00     0.074 A 
ATOM     52  C   UNL     1      14.038   9.944   5.801  1.00  0.00     0.031 C 
ATOM     53  C   UNL     1      14.409   8.820  12.592  1.00  0.00     0.029 A 
ATOM     54  C   UNL     1      15.632   9.305  11.961  1.00  0.00     0.049 A 
ATOM     55  H   UNL     1      15.885   9.896   9.978  1.00  0.00     0.167 HD
ATOM     56  C   UNL     1      16.405  10.654   5.701  1.00  0.00     0.034 A 
ATOM     57  C   UNL     1      16.819   9.463  12.580  1.00  0.00     0.034 A 
ATOM     58  C   UNL     1      17.661  11.010   6.303  1.00  0.00     0.049 A 
ATOM     59  C   UNL     1      17.982  10.013  11.798  1.00  0.00     0.074 A 
ATOM     60  C   UNL     1      18.785  11.542   5.697  1.00  0.00     0.029 A 
ATOM     61  N   UNL     1      17.956  10.878   7.650  1.00  0.00    -0.354 N 
ATOM     62  N   UNL     1      18.038  10.356  10.534  1.00  0.00    -0.248 NA
ATOM     63  C   UNL     1      19.235  10.237  12.535  1.00  0.00     0.031 C 
ATOM     64  C   UNL     1      19.762  11.730   6.680  1.00  0.00     0.029 A 
ATOM     65  C   UNL     1      19.243  11.322   7.898  1.00  0.00     0.049 A 
ATOM     66  H   UNL     1      17.341  10.521   8.331  1.00  0.00     0.167 HD
ATOM     67  C   UNL     1      19.315  10.867  10.332  1.00  0.00     0.074 A 
ATOM     68  C   UNL     1      19.994  10.810  11.611  1.00  0.00     0.031 C 
ATOM     69  C   UNL     1      19.881  11.322   9.188  1.00  0.00     0.034 A 
BRANCH  56  70
ATOM     70  C   UNL     1      16.250  10.834   4.215  1.00  0.00     0.023 A 
ATOM     71  C   UNL     1      15.493  11.920   3.729  1.00  0.00     0.012 A 
ATOM     72  C   UNL     1      16.888   9.972   3.302  1.00  0.00     0.148 A 
ATOM     73  C   UNL     1      15.344  12.127   2.359  1.00  0.00     0.002 A 
ATOM     74  C   UNL     1      16.769  10.209   1.937  1.00  0.00     0.091 A 
ATOM     75  F   UNL     1      17.584   8.932   3.782  1.00  0.00    -0.205 F 
ATOM     76  C   UNL     1      15.990  11.279   1.464  1.00  0.00     0.022 A 
BRANCH  74  77
ATOM     77  S   UNL     1      17.619   9.218   0.704  1.00  0.00     0.127 S 
ATOM     78  O   UNL     1      16.515   8.452   0.127  1.00  0.00    -0.237 OA
ATOM     79  O   UNL     1      18.180  10.239  -0.182  1.00  0.00    -0.237 OA
ATOM     80  O   UNL     1      18.610   8.437   1.432  1.00  0.00    -0.744 OA
ENDBRANCH  74  77
ENDBRANCH  56  70
BRANCH  57  81
ATOM     81  C   UNL     1      16.944   9.183  14.039  1.00  0.00     0.023 A 
ATOM     82  C   UNL     1      17.091  10.261  14.934  1.00  0.00     0.012 A 
ATOM     83  C   UNL     1      16.896   7.871  14.547  1.00  0.00     0.148 A 
ATOM     84  C   UNL     1      17.221  10.036  16.305  1.00  0.00     0.002 A 
ATOM     85  C   UNL     1      16.975   7.658  15.920  1.00  0.00     0.091 A 
ATOM     86  F   UNL     1      16.772   6.856  13.681  1.00  0.00    -0.205 F 
ATOM     87  C   UNL     1      17.153   8.737  16.799  1.00  0.00     0.022 A 
BRANCH  85  88
ATOM     88  S   UNL     1      16.766   6.027  16.645  1.00  0.00     0.127 S 
ATOM     89  O   UNL     1      18.144   5.658  16.956  1.00  0.00    -0.237 OA
ATOM     90  O   UNL     1      15.926   6.313  17.810  1.00  0.00    -0.237 OA
ATOM     91  O   UNL     1      16.106   5.231  15.618  1.00  0.00    -0.744 OA
ENDBRANCH  85  88
ENDBRANCH  57  81
BRANCH  69  92
ATOM     92  C   UNL     1      21.297  11.827   9.261  1.00  0.00     0.023 A 
ATOM     93  C   UNL     1      22.358  10.907   9.376  1.00  0.00     0.012 A 
ATOM     94  C   UNL     1      21.582  13.200   9.127  1.00  0.00     0.148 A 
ATOM     95  C   UNL     1      23.680  11.348   9.381  1.00  0.00     0.002 A 
ATOM     96  C   UNL     1      22.904  13.628   9.089  1.00  0.00     0.091 A 
ATOM     97  F   UNL     1      20.557  14.061   9.040  1.00  0.00    -0.205 F 
ATOM     98  C   UNL     1      23.953  12.705   9.225  1.00  0.00     0.022 A 
BRANCH  96  99
ATOM     99  S   UNL     1      23.345  15.345   8.799  1.00  0.00     0.127 S 
ATOM    100  O   UNL     1      23.719  15.788  10.140  1.00  0.00    -0.237 OA
ATOM    101  O   UNL     1      24.463  15.227   7.862  1.00  0.00    -0.237 OA
ATOM    102  O   UNL     1      22.156  15.972   8.238  1.00  0.00    -0.744 OA
ENDBRANCH  96  99
ENDBRANCH  69  92
ENDBRANCH  43  44
ENDBRANCH  35  38
ENDBRANCH  33  34
ENDBRANCH  32  33
ENDBRANCH  31  32
ENDBRANCH   1  31
TORSDOF 19
