REMARK SMILES Cc1ccc(C(=O)NCCCCNC(=O)c2ccc(-c3c4nc(c(-c5cccc(S(=O)(=O)[O-])c5F)c5ccc([nH]5)c(-c5cccc(S(=O)(=O)[O-])c5F)c5nc(c(-c6cccc(S(=O)(=O)[O-])c6F)c6ccc3[nH]6)C=C5)C=C4)cc2)cc1S(=O)(=O)N(C)[C@H]1CCSC1
REMARK SMILES IDX 10 1 9 2 8 3 6 4 7 5 5 7 1 8 2 9 3 10 80 11 4 12 79 13 81 14
REMARK SMILES IDX 82 15 83 16 84 17 85 18 86 19 87 20 90 21 88 22 89 23 11 24
REMARK SMILES IDX 12 25 13 26 14 27 15 29 16 30 17 31 78 32 18 33 77 34 19 35
REMARK SMILES IDX 20 36 21 37 71 38 22 39 76 40 70 41 72 42 23 43 75 44 69 45
REMARK SMILES IDX 68 46 24 48 56 49 36 50 55 51 37 52 40 53 54 54 73 55 38 56
REMARK SMILES IDX 39 57 53 59 74 60 41 61 25 62 26 63 34 64 27 65 29 66 35 67
REMARK SMILES IDX 28 68 30 69 31 70 32 71 33 72 57 73 58 74 66 75 59 76 61 77
REMARK SMILES IDX 67 78 60 79 62 80 63 81 64 82 65 83 42 84 43 85 51 86 44 87
REMARK SMILES IDX 46 88 52 89 45 90 47 91 48 92 49 93 50 94
REMARK H PARENT 8 6 13 28 72 47 40 58
REMARK Flexibility Score: inf
ROOT
ATOM      1  C   UNL     1      -2.537   5.557  -3.615  1.00  0.00     0.023 C 
ENDROOT
BRANCH   1   2
ATOM      2  C   UNL     1      -2.890   5.332  -2.132  1.00  0.00     0.116 C 
BRANCH   2   3
ATOM      3  N   UNL     1      -3.514   4.038  -1.920  1.00  0.00    -0.352 N 
ATOM      4  C   UNL     1      -3.027   2.781  -1.673  1.00  0.00     0.251 C 
ATOM      5  O   UNL     1      -3.854   1.874  -1.557  1.00  0.00    -0.269 OA
ATOM      6  H   UNL     1      -4.497   4.071  -1.962  1.00  0.00     0.163 HD
BRANCH   4   7
ATOM      7  C   UNL     1      -1.581   2.439  -1.520  1.00  0.00     0.041 A 
ATOM      8  C   UNL     1       2.481   0.977  -1.006  1.00  0.00     0.046 C 
ATOM      9  C   UNL     1       1.138   1.615  -1.161  1.00  0.00    -0.031 A 
ATOM     10  C   UNL     1       0.055   0.752  -0.897  1.00  0.00     0.005 A 
ATOM     11  C   UNL     1       0.836   2.909  -1.606  1.00  0.00     0.086 A 
ATOM     12  C   UNL     1      -1.272   1.157  -1.059  1.00  0.00     0.014 A 
ATOM     13  C   UNL     1      -0.512   3.280  -1.813  1.00  0.00     0.035 A 
BRANCH  11  14
ATOM     14  S   UNL     1       1.960   4.259  -1.970  1.00  0.00     0.243 S 
ATOM     15  O   UNL     1       2.152   4.246  -3.396  1.00  0.00    -0.207 OA
ATOM     16  O   UNL     1       1.408   5.427  -1.296  1.00  0.00    -0.207 OA
BRANCH  14  17
ATOM     17  N   UNL     1       3.426   3.935  -1.215  1.00  0.00    -0.197 NA
ATOM     18  C   UNL     1       4.557   3.597  -2.082  1.00  0.00     0.125 C 
BRANCH  17  19
ATOM     19  C   UNL     1       3.568   4.218   0.229  1.00  0.00     0.083 C 
ATOM     20  C   UNL     1       4.489   3.254   0.974  1.00  0.00     0.032 C 
ATOM     21  C   UNL     1       4.106   5.615   0.535  1.00  0.00     0.089 C 
ATOM     22  C   UNL     1       4.458   3.723   2.418  1.00  0.00     0.071 C 
ATOM     23  S   UNL     1       4.624   5.525   2.288  1.00  0.00    -0.160 SA
ENDBRANCH  17  19
ENDBRANCH  14  17
ENDBRANCH  11  14
ENDBRANCH   4   7
ENDBRANCH   2   3
ENDBRANCH   1   2
BRANCH   1  24
ATOM     24  C   UNL     1      -3.731   5.763  -4.564  1.00  0.00     0.023 C 
BRANCH  24  25
ATOM     25  C   UNL     1      -4.633   6.905  -4.144  1.00  0.00     0.116 C 
BRANCH  25  26
ATOM     26  N   UNL     1      -3.968   8.191  -4.178  1.00  0.00    -0.352 N 
ATOM     27  C   UNL     1      -4.422   9.445  -3.837  1.00  0.00     0.251 C 
ATOM     28  H   UNL     1      -3.037   8.163  -4.498  1.00  0.00     0.163 HD
ATOM     29  O   UNL     1      -3.895  10.394  -4.418  1.00  0.00    -0.269 OA
BRANCH  27  30
ATOM     30  C   UNL     1      -5.343   9.682  -2.694  1.00  0.00     0.039 A 
ATOM     31  C   UNL     1      -5.485  11.002  -2.233  1.00  0.00     0.014 A 
ATOM     32  C   UNL     1      -5.795   8.644  -1.894  1.00  0.00     0.014 A 
ATOM     33  C   UNL     1      -5.797  11.243  -0.900  1.00  0.00     0.010 A 
ATOM     34  C   UNL     1      -5.999   8.861  -0.565  1.00  0.00     0.010 A 
ATOM     35  C   UNL     1      -5.897  10.153  -0.060  1.00  0.00    -0.014 A 
BRANCH  35  36
ATOM     36  C   UNL     1      -5.983  10.171   1.379  1.00  0.00     0.031 A 
ATOM     37  C   UNL     1      -7.327  10.177   1.960  1.00  0.00     0.074 A 
ATOM     38  C   UNL     1      -4.892   9.644   1.979  1.00  0.00     0.049 A 
ATOM     39  N   UNL     1      -7.561  10.072   3.215  1.00  0.00    -0.248 NA
ATOM     40  C   UNL     1      -8.541  10.283   1.147  1.00  0.00     0.031 C 
ATOM     41  C   UNL     1      -4.790   8.819   3.174  1.00  0.00     0.029 A 
ATOM     42  N   UNL     1      -3.565   9.842   1.605  1.00  0.00    -0.354 N 
ATOM     43  C   UNL     1      -8.888   9.728   3.332  1.00  0.00     0.074 A 
ATOM     44  C   UNL     1      -9.484  10.046   2.063  1.00  0.00     0.031 C 
ATOM     45  C   UNL     1      -3.507   8.808   3.588  1.00  0.00     0.029 A 
ATOM     46  C   UNL     1      -2.796   9.786   2.778  1.00  0.00     0.049 A 
ATOM     47  H   UNL     1      -3.230   9.993   0.692  1.00  0.00     0.167 HD
ATOM     48  C   UNL     1      -9.262   9.033   4.438  1.00  0.00     0.034 A 
ATOM     49  C   UNL     1      -2.280  10.966   3.256  1.00  0.00     0.034 A 
ATOM     50  C   UNL     1      -8.159   9.015   5.413  1.00  0.00     0.049 A 
ATOM     51  C   UNL     1      -2.945  11.399   4.553  1.00  0.00     0.074 A 
ATOM     52  C   UNL     1      -7.241   8.048   5.783  1.00  0.00     0.029 A 
ATOM     53  N   UNL     1      -7.659  10.230   5.886  1.00  0.00    -0.354 N 
ATOM     54  N   UNL     1      -4.078  10.920   4.993  1.00  0.00    -0.248 NA
ATOM     55  C   UNL     1      -2.356  12.352   5.488  1.00  0.00     0.031 C 
ATOM     56  C   UNL     1      -6.110   8.720   6.339  1.00  0.00     0.029 A 
ATOM     57  C   UNL     1      -6.363  10.083   6.356  1.00  0.00     0.049 A 
ATOM     58  H   UNL     1      -8.161  11.077   5.885  1.00  0.00     0.167 HD
ATOM     59  C   UNL     1      -4.414  11.500   6.181  1.00  0.00     0.074 A 
ATOM     60  C   UNL     1      -3.274  12.358   6.472  1.00  0.00     0.031 C 
ATOM     61  C   UNL     1      -5.605  11.250   6.813  1.00  0.00     0.034 A 
BRANCH  48  62
ATOM     62  C   UNL     1     -10.522   8.201   4.588  1.00  0.00     0.023 A 
ATOM     63  C   UNL     1     -10.750   7.631   5.859  1.00  0.00     0.012 A 
ATOM     64  C   UNL     1     -11.452   7.850   3.573  1.00  0.00     0.148 A 
ATOM     65  C   UNL     1     -11.825   6.772   6.116  1.00  0.00     0.002 A 
ATOM     66  C   UNL     1     -12.566   7.049   3.848  1.00  0.00     0.091 A 
ATOM     67  F   UNL     1     -11.232   8.201   2.304  1.00  0.00    -0.205 F 
ATOM     68  C   UNL     1     -12.746   6.495   5.116  1.00  0.00     0.022 A 
BRANCH  66  69
ATOM     69  S   UNL     1     -13.839   6.692   2.618  1.00  0.00     0.127 S 
ATOM     70  O   UNL     1     -13.643   5.263   2.376  1.00  0.00    -0.237 OA
ATOM     71  O   UNL     1     -15.070   7.022   3.338  1.00  0.00    -0.237 OA
ATOM     72  O   UNL     1     -13.561   7.558   1.479  1.00  0.00    -0.744 OA
ENDBRANCH  66  69
ENDBRANCH  48  62
BRANCH  49  73
ATOM     73  C   UNL     1      -1.856  11.862   2.117  1.00  0.00     0.023 A 
ATOM     74  C   UNL     1      -0.893  11.308   1.230  1.00  0.00     0.012 A 
ATOM     75  C   UNL     1      -2.697  12.884   1.636  1.00  0.00     0.148 A 
ATOM     76  C   UNL     1      -0.948  11.573  -0.140  1.00  0.00     0.002 A 
ATOM     77  C   UNL     1      -2.708  13.181   0.269  1.00  0.00     0.091 A 
ATOM     78  F   UNL     1      -3.517  13.501   2.496  1.00  0.00    -0.205 F 
ATOM     79  C   UNL     1      -1.892  12.471  -0.627  1.00  0.00     0.022 A 
BRANCH  77  80
ATOM     80  S   UNL     1      -3.821  14.423  -0.408  1.00  0.00     0.127 S 
ATOM     81  O   UNL     1      -3.019  15.637  -0.283  1.00  0.00    -0.237 OA
ATOM     82  O   UNL     1      -4.029  13.975  -1.786  1.00  0.00    -0.237 OA
ATOM     83  O   UNL     1      -5.015  14.354   0.424  1.00  0.00    -0.744 OA
ENDBRANCH  77  80
ENDBRANCH  49  73
BRANCH  61  84
ATOM     84  C   UNL     1      -6.161  12.091   7.948  1.00  0.00     0.023 A 
ATOM     85  C   UNL     1      -5.722  13.409   8.184  1.00  0.00     0.012 A 
ATOM     86  C   UNL     1      -7.259  11.640   8.726  1.00  0.00     0.148 A 
ATOM     87  C   UNL     1      -6.265  14.203   9.198  1.00  0.00     0.002 A 
ATOM     88  C   UNL     1      -7.882  12.481   9.644  1.00  0.00     0.091 A 
ATOM     89  F   UNL     1      -7.702  10.382   8.598  1.00  0.00    -0.205 F 
ATOM     90  C   UNL     1      -7.360  13.746   9.915  1.00  0.00     0.022 A 
BRANCH  88  91
ATOM     91  S   UNL     1      -9.455  12.046  10.398  1.00  0.00     0.127 S 
ATOM     92  O   UNL     1      -9.038  11.586  11.720  1.00  0.00    -0.237 OA
ATOM     93  O   UNL     1     -10.164  13.328  10.395  1.00  0.00    -0.237 OA
ATOM     94  O   UNL     1     -10.043  11.038   9.526  1.00  0.00    -0.744 OA
ENDBRANCH  88  91
ENDBRANCH  61  84
ENDBRANCH  35  36
ENDBRANCH  27  30
ENDBRANCH  25  26
ENDBRANCH  24  25
ENDBRANCH   1  24
TORSDOF 17
