REMARK SMILES Cc1ccc(NC(=O)C[C@H]([NH2+]Cc2cccnc2)C(=O)NCCCCNC(=O)c2ccc(-c3c4nc(c(-c5cccc(S(=O)(=O)[O-])c5F)c5ccc([nH]5)c(-c5cccc(S(=O)(=O)[O-])c5F)c5nc(c(-c6cccc(S(=O)(=O)[O-])c6F)c6ccc3[nH]6)C=C5)C=C4)cc2)cc1Cl
REMARK SMILES IDX 23 1 22 2 21 3 19 4 20 5 10 7 9 8 7 9 6 10 8 12 5 13 1 14
REMARK SMILES IDX 2 15 3 16 93 17 4 18 92 19 94 20 11 21 12 24 13 25 14 26
REMARK SMILES IDX 18 27 15 28 17 29 16 30 24 31 25 32 26 33 27 34 28 36 29 37
REMARK SMILES IDX 30 38 91 39 31 40 90 41 32 42 33 43 34 44 84 45 35 46 89 47
REMARK SMILES IDX 83 48 85 49 36 50 88 51 82 52 81 53 37 55 69 56 49 57 68 58
REMARK SMILES IDX 50 59 53 60 67 61 86 62 51 63 52 64 66 66 87 67 54 68 38 69
REMARK SMILES IDX 39 70 47 71 40 72 42 73 48 74 41 75 43 76 44 77 45 78 46 79
REMARK SMILES IDX 70 80 71 81 79 82 72 83 74 84 80 85 73 86 75 87 76 88 77 89
REMARK SMILES IDX 78 90 55 91 56 92 64 93 57 94 59 95 65 96 58 97 60 98 61 99
REMARK SMILES IDX 62 100 63 101
REMARK H PARENT 21 6 6 11 11 22 11 23 26 35 85 54 53 65
REMARK Flexibility Score: inf
ROOT
ATOM      1  C   UNL     1       2.815  -3.005   1.404  1.00  0.00     0.023 C 
ENDROOT
BRANCH   1   2
ATOM      2  C   UNL     1       2.590  -2.254   0.089  1.00  0.00     0.116 C 
BRANCH   2   3
ATOM      3  N   UNL     1       2.123  -3.145  -0.976  1.00  0.00    -0.351 N 
ATOM      4  C   UNL     1       0.953  -3.426  -1.603  1.00  0.00     0.278 C 
ATOM      5  O   UNL     1       1.018  -4.325  -2.458  1.00  0.00    -0.268 OA
ATOM      6  H   UNL     1       2.860  -3.690  -1.334  1.00  0.00     0.163 HD
BRANCH   4   7
ATOM      7  C   UNL     1      -0.453  -2.800  -1.325  1.00  0.00     0.282 C 
BRANCH   7   8
ATOM      8  C   UNL     1      -0.476  -1.415  -0.716  1.00  0.00     0.175 C 
BRANCH   8   9
ATOM      9  C   UNL     1      -0.749  -0.971   0.712  1.00  0.00     0.230 C 
ATOM     10  N   UNL     1      -0.694  -1.587   1.905  1.00  0.00    -0.326 N 
ATOM     11  H   UNL     1      -0.892  -0.937   2.618  1.00  0.00     0.169 HD
ATOM     12  O   UNL     1      -1.057   0.236   0.822  1.00  0.00    -0.274 OA
BRANCH  10  13
ATOM     13  C   UNL     1      -0.451  -2.846   2.477  1.00  0.00     0.042 A 
ATOM     14  C   UNL     1       0.211  -6.605   4.558  1.00  0.00     0.046 C 
ATOM     15  C   UNL     1      -0.009  -5.309   3.838  1.00  0.00    -0.032 A 
ATOM     16  C   UNL     1      -0.380  -4.157   4.539  1.00  0.00     0.007 A 
ATOM     17  C   UNL     1       0.144  -5.209   2.458  1.00  0.00     0.046 A 
ATOM     18  C   UNL     1      -0.603  -2.946   3.865  1.00  0.00     0.026 A 
ATOM     19  C   UNL     1      -0.049  -3.986   1.809  1.00  0.00     0.047 A 
ATOM     20  Cl  UNL     1       0.596  -6.568   1.487  1.00  0.00    -0.084 Cl
ENDBRANCH  10  13
ENDBRANCH   8   9
ENDBRANCH   7   8
BRANCH   7  21
ATOM     21  N   UNL     1      -1.350  -3.847  -0.812  1.00  0.00    -0.332 N 
ATOM     22  H   UNL     1      -0.976  -4.146   0.088  1.00  0.00     0.347 HD
ATOM     23  H   UNL     1      -1.360  -4.544  -1.557  1.00  0.00     0.347 HD
BRANCH  21  24
ATOM     24  C   UNL     1      -2.755  -3.538  -0.608  1.00  0.00     0.299 C 
BRANCH  24  25
ATOM     25  C   UNL     1      -3.248  -4.193   0.662  1.00  0.00     0.024 A 
ATOM     26  C   UNL     1      -3.169  -5.576   0.867  1.00  0.00     0.013 A 
ATOM     27  C   UNL     1      -3.731  -3.430   1.724  1.00  0.00     0.120 A 
ATOM     28  C   UNL     1      -3.519  -6.119   2.101  1.00  0.00     0.021 A 
ATOM     29  N   UNL     1      -4.102  -3.930   2.927  1.00  0.00    -0.264 NA
ATOM     30  C   UNL     1      -3.965  -5.262   3.093  1.00  0.00     0.111 A 
ENDBRANCH  24  25
ENDBRANCH  21  24
ENDBRANCH   7  21
ENDBRANCH   4   7
ENDBRANCH   2   3
ENDBRANCH   1   2
BRANCH   1  31
ATOM     31  C   UNL     1       4.186  -2.887   2.046  1.00  0.00     0.023 C 
BRANCH  31  32
ATOM     32  C   UNL     1       4.580  -1.485   2.477  1.00  0.00     0.116 C 
BRANCH  32  33
ATOM     33  N   UNL     1       3.740  -0.895   3.517  1.00  0.00    -0.352 N 
ATOM     34  C   UNL     1       4.128  -0.138   4.606  1.00  0.00     0.251 C 
ATOM     35  H   UNL     1       2.772  -1.058   3.430  1.00  0.00     0.163 HD
ATOM     36  O   UNL     1       3.297   0.266   5.414  1.00  0.00    -0.269 OA
BRANCH  34  37
ATOM     37  C   UNL     1       5.571   0.124   4.820  1.00  0.00     0.039 A 
ATOM     38  C   UNL     1       6.140  -0.161   6.064  1.00  0.00     0.014 A 
ATOM     39  C   UNL     1       6.378   0.516   3.753  1.00  0.00     0.014 A 
ATOM     40  C   UNL     1       7.533  -0.180   6.196  1.00  0.00     0.010 A 
ATOM     41  C   UNL     1       7.756   0.378   3.855  1.00  0.00     0.010 A 
ATOM     42  C   UNL     1       8.353   0.018   5.073  1.00  0.00    -0.014 A 
BRANCH  42  43
ATOM     43  C   UNL     1       9.829  -0.173   5.123  1.00  0.00     0.031 A 
ATOM     44  C   UNL     1      10.746   0.947   4.702  1.00  0.00     0.074 A 
ATOM     45  C   UNL     1      10.343  -1.388   5.408  1.00  0.00     0.049 A 
ATOM     46  N   UNL     1      12.044   0.937   4.548  1.00  0.00    -0.248 NA
ATOM     47  C   UNL     1      10.116   2.234   4.359  1.00  0.00     0.031 C 
ATOM     48  C   UNL     1       9.566  -2.590   5.726  1.00  0.00     0.029 A 
ATOM     49  N   UNL     1      11.646  -1.824   5.445  1.00  0.00    -0.354 N 
ATOM     50  C   UNL     1      12.374   2.183   4.029  1.00  0.00     0.074 A 
ATOM     51  C   UNL     1      11.138   2.913   3.861  1.00  0.00     0.031 C 
ATOM     52  C   UNL     1      10.405  -3.617   5.942  1.00  0.00     0.029 A 
ATOM     53  C   UNL     1      11.777  -3.161   5.750  1.00  0.00     0.049 A 
ATOM     54  H   UNL     1      12.415  -1.235   5.271  1.00  0.00     0.167 HD
ATOM     55  C   UNL     1      13.598   2.692   3.752  1.00  0.00     0.034 A 
ATOM     56  C   UNL     1      12.878  -3.931   5.863  1.00  0.00     0.034 A 
ATOM     57  C   UNL     1      14.831   2.006   4.020  1.00  0.00     0.049 A 
ATOM     58  C   UNL     1      14.232  -3.306   5.654  1.00  0.00     0.074 A 
ATOM     59  C   UNL     1      16.123   2.488   3.913  1.00  0.00     0.029 A 
ATOM     60  N   UNL     1      14.925   0.695   4.458  1.00  0.00    -0.354 N 
ATOM     61  N   UNL     1      14.529  -2.067   5.345  1.00  0.00    -0.248 NA
ATOM     62  C   UNL     1      15.404  -4.174   5.844  1.00  0.00     0.031 C 
ATOM     63  C   UNL     1      17.001   1.464   4.282  1.00  0.00     0.029 A 
ATOM     64  C   UNL     1      16.253   0.349   4.626  1.00  0.00     0.049 A 
ATOM     65  H   UNL     1      14.160   0.099   4.625  1.00  0.00     0.167 HD
ATOM     66  C   UNL     1      15.918  -1.998   5.344  1.00  0.00     0.074 A 
ATOM     67  C   UNL     1      16.403  -3.314   5.702  1.00  0.00     0.031 C 
ATOM     68  C   UNL     1      16.719  -0.944   5.055  1.00  0.00     0.034 A 
BRANCH  55  69
ATOM     69  C   UNL     1      13.667   4.093   3.204  1.00  0.00     0.023 A 
ATOM     70  C   UNL     1      13.384   5.184   4.050  1.00  0.00     0.012 A 
ATOM     71  C   UNL     1      14.067   4.333   1.875  1.00  0.00     0.148 A 
ATOM     72  C   UNL     1      13.461   6.491   3.574  1.00  0.00     0.002 A 
ATOM     73  C   UNL     1      14.185   5.641   1.419  1.00  0.00     0.091 A 
ATOM     74  F   UNL     1      14.310   3.282   1.079  1.00  0.00    -0.205 F 
ATOM     75  C   UNL     1      13.871   6.720   2.263  1.00  0.00     0.022 A 
BRANCH  73  76
ATOM     76  S   UNL     1      14.780   6.043  -0.227  1.00  0.00     0.127 S 
ATOM     77  O   UNL     1      13.552   6.487  -0.884  1.00  0.00    -0.237 OA
ATOM     78  O   UNL     1      15.746   7.109   0.045  1.00  0.00    -0.237 OA
ATOM     79  O   UNL     1      15.364   4.816  -0.751  1.00  0.00    -0.744 OA
ENDBRANCH  73  76
ENDBRANCH  55  69
BRANCH  56  80
ATOM     80  C   UNL     1      12.759  -5.356   6.289  1.00  0.00     0.023 A 
ATOM     81  C   UNL     1      13.197  -5.720   7.579  1.00  0.00     0.012 A 
ATOM     82  C   UNL     1      12.214  -6.344   5.449  1.00  0.00     0.148 A 
ATOM     83  C   UNL     1      13.128  -7.045   8.009  1.00  0.00     0.002 A 
ATOM     84  C   UNL     1      12.100  -7.655   5.903  1.00  0.00     0.091 A 
ATOM     85  F   UNL     1      11.816  -5.986   4.219  1.00  0.00    -0.205 F 
ATOM     86  C   UNL     1      12.572  -8.011   7.176  1.00  0.00     0.022 A 
BRANCH  84  87
ATOM     87  S   UNL     1      11.280  -8.932   4.941  1.00  0.00     0.127 S 
ATOM     88  O   UNL     1      12.414  -9.682   4.409  1.00  0.00    -0.237 OA
ATOM     89  O   UNL     1      10.501  -9.634   5.962  1.00  0.00    -0.237 OA
ATOM     90  O   UNL     1      10.471  -8.216   3.963  1.00  0.00    -0.744 OA
ENDBRANCH  84  87
ENDBRANCH  56  80
BRANCH  68  91
ATOM     91  C   UNL     1      18.207  -1.146   5.150  1.00  0.00     0.023 A 
ATOM     92  C   UNL     1      18.876  -1.877   4.150  1.00  0.00     0.012 A 
ATOM     93  C   UNL     1      18.952  -0.533   6.177  1.00  0.00     0.148 A 
ATOM     94  C   UNL     1      20.262  -2.018   4.184  1.00  0.00     0.002 A 
ATOM     95  C   UNL     1      20.337  -0.639   6.179  1.00  0.00     0.091 A 
ATOM     96  F   UNL     1      18.294   0.142   7.131  1.00  0.00    -0.205 F 
ATOM     97  C   UNL     1      20.994  -1.388   5.189  1.00  0.00     0.022 A 
BRANCH  95  98
ATOM     98  S   UNL     1      21.360   0.222   7.380  1.00  0.00     0.127 S 
ATOM     99  O   UNL     1      21.732  -0.862   8.287  1.00  0.00    -0.237 OA
ATOM    100  O   UNL     1      22.456   0.728   6.553  1.00  0.00    -0.237 OA
ATOM    101  O   UNL     1      20.512   1.259   7.952  1.00  0.00    -0.744 OA
ENDBRANCH  95  98
ENDBRANCH  68  91
ENDBRANCH  42  43
ENDBRANCH  34  37
ENDBRANCH  32  33
ENDBRANCH  31  32
ENDBRANCH   1  31
TORSDOF 20
