REMARK SMILES Nc1nc(SCc2c(C(=O)NCCCCNC(=O)c3ccc(-c4c5nc(c(-c6cccc(S(=O)(=O)[O-])c6F)c6ccc([nH]6)c(-c6cccc(S(=O)(=O)[O-])c6F)c6nc(c(-c7cccc(S(=O)(=O)[O-])c7F)c7ccc4[nH]7)C=C6)C=C5)cc3)sc3cccc(F)c23)n[nH]1
REMARK SMILES IDX 13 1 12 2 11 3 9 4 10 5 8 7 7 8 89 9 82 10 83 11 87 12 84 13
REMARK SMILES IDX 86 14 88 15 85 16 6 17 5 18 4 19 2 20 3 21 91 22 90 23 1 25
REMARK SMILES IDX 14 28 15 29 16 30 17 31 18 33 19 34 20 35 81 36 21 37 80 38
REMARK SMILES IDX 22 39 23 40 24 41 74 42 25 43 79 44 73 45 75 46 26 47 78 48
REMARK SMILES IDX 72 49 71 50 27 52 59 53 39 54 58 55 40 56 43 57 57 58 76 59
REMARK SMILES IDX 41 60 42 61 56 63 77 64 44 65 28 66 29 67 37 68 30 69 32 70
REMARK SMILES IDX 38 71 31 72 33 73 34 74 35 75 36 76 60 77 61 78 69 79 62 80
REMARK SMILES IDX 64 81 70 82 63 83 65 84 66 85 67 86 68 87 45 88 46 89 54 90
REMARK SMILES IDX 47 91 49 92 55 93 48 94 50 95 51 96 52 97 53 98
REMARK H PARENT 11 6 91 24 1 26 1 27 16 32 75 51 43 62
REMARK Flexibility Score: inf
ROOT
ATOM      1  C   UNL     1       0.466   2.342   2.747  1.00  0.00     0.023 C 
ENDROOT
BRANCH   1   2
ATOM      2  C   UNL     1       0.525   2.708   1.260  1.00  0.00     0.116 C 
BRANCH   2   3
ATOM      3  N   UNL     1      -0.471   2.037   0.453  1.00  0.00    -0.351 N 
ATOM      4  C   UNL     1      -0.656   2.002  -0.915  1.00  0.00     0.261 C 
ATOM      5  O   UNL     1      -1.560   1.259  -1.313  1.00  0.00    -0.268 OA
ATOM      6  H   UNL     1      -1.130   1.517   0.968  1.00  0.00     0.163 HD
BRANCH   4   7
ATOM      7  C   UNL     1       0.066   2.917  -1.776  1.00  0.00     0.097 A 
ATOM      8  C   UNL     1       1.356   3.435  -1.826  1.00  0.00    -0.003 A 
ATOM      9  C   UNL     1       1.194   4.834  -2.234  1.00  0.00     0.033 A 
ATOM     10  S   UNL     1      -0.792   3.520  -3.152  1.00  0.00    -0.130 S 
ATOM     11  C   UNL     1       0.076   4.993  -3.058  1.00  0.00     0.038 A 
ATOM     12  C   UNL     1       1.932   6.006  -1.944  1.00  0.00     0.132 A 
ATOM     13  C   UNL     1      -0.259   6.219  -3.664  1.00  0.00     0.020 A 
ATOM     14  C   UNL     1       1.535   7.256  -2.431  1.00  0.00     0.040 A 
ATOM     15  F   UNL     1       2.958   5.955  -1.081  1.00  0.00    -0.206 F 
ATOM     16  C   UNL     1       0.462   7.357  -3.307  1.00  0.00     0.005 A 
BRANCH   8  17
ATOM     17  C   UNL     1       2.654   2.860  -1.313  1.00  0.00     0.116 C 
BRANCH  17  18
ATOM     18  S   UNL     1       3.155   1.232  -1.897  1.00  0.00    -0.080 SA
BRANCH  18  19
ATOM     19  C   UNL     1       2.100  -0.012  -1.296  1.00  0.00     0.210 A 
ATOM     20  C   UNL     1       0.562  -1.061  -0.304  1.00  0.00     0.216 A 
ATOM     21  N   UNL     1       1.260   0.050  -0.215  1.00  0.00    -0.186 NA
ATOM     22  N   UNL     1       1.108  -1.841  -1.281  1.00  0.00    -0.245 N 
ATOM     23  N   UNL     1       2.075  -1.187  -1.931  1.00  0.00    -0.145 NA
ATOM     24  H   UNL     1       0.826  -2.763  -1.481  1.00  0.00     0.193 HD
BRANCH  20  25
ATOM     25  N   UNL     1      -0.555  -1.425   0.347  1.00  0.00    -0.368 N 
ATOM     26  H   UNL     1      -0.927  -0.842   1.048  1.00  0.00     0.159 HD
ATOM     27  H   UNL     1      -1.002  -2.273   0.123  1.00  0.00     0.159 HD
ENDBRANCH  20  25
ENDBRANCH  18  19
ENDBRANCH  17  18
ENDBRANCH   8  17
ENDBRANCH   4   7
ENDBRANCH   2   3
ENDBRANCH   1   2
BRANCH   1  28
ATOM     28  C   UNL     1       0.943   0.916   3.087  1.00  0.00     0.023 C 
BRANCH  28  29
ATOM     29  C   UNL     1       2.425   0.629   2.826  1.00  0.00     0.116 C 
BRANCH  29  30
ATOM     30  N   UNL     1       3.290   1.188   3.853  1.00  0.00    -0.352 N 
ATOM     31  C   UNL     1       4.544   0.793   4.258  1.00  0.00     0.251 C 
ATOM     32  H   UNL     1       2.923   1.966   4.330  1.00  0.00     0.163 HD
ATOM     33  O   UNL     1       5.001   1.286   5.290  1.00  0.00    -0.269 OA
BRANCH  31  34
ATOM     34  C   UNL     1       5.353  -0.197   3.499  1.00  0.00     0.039 A 
ATOM     35  C   UNL     1       6.308  -0.950   4.200  1.00  0.00     0.014 A 
ATOM     36  C   UNL     1       5.261  -0.334   2.110  1.00  0.00     0.014 A 
ATOM     37  C   UNL     1       7.145  -1.831   3.517  1.00  0.00     0.010 A 
ATOM     38  C   UNL     1       6.063  -1.242   1.433  1.00  0.00     0.010 A 
ATOM     39  C   UNL     1       7.026  -1.968   2.129  1.00  0.00    -0.014 A 
BRANCH  39  40
ATOM     40  C   UNL     1       7.888  -2.915   1.428  1.00  0.00     0.031 A 
ATOM     41  C   UNL     1       7.690  -4.355   1.749  1.00  0.00     0.074 A 
ATOM     42  C   UNL     1       8.711  -2.579   0.415  1.00  0.00     0.049 A 
ATOM     43  N   UNL     1       8.500  -5.156   2.365  1.00  0.00    -0.248 NA
ATOM     44  C   UNL     1       6.405  -4.963   1.379  1.00  0.00     0.031 C 
ATOM     45  C   UNL     1       8.812  -1.299  -0.291  1.00  0.00     0.029 A 
ATOM     46  N   UNL     1       9.569  -3.382  -0.276  1.00  0.00    -0.354 N 
ATOM     47  C   UNL     1       7.914  -6.419   2.289  1.00  0.00     0.074 A 
ATOM     48  C   UNL     1       6.574  -6.219   1.797  1.00  0.00     0.031 C 
ATOM     49  C   UNL     1       9.509  -1.477  -1.437  1.00  0.00     0.029 A 
ATOM     50  C   UNL     1      10.033  -2.830  -1.462  1.00  0.00     0.049 A 
ATOM     51  H   UNL     1       9.835  -4.276   0.039  1.00  0.00     0.167 HD
ATOM     52  C   UNL     1       8.628  -7.568   2.447  1.00  0.00     0.034 A 
ATOM     53  C   UNL     1      10.762  -3.469  -2.407  1.00  0.00     0.034 A 
ATOM     54  C   UNL     1       9.937  -7.337   2.989  1.00  0.00     0.049 A 
ATOM     55  C   UNL     1      11.424  -4.613  -1.737  1.00  0.00     0.074 A 
ATOM     56  C   UNL     1      10.445  -6.791   4.150  1.00  0.00     0.029 A 
ATOM     57  N   UNL     1      10.990  -7.395   2.109  1.00  0.00    -0.354 N 
ATOM     58  N   UNL     1      12.337  -4.492  -0.813  1.00  0.00    -0.248 NA
ATOM     59  C   UNL     1      10.836  -5.936  -1.865  1.00  0.00     0.031 C 
ATOM     60  C   UNL     1      11.637  -6.118   3.748  1.00  0.00     0.029 A 
ATOM     61  C   UNL     1      11.789  -6.315   2.373  1.00  0.00     0.049 A 
ATOM     62  H   UNL     1      11.141  -8.082   1.421  1.00  0.00     0.167 HD
ATOM     63  C   UNL     1      12.142  -5.585   0.019  1.00  0.00     0.074 A 
ATOM     64  C   UNL     1      11.311  -6.502  -0.753  1.00  0.00     0.031 C 
ATOM     65  C   UNL     1      12.437  -5.520   1.351  1.00  0.00     0.034 A 
BRANCH  52  66
ATOM     66  C   UNL     1       8.269  -8.893   1.824  1.00  0.00     0.023 A 
ATOM     67  C   UNL     1       8.877 -10.060   2.337  1.00  0.00     0.012 A 
ATOM     68  C   UNL     1       7.563  -9.015   0.608  1.00  0.00     0.148 A 
ATOM     69  C   UNL     1       8.789 -11.287   1.668  1.00  0.00     0.002 A 
ATOM     70  C   UNL     1       7.408 -10.252  -0.009  1.00  0.00     0.091 A 
ATOM     71  F   UNL     1       7.147  -7.915  -0.031  1.00  0.00    -0.205 F 
ATOM     72  C   UNL     1       8.039 -11.387   0.502  1.00  0.00     0.022 A 
BRANCH  70  73
ATOM     73  S   UNL     1       6.386 -10.430  -1.474  1.00  0.00     0.127 S 
ATOM     74  O   UNL     1       7.384 -10.392  -2.537  1.00  0.00    -0.237 OA
ATOM     75  O   UNL     1       5.761 -11.736  -1.255  1.00  0.00    -0.237 OA
ATOM     76  O   UNL     1       5.452  -9.312  -1.414  1.00  0.00    -0.744 OA
ENDBRANCH  70  73
ENDBRANCH  52  66
BRANCH  53  77
ATOM     77  C   UNL     1      10.803  -3.295  -3.879  1.00  0.00     0.023 A 
ATOM     78  C   UNL     1      11.874  -3.856  -4.606  1.00  0.00     0.012 A 
ATOM     79  C   UNL     1       9.674  -2.848  -4.601  1.00  0.00     0.148 A 
ATOM     80  C   UNL     1      11.801  -4.021  -5.993  1.00  0.00     0.002 A 
ATOM     81  C   UNL     1       9.613  -3.003  -5.986  1.00  0.00     0.091 A 
ATOM     82  F   UNL     1       8.622  -2.363  -3.928  1.00  0.00    -0.205 F 
ATOM     83  C   UNL     1      10.667  -3.605  -6.681  1.00  0.00     0.022 A 
BRANCH  81  84
ATOM     84  S   UNL     1       8.174  -2.481  -6.933  1.00  0.00     0.127 S 
ATOM     85  O   UNL     1       8.793  -1.899  -8.132  1.00  0.00    -0.237 OA
ATOM     86  O   UNL     1       7.493  -3.760  -7.171  1.00  0.00    -0.237 OA
ATOM     87  O   UNL     1       7.479  -1.530  -6.101  1.00  0.00    -0.744 OA
ENDBRANCH  81  84
ENDBRANCH  53  77
BRANCH  65  88
ATOM     88  C   UNL     1      13.234  -4.339   1.846  1.00  0.00     0.023 A 
ATOM     89  C   UNL     1      12.694  -3.036   1.842  1.00  0.00     0.012 A 
ATOM     90  C   UNL     1      14.449  -4.572   2.513  1.00  0.00     0.148 A 
ATOM     91  C   UNL     1      13.357  -1.984   2.479  1.00  0.00     0.002 A 
ATOM     92  C   UNL     1      15.086  -3.531   3.178  1.00  0.00     0.091 A 
ATOM     93  F   UNL     1      14.933  -5.823   2.524  1.00  0.00    -0.205 F 
ATOM     94  C   UNL     1      14.546  -2.235   3.158  1.00  0.00     0.022 A 
BRANCH  92  95
ATOM     95  S   UNL     1      16.557  -3.793   4.174  1.00  0.00     0.127 S 
ATOM     96  O   UNL     1      17.565  -3.029   3.440  1.00  0.00    -0.237 OA
ATOM     97  O   UNL     1      16.168  -3.212   5.460  1.00  0.00    -0.237 OA
ATOM     98  O   UNL     1      16.776  -5.234   4.208  1.00  0.00    -0.744 OA
ENDBRANCH  92  95
ENDBRANCH  65  88
ENDBRANCH  39  40
ENDBRANCH  31  34
ENDBRANCH  29  30
ENDBRANCH  28  29
ENDBRANCH   1  28
TORSDOF 18
