REMARK SMILES C[C@H]1CCC[C@H](C(C)(C)C(=O)NCCCCNC(=O)c2ccc(-c3c4nc(c(-c5cccc(S(=O)(=O)[O-])c5F)c5ccc([nH]5)c(-c5cccc(S(=O)(=O)[O-])c5F)c5nc(c(-c6cccc(S(=O)(=O)[O-])c6F)c6ccc3[nH]6)C=C5)C=C4)cc2)C1
REMARK SMILES IDX 15 1 14 2 13 3 12 4 10 5 11 6 7 8 8 9 9 10 6 11 1 12 2 13
REMARK SMILES IDX 3 14 83 15 4 16 5 17 16 18 17 19 18 20 19 22 20 23 21 24
REMARK SMILES IDX 82 25 22 26 81 27 23 28 24 29 25 30 75 31 26 32 80 33 74 34
REMARK SMILES IDX 76 35 27 36 79 37 73 38 72 39 28 41 60 42 40 43 59 44 41 45
REMARK SMILES IDX 44 46 58 47 77 48 42 49 43 50 57 52 78 53 45 54 29 55 30 56
REMARK SMILES IDX 38 57 31 58 33 59 39 60 32 61 34 62 35 63 36 64 37 65 61 66
REMARK SMILES IDX 62 67 70 68 63 69 65 70 71 71 64 72 66 73 67 74 68 75 69 76
REMARK SMILES IDX 46 77 47 78 55 79 48 80 50 81 56 82 49 83 51 84 52 85 53 86
REMARK SMILES IDX 54 87
REMARK H PARENT 12 7 17 21 76 40 44 51
REMARK Flexibility Score: inf
ROOT
ATOM      1  C   UNL     1       0.724  -0.463   6.477  1.00  0.00     0.023 C 
ENDROOT
BRANCH   1   2
ATOM      2  C   UNL     1      -0.035  -1.575   5.744  1.00  0.00     0.023 C 
BRANCH   2   3
ATOM      3  C   UNL     1      -1.311  -1.112   5.042  1.00  0.00     0.116 C 
BRANCH   3   4
ATOM      4  N   UNL     1      -1.013  -0.101   4.054  1.00  0.00    -0.356 N 
ATOM      5  C   UNL     1      -0.895  -0.095   2.706  1.00  0.00     0.225 C 
ATOM      6  O   UNL     1      -0.466   0.974   2.275  1.00  0.00    -0.275 OA
ATOM      7  H   UNL     1      -0.862   0.787   4.452  1.00  0.00     0.163 HD
BRANCH   5   8
ATOM      8  C   UNL     1      -1.321  -1.270   1.794  1.00  0.00     0.046 C 
ATOM      9  C   UNL     1      -2.843  -1.464   1.996  1.00  0.00     0.022 C 
ATOM     10  C   UNL     1      -0.582  -2.564   2.203  1.00  0.00     0.022 C 
BRANCH   8  11
ATOM     11  C   UNL     1      -1.066  -1.059   0.230  1.00  0.00     0.004 C 
ATOM     12  C   UNL     1       2.602   0.020  -0.610  1.00  0.00     0.007 C 
ATOM     13  C   UNL     1       1.185   0.155  -0.045  1.00  0.00    -0.014 C 
ATOM     14  C   UNL     1       0.475   1.367  -0.671  1.00  0.00     0.003 C 
ATOM     15  C   UNL     1       0.393  -1.130  -0.269  1.00  0.00     0.008 C 
ATOM     16  C   UNL     1      -1.036   1.456  -0.443  1.00  0.00     0.001 C 
ATOM     17  C   UNL     1      -1.770   0.119  -0.472  1.00  0.00     0.005 C 
ENDBRANCH   8  11
ENDBRANCH   5   8
ENDBRANCH   3   4
ENDBRANCH   2   3
ENDBRANCH   1   2
BRANCH   1  18
ATOM     18  C   UNL     1      -0.131   0.417   7.381  1.00  0.00     0.116 C 
BRANCH  18  19
ATOM     19  N   UNL     1      -0.912  -0.353   8.336  1.00  0.00    -0.352 N 
ATOM     20  C   UNL     1      -1.126  -0.108   9.668  1.00  0.00     0.251 C 
ATOM     21  H   UNL     1      -1.347  -1.161   7.978  1.00  0.00     0.163 HD
ATOM     22  O   UNL     1      -1.706  -0.941  10.360  1.00  0.00    -0.269 OA
BRANCH  20  23
ATOM     23  C   UNL     1      -0.630   1.148  10.263  1.00  0.00     0.039 A 
ATOM     24  C   UNL     1       0.060   1.091  11.475  1.00  0.00     0.014 A 
ATOM     25  C   UNL     1      -0.835   2.371   9.619  1.00  0.00     0.014 A 
ATOM     26  C   UNL     1       0.577   2.263  12.026  1.00  0.00     0.010 A 
ATOM     27  C   UNL     1      -0.244   3.523  10.126  1.00  0.00     0.010 A 
ATOM     28  C   UNL     1       0.445   3.486  11.347  1.00  0.00    -0.014 A 
BRANCH  28  29
ATOM     29  C   UNL     1       0.983   4.743  11.922  1.00  0.00     0.031 A 
ATOM     30  C   UNL     1       0.044   5.865  12.279  1.00  0.00     0.074 A 
ATOM     31  C   UNL     1       2.313   4.900  12.067  1.00  0.00     0.049 A 
ATOM     32  N   UNL     1       0.319   7.050  12.759  1.00  0.00    -0.248 NA
ATOM     33  C   UNL     1      -1.391   5.639  12.035  1.00  0.00     0.031 C 
ATOM     34  C   UNL     1       3.329   3.916  11.686  1.00  0.00     0.029 A 
ATOM     35  N   UNL     1       3.041   5.956  12.554  1.00  0.00    -0.354 N 
ATOM     36  C   UNL     1      -0.897   7.719  12.838  1.00  0.00     0.074 A 
ATOM     37  C   UNL     1      -1.906   6.826  12.315  1.00  0.00     0.031 C 
ATOM     38  C   UNL     1       4.546   4.410  11.964  1.00  0.00     0.029 A 
ATOM     39  C   UNL     1       4.400   5.754  12.514  1.00  0.00     0.049 A 
ATOM     40  H   UNL     1       2.628   6.780  12.900  1.00  0.00     0.167 HD
ATOM     41  C   UNL     1      -1.158   8.953  13.331  1.00  0.00     0.034 A 
ATOM     42  C   UNL     1       5.414   6.564  12.876  1.00  0.00     0.034 A 
ATOM     43  C   UNL     1      -0.156   9.820  13.888  1.00  0.00     0.049 A 
ATOM     44  C   UNL     1       5.094   7.912  13.464  1.00  0.00     0.074 A 
ATOM     45  C   UNL     1      -0.324  11.057  14.485  1.00  0.00     0.029 A 
ATOM     46  N   UNL     1       1.202   9.545  13.911  1.00  0.00    -0.354 N 
ATOM     47  N   UNL     1       3.924   8.470  13.666  1.00  0.00    -0.248 NA
ATOM     48  C   UNL     1       6.232   8.724  13.918  1.00  0.00     0.031 C 
ATOM     49  C   UNL     1       0.938  11.542  14.843  1.00  0.00     0.029 A 
ATOM     50  C   UNL     1       1.887  10.589  14.509  1.00  0.00     0.049 A 
ATOM     51  H   UNL     1       1.619   8.728  13.554  1.00  0.00     0.167 HD
ATOM     52  C   UNL     1       4.182   9.674  14.312  1.00  0.00     0.074 A 
ATOM     53  C   UNL     1       5.618   9.755  14.483  1.00  0.00     0.031 C 
ATOM     54  C   UNL     1       3.311  10.629  14.721  1.00  0.00     0.034 A 
BRANCH  41  55
ATOM     55  C   UNL     1      -2.591   9.418  13.329  1.00  0.00     0.023 A 
ATOM     56  C   UNL     1      -3.529   8.805  14.186  1.00  0.00     0.012 A 
ATOM     57  C   UNL     1      -3.003  10.490  12.513  1.00  0.00     0.148 A 
ATOM     58  C   UNL     1      -4.859   9.221  14.201  1.00  0.00     0.002 A 
ATOM     59  C   UNL     1      -4.319  10.934  12.572  1.00  0.00     0.091 A 
ATOM     60  F   UNL     1      -2.105  11.048  11.688  1.00  0.00    -0.205 F 
ATOM     61  C   UNL     1      -5.251  10.291  13.403  1.00  0.00     0.022 A 
BRANCH  59  62
ATOM     62  S   UNL     1      -4.903  12.359  11.648  1.00  0.00     0.127 S 
ATOM     63  O   UNL     1      -5.795  11.733  10.673  1.00  0.00    -0.237 OA
ATOM     64  O   UNL     1      -5.583  13.137  12.684  1.00  0.00    -0.237 OA
ATOM     65  O   UNL     1      -3.717  12.993  11.091  1.00  0.00    -0.744 OA
ENDBRANCH  59  62
ENDBRANCH  41  55
BRANCH  42  66
ATOM     66  C   UNL     1       6.824   6.097  12.758  1.00  0.00     0.023 A 
ATOM     67  C   UNL     1       7.567   5.831  13.925  1.00  0.00     0.012 A 
ATOM     68  C   UNL     1       7.428   5.904  11.501  1.00  0.00     0.148 A 
ATOM     69  C   UNL     1       8.899   5.422  13.844  1.00  0.00     0.002 A 
ATOM     70  C   UNL     1       8.737   5.442  11.426  1.00  0.00     0.091 A 
ATOM     71  F   UNL     1       6.707   6.169  10.403  1.00  0.00    -0.205 F 
ATOM     72  C   UNL     1       9.481   5.220  12.595  1.00  0.00     0.022 A 
BRANCH  70  73
ATOM     73  S   UNL     1       9.527   5.031   9.867  1.00  0.00     0.127 S 
ATOM     74  O   UNL     1      10.545   6.074   9.764  1.00  0.00    -0.237 OA
ATOM     75  O   UNL     1      10.043   3.689  10.137  1.00  0.00    -0.237 OA
ATOM     76  O   UNL     1       8.471   5.079   8.865  1.00  0.00    -0.744 OA
ENDBRANCH  70  73
ENDBRANCH  42  66
BRANCH  54  77
ATOM     77  C   UNL     1       3.874  11.819  15.455  1.00  0.00     0.023 A 
ATOM     78  C   UNL     1       4.648  12.777  14.771  1.00  0.00     0.012 A 
ATOM     79  C   UNL     1       3.586  12.011  16.821  1.00  0.00     0.148 A 
ATOM     80  C   UNL     1       5.164  13.883  15.445  1.00  0.00     0.002 A 
ATOM     81  C   UNL     1       4.056  13.144  17.472  1.00  0.00     0.091 A 
ATOM     82  F   UNL     1       2.863  11.080  17.461  1.00  0.00    -0.205 F 
ATOM     83  C   UNL     1       4.859  14.072  16.791  1.00  0.00     0.022 A 
BRANCH  81  84
ATOM     84  S   UNL     1       3.623  13.519  19.175  1.00  0.00     0.127 S 
ATOM     85  O   UNL     1       4.871  13.215  19.873  1.00  0.00    -0.237 OA
ATOM     86  O   UNL     1       3.294  14.943  19.105  1.00  0.00    -0.237 OA
ATOM     87  O   UNL     1       2.495  12.656  19.500  1.00  0.00    -0.744 OA
ENDBRANCH  81  84
ENDBRANCH  54  77
ENDBRANCH  28  29
ENDBRANCH  20  23
ENDBRANCH  18  19
ENDBRANCH   1  18
TORSDOF 15
