REMARK SMILES Cc1ccc([C@@H](C)Nc2ccc(N)cc2C(=O)NCCCCNC(=O)c2ccc(-c3c4nc(c(-c5cccc(S(=O)(=O)[O-])c5F)c5ccc([nH]5)c(-c5cccc(S(=O)(=O)[O-])c5F)c5nc(c(-c6cccc(S(=O)(=O)[O-])c6F)c6ccc3[nH]6)C=C5)C=C4)cc2)cc1F
REMARK SMILES IDX 20 1 19 2 18 3 16 4 17 5 15 7 9 8 10 9 11 10 14 11 12 12
REMARK SMILES IDX 8 13 6 15 7 16 5 17 1 18 2 19 3 20 90 21 4 22 89 23 91 24
REMARK SMILES IDX 13 25 21 28 22 29 23 30 24 31 25 33 26 34 27 35 88 36 28 37
REMARK SMILES IDX 87 38 29 39 30 40 31 41 81 42 32 43 86 44 80 45 82 46 33 47
REMARK SMILES IDX 85 48 79 49 78 50 34 52 66 53 46 54 65 55 47 56 50 57 64 58
REMARK SMILES IDX 83 59 48 60 49 61 63 63 84 64 51 65 35 66 36 67 44 68 37 69
REMARK SMILES IDX 39 70 45 71 38 72 40 73 41 74 42 75 43 76 67 77 68 78 76 79
REMARK SMILES IDX 69 80 71 81 77 82 70 83 72 84 73 85 74 86 75 87 52 88 53 89
REMARK SMILES IDX 61 90 54 91 56 92 62 93 55 94 57 95 58 96 59 97 60 98
REMARK H PARENT 18 6 8 14 13 26 13 27 23 32 82 51 50 62
REMARK Flexibility Score: inf
ROOT
ATOM      1  C   UNL     1      -0.228  -1.406   0.523  1.00  0.00     0.023 C 
ENDROOT
BRANCH   1   2
ATOM      2  C   UNL     1      -0.612  -3.082   0.627  1.00  0.00     0.116 C 
BRANCH   2   3
ATOM      3  N   UNL     1      -0.814  -3.873  -0.586  1.00  0.00    -0.352 N 
ATOM      4  C   UNL     1      -1.888  -4.633  -0.981  1.00  0.00     0.253 C 
ATOM      5  O   UNL     1      -1.945  -5.057  -2.134  1.00  0.00    -0.269 OA
ATOM      6  H   UNL     1      -0.061  -3.858  -1.221  1.00  0.00     0.163 HD
BRANCH   4   7
ATOM      7  C   UNL     1      -2.851  -5.104   0.032  1.00  0.00     0.065 A 
ATOM      8  C   UNL     1      -3.459  -4.295   0.997  1.00  0.00     0.048 A 
ATOM      9  C   UNL     1      -3.747  -4.950   2.210  1.00  0.00     0.028 A 
ATOM     10  C   UNL     1      -3.591  -6.340   2.374  1.00  0.00     0.027 A 
ATOM     11  C   UNL     1      -2.856  -6.512   0.130  1.00  0.00     0.041 A 
ATOM     12  C   UNL     1      -3.254  -7.146   1.296  1.00  0.00     0.032 A 
BRANCH   8  13
ATOM     13  N   UNL     1      -3.741  -2.946   0.906  1.00  0.00    -0.378 N 
ATOM     14  H   UNL     1      -4.097  -2.551   1.735  1.00  0.00     0.161 HD
BRANCH  13  15
ATOM     15  C   UNL     1      -3.607  -1.990  -0.207  1.00  0.00     0.106 C 
ATOM     16  C   UNL     1      -4.271  -2.454  -1.496  1.00  0.00     0.036 C 
BRANCH  15  17
ATOM     17  C   UNL     1      -2.215  -1.355  -0.194  1.00  0.00    -0.023 A 
ATOM     18  C   UNL     1       2.038   1.400   0.313  1.00  0.00     0.047 C 
ATOM     19  C   UNL     1       0.967   0.351   0.263  1.00  0.00    -0.015 A 
ATOM     20  C   UNL     1      -0.326   0.499   1.497  1.00  0.00     0.007 A 
ATOM     21  C   UNL     1       0.660  -0.636  -1.234  1.00  0.00     0.126 A 
ATOM     22  C   UNL     1      -1.888  -0.386   1.296  1.00  0.00     0.006 A 
ATOM     23  C   UNL     1      -0.916  -1.509  -1.458  1.00  0.00     0.045 A 
ATOM     24  F   UNL     1       1.578  -0.659  -2.207  1.00  0.00    -0.207 F 
ENDBRANCH  15  17
ENDBRANCH  13  15
ENDBRANCH   8  13
BRANCH  12  25
ATOM     25  N   UNL     1      -3.098  -8.518   1.428  1.00  0.00    -0.399 N 
ATOM     26  H   UNL     1      -3.381  -8.968   2.257  1.00  0.00     0.156 HD
ATOM     27  H   UNL     1      -2.704  -9.042   0.694  1.00  0.00     0.156 HD
ENDBRANCH  12  25
ENDBRANCH   4   7
ENDBRANCH   2   3
ENDBRANCH   1   2
BRANCH   1  28
ATOM     28  C   UNL     1      -1.026   0.357  -0.505  1.00  0.00     0.023 C 
BRANCH  28  29
ATOM     29  C   UNL     1      -2.219   1.411  -0.283  1.00  0.00     0.116 C 
BRANCH  29  30
ATOM     30  N   UNL     1      -1.981   2.449   0.742  1.00  0.00    -0.352 N 
ATOM     31  C   UNL     1      -1.864   3.803   0.506  1.00  0.00     0.251 C 
ATOM     32  H   UNL     1      -1.898   2.148   1.675  1.00  0.00     0.163 HD
ATOM     33  O   UNL     1      -1.076   4.533   1.090  1.00  0.00    -0.269 OA
BRANCH  31  34
ATOM     34  C   UNL     1      -2.851   4.344  -0.439  1.00  0.00     0.039 A 
ATOM     35  C   UNL     1      -2.811   5.628  -0.981  1.00  0.00     0.014 A 
ATOM     36  C   UNL     1      -3.915   3.496  -0.716  1.00  0.00     0.014 A 
ATOM     37  C   UNL     1      -3.902   6.027  -1.741  1.00  0.00     0.010 A 
ATOM     38  C   UNL     1      -4.668   3.708  -1.794  1.00  0.00     0.010 A 
ATOM     39  C   UNL     1      -4.831   5.042  -2.086  1.00  0.00    -0.014 A 
BRANCH  39  40
ATOM     40  C   UNL     1      -6.107   5.207  -2.738  1.00  0.00     0.031 A 
ATOM     41  C   UNL     1      -5.939   5.545  -4.149  1.00  0.00     0.074 A 
ATOM     42  C   UNL     1      -7.144   4.758  -1.977  1.00  0.00     0.049 A 
ATOM     43  N   UNL     1      -6.425   6.564  -4.767  1.00  0.00    -0.248 NA
ATOM     44  C   UNL     1      -4.923   4.840  -4.965  1.00  0.00     0.031 C 
ATOM     45  C   UNL     1      -8.519   4.392  -2.251  1.00  0.00     0.029 A 
ATOM     46  N   UNL     1      -7.077   4.596  -0.580  1.00  0.00    -0.354 N 
ATOM     47  C   UNL     1      -6.305   6.198  -6.093  1.00  0.00     0.074 A 
ATOM     48  C   UNL     1      -5.098   5.415  -6.158  1.00  0.00     0.031 C 
ATOM     49  C   UNL     1      -9.230   4.463  -1.101  1.00  0.00     0.029 A 
ATOM     50  C   UNL     1      -8.330   4.871  -0.029  1.00  0.00     0.049 A 
ATOM     51  H   UNL     1      -6.275   4.332  -0.073  1.00  0.00     0.167 HD
ATOM     52  C   UNL     1      -7.449   6.032  -6.827  1.00  0.00     0.034 A 
ATOM     53  C   UNL     1      -8.408   5.991   0.752  1.00  0.00     0.034 A 
ATOM     54  C   UNL     1      -8.618   6.178  -5.959  1.00  0.00     0.049 A 
ATOM     55  C   UNL     1      -8.982   7.091  -0.114  1.00  0.00     0.074 A 
ATOM     56  C   UNL     1      -9.545   5.280  -5.457  1.00  0.00     0.029 A 
ATOM     57  N   UNL     1      -8.751   7.330  -5.204  1.00  0.00    -0.354 N 
ATOM     58  N   UNL     1      -8.827   7.145  -1.412  1.00  0.00    -0.248 NA
ATOM     59  C   UNL     1      -9.889   8.113   0.391  1.00  0.00     0.031 C 
ATOM     60  C   UNL     1     -10.208   5.906  -4.362  1.00  0.00     0.029 A 
ATOM     61  C   UNL     1      -9.626   7.146  -4.158  1.00  0.00     0.049 A 
ATOM     62  H   UNL     1      -8.279   8.174  -5.391  1.00  0.00     0.167 HD
ATOM     63  C   UNL     1      -9.685   8.076  -1.925  1.00  0.00     0.074 A 
ATOM     64  C   UNL     1     -10.294   8.686  -0.755  1.00  0.00     0.031 C 
ATOM     65  C   UNL     1      -9.889   8.260  -3.262  1.00  0.00     0.034 A 
BRANCH  52  66
ATOM     66  C   UNL     1      -7.521   5.457  -8.222  1.00  0.00     0.023 A 
ATOM     67  C   UNL     1      -6.388   5.270  -9.046  1.00  0.00     0.012 A 
ATOM     68  C   UNL     1      -8.770   5.164  -8.811  1.00  0.00     0.148 A 
ATOM     69  C   UNL     1      -6.483   4.781 -10.356  1.00  0.00     0.002 A 
ATOM     70  C   UNL     1      -8.865   4.697 -10.120  1.00  0.00     0.091 A 
ATOM     71  F   UNL     1      -9.903   5.364  -8.127  1.00  0.00    -0.205 F 
ATOM     72  C   UNL     1      -7.726   4.498 -10.900  1.00  0.00     0.022 A 
BRANCH  70  73
ATOM     73  S   UNL     1     -10.495   4.397 -10.803  1.00  0.00     0.127 S 
ATOM     74  O   UNL     1     -10.987   3.293  -9.983  1.00  0.00    -0.237 OA
ATOM     75  O   UNL     1     -11.164   5.684 -10.644  1.00  0.00    -0.237 OA
ATOM     76  O   UNL     1     -10.214   4.036 -12.193  1.00  0.00    -0.744 OA
ENDBRANCH  70  73
ENDBRANCH  52  66
BRANCH  53  77
ATOM     77  C   UNL     1      -7.198   6.060   1.664  1.00  0.00     0.023 A 
ATOM     78  C   UNL     1      -6.075   6.841   1.344  1.00  0.00     0.012 A 
ATOM     79  C   UNL     1      -7.006   4.933   2.513  1.00  0.00     0.148 A 
ATOM     80  C   UNL     1      -4.792   6.430   1.750  1.00  0.00     0.002 A 
ATOM     81  C   UNL     1      -5.722   4.464   2.792  1.00  0.00     0.091 A 
ATOM     82  F   UNL     1      -8.085   4.234   2.902  1.00  0.00    -0.205 F 
ATOM     83  C   UNL     1      -4.609   5.218   2.422  1.00  0.00     0.022 A 
BRANCH  81  84
ATOM     84  S   UNL     1      -5.495   2.734   3.267  1.00  0.00     0.127 S 
ATOM     85  O   UNL     1      -5.686   2.765   4.713  1.00  0.00    -0.237 OA
ATOM     86  O   UNL     1      -6.506   2.021   2.491  1.00  0.00    -0.237 OA
ATOM     87  O   UNL     1      -4.128   2.420   2.832  1.00  0.00    -0.744 OA
ENDBRANCH  81  84
ENDBRANCH  53  77
BRANCH  65  88
ATOM     88  C   UNL     1     -10.431   9.520  -3.877  1.00  0.00     0.023 A 
ATOM     89  C   UNL     1     -10.814   9.508  -5.245  1.00  0.00     0.012 A 
ATOM     90  C   UNL     1     -10.444  10.758  -3.233  1.00  0.00     0.148 A 
ATOM     91  C   UNL     1     -11.164  10.666  -5.934  1.00  0.00     0.002 A 
ATOM     92  C   UNL     1     -10.955  11.877  -3.875  1.00  0.00     0.091 A 
ATOM     93  F   UNL     1      -9.910  10.899  -2.012  1.00  0.00    -0.205 F 
ATOM     94  C   UNL     1     -11.274  11.855  -5.234  1.00  0.00     0.022 A 
BRANCH  92  95
ATOM     95  S   UNL     1     -11.376  13.284  -2.856  1.00  0.00     0.127 S 
ATOM     96  O   UNL     1     -12.343  12.709  -1.923  1.00  0.00    -0.237 OA
ATOM     97  O   UNL     1     -10.097  13.695  -2.288  1.00  0.00    -0.237 OA
ATOM     98  O   UNL     1     -11.949  14.232  -3.811  1.00  0.00    -0.744 OA
ENDBRANCH  92  95
ENDBRANCH  65  88
ENDBRANCH  39  40
ENDBRANCH  31  34
ENDBRANCH  29  30
ENDBRANCH  28  29
ENDBRANCH   1  28
TORSDOF 18
