REMARK SMILES C[C@@H](C(=O)NCCCCNC(=O)c1ccc(-c2c3nc(c(-c4cccc(S(=O)(=O)[O-])c4F)c4ccc([nH]4)c(-c4cccc(S(=O)(=O)[O-])c4F)c4nc(c(-c5cccc(S(=O)(=O)[O-])c5F)c5ccc2[nH]5)C=C4)C=C3)cc1)N1C(=O)/C(=C/c2ccc(-c3ccc([N+](=O)[O-])cc3Cl)o2)SC1=S
REMARK SMILES IDX 7 1 6 2 5 3 3 4 4 5 2 7 1 8 76 9 77 10 97 11 78 12 79 13
REMARK SMILES IDX 96 14 98 15 80 16 81 17 82 18 95 19 83 20 84 21 85 22 86 23
REMARK SMILES IDX 93 24 87 25 92 26 94 27 88 28 89 29 90 30 91 31 8 32 9 33
REMARK SMILES IDX 10 34 11 35 12 37 13 38 14 39 75 40 15 41 74 42 16 43 17 44
REMARK SMILES IDX 18 45 68 46 19 47 73 48 67 49 69 50 20 51 72 52 66 53 65 54
REMARK SMILES IDX 21 56 53 57 33 58 52 59 34 60 37 61 51 62 70 63 35 64 36 65
REMARK SMILES IDX 50 67 71 68 38 69 22 70 23 71 31 72 24 73 26 74 32 75 25 76
REMARK SMILES IDX 27 77 28 78 29 79 30 80 54 81 55 82 63 83 56 84 58 85 64 86
REMARK SMILES IDX 57 87 59 88 60 89 61 90 62 91 39 92 40 93 48 94 41 95 43 96
REMARK SMILES IDX 49 97 42 98 44 99 45 100 46 101 47 102
REMARK H PARENT 5 6 10 36 69 55 37 66
REMARK Flexibility Score: inf
ROOT
ATOM      1  C   UNL     1       4.234  -1.251  -0.132  1.00  0.00     0.023 C 
ENDROOT
BRANCH   1   2
ATOM      2  C   UNL     1       3.316  -1.488  -1.337  1.00  0.00     0.116 C 
BRANCH   2   3
ATOM      3  N   UNL     1       2.270  -2.444  -1.016  1.00  0.00    -0.354 N 
ATOM      4  C   UNL     1       0.987  -2.214  -0.593  1.00  0.00     0.242 C 
ATOM      5  O   UNL     1       0.435  -3.094   0.070  1.00  0.00    -0.273 OA
ATOM      6  H   UNL     1       2.519  -3.391  -1.116  1.00  0.00     0.163 HD
BRANCH   4   7
ATOM      7  C   UNL     1       0.342  -0.829  -0.835  1.00  0.00     0.178 C 
ATOM      8  C   UNL     1       0.647  -0.061   0.467  1.00  0.00     0.042 C 
BRANCH   7   9
ATOM      9  N   UNL     1      -1.119  -0.798  -1.118  1.00  0.00    -0.281 N 
ATOM     10  C   UNL     1      -1.831  -1.945  -1.432  1.00  0.00     0.267 C 
ATOM     11  C   UNL     1      -1.811   0.366  -1.405  1.00  0.00     0.149 C 
ATOM     12  O   UNL     1      -1.390  -3.002  -1.853  1.00  0.00    -0.268 OA
ATOM     13  C   UNL     1      -3.292  -1.658  -1.432  1.00  0.00     0.084 C 
ATOM     14  S   UNL     1      -3.534   0.038  -1.517  1.00  0.00    -0.054 SA
ATOM     15  S   UNL     1      -1.222   1.905  -1.695  1.00  0.00    -0.052 S 
ATOM     16  C   UNL     1      -4.210  -2.632  -1.373  1.00  0.00     0.068 C 
BRANCH  16  17
ATOM     17  C   UNL     1      -5.607  -2.378  -1.459  1.00  0.00     0.128 A 
ATOM     18  C   UNL     1      -6.318  -1.767  -2.486  1.00  0.00     0.051 A 
ATOM     19  O   UNL     1      -6.514  -2.745  -0.487  1.00  0.00    -0.457 OA
ATOM     20  C   UNL     1      -7.677  -1.727  -2.112  1.00  0.00     0.051 A 
ATOM     21  C   UNL     1      -7.748  -2.314  -0.870  1.00  0.00     0.136 A 
BRANCH  21  22
ATOM     22  C   UNL     1      -8.860  -2.569   0.035  1.00  0.00     0.036 A 
ATOM     23  C   UNL     1      -9.997  -3.216  -0.485  1.00  0.00     0.020 A 
ATOM     24  C   UNL     1      -8.891  -2.126   1.370  1.00  0.00     0.058 A 
ATOM     25  C   UNL     1     -11.143  -3.402   0.291  1.00  0.00     0.086 A 
ATOM     26  C   UNL     1     -10.036  -2.308   2.158  1.00  0.00     0.106 A 
ATOM     27  Cl  UNL     1      -7.574  -1.268   2.094  1.00  0.00    -0.083 Cl
ATOM     28  C   UNL     1     -11.161  -2.935   1.609  1.00  0.00     0.270 A 
BRANCH  28  29
ATOM     29  N   UNL     1     -12.384  -3.072   2.411  1.00  0.00     0.062 N 
ATOM     30  O   UNL     1     -13.366  -3.607   1.875  1.00  0.00    -0.258 OA
ATOM     31  O   UNL     1     -12.369  -2.630   3.567  1.00  0.00    -0.258 OA
ENDBRANCH  28  29
ENDBRANCH  21  22
ENDBRANCH  16  17
ENDBRANCH   7   9
ENDBRANCH   4   7
ENDBRANCH   2   3
ENDBRANCH   1   2
BRANCH   1  32
ATOM     32  C   UNL     1       5.054  -2.469   0.303  1.00  0.00     0.023 C 
BRANCH  32  33
ATOM     33  C   UNL     1       6.034  -2.997  -0.739  1.00  0.00     0.116 C 
BRANCH  33  34
ATOM     34  N   UNL     1       7.034  -2.011  -1.121  1.00  0.00    -0.352 N 
ATOM     35  C   UNL     1       8.381  -2.184  -1.328  1.00  0.00     0.251 C 
ATOM     36  H   UNL     1       6.699  -1.094  -1.249  1.00  0.00     0.163 HD
ATOM     37  O   UNL     1       9.099  -1.207  -1.519  1.00  0.00    -0.269 OA
BRANCH  35  38
ATOM     38  C   UNL     1       8.966  -3.543  -1.290  1.00  0.00     0.039 A 
ATOM     39  C   UNL     1      10.139  -3.751  -0.558  1.00  0.00     0.014 A 
ATOM     40  C   UNL     1       8.357  -4.607  -1.961  1.00  0.00     0.014 A 
ATOM     41  C   UNL     1      10.665  -5.040  -0.446  1.00  0.00     0.010 A 
ATOM     42  C   UNL     1       8.847  -5.899  -1.796  1.00  0.00     0.010 A 
ATOM     43  C   UNL     1      10.005  -6.129  -1.038  1.00  0.00    -0.014 A 
BRANCH  43  44
ATOM     44  C   UNL     1      10.495  -7.520  -0.861  1.00  0.00     0.031 A 
ATOM     45  C   UNL     1      10.979  -8.310  -2.045  1.00  0.00     0.074 A 
ATOM     46  C   UNL     1      10.406  -8.105   0.350  1.00  0.00     0.049 A 
ATOM     47  N   UNL     1      11.376  -9.554  -2.098  1.00  0.00    -0.248 NA
ATOM     48  C   UNL     1      10.992  -7.620  -3.346  1.00  0.00     0.031 C 
ATOM     49  C   UNL     1       9.873  -7.472   1.558  1.00  0.00     0.029 A 
ATOM     50  N   UNL     1      10.734  -9.374   0.758  1.00  0.00    -0.354 N 
ATOM     51  C   UNL     1      11.649  -9.810  -3.436  1.00  0.00     0.074 A 
ATOM     52  C   UNL     1      11.347  -8.599  -4.168  1.00  0.00     0.031 C 
ATOM     53  C   UNL     1       9.908  -8.354   2.570  1.00  0.00     0.029 A 
ATOM     54  C   UNL     1      10.447  -9.620   2.080  1.00  0.00     0.049 A 
ATOM     55  H   UNL     1      11.137 -10.044   0.160  1.00  0.00     0.167 HD
ATOM     56  C   UNL     1      12.139 -10.939  -4.002  1.00  0.00     0.034 A 
ATOM     57  C   UNL     1      10.599 -10.739   2.816  1.00  0.00     0.034 A 
ATOM     58  C   UNL     1      12.496 -12.120  -3.264  1.00  0.00     0.049 A 
ATOM     59  C   UNL     1      11.207 -11.957   2.176  1.00  0.00     0.074 A 
ATOM     60  C   UNL     1      13.092 -13.278  -3.732  1.00  0.00     0.029 A 
ATOM     61  N   UNL     1      12.295 -12.294  -1.904  1.00  0.00    -0.354 N 
ATOM     62  N   UNL     1      11.620 -12.122   0.943  1.00  0.00    -0.248 NA
ATOM     63  C   UNL     1      11.408 -13.132   3.038  1.00  0.00     0.031 C 
ATOM     64  C   UNL     1      13.247 -14.155  -2.653  1.00  0.00     0.029 A 
ATOM     65  C   UNL     1      12.753 -13.540  -1.514  1.00  0.00     0.049 A 
ATOM     66  H   UNL     1      11.886 -11.630  -1.304  1.00  0.00     0.167 HD
ATOM     67  C   UNL     1      12.158 -13.402   0.888  1.00  0.00     0.074 A 
ATOM     68  C   UNL     1      12.038 -13.963   2.218  1.00  0.00     0.031 C 
ATOM     69  C   UNL     1      12.686 -14.061  -0.173  1.00  0.00     0.034 A 
BRANCH  56  70
ATOM     70  C   UNL     1      12.388 -10.924  -5.486  1.00  0.00     0.023 A 
ATOM     71  C   UNL     1      13.488 -10.201  -5.991  1.00  0.00     0.012 A 
ATOM     72  C   UNL     1      11.580 -11.662  -6.372  1.00  0.00     0.148 A 
ATOM     73  C   UNL     1      13.764 -10.189  -7.357  1.00  0.00     0.002 A 
ATOM     74  C   UNL     1      11.884 -11.675  -7.729  1.00  0.00     0.091 A 
ATOM     75  F   UNL     1      10.523 -12.322  -5.878  1.00  0.00    -0.205 F 
ATOM     76  C   UNL     1      12.969 -10.933  -8.224  1.00  0.00     0.022 A 
BRANCH  74  77
ATOM     77  S   UNL     1      10.959 -12.661  -8.914  1.00  0.00     0.127 S 
ATOM     78  O   UNL     1      10.149 -11.641  -9.577  1.00  0.00    -0.237 OA
ATOM     79  O   UNL     1      12.023 -13.229  -9.744  1.00  0.00    -0.237 OA
ATOM     80  O   UNL     1      10.221 -13.638  -8.126  1.00  0.00    -0.744 OA
ENDBRANCH  74  77
ENDBRANCH  56  70
BRANCH  57  81
ATOM     81  C   UNL     1      10.252 -10.726   4.264  1.00  0.00     0.023 A 
ATOM     82  C   UNL     1      11.289 -10.741   5.217  1.00  0.00     0.012 A 
ATOM     83  C   UNL     1       8.916 -10.656   4.704  1.00  0.00     0.148 A 
ATOM     84  C   UNL     1      11.002 -10.713   6.582  1.00  0.00     0.002 A 
ATOM     85  C   UNL     1       8.639 -10.577   6.064  1.00  0.00     0.091 A 
ATOM     86  F   UNL     1       7.942 -10.659   3.783  1.00  0.00    -0.205 F 
ATOM     87  C   UNL     1       9.679 -10.620   7.005  1.00  0.00     0.022 A 
BRANCH  85  88
ATOM     88  S   UNL     1       6.973 -10.321   6.686  1.00  0.00     0.127 S 
ATOM     89  O   UNL     1       6.617 -11.659   7.150  1.00  0.00    -0.237 OA
ATOM     90  O   UNL     1       7.188  -9.337   7.748  1.00  0.00    -0.237 OA
ATOM     91  O   UNL     1       6.213  -9.814   5.551  1.00  0.00    -0.744 OA
ENDBRANCH  85  88
ENDBRANCH  57  81
BRANCH  69  92
ATOM     92  C   UNL     1      13.202 -15.456   0.057  1.00  0.00     0.023 A 
ATOM     93  C   UNL     1      12.289 -16.518   0.203  1.00  0.00     0.012 A 
ATOM     94  C   UNL     1      14.584 -15.727   0.045  1.00  0.00     0.148 A 
ATOM     95  C   UNL     1      12.743 -17.827   0.356  1.00  0.00     0.002 A 
ATOM     96  C   UNL     1      15.029 -17.039   0.157  1.00  0.00     0.091 A 
ATOM     97  F   UNL     1      15.438 -14.699  -0.072  1.00  0.00    -0.205 F 
ATOM     98  C   UNL     1      14.111 -18.089   0.321  1.00  0.00     0.022 A 
BRANCH  96  99
ATOM     99  S   UNL     1      16.769 -17.472   0.031  1.00  0.00     0.127 S 
ATOM    100  O   UNL     1      17.126 -17.684   1.432  1.00  0.00    -0.237 OA
ATOM    101  O   UNL     1      16.733 -18.689  -0.780  1.00  0.00    -0.237 OA
ATOM    102  O   UNL     1      17.412 -16.338  -0.620  1.00  0.00    -0.744 OA
ENDBRANCH  96  99
ENDBRANCH  69  92
ENDBRANCH  43  44
ENDBRANCH  35  38
ENDBRANCH  33  34
ENDBRANCH  32  33
ENDBRANCH   1  32
TORSDOF 18
