REMARK SMILES Cc1cccc(C(=O)N2CCC[C@H]2c2nnc(SCC(=O)Nc3ccc(C(=O)NCCCCNC(=O)c4ccc(-c5c6nc(c(-c7cccc(S(=O)(=O)[O-])c7F)c7ccc([nH]7)c(-c7cccc(S(=O)(=O)[O-])c7F)c7nc(c(-c8cccc(S(=O)(=O)[O-])c8F)c8ccc5[nH]8)C=C7)C=C6)cc4)cc3)n2C)c1
REMARK SMILES IDX 27 1 28 2 29 3 26 5 23 6 24 7 101 8 25 9 100 10 22 11 20 12
REMARK SMILES IDX 21 13 19 15 18 16 17 17 14 18 15 19 102 20 16 21 103 22
REMARK SMILES IDX 13 23 9 24 10 25 11 26 12 27 7 28 8 29 6 30 1 31 2 32 3 33
REMARK SMILES IDX 104 34 4 35 5 36 30 37 31 38 32 39 33 40 34 41 35 42 36 44
REMARK SMILES IDX 37 45 38 46 99 47 39 48 98 49 40 50 41 51 42 52 92 53 43 54
REMARK SMILES IDX 97 55 91 56 93 57 44 58 96 59 90 60 89 61 45 63 77 64 57 65
REMARK SMILES IDX 76 66 58 67 61 68 75 69 94 70 59 71 60 72 74 74 95 75 62 76
REMARK SMILES IDX 46 77 47 78 55 79 48 80 50 81 56 82 49 83 51 84 52 85 53 86
REMARK SMILES IDX 54 87 78 88 79 89 87 90 80 91 82 92 88 93 81 94 83 95 84 96
REMARK SMILES IDX 85 97 86 98 63 99 64 100 72 101 65 102 67 103 73 104 66 105
REMARK SMILES IDX 68 106 69 107 70 108 71 109
REMARK H PARENT 29 4 22 14 34 43 93 62 61 73
REMARK Flexibility Score: inf
ROOT
ATOM      1  C   UNL     1     -11.108   4.457   1.915  1.00  0.00     0.251 C 
ATOM      2  O   UNL     1     -12.057   3.701   2.131  1.00  0.00    -0.269 OA
ATOM      3  N   UNL     1     -11.391   5.718   1.454  1.00  0.00    -0.352 N 
ATOM      4  H   UNL     1     -12.353   5.884   1.324  1.00  0.00     0.163 HD
ENDROOT
BRANCH   1   5
ATOM      5  C   UNL     1      -9.729   3.973   2.219  1.00  0.00     0.039 A 
ATOM      6  C   UNL     1      -7.212   3.114   3.120  1.00  0.00     0.041 A 
ATOM      7  C   UNL     1      -7.316   4.149   2.203  1.00  0.00     0.027 A 
ATOM      8  C   UNL     1      -8.345   2.387   3.465  1.00  0.00     0.027 A 
ATOM      9  C   UNL     1      -8.561   4.561   1.743  1.00  0.00     0.016 A 
ATOM     10  C   UNL     1      -9.602   2.837   3.040  1.00  0.00     0.016 A 
BRANCH   6  11
ATOM     11  N   UNL     1      -5.974   2.792   3.676  1.00  0.00    -0.325 N 
ATOM     12  C   UNL     1      -5.047   3.670   4.185  1.00  0.00     0.234 C 
ATOM     13  O   UNL     1      -3.925   3.243   4.478  1.00  0.00    -0.274 OA
ATOM     14  H   UNL     1      -5.741   1.836   3.709  1.00  0.00     0.169 HD
BRANCH  12  15
ATOM     15  C   UNL     1      -5.488   5.059   4.627  1.00  0.00     0.178 C 
BRANCH  15  16
ATOM     16  S   UNL     1      -5.119   6.503   3.622  1.00  0.00    -0.076 SA
BRANCH  16  17
ATOM     17  C   UNL     1      -4.083   6.021   2.338  1.00  0.00     0.191 A 
ATOM     18  C   UNL     1      -2.327   5.416   1.188  1.00  0.00     0.156 A 
ATOM     19  N   UNL     1      -3.236   5.855   0.339  1.00  0.00    -0.132 NA
ATOM     20  N   UNL     1      -2.810   5.556   2.471  1.00  0.00    -0.307 N 
ATOM     21  N   UNL     1      -4.339   6.239   1.067  1.00  0.00    -0.123 NA
ATOM     22  C   UNL     1      -2.055   5.300   3.668  1.00  0.00     0.154 C 
BRANCH  18  23
ATOM     23  C   UNL     1      -0.990   4.842   0.884  1.00  0.00     0.154 C 
ATOM     24  N   UNL     1      -1.033   3.759  -0.088  1.00  0.00    -0.328 N 
ATOM     25  C   UNL     1      -0.167   4.055  -1.221  1.00  0.00     0.120 C 
ATOM     26  C   UNL     1       0.854   5.017  -0.629  1.00  0.00     0.024 C 
ATOM     27  C   UNL     1      -0.008   5.864   0.303  1.00  0.00     0.035 C 
BRANCH  24  28
ATOM     28  C   UNL     1      -1.629   2.565   0.276  1.00  0.00     0.254 C 
ATOM     29  O   UNL     1      -2.599   2.503   1.029  1.00  0.00    -0.269 OA
BRANCH  28  30
ATOM     30  C   UNL     1      -0.964   1.282  -0.055  1.00  0.00     0.040 A 
ATOM     31  C   UNL     1       2.550  -0.177   0.015  1.00  0.00     0.044 C 
ATOM     32  C   UNL     1       1.058  -0.074  -0.072  1.00  0.00    -0.050 A 
ATOM     33  C   UNL     1       0.268  -1.222  -0.192  1.00  0.00     0.003 A 
ATOM     34  C   UNL     1       0.430   1.172   0.021  1.00  0.00     0.017 A 
ATOM     35  C   UNL     1      -1.125  -1.124  -0.241  1.00  0.00     0.001 A 
ATOM     36  C   UNL     1      -1.742   0.126  -0.175  1.00  0.00     0.014 A 
ENDBRANCH  28  30
ENDBRANCH  24  28
ENDBRANCH  18  23
ENDBRANCH  16  17
ENDBRANCH  15  16
ENDBRANCH  12  15
ENDBRANCH   6  11
ENDBRANCH   1   5
BRANCH   3  37
ATOM     37  C   UNL     1     -10.553   6.857   1.118  1.00  0.00     0.116 C 
BRANCH  37  38
ATOM     38  C   UNL     1     -10.155   6.845  -0.370  1.00  0.00     0.023 C 
BRANCH  38  39
ATOM     39  C   UNL     1     -11.283   7.193  -1.347  1.00  0.00     0.023 C 
BRANCH  39  40
ATOM     40  C   UNL     1     -11.783   8.614  -1.176  1.00  0.00     0.116 C 
BRANCH  40  41
ATOM     41  N   UNL     1     -10.898   9.627  -1.708  1.00  0.00    -0.352 N 
ATOM     42  C   UNL     1     -11.005  11.013  -1.710  1.00  0.00     0.251 C 
ATOM     43  H   UNL     1     -10.085   9.277  -2.140  1.00  0.00     0.163 HD
ATOM     44  O   UNL     1     -10.286  11.628  -2.464  1.00  0.00    -0.269 OA
BRANCH  42  45
ATOM     45  C   UNL     1     -11.831  11.726  -0.685  1.00  0.00     0.039 A 
ATOM     46  C   UNL     1     -11.482  13.052  -0.383  1.00  0.00     0.014 A 
ATOM     47  C   UNL     1     -12.677  11.046   0.176  1.00  0.00     0.014 A 
ATOM     48  C   UNL     1     -11.729  13.559   0.890  1.00  0.00     0.010 A 
ATOM     49  C   UNL     1     -12.754  11.454   1.479  1.00  0.00     0.010 A 
ATOM     50  C   UNL     1     -12.234  12.696   1.844  1.00  0.00    -0.014 A 
BRANCH  50  51
ATOM     51  C   UNL     1     -12.420  12.980   3.250  1.00  0.00     0.031 A 
ATOM     52  C   UNL     1     -13.798  13.261   3.688  1.00  0.00     0.074 A 
ATOM     53  C   UNL     1     -11.458  12.529   4.082  1.00  0.00     0.049 A 
ATOM     54  N   UNL     1     -14.158  13.338   4.914  1.00  0.00    -0.248 NA
ATOM     55  C   UNL     1     -14.899  13.463   2.747  1.00  0.00     0.031 C 
ATOM     56  C   UNL     1     -11.594  12.048   5.452  1.00  0.00     0.029 A 
ATOM     57  N   UNL     1     -10.081  12.610   3.888  1.00  0.00    -0.354 N 
ATOM     58  C   UNL     1     -15.535  13.355   4.947  1.00  0.00     0.074 A 
ATOM     59  C   UNL     1     -15.946  13.506   3.576  1.00  0.00     0.031 C 
ATOM     60  C   UNL     1     -10.396  12.107   6.058  1.00  0.00     0.029 A 
ATOM     61  C   UNL     1      -9.510  12.823   5.156  1.00  0.00     0.049 A 
ATOM     62  H   UNL     1      -9.602  12.533   3.031  1.00  0.00     0.167 HD
ATOM     63  C   UNL     1     -16.133  13.127   6.147  1.00  0.00     0.034 A 
ATOM     64  C   UNL     1      -8.945  14.039   5.440  1.00  0.00     0.034 A 
ATOM     65  C   UNL     1     -15.123  13.189   7.213  1.00  0.00     0.049 A 
ATOM     66  C   UNL     1      -9.662  14.792   6.548  1.00  0.00     0.074 A 
ATOM     67  C   UNL     1     -14.397  12.230   7.898  1.00  0.00     0.029 A 
ATOM     68  N   UNL     1     -14.498  14.407   7.453  1.00  0.00    -0.354 N 
ATOM     69  N   UNL     1     -10.869  14.518   6.968  1.00  0.00    -0.248 NA
ATOM     70  C   UNL     1      -9.053  15.875   7.312  1.00  0.00     0.031 C 
ATOM     71  C   UNL     1     -13.262  12.876   8.468  1.00  0.00     0.029 A 
ATOM     72  C   UNL     1     -13.327  14.227   8.168  1.00  0.00     0.049 A 
ATOM     73  H   UNL     1     -14.841  15.280   7.153  1.00  0.00     0.167 HD
ATOM     74  C   UNL     1     -11.235  15.382   7.968  1.00  0.00     0.074 A 
ATOM     75  C   UNL     1     -10.036  16.177   8.180  1.00  0.00     0.031 C 
ATOM     76  C   UNL     1     -12.497  15.380   8.508  1.00  0.00     0.034 A 
BRANCH  63  77
ATOM     77  C   UNL     1     -17.564  12.695   6.402  1.00  0.00     0.023 A 
ATOM     78  C   UNL     1     -17.891  12.379   7.742  1.00  0.00     0.012 A 
ATOM     79  C   UNL     1     -18.589  12.475   5.450  1.00  0.00     0.148 A 
ATOM     80  C   UNL     1     -19.129  11.846   8.114  1.00  0.00     0.002 A 
ATOM     81  C   UNL     1     -19.841  11.972   5.824  1.00  0.00     0.091 A 
ATOM     82  F   UNL     1     -18.366  12.700   4.156  1.00  0.00    -0.205 F 
ATOM     83  C   UNL     1     -20.108  11.643   7.155  1.00  0.00     0.022 A 
BRANCH  81  84
ATOM     84  S   UNL     1     -21.177  11.696   4.643  1.00  0.00     0.127 S 
ATOM     85  O   UNL     1     -21.326  10.241   4.686  1.00  0.00    -0.237 OA
ATOM     86  O   UNL     1     -22.286  12.437   5.243  1.00  0.00    -0.237 OA
ATOM     87  O   UNL     1     -20.717  12.225   3.365  1.00  0.00    -0.744 OA
ENDBRANCH  81  84
ENDBRANCH  63  77
BRANCH  64  88
ATOM     88  C   UNL     1      -8.284  14.633   4.228  1.00  0.00     0.023 A 
ATOM     89  C   UNL     1      -7.250  13.852   3.646  1.00  0.00     0.012 A 
ATOM     90  C   UNL     1      -8.931  15.595   3.430  1.00  0.00     0.148 A 
ATOM     91  C   UNL     1      -7.024  13.873   2.269  1.00  0.00     0.002 A 
ATOM     92  C   UNL     1      -8.667  15.639   2.058  1.00  0.00     0.091 A 
ATOM     93  F   UNL     1      -9.833  16.403   4.002  1.00  0.00    -0.205 F 
ATOM     94  C   UNL     1      -7.766  14.735   1.470  1.00  0.00     0.022 A 
BRANCH  92  95
ATOM     95  S   UNL     1      -9.535  16.770   0.959  1.00  0.00     0.127 S 
ATOM     96  O   UNL     1      -8.609  17.899   0.909  1.00  0.00    -0.237 OA
ATOM     97  O   UNL     1      -9.631  16.007  -0.286  1.00  0.00    -0.237 OA
ATOM     98  O   UNL     1     -10.816  17.017   1.603  1.00  0.00    -0.744 OA
ENDBRANCH  92  95
ENDBRANCH  64  88
BRANCH  76  99
ATOM     99  C   UNL     1     -13.098  16.463   9.401  1.00  0.00     0.023 A 
ATOM    100  C   UNL     1     -12.509  17.730   9.560  1.00  0.00     0.012 A 
ATOM    101  C   UNL     1     -14.381  16.292   9.995  1.00  0.00     0.148 A 
ATOM    102  C   UNL     1     -13.122  18.752  10.297  1.00  0.00     0.002 A 
ATOM    103  C   UNL     1     -15.043  17.350  10.613  1.00  0.00     0.091 A 
ATOM    104  F   UNL     1     -14.973  15.089   9.992  1.00  0.00    -0.205 F 
ATOM    105  C   UNL     1     -14.403  18.573  10.797  1.00  0.00     0.022 A 
BRANCH 103 106
ATOM    106  S   UNL     1     -16.790  17.237  11.034  1.00  0.00     0.127 S 
ATOM    107  O   UNL     1     -16.737  16.890  12.451  1.00  0.00    -0.237 OA
ATOM    108  O   UNL     1     -17.265  18.594  10.755  1.00  0.00    -0.237 OA
ATOM    109  O   UNL     1     -17.332  16.222  10.141  1.00  0.00    -0.744 OA
ENDBRANCH 103 106
ENDBRANCH  76  99
ENDBRANCH  50  51
ENDBRANCH  42  45
ENDBRANCH  40  41
ENDBRANCH  39  40
ENDBRANCH  38  39
ENDBRANCH  37  38
ENDBRANCH   3  37
TORSDOF 21
