REMARK SMILES CC1=NN(c2ccc(Cl)cc2)C(=O)/C1=C/c1ccccc1OCC(=O)NCCCCNC(=O)c1ccc(-c2c3nc(c(-c4cccc(S(=O)(=O)[O-])c4F)c4ccc([nH]4)c(-c4cccc(S(=O)(=O)[O-])c4F)c4nc(c(-c5cccc(S(=O)(=O)[O-])c5F)c5ccc2[nH]5)C=C4)C=C3)cc1
REMARK SMILES IDX 28 1 27 2 26 3 24 4 25 5 23 7 22 8 21 9 16 10 17 11 18 12
REMARK SMILES IDX 20 13 19 14 15 15 1 16 2 17 3 18 14 19 4 20 12 21 13 22 5 23
REMARK SMILES IDX 6 24 11 25 7 26 10 27 8 28 9 29 29 30 30 31 31 32 32 33
REMARK SMILES IDX 33 35 34 36 35 37 96 38 36 39 95 40 37 41 38 42 39 43 89 44
REMARK SMILES IDX 40 45 94 46 88 47 90 48 41 49 93 50 87 51 86 52 42 54 74 55
REMARK SMILES IDX 54 56 73 57 55 58 58 59 72 60 91 61 56 62 57 63 71 65 92 66
REMARK SMILES IDX 59 67 43 68 44 69 52 70 45 71 47 72 53 73 46 74 48 75 49 76
REMARK SMILES IDX 50 77 51 78 75 79 76 80 84 81 77 82 79 83 85 84 78 85 80 86
REMARK SMILES IDX 81 87 82 88 83 89 60 90 61 91 69 92 62 93 64 94 70 95 63 96
REMARK SMILES IDX 65 97 66 98 67 99 68 100
REMARK H PARENT 26 6 31 34 90 53 58 64
REMARK Flexibility Score: inf
ROOT
ATOM      1  C   UNL     1      -4.676  -0.268  -1.127  1.00  0.00     0.023 C 
ENDROOT
BRANCH   1   2
ATOM      2  C   UNL     1      -3.704   0.382  -2.108  1.00  0.00     0.116 C 
BRANCH   2   3
ATOM      3  N   UNL     1      -2.391   0.685  -1.579  1.00  0.00    -0.353 N 
ATOM      4  C   UNL     1      -1.204   0.163  -2.010  1.00  0.00     0.257 C 
ATOM      5  O   UNL     1      -0.190   0.859  -1.922  1.00  0.00    -0.271 OA
ATOM      6  H   UNL     1      -2.349   1.329  -0.836  1.00  0.00     0.163 HD
BRANCH   4   7
ATOM      7  C   UNL     1      -1.133  -1.236  -2.627  1.00  0.00     0.329 C 
BRANCH   7   8
ATOM      8  O   UNL     1      -2.073  -2.189  -2.185  1.00  0.00    -0.483 OA
BRANCH   8   9
ATOM      9  C   UNL     1      -1.867  -3.028  -1.128  1.00  0.00     0.127 A 
ATOM     10  C   UNL     1      -0.863  -3.047  -0.143  1.00  0.00     0.017 A 
ATOM     11  C   UNL     1      -0.920  -4.024   0.873  1.00  0.00     0.012 A 
ATOM     12  C   UNL     1      -1.949  -4.966   0.917  1.00  0.00     0.001 A 
ATOM     13  C   UNL     1      -2.890  -3.992  -1.066  1.00  0.00     0.047 A 
ATOM     14  C   UNL     1      -2.934  -4.954  -0.058  1.00  0.00     0.004 A 
BRANCH  10  15
ATOM     15  C   UNL     1       0.284  -2.141  -0.079  1.00  0.00     0.027 C 
ATOM     16  C   UNL     1      -1.905  -0.699   1.861  1.00  0.00     0.069 C 
ATOM     17  C   UNL     1      -0.617  -0.171   1.335  1.00  0.00     0.071 C 
ATOM     18  N   UNL     1      -0.213   1.060   1.518  1.00  0.00    -0.169 NA
ATOM     19  C   UNL     1       0.338  -0.956   0.541  1.00  0.00     0.066 C 
ATOM     20  N   UNL     1       1.012   1.166   0.857  1.00  0.00    -0.196 N 
ATOM     21  C   UNL     1       1.483  -0.041   0.316  1.00  0.00     0.280 C 
ATOM     22  O   UNL     1       2.523  -0.340  -0.240  1.00  0.00    -0.267 OA
BRANCH  20  23
ATOM     23  C   UNL     1       1.553   2.455   0.636  1.00  0.00     0.069 A 
ATOM     24  C   UNL     1       2.462   2.685  -0.409  1.00  0.00     0.030 A 
ATOM     25  C   UNL     1       1.140   3.547   1.412  1.00  0.00     0.030 A 
ATOM     26  C   UNL     1       2.946   3.970  -0.672  1.00  0.00     0.023 A 
ATOM     27  C   UNL     1       1.643   4.831   1.167  1.00  0.00     0.023 A 
ATOM     28  C   UNL     1       2.542   5.036   0.124  1.00  0.00     0.041 A 
ATOM     29  Cl  UNL     1       3.151   6.613  -0.195  1.00  0.00    -0.084 Cl
ENDBRANCH  20  23
ENDBRANCH  10  15
ENDBRANCH   8   9
ENDBRANCH   7   8
ENDBRANCH   4   7
ENDBRANCH   2   3
ENDBRANCH   1   2
BRANCH   1  30
ATOM     30  C   UNL     1      -5.032   0.505   0.144  1.00  0.00     0.023 C 
BRANCH  30  31
ATOM     31  C   UNL     1      -5.280   2.001   0.011  1.00  0.00     0.116 C 
BRANCH  31  32
ATOM     32  N   UNL     1      -6.380   2.313  -0.881  1.00  0.00    -0.352 N 
ATOM     33  C   UNL     1      -7.491   3.094  -0.673  1.00  0.00     0.251 C 
ATOM     34  H   UNL     1      -6.321   1.901  -1.774  1.00  0.00     0.163 HD
ATOM     35  O   UNL     1      -8.378   3.099  -1.524  1.00  0.00    -0.269 OA
BRANCH  33  36
ATOM     36  C   UNL     1      -7.646   3.906   0.559  1.00  0.00     0.039 A 
ATOM     37  C   UNL     1      -8.915   3.992   1.142  1.00  0.00     0.014 A 
ATOM     38  C   UNL     1      -6.583   4.622   1.117  1.00  0.00     0.014 A 
ATOM     39  C   UNL     1      -9.107   4.759   2.295  1.00  0.00     0.010 A 
ATOM     40  C   UNL     1      -6.760   5.326   2.310  1.00  0.00     0.010 A 
ATOM     41  C   UNL     1      -8.028   5.419   2.905  1.00  0.00    -0.014 A 
BRANCH  41  42
ATOM     42  C   UNL     1      -8.220   6.208   4.153  1.00  0.00     0.031 A 
ATOM     43  C   UNL     1      -7.961   7.694   4.170  1.00  0.00     0.074 A 
ATOM     44  C   UNL     1      -8.573   5.579   5.293  1.00  0.00     0.049 A 
ATOM     45  N   UNL     1      -8.073   8.539   5.163  1.00  0.00    -0.248 NA
ATOM     46  C   UNL     1      -7.492   8.311   2.917  1.00  0.00     0.031 C 
ATOM     47  C   UNL     1      -8.770   4.135   5.437  1.00  0.00     0.029 A 
ATOM     48  N   UNL     1      -8.803   6.070   6.556  1.00  0.00    -0.354 N 
ATOM     49  C   UNL     1      -7.648   9.768   4.673  1.00  0.00     0.074 A 
ATOM     50  C   UNL     1      -7.257   9.559   3.297  1.00  0.00     0.031 C 
ATOM     51  C   UNL     1      -9.093   3.858   6.711  1.00  0.00     0.029 A 
ATOM     52  C   UNL     1      -9.103   5.096   7.482  1.00  0.00     0.049 A 
ATOM     53  H   UNL     1      -8.758   7.028   6.777  1.00  0.00     0.167 HD
ATOM     54  C   UNL     1      -7.606  10.967   5.302  1.00  0.00     0.034 A 
ATOM     55  C   UNL     1      -9.352   5.189   8.804  1.00  0.00     0.034 A 
ATOM     56  C   UNL     1      -8.050  11.187   6.653  1.00  0.00     0.049 A 
ATOM     57  C   UNL     1      -9.371   6.547   9.453  1.00  0.00     0.074 A 
ATOM     58  C   UNL     1      -8.155  12.386   7.338  1.00  0.00     0.029 A 
ATOM     59  N   UNL     1      -8.451  10.191   7.528  1.00  0.00    -0.354 N 
ATOM     60  N   UNL     1      -9.148   7.723   8.917  1.00  0.00    -0.248 NA
ATOM     61  C   UNL     1      -9.724   6.597  10.880  1.00  0.00     0.031 C 
ATOM     62  C   UNL     1      -8.589  12.111   8.638  1.00  0.00     0.029 A 
ATOM     63  C   UNL     1      -8.792  10.746   8.750  1.00  0.00     0.049 A 
ATOM     64  H   UNL     1      -8.487   9.232   7.313  1.00  0.00     0.167 HD
ATOM     65  C   UNL     1      -9.379   8.651   9.927  1.00  0.00     0.074 A 
ATOM     66  C   UNL     1      -9.782   7.903  11.098  1.00  0.00     0.031 C 
ATOM     67  C   UNL     1      -9.254  10.000   9.891  1.00  0.00     0.034 A 
BRANCH  54  68
ATOM     68  C   UNL     1      -7.103  12.161   4.532  1.00  0.00     0.023 A 
ATOM     69  C   UNL     1      -7.901  12.729   3.518  1.00  0.00     0.012 A 
ATOM     70  C   UNL     1      -5.890  12.784   4.887  1.00  0.00     0.148 A 
ATOM     71  C   UNL     1      -7.489  13.884   2.854  1.00  0.00     0.002 A 
ATOM     72  C   UNL     1      -5.509  13.961   4.254  1.00  0.00     0.091 A 
ATOM     73  F   UNL     1      -5.138  12.219   5.842  1.00  0.00    -0.205 F 
ATOM     74  C   UNL     1      -6.302  14.506   3.231  1.00  0.00     0.022 A 
BRANCH  72  75
ATOM     75  S   UNL     1      -4.045  14.889   4.727  1.00  0.00     0.127 S 
ATOM     76  O   UNL     1      -3.207  14.742   3.538  1.00  0.00    -0.237 OA
ATOM     77  O   UNL     1      -4.588  16.233   4.927  1.00  0.00    -0.237 OA
ATOM     78  O   UNL     1      -3.534  14.252   5.931  1.00  0.00    -0.744 OA
ENDBRANCH  72  75
ENDBRANCH  54  68
BRANCH  55  79
ATOM     79  C   UNL     1      -9.663   3.966   9.601  1.00  0.00     0.023 A 
ATOM     80  C   UNL     1     -10.958   3.790  10.129  1.00  0.00     0.012 A 
ATOM     81  C   UNL     1      -8.683   2.987   9.849  1.00  0.00     0.148 A 
ATOM     82  C   UNL     1     -11.255   2.689  10.932  1.00  0.00     0.002 A 
ATOM     83  C   UNL     1      -9.004   1.861  10.600  1.00  0.00     0.091 A 
ATOM     84  F   UNL     1      -7.453   3.176   9.351  1.00  0.00    -0.205 F 
ATOM     85  C   UNL     1     -10.282   1.721  11.161  1.00  0.00     0.022 A 
BRANCH  83  86
ATOM     86  S   UNL     1      -7.849   0.504  10.825  1.00  0.00     0.127 S 
ATOM     87  O   UNL     1      -7.413   0.705  12.203  1.00  0.00    -0.237 OA
ATOM     88  O   UNL     1      -8.706  -0.664  10.613  1.00  0.00    -0.237 OA
ATOM     89  O   UNL     1      -6.830   0.687   9.799  1.00  0.00    -0.744 OA
ENDBRANCH  83  86
ENDBRANCH  55  79
BRANCH  67  90
ATOM     90  C   UNL     1      -9.616  10.770  11.135  1.00  0.00     0.023 A 
ATOM     91  C   UNL     1      -8.797  10.695  12.279  1.00  0.00     0.012 A 
ATOM     92  C   UNL     1     -10.747  11.610  11.150  1.00  0.00     0.148 A 
ATOM     93  C   UNL     1      -9.124  11.405  13.433  1.00  0.00     0.002 A 
ATOM     94  C   UNL     1     -11.037  12.357  12.285  1.00  0.00     0.091 A 
ATOM     95  F   UNL     1     -11.527  11.655  10.060  1.00  0.00    -0.205 F 
ATOM     96  C   UNL     1     -10.236  12.244  13.433  1.00  0.00     0.022 A 
BRANCH  94  97
ATOM     97  S   UNL     1     -12.390  13.538  12.332  1.00  0.00     0.127 S 
ATOM     98  O   UNL     1     -13.389  12.815  13.117  1.00  0.00    -0.237 OA
ATOM     99  O   UNL     1     -11.785  14.680  13.020  1.00  0.00    -0.237 OA
ATOM    100  O   UNL     1     -12.745  13.792  10.943  1.00  0.00    -0.744 OA
ENDBRANCH  94  97
ENDBRANCH  67  90
ENDBRANCH  41  42
ENDBRANCH  33  36
ENDBRANCH  31  32
ENDBRANCH  30  31
ENDBRANCH   1  30
TORSDOF 18
