REMARK SMILES O=C(NCCCCNC(=O)[C@@H]1CCCC[C@H]1C(=O)Nc1ccc(NC(=O)c2ccco2)cc1)c1ccc(-c2c3nc(c(-c4cccc(S(=O)(=O)[O-])c4F)c4ccc([nH]4)c(-c4cccc(S(=O)(=O)[O-])c4F)c4nc(c(-c5cccc(S(=O)(=O)[O-])c5F)c5ccc2[nH]5)C=C4)C=C3)cc1
REMARK SMILES IDX 6 1 5 2 4 3 3 4 1 5 2 6 34 8 35 9 96 10 36 11 95 12 37 13
REMARK SMILES IDX 38 14 39 15 89 16 40 17 94 18 88 19 90 20 41 21 93 22 87 23
REMARK SMILES IDX 86 24 42 26 74 27 54 28 73 29 55 30 58 31 72 32 91 33 56 34
REMARK SMILES IDX 57 35 71 37 92 38 59 39 43 40 44 41 52 42 45 43 47 44 53 45
REMARK SMILES IDX 46 46 48 47 49 48 50 49 51 50 75 51 76 52 84 53 77 54 79 55
REMARK SMILES IDX 85 56 78 57 80 58 81 59 82 60 83 61 60 62 61 63 69 64 62 65
REMARK SMILES IDX 64 66 70 67 63 68 65 69 66 70 67 71 68 72 7 73 8 74 9 75
REMARK SMILES IDX 10 77 11 78 12 79 16 80 13 81 15 82 14 83 17 84 18 85 19 86
REMARK SMILES IDX 20 88 21 89 33 90 22 91 32 92 23 93 24 94 25 95 26 97 27 98
REMARK SMILES IDX 28 99 31 100 29 101 30 102
REMARK H PARENT 3 7 90 25 58 36 8 76 19 87 24 96
REMARK Flexibility Score: inf
ROOT
ATOM      1  C   UNL     1       4.276  -3.505  -1.206  1.00  0.00     0.023 C 
ENDROOT
BRANCH   1   2
ATOM      2  C   UNL     1       4.737  -2.748   0.043  1.00  0.00     0.023 C 
BRANCH   2   3
ATOM      3  C   UNL     1       4.438  -1.255   0.038  1.00  0.00     0.116 C 
BRANCH   3   4
ATOM      4  N   UNL     1       3.056  -0.938  -0.293  1.00  0.00    -0.352 N 
ATOM      5  O   UNL     1       1.145   0.264  -0.204  1.00  0.00    -0.269 OA
ATOM      6  C   UNL     1       2.330   0.165   0.090  1.00  0.00     0.251 C 
ATOM      7  H   UNL     1       2.585  -1.592  -0.859  1.00  0.00     0.163 HD
BRANCH   6   8
ATOM      8  C   UNL     1       3.003   1.191   0.908  1.00  0.00     0.039 A 
ATOM      9  C   UNL     1       4.221   1.728   0.486  1.00  0.00     0.014 A 
ATOM     10  C   UNL     1       2.463   1.530   2.149  1.00  0.00     0.014 A 
ATOM     11  C   UNL     1       4.977   2.478   1.375  1.00  0.00     0.010 A 
ATOM     12  C   UNL     1       3.191   2.352   3.010  1.00  0.00     0.010 A 
ATOM     13  C   UNL     1       4.475   2.790   2.650  1.00  0.00    -0.014 A 
BRANCH  13  14
ATOM     14  C   UNL     1       5.309   3.592   3.578  1.00  0.00     0.031 A 
ATOM     15  C   UNL     1       5.821   3.008   4.867  1.00  0.00     0.074 A 
ATOM     16  C   UNL     1       5.625   4.854   3.230  1.00  0.00     0.049 A 
ATOM     17  N   UNL     1       6.606   3.555   5.759  1.00  0.00    -0.248 NA
ATOM     18  C   UNL     1       5.393   1.641   5.207  1.00  0.00     0.031 C 
ATOM     19  C   UNL     1       5.150   5.535   2.024  1.00  0.00     0.029 A 
ATOM     20  N   UNL     1       6.426   5.781   3.843  1.00  0.00    -0.354 N 
ATOM     21  C   UNL     1       6.725   2.627   6.786  1.00  0.00     0.074 A 
ATOM     22  C   UNL     1       5.931   1.477   6.408  1.00  0.00     0.031 C 
ATOM     23  C   UNL     1       5.700   6.756   1.963  1.00  0.00     0.029 A 
ATOM     24  C   UNL     1       6.532   6.960   3.144  1.00  0.00     0.049 A 
ATOM     25  H   UNL     1       6.882   5.619   4.700  1.00  0.00     0.167 HD
ATOM     26  C   UNL     1       7.443   2.718   7.931  1.00  0.00     0.034 A 
ATOM     27  C   UNL     1       7.223   8.082   3.420  1.00  0.00     0.034 A 
ATOM     28  C   UNL     1       8.279   3.839   8.271  1.00  0.00     0.049 A 
ATOM     29  C   UNL     1       8.066   8.125   4.662  1.00  0.00     0.074 A 
ATOM     30  C   UNL     1       9.099   3.999   9.374  1.00  0.00     0.029 A 
ATOM     31  N   UNL     1       8.408   4.990   7.508  1.00  0.00    -0.354 N 
ATOM     32  N   UNL     1       8.262   7.187   5.557  1.00  0.00    -0.248 NA
ATOM     33  C   UNL     1       8.805   9.368   4.918  1.00  0.00     0.031 C 
ATOM     34  C   UNL     1       9.720   5.249   9.281  1.00  0.00     0.029 A 
ATOM     35  C   UNL     1       9.293   5.865   8.116  1.00  0.00     0.049 A 
ATOM     36  H   UNL     1       7.939   5.160   6.660  1.00  0.00     0.167 HD
ATOM     37  C   UNL     1       9.165   7.717   6.470  1.00  0.00     0.074 A 
ATOM     38  C   UNL     1       9.498   9.048   6.002  1.00  0.00     0.031 C 
ATOM     39  C   UNL     1       9.656   7.161   7.604  1.00  0.00     0.034 A 
BRANCH  26  40
ATOM     40  C   UNL     1       7.398   1.555   8.887  1.00  0.00     0.023 A 
ATOM     41  C   UNL     1       8.124   0.384   8.591  1.00  0.00     0.012 A 
ATOM     42  C   UNL     1       6.699   1.645  10.107  1.00  0.00     0.148 A 
ATOM     43  C   UNL     1       8.138  -0.688   9.484  1.00  0.00     0.002 A 
ATOM     44  C   UNL     1       6.746   0.586  11.008  1.00  0.00     0.091 A 
ATOM     45  F   UNL     1       5.991   2.755  10.361  1.00  0.00    -0.205 F 
ATOM     46  C   UNL     1       7.459  -0.583  10.696  1.00  0.00     0.022 A 
BRANCH  44  47
ATOM     47  S   UNL     1       5.960   0.664  12.623  1.00  0.00     0.127 S 
ATOM     48  O   UNL     1       4.752  -0.128  12.401  1.00  0.00    -0.237 OA
ATOM     49  O   UNL     1       6.955   0.028  13.488  1.00  0.00    -0.237 OA
ATOM     50  O   UNL     1       5.749   2.080  12.890  1.00  0.00    -0.744 OA
ENDBRANCH  44  47
ENDBRANCH  26  40
BRANCH  27  51
ATOM     51  C   UNL     1       7.204   9.212   2.452  1.00  0.00     0.023 A 
ATOM     52  C   UNL     1       8.361   9.496   1.702  1.00  0.00     0.012 A 
ATOM     53  C   UNL     1       6.033   9.957   2.217  1.00  0.00     0.148 A 
ATOM     54  C   UNL     1       8.357  10.513   0.747  1.00  0.00     0.002 A 
ATOM     55  C   UNL     1       6.019  10.929   1.224  1.00  0.00     0.091 A 
ATOM     56  F   UNL     1       4.947   9.687   2.955  1.00  0.00    -0.205 F 
ATOM     57  C   UNL     1       7.183  11.219   0.497  1.00  0.00     0.022 A 
BRANCH  55  58
ATOM     58  S   UNL     1       4.504  11.766   0.742  1.00  0.00     0.127 S 
ATOM     59  O   UNL     1       4.636  13.046   1.431  1.00  0.00    -0.237 OA
ATOM     60  O   UNL     1       4.636  11.832  -0.714  1.00  0.00    -0.237 OA
ATOM     61  O   UNL     1       3.426  10.898   1.200  1.00  0.00    -0.744 OA
ENDBRANCH  55  58
ENDBRANCH  27  51
BRANCH  39  62
ATOM     62  C   UNL     1      10.624   7.984   8.410  1.00  0.00     0.023 A 
ATOM     63  C   UNL     1      10.143   9.058   9.185  1.00  0.00     0.012 A 
ATOM     64  C   UNL     1      11.993   7.660   8.448  1.00  0.00     0.148 A 
ATOM     65  C   UNL     1      11.017   9.817   9.962  1.00  0.00     0.002 A 
ATOM     66  C   UNL     1      12.852   8.396   9.257  1.00  0.00     0.091 A 
ATOM     67  F   UNL     1      12.437   6.651   7.684  1.00  0.00    -0.205 F 
ATOM     68  C   UNL     1      12.368   9.479  10.007  1.00  0.00     0.022 A 
BRANCH  66  69
ATOM     69  S   UNL     1      14.587   7.963   9.430  1.00  0.00     0.127 S 
ATOM     70  O   UNL     1      15.219   8.873   8.477  1.00  0.00    -0.237 OA
ATOM     71  O   UNL     1      14.854   8.271  10.836  1.00  0.00    -0.237 OA
ATOM     72  O   UNL     1      14.668   6.545   9.104  1.00  0.00    -0.744 OA
ENDBRANCH  66  69
ENDBRANCH  39  62
ENDBRANCH  13  14
ENDBRANCH   6   8
ENDBRANCH   3   4
ENDBRANCH   2   3
ENDBRANCH   1   2
BRANCH   1  73
ATOM     73  C   UNL     1       4.825  -2.946  -2.518  1.00  0.00     0.116 C 
BRANCH  73  74
ATOM     74  N   UNL     1       6.205  -3.324  -2.701  1.00  0.00    -0.356 N 
ATOM     75  C   UNL     1       6.806  -4.435  -3.177  1.00  0.00     0.223 C 
ATOM     76  H   UNL     1       6.840  -2.626  -2.421  1.00  0.00     0.163 HD
ATOM     77  O   UNL     1       8.039  -4.400  -3.107  1.00  0.00    -0.275 OA
BRANCH  75  78
ATOM     78  C   UNL     1       6.095  -5.592  -3.911  1.00  0.00     0.091 C 
ATOM     79  C   UNL     1       4.647  -5.940  -3.527  1.00  0.00     0.014 C 
ATOM     80  C   UNL     1       6.978  -6.869  -3.830  1.00  0.00     0.091 C 
ATOM     81  C   UNL     1       4.091  -7.102  -4.349  1.00  0.00     0.001 C 
ATOM     82  C   UNL     1       6.373  -8.085  -4.556  1.00  0.00     0.014 C 
ATOM     83  C   UNL     1       4.930  -8.348  -4.149  1.00  0.00     0.001 C 
BRANCH  80  84
ATOM     84  C   UNL     1       8.487  -6.801  -4.156  1.00  0.00     0.228 C 
ATOM     85  O   UNL     1       9.294  -7.205  -3.305  1.00  0.00    -0.274 OA
ATOM     86  N   UNL     1       9.007  -6.541  -5.393  1.00  0.00    -0.326 N 
ATOM     87  H   UNL     1       9.988  -6.602  -5.444  1.00  0.00     0.169 HD
BRANCH  86  88
ATOM     88  C   UNL     1       8.386  -6.204  -6.593  1.00  0.00     0.041 A 
ATOM     89  C   UNL     1       8.653  -6.985  -7.711  1.00  0.00     0.028 A 
ATOM     90  C   UNL     1       7.559  -5.102  -6.734  1.00  0.00     0.028 A 
ATOM     91  C   UNL     1       7.916  -6.801  -8.885  1.00  0.00     0.028 A 
ATOM     92  C   UNL     1       6.791  -4.941  -7.891  1.00  0.00     0.028 A 
ATOM     93  C   UNL     1       6.902  -5.848  -8.949  1.00  0.00     0.041 A 
BRANCH  93  94
ATOM     94  N   UNL     1       5.955  -5.726  -9.982  1.00  0.00    -0.319 N 
ATOM     95  C   UNL     1       5.627  -6.512 -11.069  1.00  0.00     0.291 C 
ATOM     96  H   UNL     1       5.411  -4.908  -9.915  1.00  0.00     0.170 HD
ATOM     97  O   UNL     1       4.696  -6.125 -11.779  1.00  0.00    -0.265 OA
BRANCH  95  98
ATOM     98  C   UNL     1       6.330  -7.740 -11.329  1.00  0.00     0.191 A 
ATOM     99  C   UNL     1       6.269  -8.995 -10.747  1.00  0.00     0.056 A 
ATOM    100  O   UNL     1       7.261  -7.747 -12.332  1.00  0.00    -0.459 OA
ATOM    101  C   UNL     1       7.245  -9.789 -11.400  1.00  0.00     0.043 A 
ATOM    102  C   UNL     1       7.812  -8.986 -12.362  1.00  0.00     0.196 A 
ENDBRANCH  95  98
ENDBRANCH  93  94
ENDBRANCH  86  88
ENDBRANCH  80  84
ENDBRANCH  75  78
ENDBRANCH  73  74
ENDBRANCH   1  73
TORSDOF 18
