REMARK SMILES COc1ccc([C@H]2CC(c3ccc(S(C)(=O)=O)cc3)=NN2c2ccc(C(=O)NCCCCNC(=O)c3ccc(-c4c5nc(c(-c6cccc(S(=O)(=O)[O-])c6F)c6ccc([nH]6)c(-c6cccc(S(=O)(=O)[O-])c6F)c6nc(c(-c7cccc(S(=O)(=O)[O-])c7F)c7ccc4[nH]7)C=C6)C=C5)cc3)cc2)cc1
REMARK SMILES IDX 30 1 29 2 28 3 26 4 27 5 25 7 22 8 23 9 100 10 24 11 99 12
REMARK SMILES IDX 21 13 7 14 8 15 9 16 20 17 6 18 3 19 4 20 102 21 5 22 101 23
REMARK SMILES IDX 2 24 1 25 10 26 11 27 19 28 12 29 18 30 13 31 14 32 15 33
REMARK SMILES IDX 16 34 17 35 31 36 32 37 33 38 34 39 35 41 36 42 37 43 98 44
REMARK SMILES IDX 38 45 97 46 39 47 40 48 41 49 91 50 42 51 96 52 90 53 92 54
REMARK SMILES IDX 43 55 95 56 89 57 88 58 44 60 76 61 56 62 75 63 57 64 60 65
REMARK SMILES IDX 74 66 93 67 58 68 59 69 73 71 94 72 61 73 45 74 46 75 54 76
REMARK SMILES IDX 47 77 49 78 55 79 48 80 50 81 51 82 52 83 53 84 77 85 78 86
REMARK SMILES IDX 86 87 79 88 81 89 87 90 80 91 82 92 83 93 84 94 85 95 62 96
REMARK SMILES IDX 63 97 71 98 64 99 66 100 72 101 65 102 67 103 68 104 69 105
REMARK SMILES IDX 70 106
REMARK H PARENT 28 6 33 40 92 59 60 70
REMARK Flexibility Score: inf
ROOT
ATOM      1  C   UNL     1       1.063  11.574  -1.749  1.00  0.00     0.023 C 
ENDROOT
BRANCH   1   2
ATOM      2  C   UNL     1       1.102  10.172  -2.362  1.00  0.00     0.116 C 
BRANCH   2   3
ATOM      3  N   UNL     1       2.429   9.878  -2.862  1.00  0.00    -0.352 N 
ATOM      4  C   UNL     1       3.491   9.203  -2.320  1.00  0.00     0.251 C 
ATOM      5  O   UNL     1       4.513   9.111  -3.001  1.00  0.00    -0.269 OA
ATOM      6  H   UNL     1       2.601  10.231  -3.765  1.00  0.00     0.163 HD
BRANCH   4   7
ATOM      7  C   UNL     1       3.451   8.531  -0.988  1.00  0.00     0.039 A 
ATOM      8  C   UNL     1       3.462   7.059   1.434  1.00  0.00     0.060 A 
ATOM      9  C   UNL     1       4.354   6.750   0.404  1.00  0.00     0.029 A 
ATOM     10  C   UNL     1       2.612   8.154   1.263  1.00  0.00     0.029 A 
ATOM     11  C   UNL     1       4.336   7.460  -0.800  1.00  0.00     0.016 A 
ATOM     12  C   UNL     1       2.634   8.905   0.081  1.00  0.00     0.016 A 
BRANCH   8  13
ATOM     13  N   UNL     1       3.461   6.300   2.592  1.00  0.00    -0.257 N 
ATOM     14  C   UNL     1       2.264   5.691   3.172  1.00  0.00     0.144 C 
ATOM     15  C   UNL     1       2.750   5.247   4.558  1.00  0.00     0.091 C 
ATOM     16  C   UNL     1       4.125   5.850   4.554  1.00  0.00     0.071 C 
ATOM     17  N   UNL     1       4.498   6.430   3.459  1.00  0.00    -0.176 NA
BRANCH  14  18
ATOM     18  C   UNL     1       1.764   4.529   2.331  1.00  0.00    -0.023 A 
ATOM     19  C   UNL     1       0.813   2.363   0.788  1.00  0.00     0.118 A 
ATOM     20  C   UNL     1      -0.026   3.431   1.107  1.00  0.00     0.047 A 
ATOM     21  C   UNL     1       2.139   2.389   1.214  1.00  0.00     0.047 A 
ATOM     22  C   UNL     1       0.439   4.502   1.877  1.00  0.00     0.010 A 
ATOM     23  C   UNL     1       2.610   3.464   1.976  1.00  0.00     0.010 A 
BRANCH  19  24
ATOM     24  O   UNL     1       0.236   1.379   0.033  1.00  0.00    -0.497 OA
ATOM     25  C   UNL     1       0.890   0.116   0.038  1.00  0.00     0.278 C 
ENDBRANCH  19  24
ENDBRANCH  14  18
BRANCH  16  26
ATOM     26  C   UNL     1       4.976   5.797   5.742  1.00  0.00    -0.002 A 
ATOM     27  C   UNL     1       5.360   6.996   6.351  1.00  0.00     0.011 A 
ATOM     28  C   UNL     1       5.423   4.565   6.222  1.00  0.00     0.011 A 
ATOM     29  C   UNL     1       6.192   6.963   7.468  1.00  0.00     0.021 A 
ATOM     30  C   UNL     1       6.277   4.531   7.325  1.00  0.00     0.021 A 
ATOM     31  C   UNL     1       6.659   5.730   7.939  1.00  0.00     0.067 A 
BRANCH  31  32
ATOM     32  S   UNL     1       7.742   5.697   9.348  1.00  0.00     0.175 S 
ATOM     33  C   UNL     1       9.180   6.588   8.813  1.00  0.00     0.163 C 
ATOM     34  O   UNL     1       7.090   6.457  10.396  1.00  0.00    -0.224 OA
ATOM     35  O   UNL     1       8.139   4.317   9.565  1.00  0.00    -0.224 OA
ENDBRANCH  31  32
ENDBRANCH  16  26
ENDBRANCH   8  13
ENDBRANCH   4   7
ENDBRANCH   2   3
ENDBRANCH   1   2
BRANCH   1  36
ATOM     36  C   UNL     1       0.973  12.701  -2.782  1.00  0.00     0.023 C 
BRANCH  36  37
ATOM     37  C   UNL     1      -0.297  12.696  -3.626  1.00  0.00     0.116 C 
BRANCH  37  38
ATOM     38  N   UNL     1      -1.514  12.760  -2.828  1.00  0.00    -0.352 N 
ATOM     39  C   UNL     1      -2.711  13.355  -3.147  1.00  0.00     0.251 C 
ATOM     40  H   UNL     1      -1.473  12.321  -1.948  1.00  0.00     0.163 HD
ATOM     41  O   UNL     1      -3.610  13.419  -2.314  1.00  0.00    -0.269 OA
BRANCH  39  42
ATOM     42  C   UNL     1      -2.885  13.948  -4.487  1.00  0.00     0.039 A 
ATOM     43  C   UNL     1      -3.356  15.259  -4.588  1.00  0.00     0.014 A 
ATOM     44  C   UNL     1      -2.544  13.227  -5.635  1.00  0.00     0.014 A 
ATOM     45  C   UNL     1      -3.425  15.871  -5.841  1.00  0.00     0.010 A 
ATOM     46  C   UNL     1      -2.547  13.861  -6.872  1.00  0.00     0.010 A 
ATOM     47  C   UNL     1      -2.989  15.188  -6.989  1.00  0.00    -0.014 A 
BRANCH  47  48
ATOM     48  C   UNL     1      -2.969  15.851  -8.317  1.00  0.00     0.031 A 
ATOM     49  C   UNL     1      -3.823  15.327  -9.438  1.00  0.00     0.074 A 
ATOM     50  C   UNL     1      -2.107  16.863  -8.539  1.00  0.00     0.049 A 
ATOM     51  N   UNL     1      -3.898  15.739 -10.677  1.00  0.00    -0.248 NA
ATOM     52  C   UNL     1      -4.686  14.172  -9.138  1.00  0.00     0.031 C 
ATOM     53  C   UNL     1      -1.160  17.399  -7.559  1.00  0.00     0.029 A 
ATOM     54  N   UNL     1      -1.865  17.602  -9.671  1.00  0.00    -0.354 N 
ATOM     55  C   UNL     1      -4.779  14.873 -11.313  1.00  0.00     0.074 A 
ATOM     56  C   UNL     1      -5.192  13.894 -10.331  1.00  0.00     0.031 C 
ATOM     57  C   UNL     1      -0.440  18.377  -8.131  1.00  0.00     0.029 A 
ATOM     58  C   UNL     1      -0.853  18.521  -9.523  1.00  0.00     0.049 A 
ATOM     59  H   UNL     1      -2.368  17.484 -10.509  1.00  0.00     0.167 HD
ATOM     60  C   UNL     1      -5.227  14.906 -12.590  1.00  0.00     0.034 A 
ATOM     61  C   UNL     1      -0.312  19.379 -10.412  1.00  0.00     0.034 A 
ATOM     62  C   UNL     1      -4.853  15.912 -13.548  1.00  0.00     0.049 A 
ATOM     63  C   UNL     1      -0.872  19.434 -11.807  1.00  0.00     0.074 A 
ATOM     64  C   UNL     1      -5.335  16.097 -14.831  1.00  0.00     0.029 A 
ATOM     65  N   UNL     1      -3.901  16.895 -13.332  1.00  0.00    -0.354 N 
ATOM     66  N   UNL     1      -1.839  18.725 -12.336  1.00  0.00    -0.248 NA
ATOM     67  C   UNL     1      -0.294  20.433 -12.718  1.00  0.00     0.031 C 
ATOM     68  C   UNL     1      -4.656  17.179 -15.400  1.00  0.00     0.029 A 
ATOM     69  C   UNL     1      -3.771  17.684 -14.462  1.00  0.00     0.049 A 
ATOM     70  H   UNL     1      -3.392  17.015 -12.498  1.00  0.00     0.167 HD
ATOM     71  C   UNL     1      -2.009  19.213 -13.627  1.00  0.00     0.074 A 
ATOM     72  C   UNL     1      -1.061  20.295 -13.791  1.00  0.00     0.031 C 
ATOM     73  C   UNL     1      -2.861  18.793 -14.594  1.00  0.00     0.034 A 
BRANCH  60  74
ATOM     74  C   UNL     1      -6.218  13.855 -13.015  1.00  0.00     0.023 A 
ATOM     75  C   UNL     1      -7.539  13.906 -12.525  1.00  0.00     0.012 A 
ATOM     76  C   UNL     1      -5.865  12.860 -13.947  1.00  0.00     0.148 A 
ATOM     77  C   UNL     1      -8.485  12.966 -12.930  1.00  0.00     0.002 A 
ATOM     78  C   UNL     1      -6.826  11.953 -14.380  1.00  0.00     0.091 A 
ATOM     79  F   UNL     1      -4.599  12.814 -14.386  1.00  0.00    -0.205 F 
ATOM     80  C   UNL     1      -8.132  11.997 -13.865  1.00  0.00     0.022 A 
BRANCH  78  81
ATOM     81  S   UNL     1      -6.493  10.717 -15.641  1.00  0.00     0.127 S 
ATOM     82  O   UNL     1      -6.513   9.483 -14.857  1.00  0.00    -0.237 OA
ATOM     83  O   UNL     1      -7.633  10.884 -16.543  1.00  0.00    -0.237 OA
ATOM     84  O   UNL     1      -5.205  11.069 -16.220  1.00  0.00    -0.744 OA
ENDBRANCH  78  81
ENDBRANCH  60  74
BRANCH  61  85
ATOM     85  C   UNL     1       0.780  20.301  -9.988  1.00  0.00     0.023 A 
ATOM     86  C   UNL     1       0.516  21.679  -9.873  1.00  0.00     0.012 A 
ATOM     87  C   UNL     1       2.065  19.819  -9.675  1.00  0.00     0.148 A 
ATOM     88  C   UNL     1       1.522  22.567  -9.487  1.00  0.00     0.002 A 
ATOM     89  C   UNL     1       3.047  20.701  -9.237  1.00  0.00     0.091 A 
ATOM     90  F   UNL     1       2.300  18.505  -9.802  1.00  0.00    -0.205 F 
ATOM     91  C   UNL     1       2.783  22.077  -9.160  1.00  0.00     0.022 A 
BRANCH  89  92
ATOM     92  S   UNL     1       4.656  20.141  -8.667  1.00  0.00     0.127 S 
ATOM     93  O   UNL     1       5.526  20.570  -9.759  1.00  0.00    -0.237 OA
ATOM     94  O   UNL     1       4.814  20.892  -7.421  1.00  0.00    -0.237 OA
ATOM     95  O   UNL     1       4.526  18.702  -8.485  1.00  0.00    -0.744 OA
ENDBRANCH  89  92
ENDBRANCH  61  85
BRANCH  73  96
ATOM     96  C   UNL     1      -2.839  19.521 -15.912  1.00  0.00     0.023 A 
ATOM     97  C   UNL     1      -1.756  19.339 -16.794  1.00  0.00     0.012 A 
ATOM     98  C   UNL     1      -3.928  20.323 -16.308  1.00  0.00     0.148 A 
ATOM     99  C   UNL     1      -1.742  19.969 -18.038  1.00  0.00     0.002 A 
ATOM    100  C   UNL     1      -3.930  20.907 -17.569  1.00  0.00     0.091 A 
ATOM    101  F   UNL     1      -4.940  20.498 -15.447  1.00  0.00    -0.205 F 
ATOM    102  C   UNL     1      -2.833  20.741 -18.430  1.00  0.00     0.022 A 
BRANCH 100 103
ATOM    103  S   UNL     1      -5.333  21.836 -18.196  1.00  0.00     0.127 S 
ATOM    104  O   UNL     1      -4.831  23.208 -18.141  1.00  0.00    -0.237 OA
ATOM    105  O   UNL     1      -5.486  21.296 -19.548  1.00  0.00    -0.237 OA
ATOM    106  O   UNL     1      -6.443  21.539 -17.300  1.00  0.00    -0.744 OA
ENDBRANCH 100 103
ENDBRANCH  73  96
ENDBRANCH  47  48
ENDBRANCH  39  42
ENDBRANCH  37  38
ENDBRANCH  36  37
ENDBRANCH   1  36
TORSDOF 19
