REMARK SMILES C[NH2+][C@]1(C(=O)NCCCCNC(=O)c2ccc(-c3c4nc(c(-c5cccc(S(=O)(=O)[O-])c5F)c5ccc([nH]5)c(-c5cccc(S(=O)(=O)[O-])c5F)c5nc(c(-c6cccc(S(=O)(=O)[O-])c6F)c6ccc3[nH]6)C=C5)C=C4)cc2)CC[C@H](SC2CCCCC2)C1
REMARK SMILES IDX 9 1 8 2 7 3 6 4 4 5 5 6 3 8 77 9 87 10 78 11 79 12 2 13 1 14
REMARK SMILES IDX 80 17 81 18 82 19 86 20 83 21 85 22 84 23 10 24 11 25 12 26
REMARK SMILES IDX 13 28 14 29 15 30 76 31 16 32 75 33 17 34 18 35 19 36 69 37
REMARK SMILES IDX 20 38 74 39 68 40 70 41 21 42 73 43 67 44 66 45 22 47 54 48
REMARK SMILES IDX 34 49 53 50 35 51 38 52 52 53 71 54 36 55 37 56 51 58 72 59
REMARK SMILES IDX 39 60 23 61 24 62 32 63 25 64 27 65 33 66 26 67 28 68 29 69
REMARK SMILES IDX 30 70 31 71 55 72 56 73 64 74 57 75 59 76 65 77 58 78 60 79
REMARK SMILES IDX 61 80 62 81 63 82 40 83 41 84 49 85 42 86 44 87 50 88 43 89
REMARK SMILES IDX 45 90 46 91 47 92 48 93
REMARK H PARENT 6 7 2 15 2 16 11 27 70 46 38 57
REMARK Flexibility Score: inf
ROOT
ATOM      1  C   UNL     1       2.314   0.877  -2.733  1.00  0.00     0.023 C 
ENDROOT
BRANCH   1   2
ATOM      2  C   UNL     1       0.856   0.529  -2.442  1.00  0.00     0.023 C 
BRANCH   2   3
ATOM      3  C   UNL     1       0.601  -0.922  -2.028  1.00  0.00     0.116 C 
BRANCH   3   4
ATOM      4  N   UNL     1       1.085  -1.214  -0.691  1.00  0.00    -0.351 N 
ATOM      5  C   UNL     1       0.465  -1.399   0.513  1.00  0.00     0.281 C 
ATOM      6  O   UNL     1       1.222  -1.697   1.445  1.00  0.00    -0.268 OA
ATOM      7  H   UNL     1       2.065  -1.295  -0.640  1.00  0.00     0.163 HD
BRANCH   5   8
ATOM      8  C   UNL     1      -1.091  -1.295   0.703  1.00  0.00     0.176 C 
ATOM      9  C   UNL     1      -1.664   0.009   0.128  1.00  0.00     0.080 C 
ATOM     10  C   UNL     1      -1.852  -2.381  -0.086  1.00  0.00     0.093 C 
ATOM     11  C   UNL     1      -3.131  -0.290  -0.138  1.00  0.00     0.022 C 
ATOM     12  C   UNL     1      -3.220  -1.783  -0.467  1.00  0.00     0.054 C 
BRANCH   8  13
ATOM     13  N   UNL     1      -1.434  -1.253   2.156  1.00  0.00    -0.336 N 
ATOM     14  C   UNL     1      -1.427  -2.533   2.848  1.00  0.00     0.331 C 
ATOM     15  H   UNL     1      -0.759  -0.644   2.619  1.00  0.00     0.346 HD
ATOM     16  H   UNL     1      -2.397  -0.920   2.202  1.00  0.00     0.346 HD
ENDBRANCH   8  13
BRANCH  12  17
ATOM     17  S   UNL     1      -4.557  -2.650   0.445  1.00  0.00    -0.155 SA
BRANCH  17  18
ATOM     18  C   UNL     1      -6.106  -2.012  -0.309  1.00  0.00     0.047 C 
ATOM     19  C   UNL     1      -6.320  -0.513  -0.095  1.00  0.00     0.014 C 
ATOM     20  C   UNL     1      -6.270  -2.403  -1.782  1.00  0.00     0.014 C 
ATOM     21  C   UNL     1      -7.681  -0.065  -0.620  1.00  0.00     0.001 C 
ATOM     22  C   UNL     1      -7.627  -1.934  -2.317  1.00  0.00     0.001 C 
ATOM     23  C   UNL     1      -7.844  -0.439  -2.090  1.00  0.00     0.000 C 
ENDBRANCH  17  18
ENDBRANCH  12  17
ENDBRANCH   5   8
ENDBRANCH   3   4
ENDBRANCH   2   3
ENDBRANCH   1   2
BRANCH   1  24
ATOM     24  C   UNL     1       2.993   0.019  -3.792  1.00  0.00     0.116 C 
BRANCH  24  25
ATOM     25  N   UNL     1       2.286   0.002  -5.066  1.00  0.00    -0.352 N 
ATOM     26  C   UNL     1       2.815  -0.017  -6.335  1.00  0.00     0.251 C 
ATOM     27  H   UNL     1       1.303   0.004  -5.011  1.00  0.00     0.163 HD
ATOM     28  O   UNL     1       2.077   0.068  -7.313  1.00  0.00    -0.269 OA
BRANCH  26  29
ATOM     29  C   UNL     1       4.280  -0.102  -6.506  1.00  0.00     0.039 A 
ATOM     30  C   UNL     1       4.916   0.814  -7.348  1.00  0.00     0.014 A 
ATOM     31  C   UNL     1       5.025  -1.048  -5.798  1.00  0.00     0.014 A 
ATOM     32  C   UNL     1       6.311   0.826  -7.424  1.00  0.00     0.010 A 
ATOM     33  C   UNL     1       6.414  -0.985  -5.818  1.00  0.00     0.010 A 
ATOM     34  C   UNL     1       7.071  -0.048  -6.630  1.00  0.00    -0.014 A 
BRANCH  34  35
ATOM     35  C   UNL     1       8.555   0.010  -6.618  1.00  0.00     0.031 A 
ATOM     36  C   UNL     1       9.361  -1.171  -7.084  1.00  0.00     0.074 A 
ATOM     37  C   UNL     1       9.173   1.084  -6.088  1.00  0.00     0.049 A 
ATOM     38  N   UNL     1      10.658  -1.334  -7.083  1.00  0.00    -0.248 NA
ATOM     39  C   UNL     1       8.611  -2.334  -7.587  1.00  0.00     0.031 C 
ATOM     40  C   UNL     1       8.500   2.252  -5.516  1.00  0.00     0.029 A 
ATOM     41  N   UNL     1      10.508   1.353  -5.913  1.00  0.00    -0.354 N 
ATOM     42  C   UNL     1      10.878  -2.627  -7.542  1.00  0.00     0.074 A 
ATOM     43  C   UNL     1       9.580  -3.216  -7.785  1.00  0.00     0.031 C 
ATOM     44  C   UNL     1       9.423   3.110  -5.054  1.00  0.00     0.029 A 
ATOM     45  C   UNL     1      10.751   2.547  -5.275  1.00  0.00     0.049 A 
ATOM     46  H   UNL     1      11.223   0.749  -6.216  1.00  0.00     0.167 HD
ATOM     47  C   UNL     1      12.055  -3.256  -7.773  1.00  0.00     0.034 A 
ATOM     48  C   UNL     1      11.913   3.121  -4.906  1.00  0.00     0.034 A 
ATOM     49  C   UNL     1      13.343  -2.646  -7.587  1.00  0.00     0.049 A 
ATOM     50  C   UNL     1      13.208   2.431  -5.238  1.00  0.00     0.074 A 
ATOM     51  C   UNL     1      14.590  -3.159  -7.895  1.00  0.00     0.029 A 
ATOM     52  N   UNL     1      13.551  -1.388  -7.042  1.00  0.00    -0.354 N 
ATOM     53  N   UNL     1      13.398   1.281  -5.840  1.00  0.00    -0.248 NA
ATOM     54  C   UNL     1      14.449   3.132  -4.878  1.00  0.00     0.031 C 
ATOM     55  C   UNL     1      15.554  -2.216  -7.524  1.00  0.00     0.029 A 
ATOM     56  C   UNL     1      14.906  -1.110  -6.999  1.00  0.00     0.049 A 
ATOM     57  H   UNL     1      12.840  -0.783  -6.731  1.00  0.00     0.167 HD
ATOM     58  C   UNL     1      14.775   1.137  -5.960  1.00  0.00     0.074 A 
ATOM     59  C   UNL     1      15.371   2.327  -5.389  1.00  0.00     0.031 C 
ATOM     60  C   UNL     1      15.483   0.104  -6.481  1.00  0.00     0.034 A 
BRANCH  47  61
ATOM     61  C   UNL     1      12.003  -4.659  -8.316  1.00  0.00     0.023 A 
ATOM     62  C   UNL     1      11.608  -4.868  -9.654  1.00  0.00     0.012 A 
ATOM     63  C   UNL     1      12.398  -5.760  -7.532  1.00  0.00     0.148 A 
ATOM     64  C   UNL     1      11.576  -6.153 -10.193  1.00  0.00     0.002 A 
ATOM     65  C   UNL     1      12.403  -7.034  -8.089  1.00  0.00     0.091 A 
ATOM     66  F   UNL     1      12.747  -5.544  -6.255  1.00  0.00    -0.205 F 
ATOM     67  C   UNL     1      11.983  -7.233  -9.414  1.00  0.00     0.022 A 
BRANCH  65  68
ATOM     68  S   UNL     1      12.982  -8.479  -7.193  1.00  0.00     0.127 S 
ATOM     69  O   UNL     1      11.728  -9.179  -6.920  1.00  0.00    -0.237 OA
ATOM     70  O   UNL     1      13.842  -9.131  -8.182  1.00  0.00    -0.237 OA
ATOM     71  O   UNL     1      13.684  -7.970  -6.023  1.00  0.00    -0.744 OA
ENDBRANCH  65  68
ENDBRANCH  47  61
BRANCH  48  72
ATOM     72  C   UNL     1      11.903   4.461  -4.253  1.00  0.00     0.023 A 
ATOM     73  C   UNL     1      12.351   5.583  -4.978  1.00  0.00     0.012 A 
ATOM     74  C   UNL     1      11.420   4.638  -2.942  1.00  0.00     0.148 A 
ATOM     75  C   UNL     1      12.344   6.853  -4.400  1.00  0.00     0.002 A 
ATOM     76  C   UNL     1      11.366   5.914  -2.392  1.00  0.00     0.091 A 
ATOM     77  F   UNL     1      11.010   3.557  -2.264  1.00  0.00    -0.205 F 
ATOM     78  C   UNL     1      11.842   7.020  -3.112  1.00  0.00     0.022 A 
BRANCH  76  79
ATOM     79  S   UNL     1      10.612   6.240  -0.794  1.00  0.00     0.127 S 
ATOM     80  O   UNL     1      11.780   6.516   0.037  1.00  0.00    -0.237 OA
ATOM     81  O   UNL     1       9.774   7.404  -1.085  1.00  0.00    -0.237 OA
ATOM     82  O   UNL     1       9.865   5.034  -0.462  1.00  0.00    -0.744 OA
ENDBRANCH  76  79
ENDBRANCH  48  72
BRANCH  60  83
ATOM     83  C   UNL     1      16.984   0.217  -6.488  1.00  0.00     0.023 A 
ATOM     84  C   UNL     1      17.700   0.069  -5.285  1.00  0.00     0.012 A 
ATOM     85  C   UNL     1      17.688   0.385  -7.697  1.00  0.00     0.148 A 
ATOM     86  C   UNL     1      19.094   0.113  -5.280  1.00  0.00     0.002 A 
ATOM     87  C   UNL     1      19.078   0.382  -7.691  1.00  0.00     0.091 A 
ATOM     88  F   UNL     1      16.987   0.545  -8.829  1.00  0.00    -0.205 F 
ATOM     89  C   UNL     1      19.782   0.257  -6.482  1.00  0.00     0.022 A 
BRANCH  87  90
ATOM     90  S   UNL     1      20.044   0.466  -9.203  1.00  0.00     0.127 S 
ATOM     91  O   UNL     1      20.529   1.845  -9.171  1.00  0.00    -0.237 OA
ATOM     92  O   UNL     1      21.073  -0.548  -8.974  1.00  0.00    -0.237 OA
ATOM     93  O   UNL     1      19.119   0.151 -10.284  1.00  0.00    -0.744 OA
ENDBRANCH  87  90
ENDBRANCH  60  83
ENDBRANCH  34  35
ENDBRANCH  26  29
ENDBRANCH  24  25
ENDBRANCH   1  24
TORSDOF 17
