REMARK SMILES C[C@H](NC(=O)N[C@](C)(C(=O)NCCCCNC(=O)c1ccc(-c2c3nc(c(-c4cccc(S(=O)(=O)[O-])c4F)c4ccc([nH]4)c(-c4cccc(S(=O)(=O)[O-])c4F)c4nc(c(-c5cccc(S(=O)(=O)[O-])c5F)c5ccc2[nH]5)C=C4)C=C3)cc1)C(F)(F)F)C(N)=O
REMARK SMILES IDX 13 1 12 2 11 3 9 4 10 5 7 7 8 8 6 9 3 10 4 11 5 13 2 15 1 16
REMARK SMILES IDX 86 17 87 18 88 19 82 22 83 23 84 24 85 25 14 26 15 27 16 28
REMARK SMILES IDX 17 29 18 31 19 32 20 33 81 34 21 35 80 36 22 37 23 38 24 39
REMARK SMILES IDX 74 40 25 41 79 42 73 43 75 44 26 45 78 46 72 47 71 48 27 50
REMARK SMILES IDX 59 51 39 52 58 53 40 54 43 55 57 56 76 57 41 58 42 59 56 61
REMARK SMILES IDX 77 62 44 63 28 64 29 65 37 66 30 67 32 68 38 69 31 70 33 71
REMARK SMILES IDX 34 72 35 73 36 74 60 75 61 76 69 77 62 78 64 79 70 80 63 81
REMARK SMILES IDX 65 82 66 83 67 84 68 85 45 86 46 87 54 88 47 89 49 90 55 91
REMARK SMILES IDX 48 92 50 93 51 94 52 95 53 96
REMARK H PARENT 11 6 3 12 6 14 87 20 87 21 16 30 75 49 43 60
REMARK Flexibility Score: inf
ROOT
ATOM      1  C   UNL     1       1.723   3.840  -2.562  1.00  0.00     0.023 C 
ENDROOT
BRANCH   1   2
ATOM      2  C   UNL     1       0.806   3.156  -3.574  1.00  0.00     0.116 C 
BRANCH   2   3
ATOM      3  N   UNL     1       0.627   1.730  -3.354  1.00  0.00    -0.354 N 
ATOM      4  C   UNL     1      -0.253   1.005  -2.594  1.00  0.00     0.255 C 
ATOM      5  O   UNL     1      -0.086  -0.216  -2.617  1.00  0.00    -0.272 OA
ATOM      6  H   UNL     1       1.267   1.173  -3.852  1.00  0.00     0.163 HD
BRANCH   4   7
ATOM      7  C   UNL     1      -1.240   1.681  -1.610  1.00  0.00     0.213 C 
ATOM      8  C   UNL     1      -0.392   2.142  -0.428  1.00  0.00     0.056 C 
BRANCH   7   9
ATOM      9  N   UNL     1      -1.936   2.788  -2.333  1.00  0.00    -0.316 N 
ATOM     10  N   UNL     1      -3.177   4.269  -0.940  1.00  0.00    -0.327 N 
ATOM     11  C   UNL     1      -2.842   3.728  -2.100  1.00  0.00     0.316 C 
ATOM     12  H   UNL     1      -4.008   4.790  -1.025  1.00  0.00     0.166 HD
ATOM     13  O   UNL     1      -3.424   4.166  -3.099  1.00  0.00    -0.249 OA
ATOM     14  H   UNL     1      -1.628   2.834  -3.267  1.00  0.00     0.166 HD
BRANCH  10  15
ATOM     15  C   UNL     1      -2.673   4.320   0.429  1.00  0.00     0.169 C 
ATOM     16  C   UNL     1      -3.024   5.670   1.062  1.00  0.00     0.041 C 
BRANCH  15  17
ATOM     17  C   UNL     1      -3.289   3.241   1.329  1.00  0.00     0.239 C 
ATOM     18  N   UNL     1      -2.452   2.718   2.276  1.00  0.00    -0.368 N 
ATOM     19  O   UNL     1      -4.470   2.913   1.293  1.00  0.00    -0.273 OA
ATOM     20  H   UNL     1      -1.505   2.986   2.299  1.00  0.00     0.159 HD
ATOM     21  H   UNL     1      -2.797   2.073   2.936  1.00  0.00     0.159 HD
ENDBRANCH  15  17
ENDBRANCH  10  15
ENDBRANCH   7   9
BRANCH   7  22
ATOM     22  C   UNL     1      -2.224   0.575  -1.172  1.00  0.00     0.420 C 
ATOM     23  F   UNL     1      -1.642  -0.369  -0.399  1.00  0.00    -0.168 F 
ATOM     24  F   UNL     1      -3.225   1.101  -0.426  1.00  0.00    -0.168 F 
ATOM     25  F   UNL     1      -2.819  -0.035  -2.223  1.00  0.00    -0.168 F 
ENDBRANCH   7  22
ENDBRANCH   4   7
ENDBRANCH   2   3
ENDBRANCH   1   2
BRANCH   1  26
ATOM     26  C   UNL     1       3.167   3.352  -2.549  1.00  0.00     0.023 C 
BRANCH  26  27
ATOM     27  C   UNL     1       3.857   3.414  -3.898  1.00  0.00     0.116 C 
BRANCH  27  28
ATOM     28  N   UNL     1       3.765   4.721  -4.539  1.00  0.00    -0.352 N 
ATOM     29  C   UNL     1       4.659   5.275  -5.428  1.00  0.00     0.251 C 
ATOM     30  H   UNL     1       2.978   5.266  -4.312  1.00  0.00     0.163 HD
ATOM     31  O   UNL     1       4.518   6.412  -5.848  1.00  0.00    -0.269 OA
BRANCH  29  32
ATOM     32  C   UNL     1       5.817   4.452  -5.814  1.00  0.00     0.039 A 
ATOM     33  C   UNL     1       7.103   4.912  -5.527  1.00  0.00     0.014 A 
ATOM     34  C   UNL     1       5.600   3.164  -6.309  1.00  0.00     0.014 A 
ATOM     35  C   UNL     1       8.183   4.044  -5.678  1.00  0.00     0.010 A 
ATOM     36  C   UNL     1       6.662   2.278  -6.365  1.00  0.00     0.010 A 
ATOM     37  C   UNL     1       7.963   2.712  -6.064  1.00  0.00    -0.014 A 
BRANCH  37  38
ATOM     38  C   UNL     1       9.072   1.742  -6.219  1.00  0.00     0.031 A 
ATOM     39  C   UNL     1       9.305   1.129  -7.572  1.00  0.00     0.074 A 
ATOM     40  C   UNL     1       9.763   1.322  -5.142  1.00  0.00     0.049 A 
ATOM     41  N   UNL     1      10.075   0.130  -7.904  1.00  0.00    -0.248 NA
ATOM     42  C   UNL     1       8.522   1.683  -8.692  1.00  0.00     0.031 C 
ATOM     43  C   UNL     1       9.570   1.794  -3.768  1.00  0.00     0.029 A 
ATOM     44  N   UNL     1      10.744   0.370  -5.029  1.00  0.00    -0.354 N 
ATOM     45  C   UNL     1       9.820  -0.107  -9.249  1.00  0.00     0.074 A 
ATOM     46  C   UNL     1       8.799   0.828  -9.663  1.00  0.00     0.031 C 
ATOM     47  C   UNL     1      10.404   1.128  -2.953  1.00  0.00     0.029 A 
ATOM     48  C   UNL     1      11.166   0.160  -3.736  1.00  0.00     0.049 A 
ATOM     49  H   UNL     1      11.112  -0.118  -5.801  1.00  0.00     0.167 HD
ATOM     50  C   UNL     1      10.409  -1.000 -10.076  1.00  0.00     0.034 A 
ATOM     51  C   UNL     1      12.059  -0.721  -3.244  1.00  0.00     0.034 A 
ATOM     52  C   UNL     1      11.483  -1.862  -9.672  1.00  0.00     0.049 A 
ATOM     53  C   UNL     1      12.767  -1.643  -4.202  1.00  0.00     0.074 A 
ATOM     54  C   UNL     1      12.224  -2.735 -10.447  1.00  0.00     0.029 A 
ATOM     55  N   UNL     1      11.981  -1.945  -8.381  1.00  0.00    -0.354 N 
ATOM     56  N   UNL     1      12.611  -1.760  -5.499  1.00  0.00    -0.248 NA
ATOM     57  C   UNL     1      13.797  -2.528  -3.640  1.00  0.00     0.031 C 
ATOM     58  C   UNL     1      13.170  -3.349  -9.621  1.00  0.00     0.029 A 
ATOM     59  C   UNL     1      13.027  -2.846  -8.337  1.00  0.00     0.049 A 
ATOM     60  H   UNL     1      11.639  -1.437  -7.610  1.00  0.00     0.167 HD
ATOM     61  C   UNL     1      13.554  -2.693  -5.915  1.00  0.00     0.074 A 
ATOM     62  C   UNL     1      14.281  -3.106  -4.732  1.00  0.00     0.031 C 
ATOM     63  C   UNL     1      13.788  -3.175  -7.160  1.00  0.00     0.034 A 
BRANCH  50  64
ATOM     64  C   UNL     1       9.948  -1.037 -11.508  1.00  0.00     0.023 A 
ATOM     65  C   UNL     1      10.261   0.036 -12.367  1.00  0.00     0.012 A 
ATOM     66  C   UNL     1       9.238  -2.143 -12.013  1.00  0.00     0.148 A 
ATOM     67  C   UNL     1       9.839   0.030 -13.695  1.00  0.00     0.002 A 
ATOM     68  C   UNL     1       8.863  -2.164 -13.351  1.00  0.00     0.091 A 
ATOM     69  F   UNL     1       8.927  -3.142 -11.175  1.00  0.00    -0.205 F 
ATOM     70  C   UNL     1       9.150  -1.074 -14.189  1.00  0.00     0.022 A 
BRANCH  68  71
ATOM     71  S   UNL     1       8.045  -3.575 -14.103  1.00  0.00     0.127 S 
ATOM     72  O   UNL     1       6.684  -3.068 -14.279  1.00  0.00    -0.237 OA
ATOM     73  O   UNL     1       8.798  -3.742 -15.347  1.00  0.00    -0.237 OA
ATOM     74  O   UNL     1       8.189  -4.672 -13.156  1.00  0.00    -0.744 OA
ENDBRANCH  68  71
ENDBRANCH  50  64
BRANCH  51  75
ATOM     75  C   UNL     1      12.397  -0.712  -1.792  1.00  0.00     0.023 A 
ATOM     76  C   UNL     1      13.657  -0.232  -1.385  1.00  0.00     0.012 A 
ATOM     77  C   UNL     1      11.478  -1.137  -0.814  1.00  0.00     0.148 A 
ATOM     78  C   UNL     1      14.009  -0.207  -0.035  1.00  0.00     0.002 A 
ATOM     79  C   UNL     1      11.815  -1.061   0.534  1.00  0.00     0.091 A 
ATOM     80  F   UNL     1      10.286  -1.600  -1.219  1.00  0.00    -0.205 F 
ATOM     81  C   UNL     1      13.086  -0.613   0.925  1.00  0.00     0.022 A 
BRANCH  79  82
ATOM     82  S   UNL     1      10.642  -1.437   1.842  1.00  0.00     0.127 S 
ATOM     83  O   UNL     1      11.144  -2.716   2.337  1.00  0.00    -0.237 OA
ATOM     84  O   UNL     1      10.830  -0.307   2.753  1.00  0.00    -0.237 OA
ATOM     85  O   UNL     1       9.336  -1.472   1.197  1.00  0.00    -0.744 OA
ENDBRANCH  79  82
ENDBRANCH  51  75
BRANCH  63  86
ATOM     86  C   UNL     1      14.916  -4.154  -7.337  1.00  0.00     0.023 A 
ATOM     87  C   UNL     1      14.752  -5.492  -6.933  1.00  0.00     0.012 A 
ATOM     88  C   UNL     1      16.087  -3.769  -8.019  1.00  0.00     0.148 A 
ATOM     89  C   UNL     1      15.747  -6.433  -7.194  1.00  0.00     0.002 A 
ATOM     90  C   UNL     1      17.053  -4.722  -8.317  1.00  0.00     0.091 A 
ATOM     91  F   UNL     1      16.226  -2.484  -8.377  1.00  0.00    -0.205 F 
ATOM     92  C   UNL     1      16.888  -6.052  -7.898  1.00  0.00     0.022 A 
BRANCH  90  93
ATOM     93  S   UNL     1      18.503  -4.343  -9.306  1.00  0.00     0.127 S 
ATOM     94  O   UNL     1      19.567  -4.388  -8.304  1.00  0.00    -0.237 OA
ATOM     95  O   UNL     1      18.521  -5.448 -10.265  1.00  0.00    -0.237 OA
ATOM     96  O   UNL     1      18.257  -3.034  -9.897  1.00  0.00    -0.744 OA
ENDBRANCH  90  93
ENDBRANCH  63  86
ENDBRANCH  37  38
ENDBRANCH  29  32
ENDBRANCH  27  28
ENDBRANCH  26  27
ENDBRANCH   1  26
TORSDOF 18
