REMARK SMILES O=C1NC(=O)/C(=C/c2ccc(OCc3cn(-c4ccc(C(=O)NCCCCNC(=O)c5ccc(-c6c7nc(c(-c8cccc(S(=O)(=O)[O-])c8F)c8ccc([nH]8)c(-c8cccc(S(=O)(=O)[O-])c8F)c8nc(c(-c9cccc(S(=O)(=O)[O-])c9F)c9ccc6[nH]9)C=C8)C=C7)cc5)cc4)nn3)cc2)S1
REMARK SMILES IDX 24 1 23 2 21 3 22 4 20 6 17 7 18 8 95 9 19 10 94 11 16 12
REMARK SMILES IDX 14 13 15 14 97 15 96 16 13 17 12 18 11 19 8 20 9 21 99 22
REMARK SMILES IDX 10 23 98 24 7 25 1 26 2 27 3 28 100 29 4 30 6 32 5 33 25 34
REMARK SMILES IDX 26 35 27 36 28 37 29 38 30 40 31 41 32 42 93 43 33 44 92 45
REMARK SMILES IDX 34 46 35 47 36 48 86 49 37 50 91 51 85 52 87 53 38 54 90 55
REMARK SMILES IDX 84 56 83 57 39 59 71 60 51 61 70 62 52 63 55 64 69 65 88 66
REMARK SMILES IDX 53 67 54 68 68 70 89 71 56 72 40 73 41 74 49 75 42 76 44 77
REMARK SMILES IDX 50 78 43 79 45 80 46 81 47 82 48 83 72 84 73 85 81 86 74 87
REMARK SMILES IDX 76 88 82 89 75 90 77 91 78 92 79 93 80 94 57 95 58 96 66 97
REMARK SMILES IDX 59 98 61 99 67 100 60 101 62 102 63 103 64 104 65 105
REMARK H PARENT 23 5 3 31 28 39 87 58 55 69
REMARK Flexibility Score: inf
ROOT
ATOM      1  C   UNL     1      -7.768  10.423  -1.204  1.00  0.00     0.116 C 
ENDROOT
BRANCH   1   2
ATOM      2  N   UNL     1      -8.367   9.533  -0.231  1.00  0.00    -0.352 N 
ATOM      3  C   UNL     1      -7.865   8.520   0.545  1.00  0.00     0.251 C 
ATOM      4  O   UNL     1      -8.666   7.856   1.204  1.00  0.00    -0.269 OA
ATOM      5  H   UNL     1      -9.331   9.687  -0.099  1.00  0.00     0.163 HD
BRANCH   3   6
ATOM      6  C   UNL     1      -6.412   8.204   0.660  1.00  0.00     0.039 A 
ATOM      7  C   UNL     1      -3.701   7.631   1.112  1.00  0.00     0.066 A 
ATOM      8  C   UNL     1      -4.660   7.216   2.040  1.00  0.00     0.029 A 
ATOM      9  C   UNL     1      -4.089   8.279  -0.060  1.00  0.00     0.029 A 
ATOM     10  C   UNL     1      -6.003   7.535   1.826  1.00  0.00     0.016 A 
ATOM     11  C   UNL     1      -5.445   8.506  -0.303  1.00  0.00     0.016 A 
BRANCH   7  12
ATOM     12  N   UNL     1      -2.340   7.370   1.352  1.00  0.00    -0.220 N 
ATOM     13  C   UNL     1      -0.158   7.367   1.383  1.00  0.00     0.120 A 
ATOM     14  C   UNL     1      -1.242   8.091   0.935  1.00  0.00     0.144 A 
ATOM     15  N   UNL     1      -0.622   6.273   2.066  1.00  0.00    -0.131 NA
ATOM     16  N   UNL     1      -1.942   6.302   2.072  1.00  0.00    -0.062 NA
BRANCH  13  17
ATOM     17  C   UNL     1       1.305   7.663   1.331  1.00  0.00     0.289 C 
BRANCH  17  18
ATOM     18  O   UNL     1       2.045   6.989   0.296  1.00  0.00    -0.487 OA
BRANCH  18  19
ATOM     19  C   UNL     1       2.173   5.629   0.361  1.00  0.00     0.119 A 
ATOM     20  C   UNL     1       2.212   2.827   0.130  1.00  0.00    -0.024 A 
ATOM     21  C   UNL     1       2.682   3.624  -0.916  1.00  0.00     0.012 A 
ATOM     22  C   UNL     1       1.821   3.436   1.323  1.00  0.00     0.012 A 
ATOM     23  C   UNL     1       2.654   5.019  -0.800  1.00  0.00     0.047 A 
ATOM     24  C   UNL     1       1.836   4.827   1.448  1.00  0.00     0.047 A 
BRANCH  20  25
ATOM     25  C   UNL     1       2.145   1.370  -0.005  1.00  0.00     0.029 C 
ATOM     26  O   UNL     1      -2.440  -0.726   0.006  1.00  0.00    -0.261 OA
ATOM     27  C   UNL     1      -1.251  -0.438  -0.006  1.00  0.00     0.290 C 
ATOM     28  N   UNL     1      -0.229  -1.327  -0.045  1.00  0.00    -0.282 N 
ATOM     29  S   UNL     1      -0.619   1.193   0.015  1.00  0.00    -0.022 SA
ATOM     30  C   UNL     1       1.044  -0.841  -0.075  1.00  0.00     0.265 C 
ATOM     31  H   UNL     1      -0.401  -2.296  -0.052  1.00  0.00     0.174 HD
ATOM     32  C   UNL     1       1.018   0.644  -0.027  1.00  0.00     0.083 C 
ATOM     33  O   UNL     1       2.049  -1.531  -0.123  1.00  0.00    -0.268 OA
ENDBRANCH  20  25
ENDBRANCH  18  19
ENDBRANCH  17  18
ENDBRANCH  13  17
ENDBRANCH   7  12
ENDBRANCH   3   6
ENDBRANCH   1   2
BRANCH   1  34
ATOM     34  C   UNL     1      -7.863   9.822  -2.613  1.00  0.00     0.023 C 
BRANCH  34  35
ATOM     35  C   UNL     1      -9.259   9.898  -3.248  1.00  0.00     0.023 C 
BRANCH  35  36
ATOM     36  C   UNL     1      -9.718  11.312  -3.587  1.00  0.00     0.116 C 
BRANCH  36  37
ATOM     37  N   UNL     1      -8.843  11.963  -4.566  1.00  0.00    -0.352 N 
ATOM     38  C   UNL     1      -8.790  13.302  -4.901  1.00  0.00     0.251 C 
ATOM     39  H   UNL     1      -8.216  11.374  -5.043  1.00  0.00     0.163 HD
ATOM     40  O   UNL     1      -8.318  13.667  -5.972  1.00  0.00    -0.269 OA
BRANCH  38  41
ATOM     41  C   UNL     1      -9.293  14.286  -3.930  1.00  0.00     0.039 A 
ATOM     42  C   UNL     1     -10.098  15.358  -4.322  1.00  0.00     0.014 A 
ATOM     43  C   UNL     1      -8.972  14.078  -2.591  1.00  0.00     0.014 A 
ATOM     44  C   UNL     1     -10.646  16.173  -3.336  1.00  0.00     0.010 A 
ATOM     45  C   UNL     1      -9.638  14.777  -1.621  1.00  0.00     0.010 A 
ATOM     46  C   UNL     1     -10.426  15.863  -1.985  1.00  0.00    -0.014 A 
BRANCH  46  47
ATOM     47  C   UNL     1     -11.111  16.595  -0.929  1.00  0.00     0.031 A 
ATOM     48  C   UNL     1     -12.594  16.610  -1.048  1.00  0.00     0.074 A 
ATOM     49  C   UNL     1     -10.474  17.032   0.180  1.00  0.00     0.049 A 
ATOM     50  N   UNL     1     -13.346  17.628  -1.302  1.00  0.00    -0.248 NA
ATOM     51  C   UNL     1     -13.315  15.327  -1.030  1.00  0.00     0.031 C 
ATOM     52  C   UNL     1      -9.079  16.802   0.577  1.00  0.00     0.029 A 
ATOM     53  N   UNL     1     -10.995  17.646   1.275  1.00  0.00    -0.354 N 
ATOM     54  C   UNL     1     -14.654  17.157  -1.226  1.00  0.00     0.074 A 
ATOM     55  C   UNL     1     -14.568  15.721  -1.270  1.00  0.00     0.031 C 
ATOM     56  C   UNL     1      -8.949  17.014   1.904  1.00  0.00     0.029 A 
ATOM     57  C   UNL     1     -10.194  17.557   2.410  1.00  0.00     0.049 A 
ATOM     58  H   UNL     1     -11.862  18.112   1.266  1.00  0.00     0.167 HD
ATOM     59  C   UNL     1     -15.681  17.978  -0.866  1.00  0.00     0.034 A 
ATOM     60  C   UNL     1     -10.558  17.852   3.683  1.00  0.00     0.034 A 
ATOM     61  C   UNL     1     -15.294  19.365  -0.926  1.00  0.00     0.049 A 
ATOM     62  C   UNL     1     -11.734  18.750   3.598  1.00  0.00     0.074 A 
ATOM     63  C   UNL     1     -14.771  20.183  -1.909  1.00  0.00     0.029 A 
ATOM     64  N   UNL     1     -15.021  19.993   0.267  1.00  0.00    -0.354 N 
ATOM     65  N   UNL     1     -11.678  19.952   3.094  1.00  0.00    -0.248 NA
ATOM     66  C   UNL     1     -13.054  18.142   3.630  1.00  0.00     0.031 C 
ATOM     67  C   UNL     1     -13.776  20.956  -1.242  1.00  0.00     0.029 A 
ATOM     68  C   UNL     1     -13.819  20.634   0.117  1.00  0.00     0.049 A 
ATOM     69  H   UNL     1     -15.583  19.983   1.075  1.00  0.00     0.167 HD
ATOM     70  C   UNL     1     -12.829  20.051   2.323  1.00  0.00     0.074 A 
ATOM     71  C   UNL     1     -13.685  18.953   2.776  1.00  0.00     0.031 C 
ATOM     72  C   UNL     1     -12.863  20.811   1.188  1.00  0.00     0.034 A 
BRANCH  59  73
ATOM     73  C   UNL     1     -16.915  17.537  -0.117  1.00  0.00     0.023 A 
ATOM     74  C   UNL     1     -17.981  18.457  -0.011  1.00  0.00     0.012 A 
ATOM     75  C   UNL     1     -16.979  16.384   0.698  1.00  0.00     0.148 A 
ATOM     76  C   UNL     1     -19.037  18.256   0.886  1.00  0.00     0.002 A 
ATOM     77  C   UNL     1     -18.073  16.145   1.520  1.00  0.00     0.091 A 
ATOM     78  F   UNL     1     -15.919  15.576   0.797  1.00  0.00    -0.205 F 
ATOM     79  C   UNL     1     -19.090  17.092   1.643  1.00  0.00     0.022 A 
BRANCH  77  80
ATOM     80  S   UNL     1     -18.218  14.626   2.470  1.00  0.00     0.127 S 
ATOM     81  O   UNL     1     -17.948  15.100   3.824  1.00  0.00    -0.237 OA
ATOM     82  O   UNL     1     -19.606  14.243   2.209  1.00  0.00    -0.237 OA
ATOM     83  O   UNL     1     -17.232  13.717   1.898  1.00  0.00    -0.744 OA
ENDBRANCH  77  80
ENDBRANCH  59  73
BRANCH  60  84
ATOM     84  C   UNL     1     -10.136  17.211   4.951  1.00  0.00     0.023 A 
ATOM     85  C   UNL     1     -10.348  17.872   6.178  1.00  0.00     0.012 A 
ATOM     86  C   UNL     1      -9.780  15.844   4.988  1.00  0.00     0.148 A 
ATOM     87  C   UNL     1     -10.241  17.188   7.396  1.00  0.00     0.002 A 
ATOM     88  C   UNL     1      -9.664  15.171   6.201  1.00  0.00     0.091 A 
ATOM     89  F   UNL     1      -9.649  15.178   3.833  1.00  0.00    -0.205 F 
ATOM     90  C   UNL     1      -9.907  15.836   7.408  1.00  0.00     0.022 A 
BRANCH  88  91
ATOM     91  S   UNL     1      -9.253  13.422   6.282  1.00  0.00     0.127 S 
ATOM     92  O   UNL     1      -8.223  13.400   7.322  1.00  0.00    -0.237 OA
ATOM     93  O   UNL     1     -10.530  12.830   6.671  1.00  0.00    -0.237 OA
ATOM     94  O   UNL     1      -8.766  13.069   4.954  1.00  0.00    -0.744 OA
ENDBRANCH  88  91
ENDBRANCH  60  84
BRANCH  72  95
ATOM     95  C   UNL     1     -11.691  21.718   0.890  1.00  0.00     0.023 A 
ATOM     96  C   UNL     1     -10.383  21.228   0.682  1.00  0.00     0.012 A 
ATOM     97  C   UNL     1     -11.952  23.071   0.619  1.00  0.00     0.148 A 
ATOM     98  C   UNL     1      -9.360  22.071   0.236  1.00  0.00     0.002 A 
ATOM     99  C   UNL     1     -10.946  23.895   0.130  1.00  0.00     0.091 A 
ATOM    100  F   UNL     1     -13.200  23.526   0.815  1.00  0.00    -0.205 F 
ATOM    101  C   UNL     1      -9.645  23.402  -0.054  1.00  0.00     0.022 A 
BRANCH  99 102
ATOM    102  S   UNL     1     -11.284  25.581  -0.384  1.00  0.00     0.127 S 
ATOM    103  O   UNL     1     -10.702  26.355   0.711  1.00  0.00    -0.237 OA
ATOM    104  O   UNL     1     -10.560  25.675  -1.653  1.00  0.00    -0.237 OA
ATOM    105  O   UNL     1     -12.732  25.675  -0.519  1.00  0.00    -0.744 OA
ENDBRANCH  99 102
ENDBRANCH  72  95
ENDBRANCH  46  47
ENDBRANCH  38  41
ENDBRANCH  36  37
ENDBRANCH  35  36
ENDBRANCH  34  35
ENDBRANCH   1  34
TORSDOF 19
