REMARK SMILES CC(C)(C)SCC(=O)N1CC(n2cc(C(=O)NCCCCNC(=O)c3ccc(-c4c5nc(c(-c6cccc(S(=O)(=O)[O-])c6F)c6ccc([nH]6)c(-c6cccc(S(=O)(=O)[O-])c6F)c6nc(c(-c7cccc(S(=O)(=O)[O-])c7F)c7ccc4[nH]7)C=C6)C=C5)cc3)nn2)C1
REMARK SMILES IDX 19 1 18 2 17 3 15 4 16 5 14 7 12 8 13 9 89 10 88 11 11 12
REMARK SMILES IDX 7 13 8 14 9 15 10 16 90 17 6 18 5 19 2 20 1 21 3 22 4 23
REMARK SMILES IDX 20 24 21 25 22 26 23 27 24 29 25 30 26 31 87 32 27 33 86 34
REMARK SMILES IDX 28 35 29 36 30 37 80 38 31 39 85 40 79 41 81 42 32 43 84 44
REMARK SMILES IDX 78 45 77 46 33 48 65 49 45 50 64 51 46 52 49 53 63 54 82 55
REMARK SMILES IDX 47 56 48 57 62 59 83 60 50 61 34 62 35 63 43 64 36 65 38 66
REMARK SMILES IDX 44 67 37 68 39 69 40 70 41 71 42 72 66 73 67 74 75 75 68 76
REMARK SMILES IDX 70 77 76 78 69 79 71 80 72 81 73 82 74 83 51 84 52 85 60 86
REMARK SMILES IDX 53 87 55 88 61 89 54 90 56 91 57 92 58 93 59 94
REMARK H PARENT 17 6 22 28 81 47 49 58
REMARK Flexibility Score: inf
ROOT
ATOM      1  C   UNL     1       8.046  -3.355  -0.292  1.00  0.00     0.023 C 
ENDROOT
BRANCH   1   2
ATOM      2  C   UNL     1       8.400  -2.135  -1.150  1.00  0.00     0.116 C 
BRANCH   2   3
ATOM      3  N   UNL     1       9.279  -2.486  -2.249  1.00  0.00    -0.351 N 
ATOM      4  C   UNL     1       9.055  -2.694  -3.593  1.00  0.00     0.273 C 
ATOM      5  O   UNL     1      10.035  -2.975  -4.280  1.00  0.00    -0.267 OA
ATOM      6  H   UNL     1      10.220  -2.599  -1.982  1.00  0.00     0.163 HD
BRANCH   4   7
ATOM      7  C   UNL     1       7.720  -2.596  -4.180  1.00  0.00     0.170 A 
ATOM      8  N   UNL     1       5.601  -2.462  -4.634  1.00  0.00    -0.245 N 
ATOM      9  C   UNL     1       6.469  -2.715  -3.611  1.00  0.00     0.145 A 
ATOM     10  N   UNL     1       6.241  -2.293  -5.793  1.00  0.00    -0.066 NA
ATOM     11  N   UNL     1       7.540  -2.394  -5.538  1.00  0.00    -0.125 NA
BRANCH   8  12
ATOM     12  C   UNL     1       4.191  -2.394  -4.447  1.00  0.00     0.148 C 
ATOM     13  C   UNL     1       1.232  -1.091  -4.748  1.00  0.00     0.232 C 
ATOM     14  O   UNL     1       0.428  -1.883  -5.254  1.00  0.00    -0.274 OA
ATOM     15  N   UNL     1       2.575  -1.268  -4.906  1.00  0.00    -0.338 N 
ATOM     16  C   UNL     1       3.304  -2.268  -5.689  1.00  0.00     0.148 C 
ATOM     17  C   UNL     1       3.747  -0.948  -4.112  1.00  0.00     0.148 C 
BRANCH  13  18
ATOM     18  C   UNL     1       0.721   0.182  -4.095  1.00  0.00     0.170 C 
BRANCH  18  19
ATOM     19  S   UNL     1       1.365   0.626  -2.462  1.00  0.00    -0.146 SA
BRANCH  19  20
ATOM     20  C   UNL     1       0.536  -0.545  -1.298  1.00  0.00     0.008 C 
ATOM     21  C   UNL     1       1.000  -0.110   0.106  1.00  0.00     0.022 C 
ATOM     22  C   UNL     1       0.982  -1.989  -1.538  1.00  0.00     0.022 C 
ATOM     23  C   UNL     1      -0.990  -0.430  -1.371  1.00  0.00     0.022 C 
ENDBRANCH  19  20
ENDBRANCH  18  19
ENDBRANCH  13  18
ENDBRANCH   8  12
ENDBRANCH   4   7
ENDBRANCH   2   3
ENDBRANCH   1   2
BRANCH   1  24
ATOM     24  C   UNL     1       9.152  -3.828   0.668  1.00  0.00     0.023 C 
BRANCH  24  25
ATOM     25  C   UNL     1       9.520  -2.837   1.770  1.00  0.00     0.116 C 
BRANCH  25  26
ATOM     26  N   UNL     1       8.400  -2.532   2.664  1.00  0.00    -0.352 N 
ATOM     27  C   UNL     1       8.326  -1.534   3.625  1.00  0.00     0.251 C 
ATOM     28  H   UNL     1       7.604  -3.103   2.572  1.00  0.00     0.163 HD
ATOM     29  O   UNL     1       7.543  -1.615   4.555  1.00  0.00    -0.269 OA
BRANCH  27  30
ATOM     30  C   UNL     1       9.207  -0.360   3.480  1.00  0.00     0.039 A 
ATOM     31  C   UNL     1       9.898   0.180   4.567  1.00  0.00     0.014 A 
ATOM     32  C   UNL     1       9.366   0.162   2.200  1.00  0.00     0.014 A 
ATOM     33  C   UNL     1      10.822   1.197   4.333  1.00  0.00     0.010 A 
ATOM     34  C   UNL     1      10.383   1.046   1.950  1.00  0.00     0.010 A 
ATOM     35  C   UNL     1      11.078   1.609   3.014  1.00  0.00    -0.014 A 
BRANCH  35  36
ATOM     36  C   UNL     1      12.174   2.525   2.711  1.00  0.00     0.031 A 
ATOM     37  C   UNL     1      13.495   2.091   3.243  1.00  0.00     0.074 A 
ATOM     38  C   UNL     1      12.054   3.553   1.840  1.00  0.00     0.049 A 
ATOM     39  N   UNL     1      14.169   2.632   4.204  1.00  0.00    -0.248 NA
ATOM     40  C   UNL     1      14.056   0.814   2.772  1.00  0.00     0.031 C 
ATOM     41  C   UNL     1      10.895   3.899   1.005  1.00  0.00     0.029 A 
ATOM     42  N   UNL     1      13.001   4.427   1.402  1.00  0.00    -0.354 N 
ATOM     43  C   UNL     1      15.365   1.919   4.268  1.00  0.00     0.074 A 
ATOM     44  C   UNL     1      15.138   0.697   3.545  1.00  0.00     0.031 C 
ATOM     45  C   UNL     1      11.287   4.710  -0.001  1.00  0.00     0.029 A 
ATOM     46  C   UNL     1      12.668   5.089   0.221  1.00  0.00     0.049 A 
ATOM     47  H   UNL     1      13.849   4.579   1.879  1.00  0.00     0.167 HD
ATOM     48  C   UNL     1      16.520   2.528   4.659  1.00  0.00     0.034 A 
ATOM     49  C   UNL     1      13.483   5.863  -0.537  1.00  0.00     0.034 A 
ATOM     50  C   UNL     1      16.247   3.797   5.292  1.00  0.00     0.049 A 
ATOM     51  C   UNL     1      14.597   6.293   0.334  1.00  0.00     0.074 A 
ATOM     52  C   UNL     1      15.504   4.217   6.377  1.00  0.00     0.029 A 
ATOM     53  N   UNL     1      16.473   4.919   4.533  1.00  0.00    -0.354 N 
ATOM     54  N   UNL     1      14.443   7.091   1.352  1.00  0.00    -0.248 NA
ATOM     55  C   UNL     1      15.811   5.497   0.334  1.00  0.00     0.031 C 
ATOM     56  C   UNL     1      14.923   5.455   5.966  1.00  0.00     0.029 A 
ATOM     57  C   UNL     1      15.404   5.758   4.691  1.00  0.00     0.049 A 
ATOM     58  H   UNL     1      17.265   5.090   3.974  1.00  0.00     0.167 HD
ATOM     59  C   UNL     1      15.261   6.548   2.332  1.00  0.00     0.074 A 
ATOM     60  C   UNL     1      16.168   5.654   1.612  1.00  0.00     0.031 C 
ATOM     61  C   UNL     1      14.927   6.646   3.653  1.00  0.00     0.034 A 
BRANCH  48  62
ATOM     62  C   UNL     1      17.905   2.214   4.120  1.00  0.00     0.023 A 
ATOM     63  C   UNL     1      18.991   2.908   4.705  1.00  0.00     0.012 A 
ATOM     64  C   UNL     1      18.170   1.526   2.913  1.00  0.00     0.148 A 
ATOM     65  C   UNL     1      20.242   2.983   4.082  1.00  0.00     0.002 A 
ATOM     66  C   UNL     1      19.437   1.539   2.337  1.00  0.00     0.091 A 
ATOM     67  F   UNL     1      17.178   0.954   2.231  1.00  0.00    -0.205 F 
ATOM     68  C   UNL     1      20.467   2.296   2.897  1.00  0.00     0.022 A 
BRANCH  66  69
ATOM     69  S   UNL     1      19.797   0.632   0.827  1.00  0.00     0.127 S 
ATOM     70  O   UNL     1      19.932   1.718  -0.139  1.00  0.00    -0.237 OA
ATOM     71  O   UNL     1      21.044  -0.047   1.179  1.00  0.00    -0.237 OA
ATOM     72  O   UNL     1      18.665  -0.265   0.628  1.00  0.00    -0.744 OA
ENDBRANCH  66  69
ENDBRANCH  48  62
BRANCH  49  73
ATOM     73  C   UNL     1      13.529   6.079  -2.002  1.00  0.00     0.023 A 
ATOM     74  C   UNL     1      14.233   7.188  -2.517  1.00  0.00     0.012 A 
ATOM     75  C   UNL     1      13.174   5.044  -2.892  1.00  0.00     0.148 A 
ATOM     76  C   UNL     1      14.621   7.238  -3.861  1.00  0.00     0.002 A 
ATOM     77  C   UNL     1      13.563   5.098  -4.228  1.00  0.00     0.091 A 
ATOM     78  F   UNL     1      12.544   3.966  -2.408  1.00  0.00    -0.205 F 
ATOM     79  C   UNL     1      14.300   6.186  -4.713  1.00  0.00     0.022 A 
BRANCH  77  80
ATOM     80  S   UNL     1      13.223   3.758  -5.377  1.00  0.00     0.127 S 
ATOM     81  O   UNL     1      12.685   4.479  -6.531  1.00  0.00    -0.237 OA
ATOM     82  O   UNL     1      14.554   3.189  -5.574  1.00  0.00    -0.237 OA
ATOM     83  O   UNL     1      12.259   2.898  -4.703  1.00  0.00    -0.744 OA
ENDBRANCH  77  80
ENDBRANCH  49  73
BRANCH  61  84
ATOM     84  C   UNL     1      13.810   7.590   4.029  1.00  0.00     0.023 A 
ATOM     85  C   UNL     1      12.485   7.433   3.570  1.00  0.00     0.012 A 
ATOM     86  C   UNL     1      14.081   8.587   4.980  1.00  0.00     0.148 A 
ATOM     87  C   UNL     1      11.462   8.272   4.024  1.00  0.00     0.002 A 
ATOM     88  C   UNL     1      13.055   9.389   5.463  1.00  0.00     0.091 A 
ATOM     89  F   UNL     1      15.344   8.724   5.412  1.00  0.00    -0.205 F 
ATOM     90  C   UNL     1      11.746   9.244   4.979  1.00  0.00     0.022 A 
BRANCH  88  91
ATOM     91  S   UNL     1      13.341  10.577   6.776  1.00  0.00     0.127 S 
ATOM     92  O   UNL     1      13.358  11.842   6.044  1.00  0.00    -0.237 OA
ATOM     93  O   UNL     1      12.173  10.383   7.637  1.00  0.00    -0.237 OA
ATOM     94  O   UNL     1      14.604  10.191   7.395  1.00  0.00    -0.744 OA
ENDBRANCH  88  91
ENDBRANCH  61  84
ENDBRANCH  35  36
ENDBRANCH  27  30
ENDBRANCH  25  26
ENDBRANCH  24  25
ENDBRANCH   1  24
TORSDOF 18
