REMARK SMILES CC1(C)CC2=NC(=O)[C@H](C(=O)NCCCCNC(=O)c3ccc(-c4c5nc(c(-c6cccc(S(=O)(=O)[O-])c6F)c6ccc([nH]6)c(-c6cccc(S(=O)(=O)[O-])c6F)c6nc(c(-c7cccc(S(=O)(=O)[O-])c7F)c7ccc4[nH]7)C=C6)C=C5)cc3)C=C2CS1
REMARK SMILES IDX 16 1 15 2 14 3 13 4 12 5 10 6 11 7 9 9 1 10 2 11 3 12 4 13
REMARK SMILES IDX 86 14 5 15 85 16 6 17 84 18 7 19 83 20 8 21 17 22 18 23
REMARK SMILES IDX 19 25 20 26 21 27 82 28 22 29 81 30 23 31 24 32 25 33 75 34
REMARK SMILES IDX 26 35 80 36 74 37 76 38 27 39 79 40 73 41 72 42 28 44 60 45
REMARK SMILES IDX 40 46 59 47 41 48 44 49 58 50 77 51 42 52 43 53 57 55 78 56
REMARK SMILES IDX 45 57 29 58 30 59 38 60 31 61 33 62 39 63 32 64 34 65 35 66
REMARK SMILES IDX 36 67 37 68 61 69 62 70 70 71 63 72 65 73 71 74 64 75 66 76
REMARK SMILES IDX 67 77 68 78 69 79 46 80 47 81 55 82 48 83 50 84 56 85 49 86
REMARK SMILES IDX 51 87 52 88 53 89 54 90
REMARK H PARENT 12 8 17 24 76 43 44 54
REMARK Flexibility Score: inf
ROOT
ATOM      1  C   UNL     1      -2.889   8.515  -3.396  1.00  0.00     0.116 C 
ENDROOT
BRANCH   1   2
ATOM      2  C   UNL     1      -1.639   8.427  -4.270  1.00  0.00     0.023 C 
BRANCH   2   3
ATOM      3  C   UNL     1      -0.550   7.469  -3.772  1.00  0.00     0.023 C 
BRANCH   3   4
ATOM      4  C   UNL     1      -1.015   6.024  -3.594  1.00  0.00     0.116 C 
BRANCH   4   5
ATOM      5  N   UNL     1      -1.211   5.367  -4.873  1.00  0.00    -0.355 N 
ATOM      6  C   UNL     1      -0.408   4.595  -5.645  1.00  0.00     0.236 C 
ATOM      7  O   UNL     1      -0.878   4.280  -6.750  1.00  0.00    -0.274 OA
ATOM      8  H   UNL     1      -2.107   5.510  -5.256  1.00  0.00     0.163 HD
BRANCH   6   9
ATOM      9  C   UNL     1       0.934   4.006  -5.235  1.00  0.00     0.193 C 
ATOM     10  C   UNL     1       1.035   0.102   0.172  1.00  0.00     0.023 C 
ATOM     11  C   UNL     1       0.620   0.661  -1.200  1.00  0.00     0.016 C 
ATOM     12  C   UNL     1      -0.915   0.694  -1.265  1.00  0.00     0.023 C 
ATOM     13  C   UNL     1       1.230   2.050  -1.387  1.00  0.00     0.074 C 
ATOM     14  S   UNL     1       1.329  -0.454  -2.465  1.00  0.00    -0.150 SA
ATOM     15  C   UNL     1       1.243   2.651  -2.790  1.00  0.00     0.049 C 
ATOM     16  C   UNL     1       0.679   0.347  -3.938  1.00  0.00     0.107 C 
ATOM     17  N   UNL     1       1.599   3.897  -2.838  1.00  0.00    -0.217 NA
ATOM     18  C   UNL     1       0.898   1.824  -3.978  1.00  0.00    -0.019 C 
ATOM     19  C   UNL     1       1.660   4.571  -4.040  1.00  0.00     0.262 C 
ATOM     20  C   UNL     1       0.764   2.513  -5.121  1.00  0.00     0.002 C 
ATOM     21  O   UNL     1       2.251   5.646  -4.129  1.00  0.00    -0.271 OA
ENDBRANCH   6   9
ENDBRANCH   4   5
ENDBRANCH   3   4
ENDBRANCH   2   3
ENDBRANCH   1   2
BRANCH   1  22
ATOM     22  N   UNL     1      -2.605   8.870  -2.013  1.00  0.00    -0.352 N 
ATOM     23  C   UNL     1      -3.371   9.610  -1.145  1.00  0.00     0.251 C 
ATOM     24  H   UNL     1      -1.752   8.536  -1.653  1.00  0.00     0.163 HD
ATOM     25  O   UNL     1      -2.938   9.899  -0.032  1.00  0.00    -0.269 OA
BRANCH  23  26
ATOM     26  C   UNL     1      -4.703  10.087  -1.570  1.00  0.00     0.039 A 
ATOM     27  C   UNL     1      -5.023  11.436  -1.394  1.00  0.00     0.014 A 
ATOM     28  C   UNL     1      -5.620   9.216  -2.164  1.00  0.00     0.014 A 
ATOM     29  C   UNL     1      -6.239  11.927  -1.875  1.00  0.00     0.010 A 
ATOM     30  C   UNL     1      -6.802   9.719  -2.698  1.00  0.00     0.010 A 
ATOM     31  C   UNL     1      -7.124  11.079  -2.560  1.00  0.00    -0.014 A 
BRANCH  31  32
ATOM     32  C   UNL     1      -8.376  11.596  -3.167  1.00  0.00     0.031 A 
ATOM     33  C   UNL     1      -9.713  11.108  -2.686  1.00  0.00     0.074 A 
ATOM     34  C   UNL     1      -8.304  12.418  -4.232  1.00  0.00     0.049 A 
ATOM     35  N   UNL     1     -10.906  11.391  -3.141  1.00  0.00    -0.248 NA
ATOM     36  C   UNL     1      -9.708  10.148  -1.571  1.00  0.00     0.031 C 
ATOM     37  C   UNL     1      -7.065  12.879  -4.860  1.00  0.00     0.029 A 
ATOM     38  N   UNL     1      -9.295  12.978  -5.000  1.00  0.00    -0.354 N 
ATOM     39  C   UNL     1     -11.789  10.617  -2.399  1.00  0.00     0.074 A 
ATOM     40  C   UNL     1     -10.990   9.827  -1.486  1.00  0.00     0.031 C 
ATOM     41  C   UNL     1      -7.368  13.637  -5.925  1.00  0.00     0.029 A 
ATOM     42  C   UNL     1      -8.820  13.702  -6.067  1.00  0.00     0.049 A 
ATOM     43  H   UNL     1     -10.254  12.870  -4.805  1.00  0.00     0.167 HD
ATOM     44  C   UNL     1     -13.142  10.587  -2.449  1.00  0.00     0.034 A 
ATOM     45  C   UNL     1      -9.476  14.340  -7.057  1.00  0.00     0.034 A 
ATOM     46  C   UNL     1     -13.934  11.412  -3.321  1.00  0.00     0.049 A 
ATOM     47  C   UNL     1     -10.979  14.359  -7.045  1.00  0.00     0.074 A 
ATOM     48  C   UNL     1     -15.310  11.547  -3.365  1.00  0.00     0.029 A 
ATOM     49  N   UNL     1     -13.420  12.235  -4.312  1.00  0.00    -0.354 N 
ATOM     50  N   UNL     1     -11.803  13.775  -6.210  1.00  0.00    -0.248 NA
ATOM     51  C   UNL     1     -11.644  15.159  -8.084  1.00  0.00     0.031 C 
ATOM     52  C   UNL     1     -15.629  12.442  -4.393  1.00  0.00     0.029 A 
ATOM     53  C   UNL     1     -14.450  12.874  -4.980  1.00  0.00     0.049 A 
ATOM     54  H   UNL     1     -12.462  12.349  -4.511  1.00  0.00     0.167 HD
ATOM     55  C   UNL     1     -13.081  14.154  -6.604  1.00  0.00     0.074 A 
ATOM     56  C   UNL     1     -12.920  15.039  -7.740  1.00  0.00     0.031 C 
ATOM     57  C   UNL     1     -14.278  13.789  -6.081  1.00  0.00     0.034 A 
BRANCH  44  58
ATOM     58  C   UNL     1     -13.850   9.671  -1.485  1.00  0.00     0.023 A 
ATOM     59  C   UNL     1     -13.861   9.987  -0.110  1.00  0.00     0.012 A 
ATOM     60  C   UNL     1     -14.521   8.517  -1.932  1.00  0.00     0.148 A 
ATOM     61  C   UNL     1     -14.489   9.148   0.809  1.00  0.00     0.002 A 
ATOM     62  C   UNL     1     -15.182   7.707  -1.014  1.00  0.00     0.091 A 
ATOM     63  F   UNL     1     -14.479   8.214  -3.237  1.00  0.00    -0.205 F 
ATOM     64  C   UNL     1     -15.156   8.013   0.356  1.00  0.00     0.022 A 
BRANCH  62  65
ATOM     65  S   UNL     1     -16.129   6.266  -1.520  1.00  0.00     0.127 S 
ATOM     66  O   UNL     1     -15.192   5.181  -1.236  1.00  0.00    -0.237 OA
ATOM     67  O   UNL     1     -17.286   6.321  -0.625  1.00  0.00    -0.237 OA
ATOM     68  O   UNL     1     -16.447   6.480  -2.925  1.00  0.00    -0.744 OA
ENDBRANCH  62  65
ENDBRANCH  44  58
BRANCH  45  69
ATOM     69  C   UNL     1      -8.696  15.071  -8.093  1.00  0.00     0.023 A 
ATOM     70  C   UNL     1      -8.653  16.478  -8.062  1.00  0.00     0.012 A 
ATOM     71  C   UNL     1      -7.936  14.380  -9.056  1.00  0.00     0.148 A 
ATOM     72  C   UNL     1      -7.879  17.185  -8.982  1.00  0.00     0.002 A 
ATOM     73  C   UNL     1      -7.125  15.088  -9.936  1.00  0.00     0.091 A 
ATOM     74  F   UNL     1      -7.998  13.041  -9.072  1.00  0.00    -0.205 F 
ATOM     75  C   UNL     1      -7.106  16.491  -9.909  1.00  0.00     0.022 A 
BRANCH  73  76
ATOM     76  S   UNL     1      -5.991  14.278 -11.070  1.00  0.00     0.127 S 
ATOM     77  O   UNL     1      -6.595  14.584 -12.365  1.00  0.00    -0.237 OA
ATOM     78  O   UNL     1      -4.737  14.980 -10.793  1.00  0.00    -0.237 OA
ATOM     79  O   UNL     1      -5.990  12.872 -10.690  1.00  0.00    -0.744 OA
ENDBRANCH  73  76
ENDBRANCH  45  69
BRANCH  57  80
ATOM     80  C   UNL     1     -15.521  14.351  -6.720  1.00  0.00     0.023 A 
ATOM     81  C   UNL     1     -15.944  13.859  -7.970  1.00  0.00     0.012 A 
ATOM     82  C   UNL     1     -16.313  15.303  -6.047  1.00  0.00     0.148 A 
ATOM     83  C   UNL     1     -17.123  14.323  -8.552  1.00  0.00     0.002 A 
ATOM     84  C   UNL     1     -17.509  15.727  -6.613  1.00  0.00     0.091 A 
ATOM     85  F   UNL     1     -15.883  15.775  -4.868  1.00  0.00    -0.205 F 
ATOM     86  C   UNL     1     -17.911  15.246  -7.869  1.00  0.00     0.022 A 
BRANCH  84  87
ATOM     87  S   UNL     1     -18.631  16.843  -5.761  1.00  0.00     0.127 S 
ATOM     88  O   UNL     1     -18.409  18.096  -6.480  1.00  0.00    -0.237 OA
ATOM     89  O   UNL     1     -19.934  16.223  -6.005  1.00  0.00    -0.237 OA
ATOM     90  O   UNL     1     -18.215  16.837  -4.365  1.00  0.00    -0.744 OA
ENDBRANCH  84  87
ENDBRANCH  57  80
ENDBRANCH  31  32
ENDBRANCH  23  26
ENDBRANCH   1  22
TORSDOF 14
