REMARK SMILES C[C@@H]1C[C@](Nc2ccccc2F)(C(=O)NCCCCNC(=O)c2ccc(-c3c4nc(c(-c5cccc(S(=O)(=O)[O-])c5F)c5ccc([nH]5)c(-c5cccc(S(=O)(=O)[O-])c5F)c5nc(c(-c6cccc(S(=O)(=O)[O-])c6F)c6ccc3[nH]6)C=C5)C=C4)cc2)CS1
REMARK SMILES IDX 18 1 17 2 16 3 15 4 13 5 14 6 4 8 1 9 2 10 3 11 87 12 86 13
REMARK SMILES IDX 5 14 6 16 7 17 11 18 8 19 10 20 12 21 9 22 19 23 20 24 21 25
REMARK SMILES IDX 22 27 23 28 24 29 85 30 25 31 84 32 26 33 27 34 28 35 78 36
REMARK SMILES IDX 29 37 83 38 77 39 79 40 30 41 82 42 76 43 75 44 31 46 63 47
REMARK SMILES IDX 43 48 62 49 44 50 47 51 61 52 80 53 45 54 46 55 60 57 81 58
REMARK SMILES IDX 48 59 32 60 33 61 41 62 34 63 36 64 42 65 35 66 37 67 38 68
REMARK SMILES IDX 39 69 40 70 64 71 65 72 73 73 66 74 68 75 74 76 67 77 69 78
REMARK SMILES IDX 70 79 71 80 72 81 49 82 50 83 58 84 51 85 53 86 59 87 52 88
REMARK SMILES IDX 54 89 55 90 56 91 57 92
REMARK H PARENT 15 7 5 15 20 26 79 45 47 56
REMARK Flexibility Score: inf
ROOT
ATOM      1  C   UNL     1      -3.119   1.302   2.138  1.00  0.00     0.023 C 
ENDROOT
BRANCH   1   2
ATOM      2  C   UNL     1      -2.018   0.958   1.137  1.00  0.00     0.023 C 
BRANCH   2   3
ATOM      3  C   UNL     1      -2.354  -0.207   0.203  1.00  0.00     0.116 C 
BRANCH   3   4
ATOM      4  N   UNL     1      -3.157   0.237  -0.922  1.00  0.00    -0.354 N 
ATOM      5  C   UNL     1      -2.827   0.463  -2.227  1.00  0.00     0.246 C 
ATOM      6  O   UNL     1      -3.708   0.970  -2.936  1.00  0.00    -0.272 OA
ATOM      7  H   UNL     1      -4.103   0.405  -0.707  1.00  0.00     0.163 HD
BRANCH   5   8
ATOM      8  C   UNL     1      -1.417   0.114  -2.847  1.00  0.00     0.127 C 
ATOM      9  C   UNL     1       1.548   0.166  -0.522  1.00  0.00     0.019 C 
ATOM     10  C   UNL     1       0.934  -0.009  -1.910  1.00  0.00     0.046 C 
ATOM     11  C   UNL     1      -0.308   0.860  -2.086  1.00  0.00     0.053 C 
ATOM     12  S   UNL     1       0.458  -1.741  -2.148  1.00  0.00    -0.156 SA
ATOM     13  C   UNL     1      -1.224  -1.406  -2.748  1.00  0.00     0.108 C 
BRANCH   8  14
ATOM     14  N   UNL     1      -1.487   0.566  -4.268  1.00  0.00    -0.368 N 
ATOM     15  H   UNL     1      -2.382   0.737  -4.641  1.00  0.00     0.161 HD
BRANCH  14  16
ATOM     16  C   UNL     1      -0.405   0.765  -5.104  1.00  0.00     0.071 A 
ATOM     17  C   UNL     1       0.032   2.073  -5.356  1.00  0.00     0.029 A 
ATOM     18  C   UNL     1       0.301  -0.280  -5.715  1.00  0.00     0.146 A 
ATOM     19  C   UNL     1       1.144   2.324  -6.166  1.00  0.00     0.002 A 
ATOM     20  C   UNL     1       1.401  -0.039  -6.537  1.00  0.00     0.041 A 
ATOM     21  F   UNL     1      -0.101  -1.551  -5.568  1.00  0.00    -0.205 F 
ATOM     22  C   UNL     1       1.829   1.266  -6.758  1.00  0.00     0.003 A 
ENDBRANCH  14  16
ENDBRANCH   8  14
ENDBRANCH   5   8
ENDBRANCH   3   4
ENDBRANCH   2   3
ENDBRANCH   1   2
BRANCH   1  23
ATOM     23  C   UNL     1      -3.475   0.183   3.108  1.00  0.00     0.116 C 
BRANCH  23  24
ATOM     24  N   UNL     1      -2.335  -0.310   3.868  1.00  0.00    -0.352 N 
ATOM     25  C   UNL     1      -2.307  -0.744   5.176  1.00  0.00     0.251 C 
ATOM     26  H   UNL     1      -1.476  -0.337   3.387  1.00  0.00     0.163 HD
ATOM     27  O   UNL     1      -1.251  -1.035   5.713  1.00  0.00    -0.269 OA
BRANCH  25  28
ATOM     28  C   UNL     1      -3.580  -0.807   5.924  1.00  0.00     0.039 A 
ATOM     29  C   UNL     1      -3.672  -0.153   7.154  1.00  0.00     0.014 A 
ATOM     30  C   UNL     1      -4.693  -1.445   5.370  1.00  0.00     0.014 A 
ATOM     31  C   UNL     1      -4.909  -0.073   7.795  1.00  0.00     0.010 A 
ATOM     32  C   UNL     1      -5.936  -1.300   5.974  1.00  0.00     0.010 A 
ATOM     33  C   UNL     1      -6.058  -0.610   7.189  1.00  0.00    -0.014 A 
BRANCH  33  34
ATOM     34  C   UNL     1      -7.402  -0.434   7.791  1.00  0.00     0.031 A 
ATOM     35  C   UNL     1      -8.192  -1.633   8.236  1.00  0.00     0.074 A 
ATOM     36  C   UNL     1      -7.949   0.796   7.846  1.00  0.00     0.049 A 
ATOM     37  N   UNL     1      -9.405  -1.683   8.719  1.00  0.00    -0.248 NA
ATOM     38  C   UNL     1      -7.547  -2.950   8.094  1.00  0.00     0.031 C 
ATOM     39  C   UNL     1      -7.314   2.026   7.366  1.00  0.00     0.029 A 
ATOM     40  N   UNL     1      -9.174   1.214   8.305  1.00  0.00    -0.354 N 
ATOM     41  C   UNL     1      -9.682  -3.031   8.906  1.00  0.00     0.074 A 
ATOM     42  C   UNL     1      -8.525  -3.770   8.453  1.00  0.00     0.031 C 
ATOM     43  C   UNL     1      -8.148   3.059   7.566  1.00  0.00     0.029 A 
ATOM     44  C   UNL     1      -9.386   2.566   8.161  1.00  0.00     0.049 A 
ATOM     45  H   UNL     1      -9.838   0.604   8.700  1.00  0.00     0.167 HD
ATOM     46  C   UNL     1     -10.788  -3.601   9.441  1.00  0.00     0.034 A 
ATOM     47  C   UNL     1     -10.456   3.323   8.474  1.00  0.00     0.034 A 
ATOM     48  C   UNL     1     -11.910  -2.859   9.944  1.00  0.00     0.049 A 
ATOM     49  C   UNL     1     -11.650   2.672   9.118  1.00  0.00     0.074 A 
ATOM     50  C   UNL     1     -13.036  -3.341  10.588  1.00  0.00     0.029 A 
ATOM     51  N   UNL     1     -12.050  -1.483   9.866  1.00  0.00    -0.354 N 
ATOM     52  N   UNL     1     -11.831   1.411   9.428  1.00  0.00    -0.248 NA
ATOM     53  C   UNL     1     -12.772   3.547   9.489  1.00  0.00     0.031 C 
ATOM     54  C   UNL     1     -13.864  -2.256  10.888  1.00  0.00     0.029 A 
ATOM     55  C   UNL     1     -13.245  -1.097  10.447  1.00  0.00     0.049 A 
ATOM     56  H   UNL     1     -11.397  -0.870   9.457  1.00  0.00     0.167 HD
ATOM     57  C   UNL     1     -13.069   1.345  10.056  1.00  0.00     0.074 A 
ATOM     58  C   UNL     1     -13.588   2.697  10.099  1.00  0.00     0.031 C 
ATOM     59  C   UNL     1     -13.723   0.259  10.536  1.00  0.00     0.034 A 
BRANCH  46  60
ATOM     60  C   UNL     1     -10.810  -5.099   9.582  1.00  0.00     0.023 A 
ATOM     61  C   UNL     1     -10.010  -5.709  10.570  1.00  0.00     0.012 A 
ATOM     62  C   UNL     1     -11.679  -5.892   8.808  1.00  0.00     0.148 A 
ATOM     63  C   UNL     1     -10.057  -7.087  10.771  1.00  0.00     0.002 A 
ATOM     64  C   UNL     1     -11.752  -7.260   9.043  1.00  0.00     0.091 A 
ATOM     65  F   UNL     1     -12.414  -5.295   7.859  1.00  0.00    -0.205 F 
ATOM     66  C   UNL     1     -10.936  -7.860  10.017  1.00  0.00     0.022 A 
BRANCH  64  67
ATOM     67  S   UNL     1     -12.909  -8.332   8.184  1.00  0.00     0.127 S 
ATOM     68  O   UNL     1     -12.011  -9.121   7.342  1.00  0.00    -0.237 OA
ATOM     69  O   UNL     1     -13.519  -9.074   9.287  1.00  0.00    -0.237 OA
ATOM     70  O   UNL     1     -13.820  -7.449   7.468  1.00  0.00    -0.744 OA
ENDBRANCH  64  67
ENDBRANCH  46  60
BRANCH  47  71
ATOM     71  C   UNL     1     -10.399   4.798   8.264  1.00  0.00     0.023 A 
ATOM     72  C   UNL     1     -10.292   5.646   9.383  1.00  0.00     0.012 A 
ATOM     73  C   UNL     1     -10.380   5.359   6.972  1.00  0.00     0.148 A 
ATOM     74  C   UNL     1     -10.185   7.028   9.222  1.00  0.00     0.002 A 
ATOM     75  C   UNL     1     -10.218   6.732   6.817  1.00  0.00     0.091 A 
ATOM     76  F   UNL     1     -10.495   4.536   5.920  1.00  0.00    -0.205 F 
ATOM     77  C   UNL     1     -10.135   7.569   7.940  1.00  0.00     0.022 A 
BRANCH  75  78
ATOM     78  S   UNL     1      -9.998   7.501   5.208  1.00  0.00     0.127 S 
ATOM     79  O   UNL     1     -11.251   8.234   5.053  1.00  0.00    -0.237 OA
ATOM     80  O   UNL     1      -8.818   8.336   5.431  1.00  0.00    -0.237 OA
ATOM     81  O   UNL     1      -9.786   6.403   4.273  1.00  0.00    -0.744 OA
ENDBRANCH  75  78
ENDBRANCH  47  71
BRANCH  59  82
ATOM     82  C   UNL     1     -15.070   0.468  11.176  1.00  0.00     0.023 A 
ATOM     83  C   UNL     1     -16.192   0.723  10.363  1.00  0.00     0.012 A 
ATOM     84  C   UNL     1     -15.245   0.283  12.562  1.00  0.00     0.148 A 
ATOM     85  C   UNL     1     -17.466   0.806  10.922  1.00  0.00     0.002 A 
ATOM     86  C   UNL     1     -16.523   0.321  13.105  1.00  0.00     0.091 A 
ATOM     87  F   UNL     1     -14.161   0.058  13.318  1.00  0.00    -0.205 F 
ATOM     88  C   UNL     1     -17.634   0.590  12.289  1.00  0.00     0.022 A 
BRANCH  86  89
ATOM     89  S   UNL     1     -16.846  -0.048  14.834  1.00  0.00     0.127 S 
ATOM     90  O   UNL     1     -17.173   1.275  15.364  1.00  0.00    -0.237 OA
ATOM     91  O   UNL     1     -17.981  -0.968  14.750  1.00  0.00    -0.237 OA
ATOM     92  O   UNL     1     -15.623  -0.644  15.353  1.00  0.00    -0.744 OA
ENDBRANCH  86  89
ENDBRANCH  59  82
ENDBRANCH  33  34
ENDBRANCH  25  28
ENDBRANCH  23  24
ENDBRANCH   1  23
TORSDOF 16
