REMARK SMILES O=C(CCCC[C@H](O)c1ccc(Cl)s1)NCCCCNC(=O)c1ccc(-c2c3nc(c(-c4cccc(S(=O)(=O)[O-])c4F)c4ccc([nH]4)c(-c4cccc(S(=O)(=O)[O-])c4F)c4nc(c(-c5cccc(S(=O)(=O)[O-])c5F)c5ccc2[nH]5)C=C4)C=C3)cc1
REMARK SMILES IDX 16 1 15 2 1 3 2 4 3 6 4 7 5 8 6 9 7 10 9 11 10 12 14 13
REMARK SMILES IDX 11 14 12 15 13 16 8 17 17 19 18 20 19 21 20 22 21 23 22 25
REMARK SMILES IDX 23 26 24 27 85 28 25 29 84 30 26 31 27 32 28 33 78 34 29 35
REMARK SMILES IDX 83 36 77 37 79 38 30 39 82 40 76 41 75 42 31 44 63 45 43 46
REMARK SMILES IDX 62 47 44 48 47 49 61 50 80 51 45 52 46 53 60 55 81 56 48 57
REMARK SMILES IDX 32 58 33 59 41 60 34 61 36 62 42 63 35 64 37 65 38 66 39 67
REMARK SMILES IDX 40 68 64 69 65 70 73 71 66 72 68 73 74 74 67 75 69 76 70 77
REMARK SMILES IDX 71 78 72 79 49 80 50 81 58 82 51 83 53 84 59 85 52 86 54 87
REMARK SMILES IDX 55 88 56 89 57 90
REMARK H PARENT 15 5 8 18 20 24 79 43 47 54
REMARK Flexibility Score: inf
ROOT
ATOM      1  C   UNL     1      11.806   4.539  -1.970  1.00  0.00     0.116 C 
ENDROOT
BRANCH   1   2
ATOM      2  N   UNL     1      10.684   3.708  -2.333  1.00  0.00    -0.356 N 
ATOM      3  O   UNL     1      11.364   3.121  -4.446  1.00  0.00    -0.275 OA
ATOM      4  C   UNL     1      10.533   3.101  -3.549  1.00  0.00     0.219 C 
ATOM      5  H   UNL     1       9.980   3.568  -1.659  1.00  0.00     0.163 HD
BRANCH   4   6
ATOM      6  C   UNL     1       9.198   2.401  -3.676  1.00  0.00     0.100 C 
BRANCH   6   7
ATOM      7  C   UNL     1       9.183   1.054  -2.964  1.00  0.00     0.010 C 
BRANCH   7   8
ATOM      8  C   UNL     1       8.826   1.034  -1.471  1.00  0.00     0.004 C 
BRANCH   8   9
ATOM      9  C   UNL     1       7.334   1.042  -1.109  1.00  0.00     0.037 C 
BRANCH   9  10
ATOM     10  C   UNL     1       6.435  -0.117  -1.595  1.00  0.00     0.154 C 
BRANCH  10  11
ATOM     11  C   UNL     1       7.134  -1.403  -1.965  1.00  0.00     0.035 A 
ATOM     12  C   UNL     1       7.521  -1.805  -3.236  1.00  0.00     0.020 A 
ATOM     13  S   UNL     1       7.553  -2.604  -0.805  1.00  0.00    -0.126 S 
ATOM     14  C   UNL     1       8.273  -3.012  -3.235  1.00  0.00     0.033 A 
ATOM     15  C   UNL     1       8.292  -3.567  -1.984  1.00  0.00     0.093 A 
ATOM     16  Cl  UNL     1       8.981  -5.081  -1.560  1.00  0.00    -0.072 Cl
ENDBRANCH  10  11
BRANCH  10  17
ATOM     17  O   UNL     1       5.448  -0.433  -0.614  1.00  0.00    -0.388 OA
ATOM     18  H   UNL     1       5.882  -0.778   0.182  1.00  0.00     0.211 HD
ENDBRANCH  10  17
ENDBRANCH   9  10
ENDBRANCH   8   9
ENDBRANCH   7   8
ENDBRANCH   6   7
ENDBRANCH   4   6
ENDBRANCH   1   2
BRANCH   1  19
ATOM     19  C   UNL     1      11.300   5.883  -1.450  1.00  0.00     0.023 C 
BRANCH  19  20
ATOM     20  C   UNL     1      10.318   5.782  -0.273  1.00  0.00     0.023 C 
BRANCH  20  21
ATOM     21  C   UNL     1      10.820   4.964   0.914  1.00  0.00     0.116 C 
BRANCH  21  22
ATOM     22  N   UNL     1      12.051   5.511   1.457  1.00  0.00    -0.352 N 
ATOM     23  C   UNL     1      12.292   6.048   2.696  1.00  0.00     0.251 C 
ATOM     24  H   UNL     1      12.825   5.493   0.848  1.00  0.00     0.163 HD
ATOM     25  O   UNL     1      13.318   6.694   2.890  1.00  0.00    -0.269 OA
BRANCH  23  26
ATOM     26  C   UNL     1      11.316   5.856   3.790  1.00  0.00     0.039 A 
ATOM     27  C   UNL     1      11.001   6.941   4.611  1.00  0.00     0.014 A 
ATOM     28  C   UNL     1      10.733   4.607   4.022  1.00  0.00     0.014 A 
ATOM     29  C   UNL     1      10.064   6.785   5.635  1.00  0.00     0.010 A 
ATOM     30  C   UNL     1       9.745   4.473   4.994  1.00  0.00     0.010 A 
ATOM     31  C   UNL     1       9.406   5.557   5.817  1.00  0.00    -0.014 A 
BRANCH  31  32
ATOM     32  C   UNL     1       8.354   5.397   6.854  1.00  0.00     0.031 A 
ATOM     33  C   UNL     1       8.536   4.417   7.982  1.00  0.00     0.074 A 
ATOM     34  C   UNL     1       7.198   6.081   6.739  1.00  0.00     0.049 A 
ATOM     35  N   UNL     1       7.708   4.107   8.945  1.00  0.00    -0.248 NA
ATOM     36  C   UNL     1       9.803   3.668   8.018  1.00  0.00     0.031 C 
ATOM     37  C   UNL     1       6.869   7.005   5.651  1.00  0.00     0.029 A 
ATOM     38  N   UNL     1       6.075   6.085   7.528  1.00  0.00    -0.354 N 
ATOM     39  C   UNL     1       8.336   3.110   9.683  1.00  0.00     0.074 A 
ATOM     40  C   UNL     1       9.600   2.840   9.032  1.00  0.00     0.031 C 
ATOM     41  C   UNL     1       5.631   7.487   5.843  1.00  0.00     0.029 A 
ATOM     42  C   UNL     1       5.064   6.882   7.044  1.00  0.00     0.049 A 
ATOM     43  H   UNL     1       6.001   5.567   8.362  1.00  0.00     0.167 HD
ATOM     44  C   UNL     1       7.915   2.495  10.814  1.00  0.00     0.034 A 
ATOM     45  C   UNL     1       3.815   7.091   7.505  1.00  0.00     0.034 A 
ATOM     46  C   UNL     1       6.671   2.787  11.475  1.00  0.00     0.049 A 
ATOM     47  C   UNL     1       3.380   6.414   8.775  1.00  0.00     0.074 A 
ATOM     48  C   UNL     1       6.190   2.274  12.666  1.00  0.00     0.029 A 
ATOM     49  N   UNL     1       5.704   3.657  10.996  1.00  0.00    -0.354 N 
ATOM     50  N   UNL     1       4.050   5.587   9.540  1.00  0.00    -0.248 NA
ATOM     51  C   UNL     1       2.030   6.726   9.267  1.00  0.00     0.031 C 
ATOM     52  C   UNL     1       4.917   2.810  12.891  1.00  0.00     0.029 A 
ATOM     53  C   UNL     1       4.623   3.687  11.860  1.00  0.00     0.049 A 
ATOM     54  H   UNL     1       5.776   4.178  10.163  1.00  0.00     0.167 HD
ATOM     55  C   UNL     1       3.220   5.309  10.620  1.00  0.00     0.074 A 
ATOM     56  C   UNL     1       2.005   6.073  10.420  1.00  0.00     0.031 C 
ATOM     57  C   UNL     1       3.438   4.486  11.676  1.00  0.00     0.034 A 
BRANCH  44  58
ATOM     58  C   UNL     1       8.831   1.472  11.437  1.00  0.00     0.023 A 
ATOM     59  C   UNL     1      10.033   1.889  12.045  1.00  0.00     0.012 A 
ATOM     60  C   UNL     1       8.478   0.108  11.472  1.00  0.00     0.148 A 
ATOM     61  C   UNL     1      10.888   0.964  12.641  1.00  0.00     0.002 A 
ATOM     62  C   UNL     1       9.312  -0.802  12.112  1.00  0.00     0.091 A 
ATOM     63  F   UNL     1       7.341  -0.274  10.874  1.00  0.00    -0.205 F 
ATOM     64  C   UNL     1      10.523  -0.379  12.684  1.00  0.00     0.022 A 
BRANCH  62  65
ATOM     65  S   UNL     1       8.893  -2.539  12.295  1.00  0.00     0.127 S 
ATOM     66  O   UNL     1       9.869  -3.172  11.410  1.00  0.00    -0.237 OA
ATOM     67  O   UNL     1       9.129  -2.762  13.722  1.00  0.00    -0.237 OA
ATOM     68  O   UNL     1       7.502  -2.663  11.882  1.00  0.00    -0.744 OA
ENDBRANCH  62  65
ENDBRANCH  44  58
BRANCH  45  69
ATOM     69  C   UNL     1       2.903   8.020   6.780  1.00  0.00     0.023 A 
ATOM     70  C   UNL     1       2.554   9.253   7.365  1.00  0.00     0.012 A 
ATOM     71  C   UNL     1       2.402   7.699   5.503  1.00  0.00     0.148 A 
ATOM     72  C   UNL     1       1.694  10.134   6.708  1.00  0.00     0.002 A 
ATOM     73  C   UNL     1       1.594   8.607   4.829  1.00  0.00     0.091 A 
ATOM     74  F   UNL     1       2.739   6.518   4.968  1.00  0.00    -0.205 F 
ATOM     75  C   UNL     1       1.223   9.816   5.436  1.00  0.00     0.022 A 
BRANCH  73  76
ATOM     76  S   UNL     1       1.056   8.341   3.136  1.00  0.00     0.127 S 
ATOM     77  O   UNL     1      -0.379   8.132   3.307  1.00  0.00    -0.237 OA
ATOM     78  O   UNL     1       1.424   9.607   2.501  1.00  0.00    -0.237 OA
ATOM     79  O   UNL     1       1.810   7.190   2.657  1.00  0.00    -0.744 OA
ENDBRANCH  73  76
ENDBRANCH  45  69
BRANCH  57  80
ATOM     80  C   UNL     1       2.363   4.396  12.727  1.00  0.00     0.023 A 
ATOM     81  C   UNL     1       1.153   3.732  12.445  1.00  0.00     0.012 A 
ATOM     82  C   UNL     1       2.583   4.910  14.021  1.00  0.00     0.148 A 
ATOM     83  C   UNL     1       0.165   3.612  13.422  1.00  0.00     0.002 A 
ATOM     84  C   UNL     1       1.617   4.740  15.005  1.00  0.00     0.091 A 
ATOM     85  F   UNL     1       3.734   5.553  14.265  1.00  0.00    -0.205 F 
ATOM     86  C   UNL     1       0.401   4.104  14.703  1.00  0.00     0.022 A 
BRANCH  84  87
ATOM     87  S   UNL     1       1.873   5.253  16.707  1.00  0.00     0.127 S 
ATOM     88  O   UNL     1       0.953   6.384  16.818  1.00  0.00    -0.237 OA
ATOM     89  O   UNL     1       1.467   4.061  17.453  1.00  0.00    -0.237 OA
ATOM     90  O   UNL     1       3.286   5.586  16.819  1.00  0.00    -0.744 OA
ENDBRANCH  84  87
ENDBRANCH  57  80
ENDBRANCH  31  32
ENDBRANCH  23  26
ENDBRANCH  21  22
ENDBRANCH  20  21
ENDBRANCH  19  20
ENDBRANCH   1  19
TORSDOF 20
