REMARK SMILES O=C(CCC(=O)/[NH+]=C1\S[C@H]2CS(=O)(=O)C[C@@H]2N1c1ccc(Oc2ccccc2)cc1)NCCCCNC(=O)c1ccc(-c2c3nc(c(-c4cccc(S(=O)(=O)[O-])c4F)c4ccc([nH]4)c(-c4cccc(S(=O)(=O)[O-])c4F)c4nc(c(-c5cccc(S(=O)(=O)[O-])c5F)c5ccc2[nH]5)C=C4)C=C3)cc1
REMARK SMILES IDX 32 1 31 2 2 3 1 4 3 6 4 7 5 8 6 9 7 10 8 11 9 13 17 14 10 15
REMARK SMILES IDX 16 16 11 17 15 18 12 19 13 20 14 21 18 22 19 23 30 24 20 25
REMARK SMILES IDX 29 26 21 27 22 28 23 29 24 30 28 31 25 32 27 33 26 34 33 35
REMARK SMILES IDX 34 36 35 37 36 38 37 39 38 41 39 42 40 43 101 44 41 45
REMARK SMILES IDX 100 46 42 47 43 48 44 49 94 50 45 51 99 52 93 53 95 54 46 55
REMARK SMILES IDX 98 56 92 57 91 58 47 60 79 61 59 62 78 63 60 64 63 65 77 66
REMARK SMILES IDX 96 67 61 68 62 69 76 71 97 72 64 73 48 74 49 75 57 76 50 77
REMARK SMILES IDX 52 78 58 79 51 80 53 81 54 82 55 83 56 84 80 85 81 86 89 87
REMARK SMILES IDX 82 88 84 89 90 90 83 91 85 92 86 93 87 94 88 95 65 96 66 97
REMARK SMILES IDX 74 98 67 99 69 100 75 101 68 102 70 103 71 104 72 105 73 106
REMARK H PARENT 31 5 7 12 36 40 95 59 63 70
REMARK Flexibility Score: inf
ROOT
ATOM      1  C   UNL     1       2.060   0.830   2.427  1.00  0.00     0.116 C 
ENDROOT
BRANCH   1   2
ATOM      2  N   UNL     1       3.497   0.909   2.225  1.00  0.00    -0.356 N 
ATOM      3  C   UNL     1       4.213   1.336   1.154  1.00  0.00     0.220 C 
ATOM      4  O   UNL     1       5.440   1.413   1.246  1.00  0.00    -0.275 OA
ATOM      5  H   UNL     1       4.038   0.603   2.989  1.00  0.00     0.163 HD
BRANCH   3   6
ATOM      6  C   UNL     1       3.517   1.710  -0.125  1.00  0.00     0.112 C 
BRANCH   6   7
ATOM      7  C   UNL     1       3.233   0.608  -1.137  1.00  0.00     0.138 C 
BRANCH   7   8
ATOM      8  C   UNL     1       3.134  -0.872  -0.770  1.00  0.00     0.308 C 
ATOM      9  O   UNL     1       2.331  -1.569  -1.393  1.00  0.00    -0.247 OA
ATOM     10  N   UNL     1       3.875  -1.397   0.250  1.00  0.00    -0.204 N 
ATOM     11  C   UNL     1       5.162  -1.486   0.216  1.00  0.00     0.319 C 
ATOM     12  H   UNL     1       3.405  -1.725   1.050  1.00  0.00     0.316 HD
ATOM     13  S   UNL     1       6.168  -0.875  -1.130  1.00  0.00    -0.029 SA
ATOM     14  N   UNL     1       5.989  -1.960   1.241  1.00  0.00    -0.217 N 
ATOM     15  C   UNL     1       7.674  -1.344  -0.261  1.00  0.00     0.120 C 
ATOM     16  C   UNL     1       7.294  -1.313   1.225  1.00  0.00     0.212 C 
ATOM     17  C   UNL     1       8.900  -0.480  -0.357  1.00  0.00     0.156 C 
ATOM     18  C   UNL     1       8.504  -1.907   1.916  1.00  0.00     0.188 C 
ATOM     19  S   UNL     1       9.861  -1.108   1.025  1.00  0.00     0.155 S 
ATOM     20  O   UNL     1      10.750  -2.131   0.511  1.00  0.00    -0.229 OA
ATOM     21  O   UNL     1      10.337   0.021   1.788  1.00  0.00    -0.229 OA
BRANCH  14  22
ATOM     22  C   UNL     1       5.585  -2.836   2.249  1.00  0.00     0.128 A 
ATOM     23  C   UNL     1       5.904  -2.643   3.600  1.00  0.00     0.056 A 
ATOM     24  C   UNL     1       4.792  -3.952   1.924  1.00  0.00     0.056 A 
ATOM     25  C   UNL     1       5.425  -3.518   4.584  1.00  0.00     0.051 A 
ATOM     26  C   UNL     1       4.304  -4.823   2.901  1.00  0.00     0.051 A 
ATOM     27  C   UNL     1       4.608  -4.595   4.236  1.00  0.00     0.127 A 
BRANCH  27  28
ATOM     28  O   UNL     1       4.039  -5.277   5.279  1.00  0.00    -0.457 OA
BRANCH  28  29
ATOM     29  C   UNL     1       3.592  -6.567   5.100  1.00  0.00     0.127 A 
ATOM     30  C   UNL     1       2.318  -6.855   5.602  1.00  0.00     0.047 A 
ATOM     31  C   UNL     1       4.447  -7.601   4.716  1.00  0.00     0.047 A 
ATOM     32  C   UNL     1       1.915  -8.178   5.770  1.00  0.00     0.004 A 
ATOM     33  C   UNL     1       4.024  -8.927   4.848  1.00  0.00     0.004 A 
ATOM     34  C   UNL     1       2.771  -9.214   5.396  1.00  0.00     0.000 A 
ENDBRANCH  28  29
ENDBRANCH  27  28
ENDBRANCH  14  22
ENDBRANCH   7   8
ENDBRANCH   6   7
ENDBRANCH   3   6
ENDBRANCH   1   2
BRANCH   1  35
ATOM     35  C   UNL     1       1.488  -0.588   2.392  1.00  0.00     0.023 C 
BRANCH  35  36
ATOM     36  C   UNL     1       2.263  -1.628   3.197  1.00  0.00     0.023 C 
BRANCH  36  37
ATOM     37  C   UNL     1       2.375  -1.369   4.690  1.00  0.00     0.116 C 
BRANCH  37  38
ATOM     38  N   UNL     1       1.095  -1.464   5.360  1.00  0.00    -0.352 N 
ATOM     39  C   UNL     1       0.721  -2.196   6.459  1.00  0.00     0.251 C 
ATOM     40  H   UNL     1       0.379  -0.916   4.964  1.00  0.00     0.163 HD
ATOM     41  O   UNL     1      -0.479  -2.282   6.715  1.00  0.00    -0.269 OA
BRANCH  39  42
ATOM     42  C   UNL     1       1.710  -2.891   7.328  1.00  0.00     0.039 A 
ATOM     43  C   UNL     1       1.301  -4.066   7.972  1.00  0.00     0.014 A 
ATOM     44  C   UNL     1       2.992  -2.393   7.577  1.00  0.00     0.014 A 
ATOM     45  C   UNL     1       2.177  -4.758   8.814  1.00  0.00     0.010 A 
ATOM     46  C   UNL     1       3.890  -3.119   8.365  1.00  0.00     0.010 A 
ATOM     47  C   UNL     1       3.488  -4.301   9.004  1.00  0.00    -0.014 A 
BRANCH  47  48
ATOM     48  C   UNL     1       4.426  -5.031   9.899  1.00  0.00     0.031 A 
ATOM     49  C   UNL     1       4.829  -4.434  11.205  1.00  0.00     0.074 A 
ATOM     50  C   UNL     1       4.945  -6.220   9.538  1.00  0.00     0.049 A 
ATOM     51  N   UNL     1       5.548  -4.971  12.152  1.00  0.00    -0.248 NA
ATOM     52  C   UNL     1       4.367  -3.067  11.491  1.00  0.00     0.031 C 
ATOM     53  C   UNL     1       4.628  -6.886   8.291  1.00  0.00     0.029 A 
ATOM     54  N   UNL     1       5.836  -7.072  10.139  1.00  0.00    -0.354 N 
ATOM     55  C   UNL     1       5.627  -4.015  13.149  1.00  0.00     0.074 A 
ATOM     56  C   UNL     1       4.927  -2.842  12.669  1.00  0.00     0.031 C 
ATOM     57  C   UNL     1       5.319  -8.028   8.189  1.00  0.00     0.029 A 
ATOM     58  C   UNL     1       6.133  -8.184   9.379  1.00  0.00     0.049 A 
ATOM     59  H   UNL     1       6.226  -6.906  11.027  1.00  0.00     0.167 HD
ATOM     60  C   UNL     1       6.205  -4.123  14.366  1.00  0.00     0.034 A 
ATOM     61  C   UNL     1       6.944  -9.232   9.611  1.00  0.00     0.034 A 
ATOM     62  C   UNL     1       6.915  -5.289  14.817  1.00  0.00     0.049 A 
ATOM     63  C   UNL     1       7.602  -9.312  10.954  1.00  0.00     0.074 A 
ATOM     64  C   UNL     1       7.483  -5.523  16.055  1.00  0.00     0.029 A 
ATOM     65  N   UNL     1       7.191  -6.402  14.034  1.00  0.00    -0.354 N 
ATOM     66  N   UNL     1       7.516  -8.471  11.955  1.00  0.00    -0.248 NA
ATOM     67  C   UNL     1       8.407 -10.507  11.229  1.00  0.00     0.031 C 
ATOM     68  C   UNL     1       8.150  -6.752  16.003  1.00  0.00     0.029 A 
ATOM     69  C   UNL     1       7.954  -7.311  14.750  1.00  0.00     0.049 A 
ATOM     70  H   UNL     1       6.889  -6.528  13.106  1.00  0.00     0.167 HD
ATOM     71  C   UNL     1       8.213  -9.056  13.000  1.00  0.00     0.074 A 
ATOM     72  C   UNL     1       8.700 -10.332  12.510  1.00  0.00     0.031 C 
ATOM     73  C   UNL     1       8.426  -8.579  14.251  1.00  0.00     0.034 A 
BRANCH  60  74
ATOM     74  C   UNL     1       6.087  -2.931  15.272  1.00  0.00     0.023 A 
ATOM     75  C   UNL     1       4.832  -2.572  15.809  1.00  0.00     0.012 A 
ATOM     76  C   UNL     1       7.217  -2.151  15.572  1.00  0.00     0.148 A 
ATOM     77  C   UNL     1       4.697  -1.423  16.587  1.00  0.00     0.002 A 
ATOM     78  C   UNL     1       7.084  -1.038  16.390  1.00  0.00     0.091 A 
ATOM     79  F   UNL     1       8.392  -2.492  15.024  1.00  0.00    -0.205 F 
ATOM     80  C   UNL     1       5.824  -0.662  16.884  1.00  0.00     0.022 A 
BRANCH  78  81
ATOM     81  S   UNL     1       8.487  -0.035  16.885  1.00  0.00     0.127 S 
ATOM     82  O   UNL     1       8.228   1.210  16.162  1.00  0.00    -0.237 OA
ATOM     83  O   UNL     1       8.303   0.050  18.334  1.00  0.00    -0.237 OA
ATOM     84  O   UNL     1       9.673  -0.766  16.464  1.00  0.00    -0.744 OA
ENDBRANCH  78  81
ENDBRANCH  60  74
BRANCH  61  85
ATOM     85  C   UNL     1       7.072 -10.332   8.611  1.00  0.00     0.023 A 
ATOM     86  C   UNL     1       6.499 -11.590   8.888  1.00  0.00     0.012 A 
ATOM     87  C   UNL     1       7.724 -10.136   7.377  1.00  0.00     0.148 A 
ATOM     88  C   UNL     1       6.610 -12.643   7.979  1.00  0.00     0.002 A 
ATOM     89  C   UNL     1       7.788 -11.175   6.454  1.00  0.00     0.091 A 
ATOM     90  F   UNL     1       8.257  -8.933   7.125  1.00  0.00    -0.205 F 
ATOM     91  C   UNL     1       7.249 -12.435   6.760  1.00  0.00     0.022 A 
BRANCH  89  92
ATOM     92  S   UNL     1       8.479 -10.974   4.808  1.00  0.00     0.127 S 
ATOM     93  O   UNL     1       9.641 -11.858   4.860  1.00  0.00    -0.237 OA
ATOM     94  O   UNL     1       7.380 -11.446   3.965  1.00  0.00    -0.237 OA
ATOM     95  O   UNL     1       8.774  -9.554   4.671  1.00  0.00    -0.744 OA
ENDBRANCH  89  92
ENDBRANCH  61  85
BRANCH  73  96
ATOM     96  C   UNL     1       9.213  -9.460  15.183  1.00  0.00     0.023 A 
ATOM     97  C   UNL     1      10.585  -9.688  14.950  1.00  0.00     0.012 A 
ATOM     98  C   UNL     1       8.594 -10.043  16.305  1.00  0.00     0.148 A 
ATOM     99  C   UNL     1      11.314 -10.528  15.790  1.00  0.00     0.002 A 
ATOM    100  C   UNL     1       9.342 -10.826  17.172  1.00  0.00     0.091 A 
ATOM    101  F   UNL     1       7.283  -9.833  16.495  1.00  0.00    -0.205 F 
ATOM    102  C   UNL     1      10.696 -11.087  16.906  1.00  0.00     0.022 A 
BRANCH 100 103
ATOM    103  S   UNL     1       8.657 -11.498  18.689  1.00  0.00     0.127 S 
ATOM    104  O   UNL     1       8.550 -12.919  18.365  1.00  0.00    -0.237 OA
ATOM    105  O   UNL     1       9.695 -11.170  19.667  1.00  0.00    -0.237 OA
ATOM    106  O   UNL     1       7.391 -10.807  18.898  1.00  0.00    -0.744 OA
ENDBRANCH 100 103
ENDBRANCH  73  96
ENDBRANCH  47  48
ENDBRANCH  39  42
ENDBRANCH  37  38
ENDBRANCH  36  37
ENDBRANCH  35  36
ENDBRANCH   1  35
TORSDOF 19
