REMARK SMILES O=C(NCCCCNC(=O)c1coc(-c2csc(-c3ccc(Cl)cn3)n2)c1)c1ccc(-c2c3nc(c(-c4cccc(S(=O)(=O)[O-])c4F)c4ccc([nH]4)c(-c4cccc(S(=O)(=O)[O-])c4F)c4nc(c(-c5cccc(S(=O)(=O)[O-])c5F)c5ccc2[nH]5)C=C4)C=C3)cc1
REMARK SMILES IDX 5 1 4 2 3 3 1 4 2 5 28 7 29 8 90 9 30 10 89 11 31 12 32 13
REMARK SMILES IDX 33 14 83 15 34 16 88 17 82 18 84 19 35 20 87 21 81 22 80 23
REMARK SMILES IDX 36 25 68 26 48 27 67 28 49 29 52 30 66 31 85 32 50 33 51 34
REMARK SMILES IDX 65 36 86 37 53 38 37 39 38 40 46 41 39 42 41 43 47 44 40 45
REMARK SMILES IDX 42 46 43 47 44 48 45 49 69 50 70 51 78 52 71 53 73 54 79 55
REMARK SMILES IDX 72 56 74 57 75 58 76 59 77 60 54 61 55 62 63 63 56 64 58 65
REMARK SMILES IDX 64 66 57 67 59 68 60 69 61 70 62 71 6 72 7 73 8 74 9 75
REMARK SMILES IDX 10 77 11 78 12 79 27 80 13 81 14 82 15 83 16 84 26 85 17 86
REMARK SMILES IDX 18 87 19 88 20 89 25 90 21 91 24 92 22 93 23 94
REMARK H PARENT 3 6 84 24 52 35 8 76
REMARK Flexibility Score: inf
ROOT
ATOM      1  C   UNL     1       4.522  -3.170   0.406  1.00  0.00     0.023 C 
ENDROOT
BRANCH   1   2
ATOM      2  C   UNL     1       4.460  -1.654   0.197  1.00  0.00     0.116 C 
BRANCH   2   3
ATOM      3  N   UNL     1       3.148  -1.197  -0.228  1.00  0.00    -0.352 N 
ATOM      4  O   UNL     1       1.358   0.145  -0.369  1.00  0.00    -0.269 OA
ATOM      5  C   UNL     1       2.524   0.007  -0.005  1.00  0.00     0.251 C 
ATOM      6  H   UNL     1       2.629  -1.846  -0.755  1.00  0.00     0.163 HD
BRANCH   5   7
ATOM      7  C   UNL     1       3.217   1.118   0.690  1.00  0.00     0.039 A 
ATOM      8  C   UNL     1       4.534   1.473   0.394  1.00  0.00     0.014 A 
ATOM      9  C   UNL     1       2.496   1.866   1.629  1.00  0.00     0.014 A 
ATOM     10  C   UNL     1       5.154   2.508   1.098  1.00  0.00     0.010 A 
ATOM     11  C   UNL     1       3.107   2.923   2.312  1.00  0.00     0.010 A 
ATOM     12  C   UNL     1       4.451   3.232   2.073  1.00  0.00    -0.014 A 
BRANCH  12  13
ATOM     13  C   UNL     1       5.139   4.318   2.808  1.00  0.00     0.031 A 
ATOM     14  C   UNL     1       5.639   4.100   4.207  1.00  0.00     0.074 A 
ATOM     15  C   UNL     1       5.354   5.497   2.196  1.00  0.00     0.049 A 
ATOM     16  N   UNL     1       6.430   4.859   4.922  1.00  0.00    -0.248 NA
ATOM     17  C   UNL     1       5.199   2.873   4.889  1.00  0.00     0.031 C 
ATOM     18  C   UNL     1       4.881   5.852   0.857  1.00  0.00     0.029 A 
ATOM     19  N   UNL     1       6.047   6.606   2.614  1.00  0.00    -0.354 N 
ATOM     20  C   UNL     1       6.583   4.204   6.136  1.00  0.00     0.074 A 
ATOM     21  C   UNL     1       5.793   2.993   6.070  1.00  0.00     0.031 C 
ATOM     22  C   UNL     1       5.336   7.077   0.546  1.00  0.00     0.029 A 
ATOM     23  C   UNL     1       6.129   7.592   1.661  1.00  0.00     0.049 A 
ATOM     24  H   UNL     1       6.446   6.687   3.510  1.00  0.00     0.167 HD
ATOM     25  C   UNL     1       7.345   4.559   7.198  1.00  0.00     0.034 A 
ATOM     26  C   UNL     1       6.800   8.761   1.666  1.00  0.00     0.034 A 
ATOM     27  C   UNL     1       8.171   5.734   7.252  1.00  0.00     0.049 A 
ATOM     28  C   UNL     1       7.645   9.126   2.854  1.00  0.00     0.074 A 
ATOM     29  C   UNL     1       9.048   6.128   8.248  1.00  0.00     0.029 A 
ATOM     30  N   UNL     1       8.219   6.710   6.269  1.00  0.00    -0.354 N 
ATOM     31  N   UNL     1       7.915   8.415   3.921  1.00  0.00    -0.248 NA
ATOM     32  C   UNL     1       8.298  10.444   2.823  1.00  0.00     0.031 C 
ATOM     33  C   UNL     1       9.636   7.339   7.862  1.00  0.00     0.029 A 
ATOM     34  C   UNL     1       9.105   7.708   6.638  1.00  0.00     0.049 A 
ATOM     35  H   UNL     1       7.700   6.695   5.433  1.00  0.00     0.167 HD
ATOM     36  C   UNL     1       8.793   9.185   4.675  1.00  0.00     0.074 A 
ATOM     37  C   UNL     1       9.009  10.419   3.944  1.00  0.00     0.031 C 
ATOM     38  C   UNL     1       9.356   8.902   5.874  1.00  0.00     0.034 A 
BRANCH  25  39
ATOM     39  C   UNL     1       7.405   3.597   8.348  1.00  0.00     0.023 A 
ATOM     40  C   UNL     1       8.435   2.647   8.372  1.00  0.00     0.012 A 
ATOM     41  C   UNL     1       6.483   3.633   9.408  1.00  0.00     0.148 A 
ATOM     42  C   UNL     1       8.534   1.749   9.436  1.00  0.00     0.002 A 
ATOM     43  C   UNL     1       6.591   2.735  10.468  1.00  0.00     0.091 A 
ATOM     44  F   UNL     1       5.495   4.535   9.372  1.00  0.00    -0.205 F 
ATOM     45  C   UNL     1       7.619   1.785  10.491  1.00  0.00     0.022 A 
BRANCH  43  46
ATOM     46  S   UNL     1       5.377   2.793  11.792  1.00  0.00     0.127 S 
ATOM     47  O   UNL     1       4.133   2.449  11.108  1.00  0.00    -0.237 OA
ATOM     48  O   UNL     1       5.862   1.770  12.718  1.00  0.00    -0.237 OA
ATOM     49  O   UNL     1       5.483   4.157  12.296  1.00  0.00    -0.744 OA
ENDBRANCH  43  46
ENDBRANCH  25  39
BRANCH  26  50
ATOM     50  C   UNL     1       6.811   9.601   0.439  1.00  0.00     0.023 A 
ATOM     51  C   UNL     1       7.943   9.570  -0.391  1.00  0.00     0.012 A 
ATOM     52  C   UNL     1       5.705  10.374   0.053  1.00  0.00     0.148 A 
ATOM     53  C   UNL     1       7.967  10.304  -1.579  1.00  0.00     0.002 A 
ATOM     54  C   UNL     1       5.725  11.079  -1.149  1.00  0.00     0.091 A 
ATOM     55  F   UNL     1       4.627  10.398   0.849  1.00  0.00    -0.205 F 
ATOM     56  C   UNL     1       6.859  11.056  -1.968  1.00  0.00     0.022 A 
BRANCH  54  57
ATOM     57  S   UNL     1       4.254  11.967  -1.663  1.00  0.00     0.127 S 
ATOM     58  O   UNL     1       4.135  13.007  -0.647  1.00  0.00    -0.237 OA
ATOM     59  O   UNL     1       4.612  12.452  -2.996  1.00  0.00    -0.237 OA
ATOM     60  O   UNL     1       3.228  10.929  -1.659  1.00  0.00    -0.744 OA
ENDBRANCH  54  57
ENDBRANCH  26  50
BRANCH  38  61
ATOM     61  C   UNL     1      10.252   9.942   6.481  1.00  0.00     0.023 A 
ATOM     62  C   UNL     1       9.681  10.950   7.270  1.00  0.00     0.012 A 
ATOM     63  C   UNL     1      11.649   9.890   6.337  1.00  0.00     0.148 A 
ATOM     64  C   UNL     1      10.499  11.894   7.895  1.00  0.00     0.002 A 
ATOM     65  C   UNL     1      12.458  10.826   6.977  1.00  0.00     0.091 A 
ATOM     66  F   UNL     1      12.185   8.920   5.585  1.00  0.00    -0.205 F 
ATOM     67  C   UNL     1      11.888  11.838   7.758  1.00  0.00     0.022 A 
BRANCH  65  68
ATOM     68  S   UNL     1      14.240  10.710   6.800  1.00  0.00     0.127 S 
ATOM     69  O   UNL     1      14.446  10.924   5.370  1.00  0.00    -0.237 OA
ATOM     70  O   UNL     1      14.720  11.799   7.652  1.00  0.00    -0.237 OA
ATOM     71  O   UNL     1      14.547   9.376   7.303  1.00  0.00    -0.744 OA
ENDBRANCH  65  68
ENDBRANCH  38  61
ENDBRANCH  12  13
ENDBRANCH   5   7
ENDBRANCH   2   3
ENDBRANCH   1   2
BRANCH   1  72
ATOM     72  C   UNL     1       4.171  -4.035  -0.814  1.00  0.00     0.023 C 
BRANCH  72  73
ATOM     73  C   UNL     1       4.962  -3.725  -2.089  1.00  0.00     0.116 C 
BRANCH  73  74
ATOM     74  N   UNL     1       6.389  -3.910  -1.896  1.00  0.00    -0.352 N 
ATOM     75  C   UNL     1       7.154  -5.042  -2.050  1.00  0.00     0.254 C 
ATOM     76  H   UNL     1       6.882  -3.106  -1.612  1.00  0.00     0.163 HD
ATOM     77  O   UNL     1       8.263  -5.085  -1.550  1.00  0.00    -0.269 OA
BRANCH  75  78
ATOM     78  C   UNL     1       6.610  -6.164  -2.788  1.00  0.00     0.078 A 
ATOM     79  C   UNL     1       6.176  -6.149  -4.096  1.00  0.00     0.209 A 
ATOM     80  C   UNL     1       6.539  -7.527  -2.384  1.00  0.00     0.066 A 
ATOM     81  O   UNL     1       5.851  -7.398  -4.517  1.00  0.00    -0.462 OA
ATOM     82  C   UNL     1       6.078  -8.246  -3.469  1.00  0.00     0.153 A 
BRANCH  82  83
ATOM     83  C   UNL     1       5.894  -9.722  -3.510  1.00  0.00     0.117 A 
ATOM     84  C   UNL     1       5.625 -10.409  -4.673  1.00  0.00     0.099 A 
ATOM     85  N   UNL     1       5.996 -10.500  -2.374  1.00  0.00    -0.231 NA
ATOM     86  S   UNL     1       5.564 -12.092  -4.358  1.00  0.00    -0.120 S 
ATOM     87  C   UNL     1       5.850 -11.775  -2.687  1.00  0.00     0.142 A 
BRANCH  87  88
ATOM     88  C   UNL     1       5.852 -12.878  -1.716  1.00  0.00     0.099 A 
ATOM     89  C   UNL     1       5.197 -12.744  -0.493  1.00  0.00     0.033 A 
ATOM     90  N   UNL     1       6.532 -14.001  -2.060  1.00  0.00    -0.252 NA
ATOM     91  C   UNL     1       5.225 -13.801   0.418  1.00  0.00     0.024 A 
ATOM     92  C   UNL     1       6.563 -15.004  -1.147  1.00  0.00     0.132 A 
ATOM     93  C   UNL     1       5.929 -14.950   0.085  1.00  0.00     0.059 A 
ATOM     94  Cl  UNL     1       6.010 -16.272   1.174  1.00  0.00    -0.083 Cl
ENDBRANCH  87  88
ENDBRANCH  82  83
ENDBRANCH  75  78
ENDBRANCH  73  74
ENDBRANCH  72  73
ENDBRANCH   1  72
TORSDOF 16
