REMARK SMILES CC1(C)CCCC[C@@]1(C(=O)NCCCCNC(=O)c1ccc(-c2c3nc(c(-c4cccc(S(=O)(=O)[O-])c4F)c4ccc([nH]4)c(-c4cccc(S(=O)(=O)[O-])c4F)c4nc(c(-c5cccc(S(=O)(=O)[O-])c5F)c5ccc2[nH]5)C=C4)C=C3)cc1)[NH+]1CC[NH2+]CC1
REMARK SMILES IDX 14 1 13 2 12 3 11 4 9 5 10 6 8 8 1 9 2 10 3 11 4 12 5 13
REMARK SMILES IDX 7 14 6 15 82 16 83 17 87 18 84 20 86 21 85 22 15 25 16 26
REMARK SMILES IDX 17 27 18 29 19 30 20 31 81 32 21 33 80 34 22 35 23 36 24 37
REMARK SMILES IDX 74 38 25 39 79 40 73 41 75 42 26 43 78 44 72 45 71 46 27 48
REMARK SMILES IDX 59 49 39 50 58 51 40 52 43 53 57 54 76 55 41 56 42 57 56 59
REMARK SMILES IDX 77 60 44 61 28 62 29 63 37 64 30 65 32 66 38 67 31 68 33 69
REMARK SMILES IDX 34 70 35 71 36 72 60 73 61 74 69 75 62 76 64 77 70 78 63 79
REMARK SMILES IDX 65 80 66 81 67 82 68 83 45 84 46 85 54 86 47 87 49 88 55 89
REMARK SMILES IDX 48 90 50 91 51 92 52 93 53 94
REMARK H PARENT 11 7 82 19 85 23 85 24 16 28 75 47 43 58
REMARK Flexibility Score: inf
ROOT
ATOM      1  C   UNL     1      -5.419   1.135   3.841  1.00  0.00     0.023 C 
ENDROOT
BRANCH   1   2
ATOM      2  C   UNL     1      -4.432   0.076   3.351  1.00  0.00     0.023 C 
BRANCH   2   3
ATOM      3  C   UNL     1      -3.660   0.367   2.066  1.00  0.00     0.116 C 
BRANCH   3   4
ATOM      4  N   UNL     1      -2.856   1.571   2.063  1.00  0.00    -0.351 N 
ATOM      5  C   UNL     1      -1.924   2.031   1.170  1.00  0.00     0.281 C 
ATOM      6  O   UNL     1      -1.766   3.260   1.231  1.00  0.00    -0.268 OA
ATOM      7  H   UNL     1      -3.004   2.161   2.838  1.00  0.00     0.163 HD
BRANCH   5   8
ATOM      8  C   UNL     1      -0.994   1.126   0.189  1.00  0.00     0.182 C 
ATOM      9  C   UNL     1       1.544   0.198   0.124  1.00  0.00     0.018 C 
ATOM     10  C   UNL     1       0.495   1.086   0.865  1.00  0.00     0.029 C 
ATOM     11  C   UNL     1       0.437   0.601   2.331  1.00  0.00     0.018 C 
ATOM     12  C   UNL     1       1.143   2.511   0.871  1.00  0.00     0.013 C 
ATOM     13  C   UNL     1       1.255   3.113  -0.526  1.00  0.00     0.001 C 
ATOM     14  C   UNL     1      -0.885   1.897  -1.179  1.00  0.00     0.080 C 
ATOM     15  C   UNL     1      -0.099   3.211  -1.196  1.00  0.00     0.007 C 
BRANCH   8  16
ATOM     16  N   UNL     1      -1.704  -0.194  -0.043  1.00  0.00    -0.313 N 
ATOM     17  C   UNL     1      -0.907  -1.379  -0.382  1.00  0.00     0.325 C 
ATOM     18  C   UNL     1      -2.865  -0.130  -0.966  1.00  0.00     0.325 C 
ATOM     19  H   UNL     1      -2.018  -0.338   0.916  1.00  0.00     0.349 HD
ATOM     20  C   UNL     1      -1.721  -2.695  -0.523  1.00  0.00     0.322 C 
ATOM     21  C   UNL     1      -3.699  -1.433  -0.933  1.00  0.00     0.322 C 
ATOM     22  N   UNL     1      -2.913  -2.595  -1.375  1.00  0.00    -0.337 N 
ATOM     23  H   UNL     1      -3.472  -3.443  -1.287  1.00  0.00     0.346 HD
ATOM     24  H   UNL     1      -2.640  -2.483  -2.351  1.00  0.00     0.346 HD
ENDBRANCH   8  16
ENDBRANCH   5   8
ENDBRANCH   3   4
ENDBRANCH   2   3
ENDBRANCH   1   2
BRANCH   1  25
ATOM     25  C   UNL     1      -6.412   1.688   2.822  1.00  0.00     0.116 C 
BRANCH  25  26
ATOM     26  N   UNL     1      -7.306   0.687   2.252  1.00  0.00    -0.352 N 
ATOM     27  C   UNL     1      -8.670   0.535   2.365  1.00  0.00     0.251 C 
ATOM     28  H   UNL     1      -6.862   0.008   1.695  1.00  0.00     0.163 HD
ATOM     29  O   UNL     1      -9.217  -0.438   1.847  1.00  0.00    -0.269 OA
BRANCH  27  30
ATOM     30  C   UNL     1      -9.480   1.503   3.139  1.00  0.00     0.039 A 
ATOM     31  C   UNL     1     -10.413   1.021   4.063  1.00  0.00     0.014 A 
ATOM     32  C   UNL     1      -9.317   2.879   2.974  1.00  0.00     0.014 A 
ATOM     33  C   UNL     1     -11.096   1.914   4.895  1.00  0.00     0.010 A 
ATOM     34  C   UNL     1      -9.929   3.760   3.862  1.00  0.00     0.010 A 
ATOM     35  C   UNL     1     -10.819   3.289   4.840  1.00  0.00    -0.014 A 
BRANCH  35  36
ATOM     36  C   UNL     1     -11.416   4.246   5.813  1.00  0.00     0.031 A 
ATOM     37  C   UNL     1     -12.271   5.389   5.332  1.00  0.00     0.074 A 
ATOM     38  C   UNL     1     -11.102   4.151   7.122  1.00  0.00     0.049 A 
ATOM     39  N   UNL     1     -12.805   6.366   6.018  1.00  0.00    -0.248 NA
ATOM     40  C   UNL     1     -12.536   5.462   3.885  1.00  0.00     0.031 C 
ATOM     41  C   UNL     1     -10.213   3.146   7.709  1.00  0.00     0.029 A 
ATOM     42  N   UNL     1     -11.470   4.929   8.193  1.00  0.00    -0.354 N 
ATOM     43  C   UNL     1     -13.429   7.189   5.088  1.00  0.00     0.074 A 
ATOM     44  C   UNL     1     -13.179   6.617   3.784  1.00  0.00     0.031 C 
ATOM     45  C   UNL     1     -10.109   3.364   9.030  1.00  0.00     0.029 A 
ATOM     46  C   UNL     1     -10.896   4.541   9.383  1.00  0.00     0.049 A 
ATOM     47  H   UNL     1     -12.086   5.692   8.117  1.00  0.00     0.167 HD
ATOM     48  C   UNL     1     -14.172   8.302   5.300  1.00  0.00     0.034 A 
ATOM     49  C   UNL     1     -10.986   5.075  10.617  1.00  0.00     0.034 A 
ATOM     50  C   UNL     1     -14.467   8.840   6.600  1.00  0.00     0.049 A 
ATOM     51  C   UNL     1     -11.860   6.282  10.831  1.00  0.00     0.074 A 
ATOM     52  C   UNL     1     -15.290   9.905   6.923  1.00  0.00     0.029 A 
ATOM     53  N   UNL     1     -13.949   8.359   7.792  1.00  0.00    -0.354 N 
ATOM     54  N   UNL     1     -12.578   6.945   9.958  1.00  0.00    -0.248 NA
ATOM     55  C   UNL     1     -11.966   6.792  12.206  1.00  0.00     0.031 C 
ATOM     56  C   UNL     1     -15.254  10.079   8.311  1.00  0.00     0.029 A 
ATOM     57  C   UNL     1     -14.428   9.108   8.853  1.00  0.00     0.049 A 
ATOM     58  H   UNL     1     -13.331   7.597   7.872  1.00  0.00     0.167 HD
ATOM     59  C   UNL     1     -13.248   7.926  10.681  1.00  0.00     0.074 A 
ATOM     60  C   UNL     1     -12.868   7.754  12.068  1.00  0.00     0.031 C 
ATOM     61  C   UNL     1     -14.089   8.891  10.235  1.00  0.00     0.034 A 
BRANCH  48  62
ATOM     62  C   UNL     1     -14.777   8.980   4.097  1.00  0.00     0.023 A 
ATOM     63  C   UNL     1     -15.841   8.357   3.412  1.00  0.00     0.012 A 
ATOM     64  C   UNL     1     -14.340  10.253   3.682  1.00  0.00     0.148 A 
ATOM     65  C   UNL     1     -16.437   8.972   2.313  1.00  0.00     0.002 A 
ATOM     66  C   UNL     1     -14.970  10.881   2.613  1.00  0.00     0.091 A 
ATOM     67  F   UNL     1     -13.316  10.822   4.332  1.00  0.00    -0.205 F 
ATOM     68  C   UNL     1     -16.009  10.237   1.920  1.00  0.00     0.022 A 
BRANCH  66  69
ATOM     69  S   UNL     1     -14.550  12.543   2.077  1.00  0.00     0.127 S 
ATOM     70  O   UNL     1     -13.905  12.284   0.791  1.00  0.00    -0.237 OA
ATOM     71  O   UNL     1     -15.865  13.178   1.983  1.00  0.00    -0.237 OA
ATOM     72  O   UNL     1     -13.683  13.092   3.111  1.00  0.00    -0.744 OA
ENDBRANCH  66  69
ENDBRANCH  48  62
BRANCH  49  73
ATOM     73  C   UNL     1     -10.283   4.432  11.765  1.00  0.00     0.023 A 
ATOM     74  C   UNL     1     -11.040   3.779  12.758  1.00  0.00     0.012 A 
ATOM     75  C   UNL     1      -8.879   4.448  11.873  1.00  0.00     0.148 A 
ATOM     76  C   UNL     1     -10.415   3.186  13.856  1.00  0.00     0.002 A 
ATOM     77  C   UNL     1      -8.260   3.807  12.941  1.00  0.00     0.091 A 
ATOM     78  F   UNL     1      -8.176   5.085  10.927  1.00  0.00    -0.205 F 
ATOM     79  C   UNL     1      -9.026   3.192  13.943  1.00  0.00     0.022 A 
BRANCH  77  80
ATOM     80  S   UNL     1      -6.474   3.652  13.065  1.00  0.00     0.127 S 
ATOM     81  O   UNL     1      -6.167   4.579  14.150  1.00  0.00    -0.237 OA
ATOM     82  O   UNL     1      -6.315   2.236  13.400  1.00  0.00    -0.237 OA
ATOM     83  O   UNL     1      -5.959   4.016  11.752  1.00  0.00    -0.744 OA
ENDBRANCH  77  80
ENDBRANCH  49  73
BRANCH  61  84
ATOM     84  C   UNL     1     -14.691   9.822  11.255  1.00  0.00     0.023 A 
ATOM     85  C   UNL     1     -13.890  10.808  11.864  1.00  0.00     0.012 A 
ATOM     86  C   UNL     1     -16.068   9.768  11.552  1.00  0.00     0.148 A 
ATOM     87  C   UNL     1     -14.443  11.707  12.775  1.00  0.00     0.002 A 
ATOM     88  C   UNL     1     -16.621  10.699  12.423  1.00  0.00     0.091 A 
ATOM     89  F   UNL     1     -16.810   8.811  10.977  1.00  0.00    -0.205 F 
ATOM     90  C   UNL     1     -15.809  11.660  13.045  1.00  0.00     0.022 A 
BRANCH  88  91
ATOM     91  S   UNL     1     -18.385  10.776  12.755  1.00  0.00     0.127 S 
ATOM     92  O   UNL     1     -18.455  10.253  14.118  1.00  0.00    -0.237 OA
ATOM     93  O   UNL     1     -18.661  12.208  12.637  1.00  0.00    -0.237 OA
ATOM     94  O   UNL     1     -19.021   9.953  11.735  1.00  0.00    -0.744 OA
ENDBRANCH  88  91
ENDBRANCH  61  84
ENDBRANCH  35  36
ENDBRANCH  27  30
ENDBRANCH  25  26
ENDBRANCH   1  25
TORSDOF 15
