REMARK SMILES O=C(NCCCCNC(=O)c1cc(-n2ccnc2)ccn1)c1ccc(-c2c3nc(c(-c4cccc(S(=O)(=O)[O-])c4F)c4ccc([nH]4)c(-c4cccc(S(=O)(=O)[O-])c4F)c4nc(c(-c5cccc(S(=O)(=O)[O-])c5F)c5ccc2[nH]5)C=C4)C=C3)cc1
REMARK SMILES IDX 4 1 3 2 1 3 2 4 22 6 23 7 84 8 24 9 83 10 25 11 26 12 27 13
REMARK SMILES IDX 77 14 28 15 82 16 76 17 78 18 29 19 81 20 75 21 74 22 30 24
REMARK SMILES IDX 62 25 42 26 61 27 43 28 46 29 60 30 79 31 44 32 45 33 59 35
REMARK SMILES IDX 80 36 47 37 31 38 32 39 40 40 33 41 35 42 41 43 34 44 36 45
REMARK SMILES IDX 37 46 38 47 39 48 63 49 64 50 72 51 65 52 67 53 73 54 66 55
REMARK SMILES IDX 68 56 69 57 70 58 71 59 48 60 49 61 57 62 50 63 52 64 58 65
REMARK SMILES IDX 51 66 53 67 54 68 55 69 56 70 5 71 6 72 7 73 8 74 9 75 10 77
REMARK SMILES IDX 11 78 12 79 21 80 13 81 20 82 19 83 14 84 15 85 18 86 16 87
REMARK SMILES IDX 17 88
REMARK H PARENT 3 5 78 23 46 34 8 76
REMARK Flexibility Score: inf
ROOT
ATOM      1  C   UNL     1       4.793   0.685   0.899  1.00  0.00     0.116 C 
ENDROOT
BRANCH   1   2
ATOM      2  N   UNL     1       3.391   0.341   1.005  1.00  0.00    -0.352 N 
ATOM      3  O   UNL     1       1.325  -0.300   0.576  1.00  0.00    -0.269 OA
ATOM      4  C   UNL     1       2.384   0.122   0.104  1.00  0.00     0.251 C 
ATOM      5  H   UNL     1       3.094   0.241   1.939  1.00  0.00     0.163 HD
BRANCH   4   6
ATOM      6  C   UNL     1       2.460   0.414  -1.353  1.00  0.00     0.039 A 
ATOM      7  C   UNL     1       3.637   0.574  -2.087  1.00  0.00     0.014 A 
ATOM      8  C   UNL     1       1.228   0.528  -2.025  1.00  0.00     0.014 A 
ATOM      9  C   UNL     1       3.587   0.918  -3.436  1.00  0.00     0.010 A 
ATOM     10  C   UNL     1       1.172   0.853  -3.377  1.00  0.00     0.010 A 
ATOM     11  C   UNL     1       2.355   1.075  -4.075  1.00  0.00    -0.014 A 
BRANCH  11  12
ATOM     12  C   UNL     1       2.356   1.298  -5.520  1.00  0.00     0.031 A 
ATOM     13  C   UNL     1       2.873   0.153  -6.328  1.00  0.00     0.074 A 
ATOM     14  C   UNL     1       1.788   2.369  -6.110  1.00  0.00     0.049 A 
ATOM     15  N   UNL     1       3.864   0.139  -7.163  1.00  0.00    -0.248 NA
ATOM     16  C   UNL     1       2.267  -1.168  -6.098  1.00  0.00     0.031 C 
ATOM     17  C   UNL     1       0.971   3.404  -5.472  1.00  0.00     0.029 A 
ATOM     18  N   UNL     1       1.698   2.675  -7.438  1.00  0.00    -0.354 N 
ATOM     19  C   UNL     1       3.868  -1.141  -7.720  1.00  0.00     0.074 A 
ATOM     20  C   UNL     1       2.975  -1.939  -6.922  1.00  0.00     0.031 C 
ATOM     21  C   UNL     1       0.271   4.061  -6.423  1.00  0.00     0.029 A 
ATOM     22  C   UNL     1       0.683   3.582  -7.730  1.00  0.00     0.049 A 
ATOM     23  H   UNL     1       2.292   2.291  -8.122  1.00  0.00     0.167 HD
ATOM     24  C   UNL     1       4.431  -1.405  -8.931  1.00  0.00     0.034 A 
ATOM     25  C   UNL     1       0.158   3.851  -8.951  1.00  0.00     0.034 A 
ATOM     26  C   UNL     1       5.344  -0.376  -9.341  1.00  0.00     0.049 A 
ATOM     27  C   UNL     1       1.123   3.390  -9.972  1.00  0.00     0.074 A 
ATOM     28  C   UNL     1       6.499   0.175  -8.824  1.00  0.00     0.029 A 
ATOM     29  N   UNL     1       4.918   0.491 -10.315  1.00  0.00    -0.354 N 
ATOM     30  N   UNL     1       2.284   3.944 -10.177  1.00  0.00    -0.248 NA
ATOM     31  C   UNL     1       0.956   2.057 -10.525  1.00  0.00     0.031 C 
ATOM     32  C   UNL     1       6.430   1.556  -9.168  1.00  0.00     0.029 A 
ATOM     33  C   UNL     1       5.263   1.751  -9.910  1.00  0.00     0.049 A 
ATOM     34  H   UNL     1       4.452   0.251 -11.149  1.00  0.00     0.167 HD
ATOM     35  C   UNL     1       3.124   2.880 -10.472  1.00  0.00     0.074 A 
ATOM     36  C   UNL     1       2.232   1.770 -10.793  1.00  0.00     0.031 C 
ATOM     37  C   UNL     1       4.450   2.921 -10.148  1.00  0.00     0.034 A 
BRANCH  24  38
ATOM     38  C   UNL     1       3.909  -2.431  -9.911  1.00  0.00     0.023 A 
ATOM     39  C   UNL     1       4.709  -2.736 -11.036  1.00  0.00     0.012 A 
ATOM     40  C   UNL     1       2.573  -2.895  -9.932  1.00  0.00     0.148 A 
ATOM     41  C   UNL     1       4.195  -3.431 -12.137  1.00  0.00     0.002 A 
ATOM     42  C   UNL     1       2.093  -3.659 -10.989  1.00  0.00     0.091 A 
ATOM     43  F   UNL     1       1.711  -2.488  -8.995  1.00  0.00    -0.205 F 
ATOM     44  C   UNL     1       2.889  -3.903 -12.110  1.00  0.00     0.022 A 
BRANCH  42  45
ATOM     45  S   UNL     1       0.433  -4.345 -10.971  1.00  0.00     0.127 S 
ATOM     46  O   UNL     1      -0.261  -3.460 -11.900  1.00  0.00    -0.237 OA
ATOM     47  O   UNL     1       0.665  -5.704 -11.464  1.00  0.00    -0.237 OA
ATOM     48  O   UNL     1       0.007  -4.284  -9.578  1.00  0.00    -0.744 OA
ENDBRANCH  42  45
ENDBRANCH  24  38
BRANCH  25  49
ATOM     49  C   UNL     1      -1.223   4.243  -9.319  1.00  0.00     0.023 A 
ATOM     50  C   UNL     1      -1.466   4.869 -10.558  1.00  0.00     0.012 A 
ATOM     51  C   UNL     1      -2.330   3.758  -8.588  1.00  0.00     0.148 A 
ATOM     52  C   UNL     1      -2.767   4.981 -11.066  1.00  0.00     0.002 A 
ATOM     53  C   UNL     1      -3.621   3.881  -9.092  1.00  0.00     0.091 A 
ATOM     54  F   UNL     1      -2.110   3.092  -7.448  1.00  0.00    -0.205 F 
ATOM     55  C   UNL     1      -3.843   4.481 -10.338  1.00  0.00     0.022 A 
BRANCH  53  56
ATOM     56  S   UNL     1      -5.054   3.241  -8.216  1.00  0.00     0.127 S 
ATOM     57  O   UNL     1      -5.979   4.375  -8.279  1.00  0.00    -0.237 OA
ATOM     58  O   UNL     1      -5.429   2.099  -9.043  1.00  0.00    -0.237 OA
ATOM     59  O   UNL     1      -4.589   2.925  -6.871  1.00  0.00    -0.744 OA
ENDBRANCH  53  56
ENDBRANCH  25  49
BRANCH  37  60
ATOM     60  C   UNL     1       5.040   4.242  -9.722  1.00  0.00     0.023 A 
ATOM     61  C   UNL     1       4.591   4.932  -8.577  1.00  0.00     0.012 A 
ATOM     62  C   UNL     1       6.187   4.706 -10.388  1.00  0.00     0.148 A 
ATOM     63  C   UNL     1       5.254   6.075  -8.123  1.00  0.00     0.002 A 
ATOM     64  C   UNL     1       6.873   5.813  -9.904  1.00  0.00     0.091 A 
ATOM     65  F   UNL     1       6.606   4.037 -11.473  1.00  0.00    -0.205 F 
ATOM     66  C   UNL     1       6.404   6.507  -8.778  1.00  0.00     0.022 A 
BRANCH  64  67
ATOM     67  S   UNL     1       8.434   6.332 -10.623  1.00  0.00     0.127 S 
ATOM     68  O   UNL     1       8.038   7.518 -11.386  1.00  0.00    -0.237 OA
ATOM     69  O   UNL     1       9.247   6.615  -9.436  1.00  0.00    -0.237 OA
ATOM     70  O   UNL     1       8.906   5.207 -11.411  1.00  0.00    -0.744 OA
ENDBRANCH  64  67
ENDBRANCH  37  60
ENDBRANCH  11  12
ENDBRANCH   4   6
ENDBRANCH   1   2
BRANCH   1  71
ATOM     71  C   UNL     1       5.073   2.172   0.696  1.00  0.00     0.023 C 
BRANCH  71  72
ATOM     72  C   UNL     1       4.581   3.093   1.817  1.00  0.00     0.023 C 
BRANCH  72  73
ATOM     73  C   UNL     1       4.994   2.710   3.237  1.00  0.00     0.116 C 
BRANCH  73  74
ATOM     74  N   UNL     1       6.435   2.659   3.432  1.00  0.00    -0.351 N 
ATOM     75  C   UNL     1       7.207   3.226   4.427  1.00  0.00     0.269 C 
ATOM     76  H   UNL     1       6.933   2.145   2.755  1.00  0.00     0.163 HD
ATOM     77  O   UNL     1       8.426   3.073   4.414  1.00  0.00    -0.268 OA
BRANCH  75  78
ATOM     78  C   UNL     1       6.558   4.009   5.516  1.00  0.00     0.130 A 
ATOM     79  C   UNL     1       5.579   3.423   6.307  1.00  0.00     0.060 A 
ATOM     80  N   UNL     1       6.943   5.306   5.628  1.00  0.00    -0.251 NA
ATOM     81  C   UNL     1       4.870   4.255   7.175  1.00  0.00     0.050 A 
ATOM     82  C   UNL     1       6.280   6.065   6.521  1.00  0.00     0.114 A 
ATOM     83  C   UNL     1       5.222   5.602   7.285  1.00  0.00     0.047 A 
BRANCH  81  84
ATOM     84  N   UNL     1       3.771   3.744   7.903  1.00  0.00    -0.306 N 
ATOM     85  C   UNL     1       3.570   2.444   8.306  1.00  0.00     0.113 A 
ATOM     86  C   UNL     1       2.663   4.445   8.322  1.00  0.00     0.204 A 
ATOM     87  C   UNL     1       2.370   2.442   8.978  1.00  0.00     0.131 A 
ATOM     88  N   UNL     1       1.811   3.689   8.980  1.00  0.00    -0.245 NA
ENDBRANCH  81  84
ENDBRANCH  75  78
ENDBRANCH  73  74
ENDBRANCH  72  73
ENDBRANCH  71  72
ENDBRANCH   1  71
TORSDOF 15
