REMARK SMILES C=CCN(CC(=O)NCCCCNC(=O)c1ccc(-c2c3nc(c(-c4cccc(S(=O)(=O)[O-])c4F)c4ccc([nH]4)c(-c4cccc(S(=O)(=O)[O-])c4F)c4nc(c(-c5cccc(S(=O)(=O)[O-])c5F)c5ccc2[nH]5)C=C4)C=C3)cc1)c1ccc([N+](=O)[O-])cc1Br
REMARK SMILES IDX 10 1 9 2 8 3 6 4 7 5 5 7 4 8 3 9 2 10 1 11 79 12 80 13 87 14
REMARK SMILES IDX 81 15 86 16 88 17 82 18 83 19 84 20 85 21 11 22 12 23 13 24
REMARK SMILES IDX 14 25 15 27 16 28 17 29 78 30 18 31 77 32 19 33 20 34 21 35
REMARK SMILES IDX 71 36 22 37 76 38 70 39 72 40 23 41 75 42 69 43 68 44 24 46
REMARK SMILES IDX 56 47 36 48 55 49 37 50 40 51 54 52 73 53 38 54 39 55 53 57
REMARK SMILES IDX 74 58 41 59 25 60 26 61 34 62 27 63 29 64 35 65 28 66 30 67
REMARK SMILES IDX 31 68 32 69 33 70 57 71 58 72 66 73 59 74 61 75 67 76 60 77
REMARK SMILES IDX 62 78 63 79 64 80 65 81 42 82 43 83 51 84 44 85 46 86 52 87
REMARK SMILES IDX 45 88 47 89 48 90 49 91 50 92
REMARK H PARENT 8 6 13 26 72 45 40 56
REMARK Flexibility Score: inf
ROOT
ATOM      1  C   UNL     1      -4.125   0.428   0.364  1.00  0.00     0.023 C 
ENDROOT
BRANCH   1   2
ATOM      2  C   UNL     1      -4.385   0.130  -1.113  1.00  0.00     0.116 C 
BRANCH   2   3
ATOM      3  N   UNL     1      -4.496   1.333  -1.907  1.00  0.00    -0.355 N 
ATOM      4  C   UNL     1      -3.584   1.960  -2.708  1.00  0.00     0.239 C 
ATOM      5  O   UNL     1      -3.978   2.962  -3.315  1.00  0.00    -0.273 OA
ATOM      6  H   UNL     1      -5.375   1.773  -1.864  1.00  0.00     0.163 HD
BRANCH   4   7
ATOM      7  C   UNL     1      -2.142   1.450  -2.896  1.00  0.00     0.216 C 
BRANCH   7   8
ATOM      8  N   UNL     1      -1.227   1.538  -1.730  1.00  0.00    -0.358 N 
BRANCH   8   9
ATOM      9  C   UNL     1      -1.014   0.330  -0.931  1.00  0.00     0.144 C 
BRANCH   9  10
ATOM     10  C   UNL     1       0.369  -0.221  -1.038  1.00  0.00    -0.014 C 
ATOM     11  C   UNL     1       1.108  -0.586   0.019  1.00  0.00     0.006 C 
ENDBRANCH   9  10
ENDBRANCH   8   9
BRANCH   8  12
ATOM     12  C   UNL     1      -0.907   2.786  -1.188  1.00  0.00     0.052 A 
ATOM     13  C   UNL     1      -1.930   3.624  -0.693  1.00  0.00     0.034 A 
ATOM     14  C   UNL     1       0.410   3.292  -1.082  1.00  0.00     0.048 A 
ATOM     15  C   UNL     1      -1.678   4.880  -0.126  1.00  0.00     0.088 A 
ATOM     16  C   UNL     1       0.686   4.517  -0.451  1.00  0.00     0.103 A 
ATOM     17  Br  UNL     1       1.917   2.492  -1.931  1.00  0.00    -0.048 Br
ATOM     18  C   UNL     1      -0.363   5.310   0.011  1.00  0.00     0.270 A 
BRANCH  18  19
ATOM     19  N   UNL     1      -0.076   6.616   0.606  1.00  0.00     0.062 N 
ATOM     20  O   UNL     1      -0.993   7.447   0.642  1.00  0.00    -0.258 OA
ATOM     21  O   UNL     1       1.075   6.814   1.023  1.00  0.00    -0.258 OA
ENDBRANCH  18  19
ENDBRANCH   8  12
ENDBRANCH   7   8
ENDBRANCH   4   7
ENDBRANCH   2   3
ENDBRANCH   1   2
BRANCH   1  22
ATOM     22  C   UNL     1      -5.338   0.931   1.151  1.00  0.00     0.023 C 
BRANCH  22  23
ATOM     23  C   UNL     1      -6.546   0.002   1.164  1.00  0.00     0.116 C 
BRANCH  23  24
ATOM     24  N   UNL     1      -6.247  -1.326   1.679  1.00  0.00    -0.352 N 
ATOM     25  C   UNL     1      -7.022  -2.138   2.479  1.00  0.00     0.251 C 
ATOM     26  H   UNL     1      -5.372  -1.694   1.420  1.00  0.00     0.163 HD
ATOM     27  O   UNL     1      -6.567  -3.187   2.904  1.00  0.00    -0.269 OA
BRANCH  25  28
ATOM     28  C   UNL     1      -8.392  -1.709   2.845  1.00  0.00     0.039 A 
ATOM     29  C   UNL     1      -8.789  -1.800   4.181  1.00  0.00     0.014 A 
ATOM     30  C   UNL     1      -9.270  -1.200   1.885  1.00  0.00     0.014 A 
ATOM     31  C   UNL     1     -10.041  -1.313   4.566  1.00  0.00     0.010 A 
ATOM     32  C   UNL     1     -10.486  -0.650   2.282  1.00  0.00     0.010 A 
ATOM     33  C   UNL     1     -10.886  -0.699   3.626  1.00  0.00    -0.014 A 
BRANCH  33  34
ATOM     34  C   UNL     1     -12.173  -0.078   4.035  1.00  0.00     0.031 A 
ATOM     35  C   UNL     1     -13.477  -0.590   3.484  1.00  0.00     0.074 A 
ATOM     36  C   UNL     1     -12.161   1.015   4.827  1.00  0.00     0.049 A 
ATOM     37  N   UNL     1     -14.688  -0.137   3.683  1.00  0.00    -0.248 NA
ATOM     38  C   UNL     1     -13.413  -1.741   2.568  1.00  0.00     0.031 C 
ATOM     39  C   UNL     1     -10.958   1.669   5.349  1.00  0.00     0.029 A 
ATOM     40  N   UNL     1     -13.190   1.791   5.301  1.00  0.00    -0.354 N 
ATOM     41  C   UNL     1     -15.521  -0.913   2.887  1.00  0.00     0.074 A 
ATOM     42  C   UNL     1     -14.677  -1.855   2.185  1.00  0.00     0.031 C 
ATOM     43  C   UNL     1     -11.317   2.748   6.062  1.00  0.00     0.029 A 
ATOM     44  C   UNL     1     -12.770   2.882   6.027  1.00  0.00     0.049 A 
ATOM     45  H   UNL     1     -14.139   1.586   5.138  1.00  0.00     0.167 HD
ATOM     46  C   UNL     1     -16.869  -0.862   2.768  1.00  0.00     0.034 A 
ATOM     47  C   UNL     1     -13.471   3.887   6.589  1.00  0.00     0.034 A 
ATOM     48  C   UNL     1     -17.712   0.035   3.511  1.00  0.00     0.049 A 
ATOM     49  C   UNL     1     -14.973   3.874   6.495  1.00  0.00     0.074 A 
ATOM     50  C   UNL     1     -19.094   0.075   3.553  1.00  0.00     0.029 A 
ATOM     51  N   UNL     1     -17.257   1.057   4.327  1.00  0.00    -0.354 N 
ATOM     52  N   UNL     1     -15.755   3.009   5.896  1.00  0.00    -0.248 NA
ATOM     53  C   UNL     1     -15.694   4.952   7.188  1.00  0.00     0.031 C 
ATOM     54  C   UNL     1     -19.476   1.143   4.371  1.00  0.00     0.029 A 
ATOM     55  C   UNL     1     -18.331   1.746   4.864  1.00  0.00     0.049 A 
ATOM     56  H   UNL     1     -16.310   1.263   4.500  1.00  0.00     0.167 HD
ATOM     57  C   UNL     1     -17.055   3.417   6.168  1.00  0.00     0.074 A 
ATOM     58  C   UNL     1     -16.958   4.592   7.008  1.00  0.00     0.031 C 
ATOM     59  C   UNL     1     -18.225   2.878   5.746  1.00  0.00     0.034 A 
BRANCH  46  60
ATOM     60  C   UNL     1     -17.538  -1.837   1.836  1.00  0.00     0.023 A 
ATOM     61  C   UNL     1     -17.632  -3.196   2.197  1.00  0.00     0.012 A 
ATOM     62  C   UNL     1     -18.163  -1.389   0.656  1.00  0.00     0.148 A 
ATOM     63  C   UNL     1     -18.319  -4.100   1.387  1.00  0.00     0.002 A 
ATOM     64  C   UNL     1     -18.884  -2.287  -0.123  1.00  0.00     0.091 A 
ATOM     65  F   UNL     1     -18.046  -0.097   0.322  1.00  0.00    -0.205 F 
ATOM     66  C   UNL     1     -18.955  -3.643   0.236  1.00  0.00     0.022 A 
BRANCH  64  67
ATOM     67  S   UNL     1     -19.808  -1.785  -1.579  1.00  0.00     0.127 S 
ATOM     68  O   UNL     1     -19.056  -2.443  -2.646  1.00  0.00    -0.237 OA
ATOM     69  O   UNL     1     -21.127  -2.361  -1.318  1.00  0.00    -0.237 OA
ATOM     70  O   UNL     1     -19.771  -0.330  -1.600  1.00  0.00    -0.744 OA
ENDBRANCH  64  67
ENDBRANCH  46  60
BRANCH  47  71
ATOM     71  C   UNL     1     -12.766   4.971   7.330  1.00  0.00     0.023 A 
ATOM     72  C   UNL     1     -12.909   5.068   8.728  1.00  0.00     0.012 A 
ATOM     73  C   UNL     1     -11.953   5.904   6.658  1.00  0.00     0.148 A 
ATOM     74  C   UNL     1     -12.292   6.100   9.437  1.00  0.00     0.002 A 
ATOM     75  C   UNL     1     -11.292   6.892   7.378  1.00  0.00     0.091 A 
ATOM     76  F   UNL     1     -11.840   5.806   5.325  1.00  0.00    -0.205 F 
ATOM     77  C   UNL     1     -11.476   7.005   8.764  1.00  0.00     0.022 A 
BRANCH  75  78
ATOM     78  S   UNL     1     -10.116   8.009   6.606  1.00  0.00     0.127 S 
ATOM     79  O   UNL     1     -10.880   9.251   6.540  1.00  0.00    -0.237 OA
ATOM     80  O   UNL     1      -9.018   8.010   7.574  1.00  0.00    -0.237 OA
ATOM     81  O   UNL     1      -9.781   7.395   5.327  1.00  0.00    -0.744 OA
ENDBRANCH  75  78
ENDBRANCH  47  71
BRANCH  59  82
ATOM     82  C   UNL     1     -19.504   3.522   6.213  1.00  0.00     0.023 A 
ATOM     83  C   UNL     1     -19.890   4.775   5.697  1.00  0.00     0.012 A 
ATOM     84  C   UNL     1     -20.360   2.849   7.108  1.00  0.00     0.148 A 
ATOM     85  C   UNL     1     -21.091   5.364   6.090  1.00  0.00     0.002 A 
ATOM     86  C   UNL     1     -21.579   3.419   7.455  1.00  0.00     0.091 A 
ATOM     87  F   UNL     1     -19.967   1.666   7.602  1.00  0.00    -0.205 F 
ATOM     88  C   UNL     1     -21.940   4.681   6.958  1.00  0.00     0.022 A 
BRANCH  86  89
ATOM     89  S   UNL     1     -22.778   2.567   8.487  1.00  0.00     0.127 S 
ATOM     90  O   UNL     1     -22.677   3.315   9.739  1.00  0.00    -0.237 OA
ATOM     91  O   UNL     1     -24.025   2.775   7.750  1.00  0.00    -0.237 OA
ATOM     92  O   UNL     1     -22.339   1.179   8.550  1.00  0.00    -0.744 OA
ENDBRANCH  86  89
ENDBRANCH  59  82
ENDBRANCH  33  34
ENDBRANCH  25  28
ENDBRANCH  23  24
ENDBRANCH  22  23
ENDBRANCH   1  22
TORSDOF 19
