REMARK SMILES O=C(COc1ccccc1/C=C1/SC(=S)N(c2ccc(F)c(Cl)c2)C1=O)NCCCCNC(=O)c1ccc(-c2c3nc(c(-c4cccc(S(=O)(=O)[O-])c4F)c4ccc([nH]4)c(-c4cccc(S(=O)(=O)[O-])c4F)c4nc(c(-c5cccc(S(=O)(=O)[O-])c5F)c5ccc2[nH]5)C=C4)C=C3)cc1
REMARK SMILES IDX 29 1 28 2 27 3 1 4 2 5 3 7 4 8 5 9 6 10 10 11 7 12 9 13 8 14
REMARK SMILES IDX 11 15 12 16 13 17 25 18 14 19 16 20 26 21 15 22 17 23 18 24
REMARK SMILES IDX 24 25 19 26 22 27 20 28 23 29 21 30 30 31 31 32 32 33 33 34
REMARK SMILES IDX 34 36 35 37 36 38 97 39 37 40 96 41 38 42 39 43 40 44 90 45
REMARK SMILES IDX 41 46 95 47 89 48 91 49 42 50 94 51 88 52 87 53 43 55 75 56
REMARK SMILES IDX 55 57 74 58 56 59 59 60 73 61 92 62 57 63 58 64 72 66 93 67
REMARK SMILES IDX 60 68 44 69 45 70 53 71 46 72 48 73 54 74 47 75 49 76 50 77
REMARK SMILES IDX 51 78 52 79 76 80 77 81 85 82 78 83 80 84 86 85 79 86 81 87
REMARK SMILES IDX 82 88 83 89 84 90 61 91 62 92 70 93 63 94 65 95 71 96 64 97
REMARK SMILES IDX 66 98 67 99 68 100 69 101
REMARK H PARENT 27 6 32 35 91 54 59 65
REMARK Flexibility Score: inf
ROOT
ATOM      1  C   UNL     1       2.602  -4.029  -0.635  1.00  0.00     0.023 C 
ENDROOT
BRANCH   1   2
ATOM      2  C   UNL     1       2.647  -2.634   0.330  1.00  0.00     0.116 C 
BRANCH   2   3
ATOM      3  N   UNL     1       2.979  -0.606  -0.149  1.00  0.00    -0.353 N 
ATOM      4  O   UNL     1       1.599   1.002  -1.395  1.00  0.00    -0.271 OA
ATOM      5  C   UNL     1       2.501   0.717  -0.615  1.00  0.00     0.257 C 
ATOM      6  H   UNL     1       3.938  -0.470   0.026  1.00  0.00     0.163 HD
BRANCH   5   7
ATOM      7  C   UNL     1       3.269   1.858   0.066  1.00  0.00     0.329 C 
BRANCH   7   8
ATOM      8  O   UNL     1       3.837   1.494   1.312  1.00  0.00    -0.483 OA
BRANCH   8   9
ATOM      9  C   UNL     1       3.060   1.680   2.434  1.00  0.00     0.127 A 
ATOM     10  C   UNL     1       3.688   2.475   3.400  1.00  0.00     0.047 A 
ATOM     11  C   UNL     1       1.867   0.982   2.755  1.00  0.00     0.018 A 
ATOM     12  C   UNL     1       3.157   2.586   4.681  1.00  0.00     0.004 A 
ATOM     13  C   UNL     1       1.351   1.107   4.054  1.00  0.00     0.012 A 
ATOM     14  C   UNL     1       1.997   1.893   5.012  1.00  0.00     0.001 A 
BRANCH  11  15
ATOM     15  C   UNL     1       1.132   0.077   1.854  1.00  0.00     0.033 C 
ATOM     16  C   UNL     1       1.752  -0.983   1.305  1.00  0.00     0.081 C 
ATOM     17  S   UNL     1       1.110  -1.535  -0.819  1.00  0.00    -0.054 SA
ATOM     18  C   UNL     1       3.682  -1.288   1.554  1.00  0.00     0.270 C 
ATOM     19  C   UNL     1       3.329  -1.878  -1.497  1.00  0.00     0.152 C 
ATOM     20  N   UNL     1       4.422  -1.792  -0.041  1.00  0.00    -0.261 N 
ATOM     21  O   UNL     1       4.234  -1.231   2.642  1.00  0.00    -0.268 OA
ATOM     22  S   UNL     1       3.625  -1.939  -3.157  1.00  0.00    -0.051 S 
BRANCH  20  23
ATOM     23  C   UNL     1       5.855  -1.996  -0.070  1.00  0.00     0.052 A 
ATOM     24  C   UNL     1       6.560  -2.202   1.132  1.00  0.00     0.030 A 
ATOM     25  C   UNL     1       6.601  -2.009  -1.251  1.00  0.00     0.050 A 
ATOM     26  C   UNL     1       7.944  -2.404   1.160  1.00  0.00     0.043 A 
ATOM     27  C   UNL     1       7.993  -2.211  -1.228  1.00  0.00     0.078 A 
ATOM     28  C   UNL     1       8.657  -2.407  -0.025  1.00  0.00     0.141 A 
ATOM     29  Cl  UNL     1       8.862  -2.200  -2.710  1.00  0.00    -0.081 Cl
ATOM     30  F   UNL     1       9.982  -2.594   0.021  1.00  0.00    -0.205 F 
ENDBRANCH  20  23
ENDBRANCH  11  15
ENDBRANCH   8   9
ENDBRANCH   7   8
ENDBRANCH   5   7
ENDBRANCH   2   3
ENDBRANCH   1   2
BRANCH   1  31
ATOM     31  C   UNL     1       3.913  -4.799  -0.850  1.00  0.00     0.023 C 
BRANCH  31  32
ATOM     32  C   UNL     1       4.614  -5.274   0.414  1.00  0.00     0.116 C 
BRANCH  32  33
ATOM     33  N   UNL     1       3.991  -6.449   0.995  1.00  0.00    -0.352 N 
ATOM     34  C   UNL     1       4.634  -7.594   1.410  1.00  0.00     0.251 C 
ATOM     35  H   UNL     1       3.013  -6.425   1.104  1.00  0.00     0.163 HD
ATOM     36  O   UNL     1       4.003  -8.591   1.739  1.00  0.00    -0.269 OA
BRANCH  34  37
ATOM     37  C   UNL     1       6.112  -7.591   1.419  1.00  0.00     0.039 A 
ATOM     38  C   UNL     1       6.802  -8.550   0.676  1.00  0.00     0.014 A 
ATOM     39  C   UNL     1       6.798  -6.567   2.080  1.00  0.00     0.014 A 
ATOM     40  C   UNL     1       8.191  -8.463   0.575  1.00  0.00     0.010 A 
ATOM     41  C   UNL     1       8.169  -6.434   1.902  1.00  0.00     0.010 A 
ATOM     42  C   UNL     1       8.885  -7.397   1.173  1.00  0.00    -0.014 A 
BRANCH  42  43
ATOM     43  C   UNL     1      10.366  -7.306   1.099  1.00  0.00     0.031 A 
ATOM     44  C   UNL     1      11.179  -7.375   2.366  1.00  0.00     0.074 A 
ATOM     45  C   UNL     1      10.976  -7.104  -0.086  1.00  0.00     0.049 A 
ATOM     46  N   UNL     1      12.474  -7.292   2.522  1.00  0.00    -0.248 NA
ATOM     47  C   UNL     1      10.435  -7.520   3.630  1.00  0.00     0.031 C 
ATOM     48  C   UNL     1      10.296  -6.933  -1.372  1.00  0.00     0.029 A 
ATOM     49  N   UNL     1      12.307  -6.993  -0.399  1.00  0.00    -0.354 N 
ATOM     50  C   UNL     1      12.693  -7.329   3.894  1.00  0.00     0.074 A 
ATOM     51  C   UNL     1      11.397  -7.393   4.530  1.00  0.00     0.031 C 
ATOM     52  C   UNL     1      11.215  -6.756  -2.336  1.00  0.00     0.029 A 
ATOM     53  C   UNL     1      12.546  -6.778  -1.737  1.00  0.00     0.049 A 
ATOM     54  H   UNL     1      13.025  -7.060   0.272  1.00  0.00     0.167 HD
ATOM     55  C   UNL     1      13.867  -7.348   4.568  1.00  0.00     0.034 A 
ATOM     56  C   UNL     1      13.708  -6.623  -2.403  1.00  0.00     0.034 A 
ATOM     57  C   UNL     1      15.153  -7.353   3.929  1.00  0.00     0.049 A 
ATOM     58  C   UNL     1      15.003  -6.717  -1.639  1.00  0.00     0.074 A 
ATOM     59  C   UNL     1      16.402  -7.476   4.510  1.00  0.00     0.029 A 
ATOM     60  N   UNL     1      15.355  -7.228   2.563  1.00  0.00    -0.354 N 
ATOM     61  N   UNL     1      15.193  -6.922  -0.357  1.00  0.00    -0.248 NA
ATOM     62  C   UNL     1      16.245  -6.598  -2.417  1.00  0.00     0.031 C 
ATOM     63  C   UNL     1      17.362  -7.403   3.495  1.00  0.00     0.029 A 
ATOM     64  C   UNL     1      16.709  -7.263   2.281  1.00  0.00     0.049 A 
ATOM     65  H   UNL     1      14.641  -7.129   1.893  1.00  0.00     0.167 HD
ATOM     66  C   UNL     1      16.571  -6.991  -0.181  1.00  0.00     0.074 A 
ATOM     67  C   UNL     1      17.167  -6.829  -1.491  1.00  0.00     0.031 C 
ATOM     68  C   UNL     1      17.281  -7.157   0.963  1.00  0.00     0.034 A 
BRANCH  55  69
ATOM     69  C   UNL     1      13.809  -7.425   6.072  1.00  0.00     0.023 A 
ATOM     70  C   UNL     1      13.369  -8.612   6.693  1.00  0.00     0.012 A 
ATOM     71  C   UNL     1      14.225  -6.342   6.870  1.00  0.00     0.148 A 
ATOM     72  C   UNL     1      13.301  -8.706   8.083  1.00  0.00     0.002 A 
ATOM     73  C   UNL     1      14.201  -6.460   8.255  1.00  0.00     0.091 A 
ATOM     74  F   UNL     1      14.619  -5.213   6.263  1.00  0.00    -0.205 F 
ATOM     75  C   UNL     1      13.727  -7.635   8.862  1.00  0.00     0.022 A 
BRANCH  73  76
ATOM     76  S   UNL     1      14.803  -5.168   9.348  1.00  0.00     0.127 S 
ATOM     77  O   UNL     1      13.558  -4.673   9.933  1.00  0.00    -0.237 OA
ATOM     78  O   UNL     1      15.655  -5.919  10.271  1.00  0.00    -0.237 OA
ATOM     79  O   UNL     1      15.515  -4.223   8.499  1.00  0.00    -0.744 OA
ENDBRANCH  73  76
ENDBRANCH  55  69
BRANCH  56  80
ATOM     80  C   UNL     1      13.704  -6.453  -3.885  1.00  0.00     0.023 A 
ATOM     81  C   UNL     1      14.179  -7.500  -4.700  1.00  0.00     0.012 A 
ATOM     82  C   UNL     1      13.213  -5.281  -4.492  1.00  0.00     0.148 A 
ATOM     83  C   UNL     1      14.197  -7.371  -6.089  1.00  0.00     0.002 A 
ATOM     84  C   UNL     1      13.185  -5.180  -5.879  1.00  0.00     0.091 A 
ATOM     85  F   UNL     1      12.775  -4.293  -3.701  1.00  0.00    -0.205 F 
ATOM     86  C   UNL     1      13.692  -6.216  -6.679  1.00  0.00     0.022 A 
BRANCH  84  87
ATOM     87  S   UNL     1      12.443  -3.785  -6.734  1.00  0.00     0.127 S 
ATOM     88  O   UNL     1      13.612  -3.140  -7.326  1.00  0.00    -0.237 OA
ATOM     89  O   UNL     1      11.559  -4.455  -7.690  1.00  0.00    -0.237 OA
ATOM     90  O   UNL     1      11.750  -3.017  -5.709  1.00  0.00    -0.744 OA
ENDBRANCH  84  87
ENDBRANCH  56  80
BRANCH  68  91
ATOM     91  C   UNL     1      18.782  -7.210   0.855  1.00  0.00     0.023 A 
ATOM     92  C   UNL     1      19.508  -6.034   0.583  1.00  0.00     0.012 A 
ATOM     93  C   UNL     1      19.476  -8.410   1.111  1.00  0.00     0.148 A 
ATOM     94  C   UNL     1      20.901  -6.058   0.536  1.00  0.00     0.002 A 
ATOM     95  C   UNL     1      20.865  -8.414   1.113  1.00  0.00     0.091 A 
ATOM     96  F   UNL     1      18.766  -9.521   1.351  1.00  0.00    -0.205 F 
ATOM     97  C   UNL     1      21.579  -7.243   0.814  1.00  0.00     0.022 A 
BRANCH  95  98
ATOM     98  S   UNL     1      21.822  -9.868   1.559  1.00  0.00     0.127 S 
ATOM     99  O   UNL     1      22.361 -10.279   0.264  1.00  0.00    -0.237 OA
ATOM    100  O   UNL     1      22.812  -9.316   2.485  1.00  0.00    -0.237 OA
ATOM    101  O   UNL     1      20.879 -10.797   2.167  1.00  0.00    -0.744 OA
ENDBRANCH  95  98
ENDBRANCH  68  91
ENDBRANCH  42  43
ENDBRANCH  34  37
ENDBRANCH  32  33
ENDBRANCH  31  32
ENDBRANCH   1  31
TORSDOF 18
