REMARK SMILES CCOc1cc2c(cc1OCC)[C@@H](C(=O)NCCCCNC(=O)c1ccc(-c3c4nc(c(-c5cccc(S(=O)(=O)[O-])c5F)c5ccc([nH]5)c(-c5cccc(S(=O)(=O)[O-])c5F)c5nc(c(-c6cccc(S(=O)(=O)[O-])c6F)c6ccc3[nH]6)C=C5)C=C4)cc1)[C@H](c1ccc(F)cc1Cl)N(C)C2=O
REMARK SMILES IDX 19 1 18 2 17 3 16 4 14 5 15 6 13 8 4 9 5 10 9 11 6 12 8 13
REMARK SMILES IDX 7 14 98 15 96 16 99 17 87 18 97 19 3 20 2 21 1 22 10 23
REMARK SMILES IDX 11 24 12 25 88 26 89 27 94 28 90 29 93 30 95 31 91 32 92 33
REMARK SMILES IDX 20 34 21 35 22 36 23 38 24 39 25 40 86 41 26 42 85 43 27 44
REMARK SMILES IDX 28 45 29 46 79 47 30 48 84 49 78 50 80 51 31 52 83 53 77 54
REMARK SMILES IDX 76 55 32 57 64 58 44 59 63 60 45 61 48 62 62 63 81 64 46 65
REMARK SMILES IDX 47 66 61 68 82 69 49 70 33 71 34 72 42 73 35 74 37 75 43 76
REMARK SMILES IDX 36 77 38 78 39 79 40 80 41 81 65 82 66 83 74 84 67 85 69 86
REMARK SMILES IDX 75 87 68 88 70 89 71 90 72 91 73 92 50 93 51 94 59 95 52 96
REMARK SMILES IDX 54 97 60 98 53 99 55 100 56 101 57 102 58 103
REMARK H PARENT 16 7 21 37 80 56 48 67
REMARK Flexibility Score: inf
ROOT
ATOM      1  C   UNL     1       8.273  -0.839  -2.020  1.00  0.00     0.023 C 
ENDROOT
BRANCH   1   2
ATOM      2  C   UNL     1       7.609  -0.609  -0.668  1.00  0.00     0.023 C 
BRANCH   2   3
ATOM      3  C   UNL     1       6.917  -1.833  -0.067  1.00  0.00     0.116 C 
BRANCH   3   4
ATOM      4  N   UNL     1       7.599  -2.285   1.134  1.00  0.00    -0.355 N 
ATOM      5  C   UNL     1       7.465  -2.005   2.451  1.00  0.00     0.230 C 
ATOM      6  O   UNL     1       8.320  -2.508   3.196  1.00  0.00    -0.274 OA
ATOM      7  H   UNL     1       8.314  -2.937   0.949  1.00  0.00     0.163 HD
BRANCH   5   8
ATOM      8  C   UNL     1       6.413  -1.107   3.091  1.00  0.00     0.136 C 
ATOM      9  C   UNL     1       2.259  -1.147   1.958  1.00  0.00     0.161 A 
ATOM     10  C   UNL     1       3.119  -0.143   1.492  1.00  0.00     0.064 A 
ATOM     11  C   UNL     1       2.749  -2.165   2.784  1.00  0.00     0.161 A 
ATOM     12  C   UNL     1       4.474  -0.162   1.815  1.00  0.00     0.048 A 
ATOM     13  C   UNL     1       4.122  -2.187   3.077  1.00  0.00     0.056 A 
ATOM     14  C   UNL     1       4.988  -1.185   2.612  1.00  0.00    -0.016 A 
ATOM     15  C   UNL     1       5.372   0.903   1.291  1.00  0.00     0.254 C 
ATOM     16  N   UNL     1       6.581   1.087   1.960  1.00  0.00    -0.333 N 
ATOM     17  O   UNL     1       5.031   1.532   0.295  1.00  0.00    -0.269 OA
ATOM     18  C   UNL     1       6.871   0.380   3.208  1.00  0.00     0.134 C 
ATOM     19  C   UNL     1       7.551   2.060   1.476  1.00  0.00     0.147 C 
BRANCH   9  20
ATOM     20  O   UNL     1       0.929  -1.017   1.661  1.00  0.00    -0.490 OA
BRANCH  20  21
ATOM     21  C   UNL     1       0.632  -1.379   0.304  1.00  0.00     0.226 C 
ATOM     22  C   UNL     1       0.529  -0.153  -0.588  1.00  0.00     0.049 C 
ENDBRANCH  20  21
ENDBRANCH   9  20
BRANCH  11  23
ATOM     23  O   UNL     1       2.080  -3.179   3.409  1.00  0.00    -0.490 OA
BRANCH  23  24
ATOM     24  C   UNL     1       0.661  -3.265   3.366  1.00  0.00     0.226 C 
ATOM     25  C   UNL     1       0.003  -2.329   4.364  1.00  0.00     0.049 C 
ENDBRANCH  23  24
ENDBRANCH  11  23
BRANCH  18  26
ATOM     26  C   UNL     1       6.299   1.036   4.496  1.00  0.00    -0.005 A 
ATOM     27  C   UNL     1       6.684   0.411   5.713  1.00  0.00     0.010 A 
ATOM     28  C   UNL     1       5.415   2.133   4.607  1.00  0.00     0.049 A 
ATOM     29  C   UNL     1       6.140   0.780   6.945  1.00  0.00     0.040 A 
ATOM     30  C   UNL     1       4.877   2.502   5.851  1.00  0.00     0.060 A 
ATOM     31  Cl  UNL     1       4.906   3.168   3.323  1.00  0.00    -0.084 Cl
ATOM     32  C   UNL     1       5.226   1.813   6.998  1.00  0.00     0.124 A 
ATOM     33  F   UNL     1       4.682   2.164   8.170  1.00  0.00    -0.207 F 
ENDBRANCH  18  26
ENDBRANCH   5   8
ENDBRANCH   3   4
ENDBRANCH   2   3
ENDBRANCH   1   2
BRANCH   1  34
ATOM     34  C   UNL     1       7.316  -1.181  -3.154  1.00  0.00     0.116 C 
BRANCH  34  35
ATOM     35  N   UNL     1       6.349  -0.135  -3.469  1.00  0.00    -0.352 N 
ATOM     36  C   UNL     1       5.889   0.243  -4.716  1.00  0.00     0.251 C 
ATOM     37  H   UNL     1       5.980   0.361  -2.703  1.00  0.00     0.163 HD
ATOM     38  O   UNL     1       5.096   1.165  -4.852  1.00  0.00    -0.269 OA
BRANCH  36  39
ATOM     39  C   UNL     1       6.426  -0.458  -5.903  1.00  0.00     0.039 A 
ATOM     40  C   UNL     1       7.078   0.289  -6.888  1.00  0.00     0.014 A 
ATOM     41  C   UNL     1       6.412  -1.853  -5.959  1.00  0.00     0.014 A 
ATOM     42  C   UNL     1       7.824  -0.372  -7.866  1.00  0.00     0.010 A 
ATOM     43  C   UNL     1       7.223  -2.503  -6.882  1.00  0.00     0.010 A 
ATOM     44  C   UNL     1       7.958  -1.770  -7.828  1.00  0.00    -0.014 A 
BRANCH  44  45
ATOM     45  C   UNL     1       8.918  -2.486  -8.708  1.00  0.00     0.031 A 
ATOM     46  C   UNL     1       8.432  -3.545  -9.657  1.00  0.00     0.074 A 
ATOM     47  C   UNL     1      10.243  -2.285  -8.545  1.00  0.00     0.049 A 
ATOM     48  N   UNL     1       9.127  -4.355 -10.412  1.00  0.00    -0.248 NA
ATOM     49  C   UNL     1       6.976  -3.747  -9.741  1.00  0.00     0.031 C 
ATOM     50  C   UNL     1      10.850  -1.364  -7.580  1.00  0.00     0.029 A 
ATOM     51  N   UNL     1      11.322  -2.870  -9.161  1.00  0.00    -0.354 N 
ATOM     52  C   UNL     1       8.202  -5.193 -11.021  1.00  0.00     0.074 A 
ATOM     53  C   UNL     1       6.896  -4.811 -10.528  1.00  0.00     0.031 C 
ATOM     54  C   UNL     1      12.187  -1.446  -7.669  1.00  0.00     0.029 A 
ATOM     55  C   UNL     1      12.537  -2.443  -8.675  1.00  0.00     0.049 A 
ATOM     56  H   UNL     1      11.235  -3.534  -9.883  1.00  0.00     0.167 HD
ATOM     57  C   UNL     1       8.415  -6.170 -11.933  1.00  0.00     0.034 A 
ATOM     58  C   UNL     1      13.792  -2.815  -8.997  1.00  0.00     0.034 A 
ATOM     59  C   UNL     1       9.703  -6.492 -12.483  1.00  0.00     0.049 A 
ATOM     60  C   UNL     1      13.997  -3.847 -10.072  1.00  0.00     0.074 A 
ATOM     61  C   UNL     1      10.003  -7.367 -13.512  1.00  0.00     0.029 A 
ATOM     62  N   UNL     1      10.904  -5.955 -12.050  1.00  0.00    -0.354 N 
ATOM     63  N   UNL     1      13.098  -4.491 -10.776  1.00  0.00    -0.248 NA
ATOM     64  C   UNL     1      15.386  -4.181 -10.421  1.00  0.00     0.031 C 
ATOM     65  C   UNL     1      11.390  -7.362 -13.697  1.00  0.00     0.029 A 
ATOM     66  C   UNL     1      11.951  -6.485 -12.784  1.00  0.00     0.049 A 
ATOM     67  H   UNL     1      10.999  -5.293 -11.327  1.00  0.00     0.167 HD
ATOM     68  C   UNL     1      13.810  -5.288 -11.665  1.00  0.00     0.074 A 
ATOM     69  C   UNL     1      15.215  -5.026 -11.430  1.00  0.00     0.031 C 
ATOM     70  C   UNL     1      13.342  -6.175 -12.577  1.00  0.00     0.034 A 
BRANCH  57  71
ATOM     71  C   UNL     1       7.214  -6.907 -12.458  1.00  0.00     0.023 A 
ATOM     72  C   UNL     1       6.355  -6.261 -13.370  1.00  0.00     0.012 A 
ATOM     73  C   UNL     1       6.966  -8.246 -12.101  1.00  0.00     0.148 A 
ATOM     74  C   UNL     1       5.250  -6.927 -13.898  1.00  0.00     0.002 A 
ATOM     75  C   UNL     1       5.882  -8.915 -12.659  1.00  0.00     0.091 A 
ATOM     76  F   UNL     1       7.779  -8.834 -11.211  1.00  0.00    -0.205 F 
ATOM     77  C   UNL     1       5.020  -8.255 -13.550  1.00  0.00     0.022 A 
BRANCH  75  78
ATOM     78  S   UNL     1       5.541 -10.647 -12.325  1.00  0.00     0.127 S 
ATOM     79  O   UNL     1       4.394 -10.553 -11.424  1.00  0.00    -0.237 OA
ATOM     80  O   UNL     1       5.228 -11.165 -13.658  1.00  0.00    -0.237 OA
ATOM     81  O   UNL     1       6.760 -11.187 -11.738  1.00  0.00    -0.744 OA
ENDBRANCH  75  78
ENDBRANCH  57  71
BRANCH  58  82
ATOM     82  C   UNL     1      14.955  -2.150  -8.344  1.00  0.00     0.023 A 
ATOM     83  C   UNL     1      15.735  -1.246  -9.090  1.00  0.00     0.012 A 
ATOM     84  C   UNL     1      15.271  -2.373  -6.990  1.00  0.00     0.148 A 
ATOM     85  C   UNL     1      16.824  -0.596  -8.509  1.00  0.00     0.002 A 
ATOM     86  C   UNL     1      16.327  -1.684  -6.402  1.00  0.00     0.091 A 
ATOM     87  F   UNL     1      14.531  -3.252  -6.298  1.00  0.00    -0.205 F 
ATOM     88  C   UNL     1      17.113  -0.806  -7.163  1.00  0.00     0.022 A 
BRANCH  86  89
ATOM     89  S   UNL     1      16.674  -1.800  -4.643  1.00  0.00     0.127 S 
ATOM     90  O   UNL     1      17.794  -2.737  -4.619  1.00  0.00    -0.237 OA
ATOM     91  O   UNL     1      17.018  -0.419  -4.302  1.00  0.00    -0.237 OA
ATOM     92  O   UNL     1      15.433  -2.268  -4.039  1.00  0.00    -0.744 OA
ENDBRANCH  86  89
ENDBRANCH  58  82
BRANCH  70  93
ATOM     93  C   UNL     1      14.350  -6.929 -13.400  1.00  0.00     0.023 A 
ATOM     94  C   UNL     1      15.062  -7.992 -12.811  1.00  0.00     0.012 A 
ATOM     95  C   UNL     1      14.526  -6.650 -14.769  1.00  0.00     0.148 A 
ATOM     96  C   UNL     1      15.949  -8.756 -13.568  1.00  0.00     0.002 A 
ATOM     97  C   UNL     1      15.381  -7.441 -15.527  1.00  0.00     0.091 A 
ATOM     98  F   UNL     1      13.854  -5.621 -15.305  1.00  0.00    -0.205 F 
ATOM     99  C   UNL     1      16.099  -8.489 -14.927  1.00  0.00     0.022 A 
BRANCH  97 100
ATOM    100  S   UNL     1      15.567  -7.225 -17.301  1.00  0.00     0.127 S 
ATOM    101  O   UNL     1      16.868  -6.564 -17.387  1.00  0.00    -0.237 OA
ATOM    102  O   UNL     1      15.551  -8.605 -17.789  1.00  0.00    -0.237 OA
ATOM    103  O   UNL     1      14.426  -6.425 -17.726  1.00  0.00    -0.744 OA
ENDBRANCH  97 100
ENDBRANCH  70  93
ENDBRANCH  44  45
ENDBRANCH  36  39
ENDBRANCH  34  35
ENDBRANCH   1  34
TORSDOF 19
