REMARK SMILES Cc1cccc(Cl)c1Nc1ccccc1CC(=O)NCCCCNC(=O)c1ccc(-c2c3nc(c(-c4cccc(S(=O)(=O)[O-])c4F)c4ccc([nH]4)c(-c4cccc(S(=O)(=O)[O-])c4F)c4nc(c(-c5cccc(S(=O)(=O)[O-])c5F)c5ccc2[nH]5)C=C4)C=C3)cc1
REMARK SMILES IDX 21 1 20 2 19 3 17 4 18 5 16 7 15 8 10 9 11 10 12 11 14 12
REMARK SMILES IDX 13 13 9 14 8 16 1 17 2 18 3 19 4 20 6 21 5 22 7 23 22 24
REMARK SMILES IDX 23 25 24 26 25 27 26 29 27 30 28 31 89 32 29 33 88 34 30 35
REMARK SMILES IDX 31 36 32 37 82 38 33 39 87 40 81 41 83 42 34 43 86 44 80 45
REMARK SMILES IDX 79 46 35 48 67 49 47 50 66 51 48 52 51 53 65 54 84 55 49 56
REMARK SMILES IDX 50 57 64 59 85 60 52 61 36 62 37 63 45 64 38 65 40 66 46 67
REMARK SMILES IDX 39 68 41 69 42 70 43 71 44 72 68 73 69 74 77 75 70 76 72 77
REMARK SMILES IDX 78 78 71 79 73 80 74 81 75 82 76 83 53 84 54 85 62 86 55 87
REMARK SMILES IDX 57 88 63 89 56 90 58 91 59 92 60 93 61 94
REMARK H PARENT 19 6 9 15 24 28 83 47 51 58
REMARK Flexibility Score: inf
ROOT
ATOM      1  C   UNL     1       0.671   5.070  -2.159  1.00  0.00     0.023 C 
ENDROOT
BRANCH   1   2
ATOM      2  C   UNL     1       0.103   3.783  -2.756  1.00  0.00     0.116 C 
BRANCH   2   3
ATOM      3  N   UNL     1       1.044   3.136  -3.648  1.00  0.00    -0.356 N 
ATOM      4  C   UNL     1       1.890   2.097  -3.375  1.00  0.00     0.224 C 
ATOM      5  O   UNL     1       2.671   1.722  -4.252  1.00  0.00    -0.275 OA
ATOM      6  H   UNL     1       1.079   3.489  -4.566  1.00  0.00     0.163 HD
BRANCH   4   7
ATOM      7  C   UNL     1       1.821   1.397  -2.026  1.00  0.00     0.137 C 
BRANCH   7   8
ATOM      8  C   UNL     1       2.348   2.224  -0.871  1.00  0.00    -0.015 A 
ATOM      9  C   UNL     1       1.593   2.501   0.290  1.00  0.00     0.042 A 
ATOM     10  C   UNL     1       2.131   3.383   1.247  1.00  0.00     0.026 A 
ATOM     11  C   UNL     1       3.392   3.958   1.084  1.00  0.00     0.002 A 
ATOM     12  C   UNL     1       3.636   2.785  -1.001  1.00  0.00     0.006 A 
ATOM     13  C   UNL     1       4.151   3.648  -0.035  1.00  0.00     0.000 A 
BRANCH   9  14
ATOM     14  N   UNL     1       0.344   1.922   0.591  1.00  0.00    -0.354 N 
ATOM     15  H   UNL     1      -0.309   2.558   0.963  1.00  0.00     0.167 HD
BRANCH  14  16
ATOM     16  C   UNL     1      -0.155   0.604   0.463  1.00  0.00     0.060 A 
ATOM     17  C   UNL     1      -2.463   1.609   0.001  1.00  0.00     0.046 C 
ATOM     18  C   UNL     1      -1.529   0.434   0.145  1.00  0.00    -0.026 A 
ATOM     19  C   UNL     1      -2.046  -0.853  -0.091  1.00  0.00     0.005 A 
ATOM     20  C   UNL     1      -1.230  -1.976  -0.008  1.00  0.00     0.002 A 
ATOM     21  C   UNL     1       0.646  -0.557   0.570  1.00  0.00     0.064 A 
ATOM     22  C   UNL     1       0.110  -1.829   0.330  1.00  0.00     0.023 A 
ATOM     23  Cl  UNL     1       2.293  -0.526   1.108  1.00  0.00    -0.082 Cl
ENDBRANCH  14  16
ENDBRANCH   9  14
ENDBRANCH   7   8
ENDBRANCH   4   7
ENDBRANCH   2   3
ENDBRANCH   1   2
BRANCH   1  24
ATOM     24  C   UNL     1       0.814   6.226  -3.151  1.00  0.00     0.023 C 
BRANCH  24  25
ATOM     25  C   UNL     1      -0.483   6.672  -3.816  1.00  0.00     0.116 C 
BRANCH  25  26
ATOM     26  N   UNL     1      -1.498   7.104  -2.864  1.00  0.00    -0.352 N 
ATOM     27  C   UNL     1      -2.452   8.080  -3.028  1.00  0.00     0.251 C 
ATOM     28  H   UNL     1      -1.501   6.639  -1.996  1.00  0.00     0.163 HD
ATOM     29  O   UNL     1      -3.177   8.405  -2.092  1.00  0.00    -0.269 OA
BRANCH  27  30
ATOM     30  C   UNL     1      -2.566   8.761  -4.335  1.00  0.00     0.039 A 
ATOM     31  C   UNL     1      -2.541  10.157  -4.377  1.00  0.00     0.014 A 
ATOM     32  C   UNL     1      -2.641   8.017  -5.516  1.00  0.00     0.014 A 
ATOM     33  C   UNL     1      -2.518  10.809  -5.612  1.00  0.00     0.010 A 
ATOM     34  C   UNL     1      -2.554   8.666  -6.743  1.00  0.00     0.010 A 
ATOM     35  C   UNL     1      -2.488  10.067  -6.804  1.00  0.00    -0.014 A 
BRANCH  35  36
ATOM     36  C   UNL     1      -2.366  10.724  -8.129  1.00  0.00     0.031 A 
ATOM     37  C   UNL     1      -3.473  10.590  -9.139  1.00  0.00     0.074 A 
ATOM     38  C   UNL     1      -1.214  11.337  -8.466  1.00  0.00     0.049 A 
ATOM     39  N   UNL     1      -3.507  10.992 -10.382  1.00  0.00    -0.248 NA
ATOM     40  C   UNL     1      -4.689   9.884  -8.702  1.00  0.00     0.031 C 
ATOM     41  C   UNL     1      -0.037  11.461  -7.602  1.00  0.00     0.029 A 
ATOM     42  N   UNL     1      -0.828  11.938  -9.638  1.00  0.00    -0.354 N 
ATOM     43  C   UNL     1      -4.723  10.551 -10.889  1.00  0.00     0.074 A 
ATOM     44  C   UNL     1      -5.388   9.829  -9.826  1.00  0.00     0.031 C 
ATOM     45  C   UNL     1       0.939  12.091  -8.276  1.00  0.00     0.029 A 
ATOM     46  C   UNL     1       0.471  12.391  -9.625  1.00  0.00     0.049 A 
ATOM     47  H   UNL     1      -1.425  12.034 -10.416  1.00  0.00     0.167 HD
ATOM     48  C   UNL     1      -5.252  10.754 -12.118  1.00  0.00     0.034 A 
ATOM     49  C   UNL     1       1.204  12.975 -10.594  1.00  0.00     0.034 A 
ATOM     50  C   UNL     1      -4.615  11.523 -13.152  1.00  0.00     0.049 A 
ATOM     51  C   UNL     1       0.570  13.241 -11.932  1.00  0.00     0.074 A 
ATOM     52  C   UNL     1      -5.111  11.869 -14.396  1.00  0.00     0.029 A 
ATOM     53  N   UNL     1      -3.343  12.067 -13.062  1.00  0.00    -0.354 N 
ATOM     54  N   UNL     1      -0.644  12.959 -12.339  1.00  0.00    -0.248 NA
ATOM     55  C   UNL     1       1.392  13.937 -12.934  1.00  0.00     0.031 C 
ATOM     56  C   UNL     1      -4.134  12.616 -15.063  1.00  0.00     0.029 A 
ATOM     57  C   UNL     1      -3.035  12.745 -14.228  1.00  0.00     0.049 A 
ATOM     58  H   UNL     1      -2.747  11.983 -12.283  1.00  0.00     0.167 HD
ATOM     59  C   UNL     1      -0.745  13.476 -13.625  1.00  0.00     0.074 A 
ATOM     60  C   UNL     1       0.526  14.102 -13.925  1.00  0.00     0.031 C 
ATOM     61  C   UNL     1      -1.791  13.423 -14.486  1.00  0.00     0.034 A 
BRANCH  48  62
ATOM     62  C   UNL     1      -6.621  10.191 -12.393  1.00  0.00     0.023 A 
ATOM     63  C   UNL     1      -7.748  10.795 -11.799  1.00  0.00     0.012 A 
ATOM     64  C   UNL     1      -6.801   9.110 -13.277  1.00  0.00     0.148 A 
ATOM     65  C   UNL     1      -9.030  10.314 -12.056  1.00  0.00     0.002 A 
ATOM     66  C   UNL     1      -8.087   8.662 -13.560  1.00  0.00     0.091 A 
ATOM     67  F   UNL     1      -5.717   8.533 -13.813  1.00  0.00    -0.205 F 
ATOM     68  C   UNL     1      -9.200   9.255 -12.943  1.00  0.00     0.022 A 
BRANCH  66  69
ATOM     69  S   UNL     1      -8.414   7.354 -14.748  1.00  0.00     0.127 S 
ATOM     70  O   UNL     1      -8.758   6.237 -13.869  1.00  0.00    -0.237 OA
ATOM     71  O   UNL     1      -9.538   7.899 -15.509  1.00  0.00    -0.237 OA
ATOM     72  O   UNL     1      -7.186   7.195 -15.514  1.00  0.00    -0.744 OA
ENDBRANCH  66  69
ENDBRANCH  48  62
BRANCH  49  73
ATOM     73  C   UNL     1       2.597  13.419 -10.304  1.00  0.00     0.023 A 
ATOM     74  C   UNL     1       2.869  14.797 -10.194  1.00  0.00     0.012 A 
ATOM     75  C   UNL     1       3.640  12.495 -10.102  1.00  0.00     0.148 A 
ATOM     76  C   UNL     1       4.160  15.248  -9.917  1.00  0.00     0.002 A 
ATOM     77  C   UNL     1       4.913  12.950  -9.774  1.00  0.00     0.091 A 
ATOM     78  F   UNL     1       3.366  11.189 -10.224  1.00  0.00    -0.205 F 
ATOM     79  C   UNL     1       5.179  14.326  -9.696  1.00  0.00     0.022 A 
BRANCH  77  80
ATOM     80  S   UNL     1       6.250  11.830  -9.344  1.00  0.00     0.127 S 
ATOM     81  O   UNL     1       7.086  11.888 -10.540  1.00  0.00    -0.237 OA
ATOM     82  O   UNL     1       6.821  12.475  -8.161  1.00  0.00    -0.237 OA
ATOM     83  O   UNL     1       5.611  10.549  -9.074  1.00  0.00    -0.744 OA
ENDBRANCH  77  80
ENDBRANCH  49  73
BRANCH  61  84
ATOM     84  C   UNL     1      -1.635  14.091 -15.825  1.00  0.00     0.023 A 
ATOM     85  C   UNL     1      -0.849  13.481 -16.822  1.00  0.00     0.012 A 
ATOM     86  C   UNL     1      -2.344  15.271 -16.126  1.00  0.00     0.148 A 
ATOM     87  C   UNL     1      -0.756  14.045 -18.093  1.00  0.00     0.002 A 
ATOM     88  C   UNL     1      -2.282  15.803 -17.408  1.00  0.00     0.091 A 
ATOM     89  F   UNL     1      -3.070  15.846 -15.156  1.00  0.00    -0.205 F 
ATOM     90  C   UNL     1      -1.482  15.197 -18.390  1.00  0.00     0.022 A 
BRANCH  88  91
ATOM     91  S   UNL     1      -3.256  17.229 -17.905  1.00  0.00     0.127 S 
ATOM     92  O   UNL     1      -2.238  18.275 -17.978  1.00  0.00    -0.237 OA
ATOM     93  O   UNL     1      -3.789  16.806 -19.201  1.00  0.00    -0.237 OA
ATOM     94  O   UNL     1      -4.264  17.406 -16.868  1.00  0.00    -0.744 OA
ENDBRANCH  88  91
ENDBRANCH  61  84
ENDBRANCH  35  36
ENDBRANCH  27  30
ENDBRANCH  25  26
ENDBRANCH  24  25
ENDBRANCH   1  24
TORSDOF 17
