REMARK SMILES O=C(NCCCCNC(=O)[C@@H](c1ccccc1)N1C(=O)/C(=C\c2ccc(-c3ccc(F)cc3)o2)SC1=S)c1ccc(-c2c3nc(c(-c4cccc(S(=O)(=O)[O-])c4F)c4ccc([nH]4)c(-c4cccc(S(=O)(=O)[O-])c4F)c4nc(c(-c5cccc(S(=O)(=O)[O-])c5F)c5ccc2[nH]5)C=C4)C=C3)cc1
REMARK SMILES IDX 5 1 4 2 3 3 1 4 2 5 38 7 39 8 100 9 40 10 99 11 41 12 42 13
REMARK SMILES IDX 43 14 93 15 44 16 98 17 92 18 94 19 45 20 97 21 91 22 90 23
REMARK SMILES IDX 46 25 78 26 58 27 77 28 59 29 62 30 76 31 95 32 60 33 61 34
REMARK SMILES IDX 75 36 96 37 63 38 47 39 48 40 56 41 49 42 51 43 57 44 50 45
REMARK SMILES IDX 52 46 53 47 54 48 55 49 79 50 80 51 88 52 81 53 83 54 89 55
REMARK SMILES IDX 82 56 84 57 85 58 86 59 87 60 64 61 65 62 73 63 66 64 68 65
REMARK SMILES IDX 74 66 67 67 69 68 70 69 71 70 72 71 6 72 7 73 8 74 9 75
REMARK SMILES IDX 10 77 11 78 12 79 13 80 17 81 14 82 16 83 15 84 18 85 19 86
REMARK SMILES IDX 36 87 20 88 21 89 35 90 37 91 22 92 23 93 24 94 34 95 25 96
REMARK SMILES IDX 26 97 27 98 28 99 33 100 29 101 32 102 30 103 31 104
REMARK H PARENT 3 6 94 24 62 35 8 76
REMARK Flexibility Score: inf
ROOT
ATOM      1  C   UNL     1       5.058   2.467   0.670  1.00  0.00     0.023 C 
ENDROOT
BRANCH   1   2
ATOM      2  C   UNL     1       4.651   1.014   0.473  1.00  0.00     0.116 C 
BRANCH   2   3
ATOM      3  N   UNL     1       3.218   0.799   0.598  1.00  0.00    -0.352 N 
ATOM      4  O   UNL     1       1.222  -0.069   0.000  1.00  0.00    -0.269 OA
ATOM      5  C   UNL     1       2.436  -0.077  -0.121  1.00  0.00     0.251 C 
ATOM      6  H   UNL     1       2.754   1.342   1.275  1.00  0.00     0.163 HD
BRANCH   5   7
ATOM      7  C   UNL     1       3.109  -0.995  -1.063  1.00  0.00     0.039 A 
ATOM      8  C   UNL     1       4.199  -1.758  -0.631  1.00  0.00     0.014 A 
ATOM      9  C   UNL     1       2.681  -1.045  -2.390  1.00  0.00     0.014 A 
ATOM     10  C   UNL     1       4.933  -2.489  -1.555  1.00  0.00     0.010 A 
ATOM     11  C   UNL     1       3.373  -1.845  -3.300  1.00  0.00     0.010 A 
ATOM     12  C   UNL     1       4.510  -2.561  -2.892  1.00  0.00    -0.014 A 
BRANCH  12  13
ATOM     13  C   UNL     1       5.178  -3.510  -3.812  1.00  0.00     0.031 A 
ATOM     14  C   UNL     1       5.932  -3.039  -5.020  1.00  0.00     0.074 A 
ATOM     15  C   UNL     1       5.041  -4.825  -3.553  1.00  0.00     0.049 A 
ATOM     16  N   UNL     1       6.534  -3.754  -5.934  1.00  0.00    -0.248 NA
ATOM     17  C   UNL     1       6.019  -1.587  -5.242  1.00  0.00     0.031 C 
ATOM     18  C   UNL     1       4.277  -5.385  -2.432  1.00  0.00     0.029 A 
ATOM     19  N   UNL     1       5.510  -5.928  -4.216  1.00  0.00    -0.354 N 
ATOM     20  C   UNL     1       7.030  -2.850  -6.864  1.00  0.00     0.074 A 
ATOM     21  C   UNL     1       6.671  -1.527  -6.398  1.00  0.00     0.031 C 
ATOM     22  C   UNL     1       4.325  -6.722  -2.488  1.00  0.00     0.029 A 
ATOM     23  C   UNL     1       5.071  -7.115  -3.676  1.00  0.00     0.049 A 
ATOM     24  H   UNL     1       6.102  -5.877  -5.001  1.00  0.00     0.167 HD
ATOM     25  C   UNL     1       7.728  -3.108  -7.996  1.00  0.00     0.034 A 
ATOM     26  C   UNL     1       5.214  -8.380  -4.110  1.00  0.00     0.034 A 
ATOM     27  C   UNL     1       8.116  -4.428  -8.418  1.00  0.00     0.049 A 
ATOM     28  C   UNL     1       6.004  -8.626  -5.361  1.00  0.00     0.074 A 
ATOM     29  C   UNL     1       8.930  -4.785  -9.479  1.00  0.00     0.029 A 
ATOM     30  N   UNL     1       7.699  -5.607  -7.820  1.00  0.00    -0.354 N 
ATOM     31  N   UNL     1       6.622  -7.759  -6.126  1.00  0.00    -0.248 NA
ATOM     32  C   UNL     1       6.135 -10.021  -5.799  1.00  0.00     0.031 C 
ATOM     33  C   UNL     1       8.979  -6.181  -9.543  1.00  0.00     0.029 A 
ATOM     34  C   UNL     1       8.209  -6.694  -8.511  1.00  0.00     0.049 A 
ATOM     35  H   UNL     1       7.125  -5.664  -7.022  1.00  0.00     0.167 HD
ATOM     36  C   UNL     1       7.222  -8.503  -7.132  1.00  0.00     0.074 A 
ATOM     37  C   UNL     1       6.926  -9.895  -6.856  1.00  0.00     0.031 C 
ATOM     38  C   UNL     1       7.932  -8.073  -8.202  1.00  0.00     0.034 A 
BRANCH  25  39
ATOM     39  C   UNL     1       8.159  -1.951  -8.857  1.00  0.00     0.023 A 
ATOM     40  C   UNL     1       9.263  -1.167  -8.469  1.00  0.00     0.012 A 
ATOM     41  C   UNL     1       7.552  -1.723 -10.109  1.00  0.00     0.148 A 
ATOM     42  C   UNL     1       9.753  -0.169  -9.310  1.00  0.00     0.002 A 
ATOM     43  C   UNL     1       8.067  -0.749 -10.956  1.00  0.00     0.091 A 
ATOM     44  F   UNL     1       6.492  -2.470 -10.449  1.00  0.00    -0.205 F 
ATOM     45  C   UNL     1       9.165   0.032 -10.556  1.00  0.00     0.022 A 
BRANCH  43  46
ATOM     46  S   UNL     1       7.427  -0.459 -12.610  1.00  0.00     0.127 S 
ATOM     47  O   UNL     1       6.827   0.867 -12.464  1.00  0.00    -0.237 OA
ATOM     48  O   UNL     1       8.644  -0.492 -13.421  1.00  0.00    -0.237 OA
ATOM     49  O   UNL     1       6.489  -1.541 -12.874  1.00  0.00    -0.744 OA
ENDBRANCH  43  46
ENDBRANCH  25  39
BRANCH  26  50
ATOM     50  C   UNL     1       4.593  -9.496  -3.346  1.00  0.00     0.023 A 
ATOM     51  C   UNL     1       5.412 -10.407  -2.655  1.00  0.00     0.012 A 
ATOM     52  C   UNL     1       3.193  -9.626  -3.258  1.00  0.00     0.148 A 
ATOM     53  C   UNL     1       4.848 -11.443  -1.910  1.00  0.00     0.002 A 
ATOM     54  C   UNL     1       2.638 -10.622  -2.465  1.00  0.00     0.091 A 
ATOM     55  F   UNL     1       2.427  -8.762  -3.939  1.00  0.00    -0.205 F 
ATOM     56  C   UNL     1       3.462 -11.542  -1.803  1.00  0.00     0.022 A 
BRANCH  54  57
ATOM     57  S   UNL     1       0.869 -10.705  -2.162  1.00  0.00     0.127 S 
ATOM     58  O   UNL     1       0.446 -11.718  -3.123  1.00  0.00    -0.237 OA
ATOM     59  O   UNL     1       0.811 -11.123  -0.760  1.00  0.00    -0.237 OA
ATOM     60  O   UNL     1       0.381  -9.351  -2.395  1.00  0.00    -0.744 OA
ENDBRANCH  54  57
ENDBRANCH  26  50
BRANCH  38  61
ATOM     61  C   UNL     1       8.432  -9.117  -9.161  1.00  0.00     0.023 A 
ATOM     62  C   UNL     1       7.521  -9.739 -10.037  1.00  0.00     0.012 A 
ATOM     63  C   UNL     1       9.801  -9.433  -9.243  1.00  0.00     0.148 A 
ATOM     64  C   UNL     1       7.962 -10.681 -10.965  1.00  0.00     0.002 A 
ATOM     65  C   UNL     1      10.240 -10.339 -10.200  1.00  0.00     0.091 A 
ATOM     66  F   UNL     1      10.646  -8.841  -8.386  1.00  0.00    -0.205 F 
ATOM     67  C   UNL     1       9.321 -10.972 -11.054  1.00  0.00     0.022 A 
BRANCH  65  68
ATOM     68  S   UNL     1      11.979 -10.712 -10.450  1.00  0.00     0.127 S 
ATOM     69  O   UNL     1      12.065 -12.083  -9.949  1.00  0.00    -0.237 OA
ATOM     70  O   UNL     1      12.119 -10.582 -11.900  1.00  0.00    -0.237 OA
ATOM     71  O   UNL     1      12.718  -9.720  -9.679  1.00  0.00    -0.744 OA
ENDBRANCH  65  68
ENDBRANCH  38  61
ENDBRANCH  12  13
ENDBRANCH   5   7
ENDBRANCH   2   3
ENDBRANCH   1   2
BRANCH   1  72
ATOM     72  C   UNL     1       4.678   3.048   2.029  1.00  0.00     0.023 C 
BRANCH  72  73
ATOM     73  C   UNL     1       5.353   2.361   3.214  1.00  0.00     0.116 C 
BRANCH  73  74
ATOM     74  N   UNL     1       6.694   2.869   3.417  1.00  0.00    -0.354 N 
ATOM     75  C   UNL     1       7.175   3.772   4.327  1.00  0.00     0.247 C 
ATOM     76  H   UNL     1       7.370   2.506   2.801  1.00  0.00     0.163 HD
ATOM     77  O   UNL     1       8.307   4.227   4.122  1.00  0.00    -0.272 OA
BRANCH  75  78
ATOM     78  C   UNL     1       6.292   4.346   5.496  1.00  0.00     0.211 C 
BRANCH  78  79
ATOM     79  C   UNL     1       5.464   5.488   4.883  1.00  0.00    -0.016 A 
ATOM     80  C   UNL     1       6.095   6.727   4.667  1.00  0.00     0.006 A 
ATOM     81  C   UNL     1       4.145   5.333   4.421  1.00  0.00     0.006 A 
ATOM     82  C   UNL     1       5.432   7.769   4.014  1.00  0.00     0.000 A 
ATOM     83  C   UNL     1       3.485   6.375   3.765  1.00  0.00     0.000 A 
ATOM     84  C   UNL     1       4.129   7.591   3.559  1.00  0.00     0.000 A 
ENDBRANCH  78  79
BRANCH  78  85
ATOM     85  N   UNL     1       5.544   3.315   6.254  1.00  0.00    -0.276 N 
ATOM     86  C   UNL     1       6.167   2.089   6.442  1.00  0.00     0.267 C 
ATOM     87  C   UNL     1       4.566   3.535   7.197  1.00  0.00     0.149 C 
ATOM     88  O   UNL     1       7.351   1.865   6.247  1.00  0.00    -0.268 OA
ATOM     89  C   UNL     1       5.218   1.107   7.034  1.00  0.00     0.084 C 
ATOM     90  S   UNL     1       3.900   1.983   7.716  1.00  0.00    -0.054 SA
ATOM     91  S   UNL     1       4.040   4.961   7.885  1.00  0.00    -0.052 S 
ATOM     92  C   UNL     1       5.279  -0.231   7.024  1.00  0.00     0.068 C 
BRANCH  92  93
ATOM     93  C   UNL     1       6.341  -0.988   6.461  1.00  0.00     0.128 A 
ATOM     94  C   UNL     1       7.703  -0.960   6.737  1.00  0.00     0.051 A 
ATOM     95  O   UNL     1       6.129  -1.991   5.537  1.00  0.00    -0.457 OA
ATOM     96  C   UNL     1       8.330  -1.954   5.954  1.00  0.00     0.051 A 
ATOM     97  C   UNL     1       7.329  -2.567   5.238  1.00  0.00     0.134 A 
BRANCH  97  98
ATOM     98  C   UNL     1       7.315  -3.681   4.302  1.00  0.00     0.017 A 
ATOM     99  C   UNL     1       6.532  -3.649   3.139  1.00  0.00     0.015 A 
ATOM    100  C   UNL     1       8.129  -4.800   4.545  1.00  0.00     0.015 A 
ATOM    101  C   UNL     1       6.575  -4.710   2.228  1.00  0.00     0.040 A 
ATOM    102  C   UNL     1       8.162  -5.864   3.642  1.00  0.00     0.040 A 
ATOM    103  C   UNL     1       7.390  -5.806   2.489  1.00  0.00     0.123 A 
ATOM    104  F   UNL     1       7.435  -6.822   1.619  1.00  0.00    -0.207 F 
ENDBRANCH  97  98
ENDBRANCH  92  93
ENDBRANCH  78  85
ENDBRANCH  75  78
ENDBRANCH  73  74
ENDBRANCH  72  73
ENDBRANCH   1  72
TORSDOF 18
