REMARK SMILES C[C@@H](CCO)SCc1cccc(/C=C/C(=O)NCCCCNC(=O)c2ccc(-c3c4nc(c(-c5cccc(S(=O)(=O)[O-])c5F)c5ccc([nH]5)c(-c5cccc(S(=O)(=O)[O-])c5F)c5nc(c(-c6cccc(S(=O)(=O)[O-])c6F)c6ccc3[nH]6)C=C5)C=C4)cc2)c1
REMARK SMILES IDX 15 1 16 2 17 3 14 5 13 6 12 7 8 8 9 9 88 10 10 11 11 12 7 13
REMARK SMILES IDX 6 14 2 15 1 16 3 17 4 18 5 19 18 21 19 22 20 23 21 24 22 25
REMARK SMILES IDX 23 26 24 28 25 29 26 30 87 31 27 32 86 33 28 34 29 35 30 36
REMARK SMILES IDX 80 37 31 38 85 39 79 40 81 41 32 42 84 43 78 44 77 45 33 47
REMARK SMILES IDX 65 48 45 49 64 50 46 51 49 52 63 53 82 54 47 55 48 56 62 58
REMARK SMILES IDX 83 59 50 60 34 61 35 62 43 63 36 64 38 65 44 66 37 67 39 68
REMARK SMILES IDX 40 69 41 70 42 71 66 72 67 73 75 74 68 75 70 76 76 77 69 78
REMARK SMILES IDX 71 79 72 80 73 81 74 82 51 83 52 84 60 85 53 86 55 87 61 88
REMARK SMILES IDX 54 89 56 90 57 91 58 92 59 93
REMARK H PARENT 17 4 5 20 22 27 81 46 49 57
REMARK Flexibility Score: inf
ROOT
ATOM      1  C   UNL     1      -0.086   4.421  -7.195  1.00  0.00     0.243 C 
ATOM      2  O   UNL     1       0.575   4.506  -8.227  1.00  0.00    -0.270 OA
ATOM      3  N   UNL     1      -0.339   5.530  -6.445  1.00  0.00    -0.353 N 
ATOM      4  H   UNL     1       0.130   6.343  -6.739  1.00  0.00     0.163 HD
ENDROOT
BRANCH   1   5
ATOM      5  C   UNL     1      -0.654   3.110  -6.813  1.00  0.00     0.072 C 
ATOM      6  C   UNL     1      -0.525   2.626  -5.572  1.00  0.00     0.014 C 
BRANCH   6   7
ATOM      7  C   UNL     1      -1.044   1.342  -5.098  1.00  0.00    -0.025 A 
ATOM      8  C   UNL     1      -1.807   0.098  -3.138  1.00  0.00    -0.037 A 
ATOM      9  C   UNL     1      -1.717  -1.086  -3.885  1.00  0.00     0.004 A 
ATOM     10  C   UNL     1      -1.564   1.308  -3.798  1.00  0.00     0.012 A 
ATOM     11  C   UNL     1      -1.275  -1.060  -5.212  1.00  0.00     0.001 A 
ATOM     12  C   UNL     1      -0.904   0.148  -5.806  1.00  0.00     0.008 A 
BRANCH   8  13
ATOM     13  C   UNL     1      -2.145   0.030  -1.667  1.00  0.00     0.105 C 
BRANCH  13  14
ATOM     14  S   UNL     1      -1.570   1.418  -0.619  1.00  0.00    -0.154 SA
BRANCH  14  15
ATOM     15  C   UNL     1       0.258   1.153  -0.451  1.00  0.00     0.046 C 
ATOM     16  C   UNL     1       0.599  -0.174   0.213  1.00  0.00     0.019 C 
BRANCH  15  17
ATOM     17  C   UNL     1       1.099   1.565  -1.679  1.00  0.00     0.042 C 
BRANCH  17  18
ATOM     18  C   UNL     1       1.972   0.510  -2.355  1.00  0.00     0.157 C 
BRANCH  18  19
ATOM     19  O   UNL     1       1.269  -0.677  -2.664  1.00  0.00    -0.396 OA
ATOM     20  H   UNL     1       0.942  -1.081  -1.845  1.00  0.00     0.210 HD
ENDBRANCH  18  19
ENDBRANCH  17  18
ENDBRANCH  15  17
ENDBRANCH  14  15
ENDBRANCH  13  14
ENDBRANCH   8  13
ENDBRANCH   6   7
ENDBRANCH   1   5
BRANCH   3  21
ATOM     21  C   UNL     1      -1.191   5.707  -5.279  1.00  0.00     0.116 C 
BRANCH  21  22
ATOM     22  C   UNL     1      -0.374   6.095  -4.045  1.00  0.00     0.023 C 
BRANCH  22  23
ATOM     23  C   UNL     1       0.025   7.574  -3.994  1.00  0.00     0.023 C 
BRANCH  23  24
ATOM     24  C   UNL     1      -1.141   8.555  -3.915  1.00  0.00     0.116 C 
BRANCH  24  25
ATOM     25  N   UNL     1      -1.986   8.360  -2.744  1.00  0.00    -0.352 N 
ATOM     26  C   UNL     1      -2.710   9.309  -2.059  1.00  0.00     0.251 C 
ATOM     27  H   UNL     1      -2.046   7.439  -2.402  1.00  0.00     0.163 HD
ATOM     28  O   UNL     1      -3.301   9.017  -1.024  1.00  0.00    -0.269 OA
BRANCH  26  29
ATOM     29  C   UNL     1      -2.729  10.695  -2.567  1.00  0.00     0.039 A 
ATOM     30  C   UNL     1      -2.364  11.738  -1.712  1.00  0.00     0.014 A 
ATOM     31  C   UNL     1      -3.046  10.950  -3.904  1.00  0.00     0.014 A 
ATOM     32  C   UNL     1      -2.246  13.034  -2.218  1.00  0.00     0.010 A 
ATOM     33  C   UNL     1      -2.865  12.227  -4.419  1.00  0.00     0.010 A 
ATOM     34  C   UNL     1      -2.460  13.281  -3.584  1.00  0.00    -0.014 A 
BRANCH  34  35
ATOM     35  C   UNL     1      -2.259  14.626  -4.179  1.00  0.00     0.031 A 
ATOM     36  C   UNL     1      -3.422  15.345  -4.805  1.00  0.00     0.074 A 
ATOM     37  C   UNL     1      -1.016  15.139  -4.269  1.00  0.00     0.049 A 
ATOM     38  N   UNL     1      -3.431  16.451  -5.501  1.00  0.00    -0.248 NA
ATOM     39  C   UNL     1      -4.747  14.718  -4.656  1.00  0.00     0.031 C 
ATOM     40  C   UNL     1       0.202  14.503  -3.763  1.00  0.00     0.029 A 
ATOM     41  N   UNL     1      -0.565  16.296  -4.856  1.00  0.00    -0.354 N 
ATOM     42  C   UNL     1      -4.746  16.628  -5.914  1.00  0.00     0.074 A 
ATOM     43  C   UNL     1      -5.502  15.502  -5.411  1.00  0.00     0.031 C 
ATOM     44  C   UNL     1       1.260  15.271  -4.069  1.00  0.00     0.029 A 
ATOM     45  C   UNL     1       0.803  16.436  -4.819  1.00  0.00     0.049 A 
ATOM     46  H   UNL     1      -1.165  16.962  -5.264  1.00  0.00     0.167 HD
ATOM     47  C   UNL     1      -5.281  17.648  -6.625  1.00  0.00     0.034 A 
ATOM     48  C   UNL     1       1.600  17.388  -5.345  1.00  0.00     0.034 A 
ATOM     49  C   UNL     1      -4.535  18.792  -7.073  1.00  0.00     0.049 A 
ATOM     50  C   UNL     1       0.972  18.539  -6.085  1.00  0.00     0.074 A 
ATOM     51  C   UNL     1      -5.000  19.921  -7.723  1.00  0.00     0.029 A 
ATOM     52  N   UNL     1      -3.167  18.954  -6.915  1.00  0.00    -0.354 N 
ATOM     53  N   UNL     1      -0.294  18.762  -6.340  1.00  0.00    -0.248 NA
ATOM     54  C   UNL     1       1.877  19.587  -6.580  1.00  0.00     0.031 C 
ATOM     55  C   UNL     1      -3.910  20.761  -7.969  1.00  0.00     0.029 A 
ATOM     56  C   UNL     1      -2.771  20.165  -7.453  1.00  0.00     0.049 A 
ATOM     57  H   UNL     1      -2.567  18.304  -6.483  1.00  0.00     0.167 HD
ATOM     58  C   UNL     1      -0.343  19.994  -6.982  1.00  0.00     0.074 A 
ATOM     59  C   UNL     1       1.021  20.475  -7.069  1.00  0.00     0.031 C 
ATOM     60  C   UNL     1      -1.419  20.662  -7.466  1.00  0.00     0.034 A 
BRANCH  47  61
ATOM     61  C   UNL     1      -6.758  17.602  -6.913  1.00  0.00     0.023 A 
ATOM     62  C   UNL     1      -7.676  17.817  -5.865  1.00  0.00     0.012 A 
ATOM     63  C   UNL     1      -7.238  17.403  -8.222  1.00  0.00     0.148 A 
ATOM     64  C   UNL     1      -9.049  17.799  -6.107  1.00  0.00     0.002 A 
ATOM     65  C   UNL     1      -8.607  17.432  -8.464  1.00  0.00     0.091 A 
ATOM     66  F   UNL     1      -6.352  17.177  -9.202  1.00  0.00    -0.205 F 
ATOM     67  C   UNL     1      -9.513  17.618  -7.407  1.00  0.00     0.022 A 
BRANCH  65  68
ATOM     68  S   UNL     1      -9.301  17.287 -10.114  1.00  0.00     0.127 S 
ATOM     69  O   UNL     1      -9.871  15.942 -10.078  1.00  0.00    -0.237 OA
ATOM     70  O   UNL     1     -10.288  18.367 -10.131  1.00  0.00    -0.237 OA
ATOM     71  O   UNL     1      -8.187  17.472 -11.034  1.00  0.00    -0.744 OA
ENDBRANCH  65  68
ENDBRANCH  47  61
BRANCH  48  72
ATOM     72  C   UNL     1       3.073  17.331  -5.125  1.00  0.00     0.023 A 
ATOM     73  C   UNL     1       3.675  18.265  -4.259  1.00  0.00     0.012 A 
ATOM     74  C   UNL     1       3.874  16.347  -5.737  1.00  0.00     0.148 A 
ATOM     75  C   UNL     1       5.052  18.241  -4.031  1.00  0.00     0.002 A 
ATOM     76  C   UNL     1       5.236  16.296  -5.464  1.00  0.00     0.091 A 
ATOM     77  F   UNL     1       3.285  15.475  -6.567  1.00  0.00    -0.205 F 
ATOM     78  C   UNL     1       5.830  17.252  -4.625  1.00  0.00     0.022 A 
BRANCH  76  79
ATOM     79  S   UNL     1       6.292  14.979  -6.079  1.00  0.00     0.127 S 
ATOM     80  O   UNL     1       7.077  15.674  -7.096  1.00  0.00    -0.237 OA
ATOM     81  O   UNL     1       7.036  14.600  -4.878  1.00  0.00    -0.237 OA
ATOM     82  O   UNL     1       5.386  13.949  -6.570  1.00  0.00    -0.744 OA
ENDBRANCH  76  79
ENDBRANCH  48  72
BRANCH  60  83
ATOM     83  C   UNL     1      -1.190  22.015  -8.085  1.00  0.00     0.023 A 
ATOM     84  C   UNL     1      -0.617  22.112  -9.367  1.00  0.00     0.012 A 
ATOM     85  C   UNL     1      -1.641  23.181  -7.435  1.00  0.00     0.148 A 
ATOM     86  C   UNL     1      -0.477  23.354  -9.986  1.00  0.00     0.002 A 
ATOM     87  C   UNL     1      -1.542  24.409  -8.078  1.00  0.00     0.091 A 
ATOM     88  F   UNL     1      -2.166  23.066  -6.207  1.00  0.00    -0.205 F 
ATOM     89  C   UNL     1      -0.952  24.498  -9.349  1.00  0.00     0.022 A 
BRANCH  87  90
ATOM     90  S   UNL     1      -2.215  25.919  -7.375  1.00  0.00     0.127 S 
ATOM     91  O   UNL     1      -1.000  26.637  -6.994  1.00  0.00    -0.237 OA
ATOM     92  O   UNL     1      -2.934  26.497  -8.511  1.00  0.00    -0.237 OA
ATOM     93  O   UNL     1      -3.067  25.503  -6.269  1.00  0.00    -0.744 OA
ENDBRANCH  87  90
ENDBRANCH  60  83
ENDBRANCH  34  35
ENDBRANCH  26  29
ENDBRANCH  24  25
ENDBRANCH  23  24
ENDBRANCH  22  23
ENDBRANCH  21  22
ENDBRANCH   3  21
TORSDOF 21
