REMARK SMILES C[C@H]1[C@H](C(=O)NCCCCNC(=O)c2ccc(-c3c4nc(c(-c5cccc(S(=O)(=O)[O-])c5F)c5ccc([nH]5)c(-c5cccc(S(=O)(=O)[O-])c5F)c5nc(c(-c6cccc(S(=O)(=O)[O-])c6F)c6ccc3[nH]6)C=C5)C=C4)cc2)CCN1C(=O)NCc1cnn(C)c1
REMARK SMILES IDX 8 1 7 2 6 3 4 4 5 5 3 7 1 8 2 9 79 10 77 11 78 12 80 13
REMARK SMILES IDX 81 14 82 15 83 17 84 18 85 19 89 20 86 21 87 22 88 23 9 24
REMARK SMILES IDX 10 25 11 26 12 27 13 29 14 30 15 31 76 32 16 33 75 34 17 35
REMARK SMILES IDX 18 36 19 37 69 38 20 39 74 40 68 41 70 42 21 43 73 44 67 45
REMARK SMILES IDX 66 46 22 48 54 49 34 50 53 51 35 52 38 53 52 54 71 55 36 56
REMARK SMILES IDX 37 57 51 59 72 60 39 61 23 62 24 63 32 64 25 65 27 66 33 67
REMARK SMILES IDX 26 68 28 69 29 70 30 71 31 72 55 73 56 74 64 75 57 76 59 77
REMARK SMILES IDX 65 78 58 79 60 80 61 81 62 82 63 83 40 84 41 85 49 86 42 87
REMARK SMILES IDX 44 88 50 89 43 90 45 91 46 92 47 93 48 94
REMARK H PARENT 6 6 82 16 11 28 70 47 38 58
REMARK Flexibility Score: inf
ROOT
ATOM      1  C   UNL     1      -0.141  -0.035   3.788  1.00  0.00     0.023 C 
ENDROOT
BRANCH   1   2
ATOM      2  C   UNL     1      -1.157   0.597   2.845  1.00  0.00     0.116 C 
BRANCH   2   3
ATOM      3  N   UNL     1      -0.709   1.883   2.341  1.00  0.00    -0.356 N 
ATOM      4  C   UNL     1      -0.265   2.266   1.117  1.00  0.00     0.225 C 
ATOM      5  O   UNL     1       0.085   3.443   0.981  1.00  0.00    -0.275 OA
ATOM      6  H   UNL     1      -0.731   2.608   3.007  1.00  0.00     0.163 HD
BRANCH   4   7
ATOM      7  C   UNL     1      -0.161   1.319  -0.070  1.00  0.00     0.102 C 
ATOM      8  C   UNL     1       1.924   0.263  -0.993  1.00  0.00     0.032 C 
ATOM      9  C   UNL     1       0.892   0.219   0.141  1.00  0.00     0.096 C 
ATOM     10  N   UNL     1       0.151  -1.038   0.111  1.00  0.00    -0.321 N 
ATOM     11  C   UNL     1      -1.463   0.624  -0.458  1.00  0.00     0.037 C 
ATOM     12  C   UNL     1      -1.111  -0.849  -0.590  1.00  0.00     0.122 C 
BRANCH  10  13
ATOM     13  C   UNL     1       0.429  -2.261   0.632  1.00  0.00     0.317 C 
ATOM     14  O   UNL     1      -0.376  -3.194   0.530  1.00  0.00    -0.249 OA
ATOM     15  N   UNL     1       1.555  -2.556   1.297  1.00  0.00    -0.334 N 
ATOM     16  H   UNL     1       1.493  -3.438   1.728  1.00  0.00     0.165 HD
BRANCH  15  17
ATOM     17  C   UNL     1       2.837  -1.936   1.556  1.00  0.00     0.157 C 
BRANCH  17  18
ATOM     18  C   UNL     1       3.087  -1.893   3.019  1.00  0.00     0.009 A 
ATOM     19  C   UNL     1       3.438  -0.755   3.783  1.00  0.00     0.140 A 
ATOM     20  C   UNL     1       3.069  -2.918   3.947  1.00  0.00     0.113 A 
ATOM     21  N   UNL     1       3.603  -1.033   5.075  1.00  0.00    -0.181 NA
ATOM     22  N   UNL     1       3.368  -2.351   5.154  1.00  0.00    -0.275 N 
ATOM     23  C   UNL     1       3.460  -3.011   6.434  1.00  0.00     0.173 C 
ENDBRANCH  17  18
ENDBRANCH  15  17
ENDBRANCH  10  13
ENDBRANCH   4   7
ENDBRANCH   2   3
ENDBRANCH   1   2
BRANCH   1  24
ATOM     24  C   UNL     1       0.018   0.664   5.138  1.00  0.00     0.023 C 
BRANCH  24  25
ATOM     25  C   UNL     1      -1.262   0.806   5.951  1.00  0.00     0.116 C 
BRANCH  25  26
ATOM     26  N   UNL     1      -1.919  -0.466   6.219  1.00  0.00    -0.352 N 
ATOM     27  C   UNL     1      -2.536  -0.887   7.373  1.00  0.00     0.251 C 
ATOM     28  H   UNL     1      -1.921  -1.110   5.475  1.00  0.00     0.163 HD
ATOM     29  O   UNL     1      -2.939  -2.043   7.471  1.00  0.00    -0.269 OA
BRANCH  27  30
ATOM     30  C   UNL     1      -2.677   0.050   8.508  1.00  0.00     0.039 A 
ATOM     31  C   UNL     1      -2.314  -0.381   9.787  1.00  0.00     0.014 A 
ATOM     32  C   UNL     1      -3.131   1.356   8.307  1.00  0.00     0.014 A 
ATOM     33  C   UNL     1      -2.338   0.522  10.853  1.00  0.00     0.010 A 
ATOM     34  C   UNL     1      -3.083   2.272   9.354  1.00  0.00     0.010 A 
ATOM     35  C   UNL     1      -2.686   1.866  10.637  1.00  0.00    -0.014 A 
BRANCH  35  36
ATOM     36  C   UNL     1      -2.625   2.866  11.733  1.00  0.00     0.031 A 
ATOM     37  C   UNL     1      -3.874   3.571  12.187  1.00  0.00     0.074 A 
ATOM     38  C   UNL     1      -1.429   3.209  12.254  1.00  0.00     0.049 A 
ATOM     39  N   UNL     1      -4.008   4.514  13.083  1.00  0.00    -0.248 NA
ATOM     40  C   UNL     1      -5.133   3.190  11.526  1.00  0.00     0.031 C 
ATOM     41  C   UNL     1      -0.136   2.663  11.836  1.00  0.00     0.029 A 
ATOM     42  N   UNL     1      -1.104   4.121  13.227  1.00  0.00    -0.354 N 
ATOM     43  C   UNL     1      -5.353   4.865  13.067  1.00  0.00     0.074 A 
ATOM     44  C   UNL     1      -5.988   4.058  12.049  1.00  0.00     0.031 C 
ATOM     45  C   UNL     1       0.840   3.247  12.550  1.00  0.00     0.029 A 
ATOM     46  C   UNL     1       0.248   4.226  13.456  1.00  0.00     0.049 A 
ATOM     47  H   UNL     1      -1.776   4.651  13.714  1.00  0.00     0.167 HD
ATOM     48  C   UNL     1      -6.008   5.754  13.851  1.00  0.00     0.034 A 
ATOM     49  C   UNL     1       0.934   5.023  14.298  1.00  0.00     0.034 A 
ATOM     50  C   UNL     1      -5.383   6.517  14.898  1.00  0.00     0.049 A 
ATOM     51  C   UNL     1       0.176   5.962  15.197  1.00  0.00     0.074 A 
ATOM     52  C   UNL     1      -5.977   7.369  15.812  1.00  0.00     0.029 A 
ATOM     53  N   UNL     1      -4.024   6.522  15.169  1.00  0.00    -0.354 N 
ATOM     54  N   UNL     1      -1.118   6.154  15.286  1.00  0.00    -0.248 NA
ATOM     55  C   UNL     1       0.968   6.768  16.138  1.00  0.00     0.031 C 
ATOM     56  C   UNL     1      -4.973   7.904  16.626  1.00  0.00     0.029 A 
ATOM     57  C   UNL     1      -3.757   7.369  16.232  1.00  0.00     0.049 A 
ATOM     58  H   UNL     1      -3.348   6.002  14.678  1.00  0.00     0.167 HD
ATOM     59  C   UNL     1      -1.298   7.073  16.313  1.00  0.00     0.074 A 
ATOM     60  C   UNL     1       0.019   7.383  16.831  1.00  0.00     0.031 C 
ATOM     61  C   UNL     1      -2.447   7.624  16.775  1.00  0.00     0.034 A 
BRANCH  48  62
ATOM     62  C   UNL     1      -7.493   5.904  13.648  1.00  0.00     0.023 A 
ATOM     63  C   UNL     1      -8.356   4.865  14.053  1.00  0.00     0.012 A 
ATOM     64  C   UNL     1      -8.040   7.087  13.112  1.00  0.00     0.148 A 
ATOM     65  C   UNL     1      -9.736   4.984  13.897  1.00  0.00     0.002 A 
ATOM     66  C   UNL     1      -9.420   7.216  13.000  1.00  0.00     0.091 A 
ATOM     67  F   UNL     1      -7.204   8.055  12.712  1.00  0.00    -0.205 F 
ATOM     68  C   UNL     1     -10.268   6.162  13.381  1.00  0.00     0.022 A 
BRANCH  66  69
ATOM     69  S   UNL     1     -10.208   8.723  12.421  1.00  0.00     0.127 S 
ATOM     70  O   UNL     1     -10.682   8.318  11.098  1.00  0.00    -0.237 OA
ATOM     71  O   UNL     1     -11.265   8.920  13.413  1.00  0.00    -0.237 OA
ATOM     72  O   UNL     1      -9.171   9.745  12.428  1.00  0.00    -0.744 OA
ENDBRANCH  66  69
ENDBRANCH  48  62
BRANCH  49  73
ATOM     73  C   UNL     1       2.418   4.911  14.387  1.00  0.00     0.023 A 
ATOM     74  C   UNL     1       2.997   4.344  15.540  1.00  0.00     0.012 A 
ATOM     75  C   UNL     1       3.254   5.331  13.335  1.00  0.00     0.148 A 
ATOM     76  C   UNL     1       4.383   4.226  15.656  1.00  0.00     0.002 A 
ATOM     77  C   UNL     1       4.630   5.162  13.435  1.00  0.00     0.091 A 
ATOM     78  F   UNL     1       2.685   5.879  12.252  1.00  0.00    -0.205 F 
ATOM     79  C   UNL     1       5.198   4.625  14.601  1.00  0.00     0.022 A 
BRANCH  77  80
ATOM     80  S   UNL     1       5.747   5.529  12.076  1.00  0.00     0.127 S 
ATOM     81  O   UNL     1       6.415   6.736  12.556  1.00  0.00    -0.237 OA
ATOM     82  O   UNL     1       6.587   4.331  12.043  1.00  0.00    -0.237 OA
ATOM     83  O   UNL     1       4.896   5.696  10.906  1.00  0.00    -0.744 OA
ENDBRANCH  77  80
ENDBRANCH  49  73
BRANCH  61  84
ATOM     84  C   UNL     1      -2.346   8.598  17.919  1.00  0.00     0.023 A 
ATOM     85  C   UNL     1      -1.832   9.890  17.694  1.00  0.00     0.012 A 
ATOM     86  C   UNL     1      -2.833   8.260  19.197  1.00  0.00     0.148 A 
ATOM     87  C   UNL     1      -1.776  10.821  18.730  1.00  0.00     0.002 A 
ATOM     88  C   UNL     1      -2.818   9.208  20.213  1.00  0.00     0.091 A 
ATOM     89  F   UNL     1      -3.300   7.019  19.397  1.00  0.00    -0.205 F 
ATOM     90  C   UNL     1      -2.279  10.485  19.985  1.00  0.00     0.022 A 
BRANCH  88  91
ATOM     91  S   UNL     1      -3.532   8.894  21.831  1.00  0.00     0.127 S 
ATOM     92  O   UNL     1      -2.337   8.733  22.659  1.00  0.00    -0.237 OA
ATOM     93  O   UNL     1      -4.287  10.122  22.083  1.00  0.00    -0.237 OA
ATOM     94  O   UNL     1      -4.355   7.702  21.681  1.00  0.00    -0.744 OA
ENDBRANCH  88  91
ENDBRANCH  61  84
ENDBRANCH  35  36
ENDBRANCH  27  30
ENDBRANCH  25  26
ENDBRANCH  24  25
ENDBRANCH   1  24
TORSDOF 17
