REMARK SMILES O=C(NCCCCNC(=O)c1cc2n[nH]cc2cc1[N+](=O)[O-])c1ccc(-c2c3nc(c(-c4cccc(S(=O)(=O)[O-])c4F)c4ccc([nH]4)c(-c4cccc(S(=O)(=O)[O-])c4F)c4nc(c(-c5cccc(S(=O)(=O)[O-])c5F)c5ccc2[nH]5)C=C4)C=C3)cc1
REMARK SMILES IDX 4 1 3 2 1 3 2 4 23 6 24 7 85 8 25 9 84 10 26 11 27 12 28 13
REMARK SMILES IDX 78 14 29 15 83 16 77 17 79 18 30 19 82 20 76 21 75 22 31 24
REMARK SMILES IDX 63 25 43 26 62 27 44 28 47 29 61 30 80 31 45 32 46 33 60 35
REMARK SMILES IDX 81 36 48 37 32 38 33 39 41 40 34 41 36 42 42 43 35 44 37 45
REMARK SMILES IDX 38 46 39 47 40 48 64 49 65 50 73 51 66 52 68 53 74 54 67 55
REMARK SMILES IDX 69 56 70 57 71 58 72 59 49 60 50 61 58 62 51 63 53 64 59 65
REMARK SMILES IDX 52 66 54 67 55 68 56 69 57 70 5 71 6 72 7 73 8 74 9 75 10 77
REMARK SMILES IDX 11 78 12 79 19 80 13 81 18 82 14 83 17 84 15 85 16 86 20 88
REMARK SMILES IDX 21 89 22 90
REMARK H PARENT 3 5 79 23 47 34 8 76 15 87
REMARK Flexibility Score: inf
ROOT
ATOM      1  C   UNL     1       4.668  -0.024  -1.466  1.00  0.00     0.116 C 
ENDROOT
BRANCH   1   2
ATOM      2  N   UNL     1       3.242   0.141  -1.236  1.00  0.00    -0.352 N 
ATOM      3  O   UNL     1       1.284  -0.023  -0.135  1.00  0.00    -0.269 OA
ATOM      4  C   UNL     1       2.508  -0.097  -0.095  1.00  0.00     0.251 C 
ATOM      5  H   UNL     1       2.726   0.470  -2.007  1.00  0.00     0.163 HD
BRANCH   4   6
ATOM      6  C   UNL     1       3.195  -0.477   1.161  1.00  0.00     0.039 A 
ATOM      7  C   UNL     1       4.342   0.199   1.581  1.00  0.00     0.014 A 
ATOM      8  C   UNL     1       2.690  -1.535   1.923  1.00  0.00     0.014 A 
ATOM      9  C   UNL     1       5.073  -0.286   2.661  1.00  0.00     0.010 A 
ATOM     10  C   UNL     1       3.380  -1.966   3.061  1.00  0.00     0.010 A 
ATOM     11  C   UNL     1       4.601  -1.373   3.416  1.00  0.00    -0.014 A 
BRANCH  11  12
ATOM     12  C   UNL     1       5.382  -1.827   4.597  1.00  0.00     0.031 A 
ATOM     13  C   UNL     1       6.007  -3.195   4.650  1.00  0.00     0.074 A 
ATOM     14  C   UNL     1       5.556  -0.968   5.621  1.00  0.00     0.049 A 
ATOM     15  N   UNL     1       6.778  -3.709   5.575  1.00  0.00    -0.248 NA
ATOM     16  C   UNL     1       5.729  -4.110   3.531  1.00  0.00     0.031 C 
ATOM     17  C   UNL     1       4.953   0.364   5.710  1.00  0.00     0.029 A 
ATOM     18  N   UNL     1       6.293  -1.077   6.772  1.00  0.00    -0.354 N 
ATOM     19  C   UNL     1       7.055  -5.009   5.168  1.00  0.00     0.074 A 
ATOM     20  C   UNL     1       6.356  -5.214   3.917  1.00  0.00     0.031 C 
ATOM     21  C   UNL     1       5.373   0.963   6.833  1.00  0.00     0.029 A 
ATOM     22  C   UNL     1       6.241   0.047   7.564  1.00  0.00     0.049 A 
ATOM     23  H   UNL     1       6.808  -1.881   7.010  1.00  0.00     0.167 HD
ATOM     24  C   UNL     1       7.840  -5.937   5.767  1.00  0.00     0.034 A 
ATOM     25  C   UNL     1       6.829   0.316   8.746  1.00  0.00     0.034 A 
ATOM     26  C   UNL     1       8.566  -5.718   6.991  1.00  0.00     0.049 A 
ATOM     27  C   UNL     1       7.738  -0.711   9.356  1.00  0.00     0.074 A 
ATOM     28  C   UNL     1       9.412  -6.587   7.658  1.00  0.00     0.029 A 
ATOM     29  N   UNL     1       8.540  -4.544   7.729  1.00  0.00    -0.354 N 
ATOM     30  N   UNL     1       8.078  -1.889   8.892  1.00  0.00    -0.248 NA
ATOM     31  C   UNL     1       8.369  -0.362  10.636  1.00  0.00     0.031 C 
ATOM     32  C   UNL     1       9.898  -5.938   8.799  1.00  0.00     0.029 A 
ATOM     33  C   UNL     1       9.358  -4.663   8.840  1.00  0.00     0.049 A 
ATOM     34  H   UNL     1       8.016  -3.743   7.497  1.00  0.00     0.167 HD
ATOM     35  C   UNL     1       8.970  -2.418   9.816  1.00  0.00     0.074 A 
ATOM     36  C   UNL     1       9.149  -1.414  10.845  1.00  0.00     0.031 C 
ATOM     37  C   UNL     1       9.564  -3.636   9.828  1.00  0.00     0.034 A 
BRANCH  24  38
ATOM     38  C   UNL     1       8.014  -7.264   5.074  1.00  0.00     0.023 A 
ATOM     39  C   UNL     1       8.866  -7.344   3.955  1.00  0.00     0.012 A 
ATOM     40  C   UNL     1       7.409  -8.437   5.568  1.00  0.00     0.148 A 
ATOM     41  C   UNL     1       9.101  -8.566   3.325  1.00  0.00     0.002 A 
ATOM     42  C   UNL     1       7.673  -9.658   4.954  1.00  0.00     0.091 A 
ATOM     43  F   UNL     1       6.584  -8.338   6.620  1.00  0.00    -0.205 F 
ATOM     44  C   UNL     1       8.513  -9.723   3.830  1.00  0.00     0.022 A 
BRANCH  42  45
ATOM     45  S   UNL     1       7.017 -11.213   5.572  1.00  0.00     0.127 S 
ATOM     46  O   UNL     1       5.970 -11.501   4.593  1.00  0.00    -0.237 OA
ATOM     47  O   UNL     1       8.182 -12.096   5.495  1.00  0.00    -0.237 OA
ATOM     48  O   UNL     1       6.555 -10.940   6.926  1.00  0.00    -0.744 OA
ENDBRANCH  42  45
ENDBRANCH  24  38
BRANCH  25  49
ATOM     49  C   UNL     1       6.618   1.644   9.384  1.00  0.00     0.023 A 
ATOM     50  C   UNL     1       7.678   2.569   9.430  1.00  0.00     0.012 A 
ATOM     51  C   UNL     1       5.357   2.022   9.885  1.00  0.00     0.148 A 
ATOM     52  C   UNL     1       7.491   3.837   9.980  1.00  0.00     0.002 A 
ATOM     53  C   UNL     1       5.162   3.307  10.376  1.00  0.00     0.091 A 
ATOM     54  F   UNL     1       4.362   1.123   9.857  1.00  0.00    -0.205 F 
ATOM     55  C   UNL     1       6.231   4.213  10.439  1.00  0.00     0.022 A 
BRANCH  53  56
ATOM     56  S   UNL     1       3.524   3.890  10.828  1.00  0.00     0.127 S 
ATOM     57  O   UNL     1       3.490   3.616  12.261  1.00  0.00    -0.237 OA
ATOM     58  O   UNL     1       3.584   5.310  10.474  1.00  0.00    -0.237 OA
ATOM     59  O   UNL     1       2.612   3.114   9.998  1.00  0.00    -0.744 OA
ENDBRANCH  53  56
ENDBRANCH  25  49
BRANCH  37  60
ATOM     60  C   UNL     1      10.460  -3.952  10.994  1.00  0.00     0.023 A 
ATOM     61  C   UNL     1       9.883  -4.252  12.244  1.00  0.00     0.012 A 
ATOM     62  C   UNL     1      11.859  -4.002  10.847  1.00  0.00     0.148 A 
ATOM     63  C   UNL     1      10.687  -4.567  13.338  1.00  0.00     0.002 A 
ATOM     64  C   UNL     1      12.652  -4.354  11.933  1.00  0.00     0.091 A 
ATOM     65  F   UNL     1      12.392  -3.688   9.656  1.00  0.00    -0.205 F 
ATOM     66  C   UNL     1      12.069  -4.628  13.181  1.00  0.00     0.022 A 
BRANCH  64  67
ATOM     67  S   UNL     1      14.435  -4.529  11.789  1.00  0.00     0.127 S 
ATOM     68  O   UNL     1      14.905  -3.246  12.306  1.00  0.00    -0.237 OA
ATOM     69  O   UNL     1      14.713  -5.674  12.658  1.00  0.00    -0.237 OA
ATOM     70  O   UNL     1      14.690  -4.776  10.376  1.00  0.00    -0.744 OA
ENDBRANCH  64  67
ENDBRANCH  37  60
ENDBRANCH  11  12
ENDBRANCH   4   6
ENDBRANCH   1   2
BRANCH   1  71
ATOM     71  C   UNL     1       4.985  -0.931  -2.649  1.00  0.00     0.023 C 
BRANCH  71  72
ATOM     72  C   UNL     1       4.486  -0.444  -4.008  1.00  0.00     0.023 C 
BRANCH  72  73
ATOM     73  C   UNL     1       4.831   1.001  -4.355  1.00  0.00     0.116 C 
BRANCH  73  74
ATOM     74  N   UNL     1       6.262   1.270  -4.333  1.00  0.00    -0.352 N 
ATOM     75  C   UNL     1       7.055   1.849  -5.287  1.00  0.00     0.258 C 
ATOM     76  H   UNL     1       6.728   0.996  -3.510  1.00  0.00     0.163 HD
ATOM     77  O   UNL     1       8.268   1.944  -5.145  1.00  0.00    -0.269 OA
BRANCH  75  78
ATOM     78  C   UNL     1       6.444   2.309  -6.543  1.00  0.00     0.119 A 
ATOM     79  C   UNL     1       6.794   1.561  -7.694  1.00  0.00     0.052 A 
ATOM     80  C   UNL     1       5.521   3.404  -6.569  1.00  0.00     0.282 A 
ATOM     81  C   UNL     1       6.094   1.953  -8.843  1.00  0.00     0.093 A 
ATOM     82  C   UNL     1       4.796   3.823  -7.710  1.00  0.00     0.098 A 
ATOM     83  N   UNL     1       6.135   1.457 -10.089  1.00  0.00    -0.176 NA
ATOM     84  C   UNL     1       5.140   3.037  -8.801  1.00  0.00     0.026 A 
ATOM     85  N   UNL     1       5.242   2.185 -10.785  1.00  0.00    -0.285 N 
ATOM     86  C   UNL     1       4.609   3.151 -10.055  1.00  0.00     0.114 A 
ATOM     87  H   UNL     1       5.059   2.035 -11.741  1.00  0.00     0.189 HD
BRANCH  80  88
ATOM     88  N   UNL     1       5.277   4.148  -5.345  1.00  0.00     0.063 N 
ATOM     89  O   UNL     1       4.102   4.206  -4.958  1.00  0.00    -0.258 OA
ATOM     90  O   UNL     1       6.243   4.701  -4.810  1.00  0.00    -0.258 OA
ENDBRANCH  80  88
ENDBRANCH  75  78
ENDBRANCH  73  74
ENDBRANCH  72  73
ENDBRANCH  71  72
ENDBRANCH   1  71
TORSDOF 15
