REMARK SMILES C/C(=N/[NH+]=C1\NC(=O)[C@H](CC(=O)NCCCCNC(=O)c2ccc(-c3c4nc(c(-c5cccc(S(=O)(=O)[O-])c5F)c5ccc([nH]5)c(-c5cccc(S(=O)(=O)[O-])c5F)c5nc(c(-c6cccc(S(=O)(=O)[O-])c6F)c6ccc3[nH]6)C=C5)C=C4)cc2)S1)c1ccc(OC(C)C)cc1
REMARK SMILES IDX 14 1 13 2 11 3 12 4 10 6 9 7 4 8 5 9 6 11 84 12 7 13 8 15
REMARK SMILES IDX 3 16 1 17 2 18 85 19 86 20 94 21 87 22 93 23 88 24 89 25
REMARK SMILES IDX 90 26 91 27 92 28 15 29 16 30 17 31 18 32 19 33 20 35 21 36
REMARK SMILES IDX 22 37 83 38 23 39 82 40 24 41 25 42 26 43 76 44 27 45 81 46
REMARK SMILES IDX 75 47 77 48 28 49 80 50 74 51 73 52 29 54 61 55 41 56 60 57
REMARK SMILES IDX 42 58 45 59 59 60 78 61 43 62 44 63 58 65 79 66 46 67 30 68
REMARK SMILES IDX 31 69 39 70 32 71 34 72 40 73 33 74 35 75 36 76 37 77 38 78
REMARK SMILES IDX 62 79 63 80 71 81 64 82 66 83 72 84 65 85 67 86 68 87 69 88
REMARK SMILES IDX 70 89 47 90 48 91 56 92 49 93 51 94 57 95 50 96 52 97 53 98
REMARK SMILES IDX 54 99 55 100
REMARK H PARENT 13 5 4 10 6 14 18 34 77 53 45 64
REMARK Flexibility Score: inf
ROOT
ATOM      1  C   UNL     1       3.576  -1.220  -5.113  1.00  0.00     0.116 C 
ENDROOT
BRANCH   1   2
ATOM      2  N   UNL     1       3.754  -2.085  -6.262  1.00  0.00    -0.356 N 
ATOM      3  C   UNL     1       2.807  -2.738  -6.996  1.00  0.00     0.221 C 
ATOM      4  O   UNL     1       3.147  -3.407  -7.971  1.00  0.00    -0.275 OA
ATOM      5  H   UNL     1       4.685  -2.219  -6.553  1.00  0.00     0.163 HD
BRANCH   3   6
ATOM      6  C   UNL     1       1.351  -2.620  -6.613  1.00  0.00     0.127 C 
BRANCH   6   7
ATOM      7  C   UNL     1       0.897  -3.726  -5.665  1.00  0.00     0.183 C 
ATOM      8  N   UNL     1      -0.972  -2.043  -2.787  1.00  0.00    -0.142 N 
ATOM      9  C   UNL     1      -0.244  -2.766  -3.566  1.00  0.00     0.337 C 
ATOM     10  H   UNL     1      -1.886  -1.774  -3.034  1.00  0.00     0.343 HD
ATOM     11  N   UNL     1       1.024  -3.170  -3.341  1.00  0.00    -0.202 N 
ATOM     12  S   UNL     1      -0.809  -3.315  -5.118  1.00  0.00    -0.020 SA
ATOM     13  C   UNL     1       1.669  -3.807  -4.359  1.00  0.00     0.322 C 
ATOM     14  H   UNL     1       1.465  -3.011  -2.475  1.00  0.00     0.316 HD
ATOM     15  O   UNL     1       2.757  -4.356  -4.221  1.00  0.00    -0.246 OA
BRANCH   8  16
ATOM     16  N   UNL     1      -0.398  -1.660  -1.573  1.00  0.00    -0.090 NA
ATOM     17  C   UNL     1       0.672  -0.050  -0.152  1.00  0.00     0.071 C 
ATOM     18  C   UNL     1       0.200  -0.500  -1.522  1.00  0.00     0.088 C 
BRANCH  18  19
ATOM     19  C   UNL     1       0.550   0.381  -2.681  1.00  0.00    -0.000 A 
ATOM     20  C   UNL     1      -0.315   0.581  -3.754  1.00  0.00     0.014 A 
ATOM     21  C   UNL     1       1.836   0.928  -2.749  1.00  0.00     0.014 A 
ATOM     22  C   UNL     1       0.140   1.233  -4.908  1.00  0.00     0.047 A 
ATOM     23  C   UNL     1       2.280   1.587  -3.910  1.00  0.00     0.047 A 
ATOM     24  C   UNL     1       1.448   1.723  -5.010  1.00  0.00     0.119 A 
BRANCH  24  25
ATOM     25  O   UNL     1       1.738   2.260  -6.222  1.00  0.00    -0.491 OA
BRANCH  25  26
ATOM     26  C   UNL     1       2.955   2.883  -6.645  1.00  0.00     0.167 C 
ATOM     27  C   UNL     1       3.586   3.902  -5.704  1.00  0.00     0.052 C 
ATOM     28  C   UNL     1       3.965   1.897  -7.219  1.00  0.00     0.052 C 
ENDBRANCH  25  26
ENDBRANCH  24  25
ENDBRANCH  18  19
ENDBRANCH   8  16
ENDBRANCH   6   7
ENDBRANCH   3   6
ENDBRANCH   1   2
BRANCH   1  29
ATOM     29  C   UNL     1       4.482  -1.567  -3.937  1.00  0.00     0.023 C 
BRANCH  29  30
ATOM     30  C   UNL     1       5.941  -1.139  -4.081  1.00  0.00     0.023 C 
BRANCH  30  31
ATOM     31  C   UNL     1       6.227   0.358  -4.042  1.00  0.00     0.116 C 
BRANCH  31  32
ATOM     32  N   UNL     1       5.690   1.062  -2.888  1.00  0.00    -0.352 N 
ATOM     33  C   UNL     1       6.182   2.189  -2.268  1.00  0.00     0.251 C 
ATOM     34  H   UNL     1       4.868   0.684  -2.500  1.00  0.00     0.163 HD
ATOM     35  O   UNL     1       5.569   2.695  -1.333  1.00  0.00    -0.269 OA
BRANCH  33  36
ATOM     36  C   UNL     1       7.494   2.723  -2.690  1.00  0.00     0.039 A 
ATOM     37  C   UNL     1       8.500   2.827  -1.728  1.00  0.00     0.014 A 
ATOM     38  C   UNL     1       7.765   2.990  -4.034  1.00  0.00     0.014 A 
ATOM     39  C   UNL     1       9.808   3.104  -2.129  1.00  0.00     0.010 A 
ATOM     40  C   UNL     1       9.084   3.185  -4.439  1.00  0.00     0.010 A 
ATOM     41  C   UNL     1      10.120   3.231  -3.493  1.00  0.00    -0.014 A 
BRANCH  41  42
ATOM     42  C   UNL     1      11.531   3.379  -3.936  1.00  0.00     0.031 A 
ATOM     43  C   UNL     1      11.973   4.618  -4.663  1.00  0.00     0.074 A 
ATOM     44  C   UNL     1      12.403   2.367  -3.739  1.00  0.00     0.049 A 
ATOM     45  N   UNL     1      13.157   4.920  -5.130  1.00  0.00    -0.248 NA
ATOM     46  C   UNL     1      10.948   5.642  -4.923  1.00  0.00     0.031 C 
ATOM     47  C   UNL     1      12.079   1.079  -3.119  1.00  0.00     0.029 A 
ATOM     48  N   UNL     1      13.735   2.255  -4.053  1.00  0.00    -0.354 N 
ATOM     49  C   UNL     1      13.014   6.150  -5.761  1.00  0.00     0.074 A 
ATOM     50  C   UNL     1      11.619   6.519  -5.654  1.00  0.00     0.031 C 
ATOM     51  C   UNL     1      13.183   0.315  -3.086  1.00  0.00     0.029 A 
ATOM     52  C   UNL     1      14.285   1.041  -3.709  1.00  0.00     0.049 A 
ATOM     53  H   UNL     1      14.248   2.975  -4.485  1.00  0.00     0.167 HD
ATOM     54  C   UNL     1      13.960   6.918  -6.349  1.00  0.00     0.034 A 
ATOM     55  C   UNL     1      15.534   0.563  -3.880  1.00  0.00     0.034 A 
ATOM     56  C   UNL     1      15.351   6.562  -6.427  1.00  0.00     0.049 A 
ATOM     57  C   UNL     1      16.574   1.448  -4.514  1.00  0.00     0.074 A 
ATOM     58  C   UNL     1      16.402   7.309  -6.929  1.00  0.00     0.029 A 
ATOM     59  N   UNL     1      15.884   5.353  -6.007  1.00  0.00    -0.354 N 
ATOM     60  N   UNL     1      16.452   2.675  -4.959  1.00  0.00    -0.248 NA
ATOM     61  C   UNL     1      17.932   0.898  -4.636  1.00  0.00     0.031 C 
ATOM     62  C   UNL     1      17.565   6.536  -6.847  1.00  0.00     0.029 A 
ATOM     63  C   UNL     1      17.246   5.326  -6.253  1.00  0.00     0.049 A 
ATOM     64  H   UNL     1      15.369   4.622  -5.595  1.00  0.00     0.167 HD
ATOM     65  C   UNL     1      17.721   3.057  -5.378  1.00  0.00     0.074 A 
ATOM     66  C   UNL     1      18.602   1.938  -5.114  1.00  0.00     0.031 C 
ATOM     67  C   UNL     1      18.120   4.224  -5.941  1.00  0.00     0.034 A 
BRANCH  54  68
ATOM     68  C   UNL     1      13.528   8.243  -6.922  1.00  0.00     0.023 A 
ATOM     69  C   UNL     1      13.141   9.287  -6.056  1.00  0.00     0.012 A 
ATOM     70  C   UNL     1      13.553   8.472  -8.311  1.00  0.00     0.148 A 
ATOM     71  C   UNL     1      12.748  10.524  -6.564  1.00  0.00     0.002 A 
ATOM     72  C   UNL     1      13.208   9.723  -8.807  1.00  0.00     0.091 A 
ATOM     73  F   UNL     1      13.904   7.462  -9.119  1.00  0.00    -0.205 F 
ATOM     74  C   UNL     1      12.791  10.745  -7.938  1.00  0.00     0.022 A 
BRANCH  72  75
ATOM     75  S   UNL     1      13.308  10.135 -10.552  1.00  0.00     0.127 S 
ATOM     76  O   UNL     1      11.895  10.280 -10.902  1.00  0.00    -0.237 OA
ATOM     77  O   UNL     1      14.061  11.389 -10.527  1.00  0.00    -0.237 OA
ATOM     78  O   UNL     1      13.997   9.023 -11.190  1.00  0.00    -0.744 OA
ENDBRANCH  72  75
ENDBRANCH  54  68
BRANCH  55  79
ATOM     79  C   UNL     1      15.888  -0.803  -3.397  1.00  0.00     0.023 A 
ATOM     80  C   UNL     1      16.769  -0.951  -2.307  1.00  0.00     0.012 A 
ATOM     81  C   UNL     1      15.350  -1.954  -4.003  1.00  0.00     0.148 A 
ATOM     82  C   UNL     1      17.136  -2.220  -1.854  1.00  0.00     0.002 A 
ATOM     83  C   UNL     1      15.674  -3.213  -3.511  1.00  0.00     0.091 A 
ATOM     84  F   UNL     1      14.522  -1.793  -5.045  1.00  0.00    -0.205 F 
ATOM     85  C   UNL     1      16.581  -3.349  -2.450  1.00  0.00     0.022 A 
BRANCH  83  86
ATOM     86  S   UNL     1      14.909  -4.715  -4.130  1.00  0.00     0.127 S 
ATOM     87  O   UNL     1      16.032  -5.370  -4.795  1.00  0.00    -0.237 OA
ATOM     88  O   UNL     1      14.464  -5.357  -2.892  1.00  0.00    -0.237 OA
ATOM     89  O   UNL     1      13.827  -4.276  -5.001  1.00  0.00    -0.744 OA
ENDBRANCH  83  86
ENDBRANCH  55  79
BRANCH  67  90
ATOM     90  C   UNL     1      19.582   4.380  -6.272  1.00  0.00     0.023 A 
ATOM     91  C   UNL     1      20.147   3.656  -7.341  1.00  0.00     0.012 A 
ATOM     92  C   UNL     1      20.378   5.304  -5.565  1.00  0.00     0.148 A 
ATOM     93  C   UNL     1      21.489   3.825  -7.679  1.00  0.00     0.002 A 
ATOM     94  C   UNL     1      21.699   5.506  -5.943  1.00  0.00     0.091 A 
ATOM     95  F   UNL     1      19.826   5.970  -4.540  1.00  0.00    -0.205 F 
ATOM     96  C   UNL     1      22.261   4.757  -6.989  1.00  0.00     0.022 A 
BRANCH  94  97
ATOM     97  S   UNL     1      22.738   6.757  -5.180  1.00  0.00     0.127 S 
ATOM     98  O   UNL     1      23.690   5.938  -4.432  1.00  0.00    -0.237 OA
ATOM     99  O   UNL     1      23.304   7.440  -6.344  1.00  0.00    -0.237 OA
ATOM    100  O   UNL     1      21.850   7.579  -4.369  1.00  0.00    -0.744 OA
ENDBRANCH  94  97
ENDBRANCH  67  90
ENDBRANCH  41  42
ENDBRANCH  33  36
ENDBRANCH  31  32
ENDBRANCH  30  31
ENDBRANCH  29  30
ENDBRANCH   1  29
TORSDOF 19
