REMARK SMILES CCN1C(=O)N(CC)[C@H]2NC(=O)N(CCCC(=O)NCCCCNC(=O)c3ccc(-c4c5nc(c(-c6cccc(S(=O)(=O)[O-])c6F)c6ccc([nH]6)c(-c6cccc(S(=O)(=O)[O-])c6F)c6nc(c(-c7cccc(S(=O)(=O)[O-])c7F)c7ccc4[nH]7)C=C6)C=C5)cc3)[C@@H]21
REMARK SMILES IDX 21 1 20 2 19 3 17 4 18 5 16 7 15 8 14 9 13 10 3 11 4 12
REMARK SMILES IDX 90 13 5 14 6 15 9 16 10 17 11 18 12 20 2 21 1 22 7 23 8 24
REMARK SMILES IDX 22 25 23 26 24 27 25 28 26 30 27 31 28 32 89 33 29 34 88 35
REMARK SMILES IDX 30 36 31 37 32 38 82 39 33 40 87 41 81 42 83 43 34 44 86 45
REMARK SMILES IDX 80 46 79 47 35 49 67 50 47 51 66 52 48 53 51 54 65 55 84 56
REMARK SMILES IDX 49 57 50 58 64 60 85 61 52 62 36 63 37 64 45 65 38 66 40 67
REMARK SMILES IDX 46 68 39 69 41 70 42 71 43 72 44 73 68 74 69 75 77 76 70 77
REMARK SMILES IDX 72 78 78 79 71 80 73 81 74 82 75 83 76 84 53 85 54 86 62 87
REMARK SMILES IDX 55 88 57 89 63 90 56 91 58 92 59 93 60 94 61 95
REMARK H PARENT 19 6 10 19 24 29 83 48 51 59
REMARK Flexibility Score: inf
ROOT
ATOM      1  C   UNL     1       4.241   1.817  -0.864  1.00  0.00     0.023 C 
ENDROOT
BRANCH   1   2
ATOM      2  C   UNL     1       2.734   1.568  -0.783  1.00  0.00     0.116 C 
BRANCH   2   3
ATOM      3  N   UNL     1       1.969   2.728  -0.371  1.00  0.00    -0.356 N 
ATOM      4  C   UNL     1       0.909   3.376  -0.919  1.00  0.00     0.220 C 
ATOM      5  O   UNL     1       0.284   4.135  -0.169  1.00  0.00    -0.275 OA
ATOM      6  H   UNL     1       2.280   3.125   0.474  1.00  0.00     0.163 HD
BRANCH   4   7
ATOM      7  C   UNL     1       0.420   3.198  -2.356  1.00  0.00     0.102 C 
BRANCH   7   8
ATOM      8  C   UNL     1       1.342   3.586  -3.485  1.00  0.00     0.031 C 
BRANCH   8   9
ATOM      9  C   UNL     1       2.531   2.693  -3.780  1.00  0.00     0.124 C 
BRANCH   9  10
ATOM     10  N   UNL     1       2.397   1.311  -4.251  1.00  0.00    -0.300 N 
ATOM     11  N   UNL     1       0.959  -0.582  -2.859  1.00  0.00    -0.300 N 
ATOM     12  C   UNL     1       0.682  -1.899  -3.412  1.00  0.00     0.323 C 
ATOM     13  C   UNL     1       1.448   0.213  -3.997  1.00  0.00     0.231 C 
ATOM     14  O   UNL     1      -0.113  -2.712  -2.979  1.00  0.00    -0.248 OA
ATOM     15  N   UNL     1       1.433  -2.025  -4.585  1.00  0.00    -0.300 N 
ATOM     16  C   UNL     1       2.300  -0.921  -4.612  1.00  0.00     0.228 C 
ATOM     17  N   UNL     1       2.877  -0.362  -5.754  1.00  0.00    -0.314 N 
ATOM     18  C   UNL     1       3.154   0.960  -5.420  1.00  0.00     0.320 C 
ATOM     19  H   UNL     1       3.051  -0.809  -6.614  1.00  0.00     0.167 HD
ATOM     20  O   UNL     1       3.945   1.655  -6.030  1.00  0.00    -0.249 OA
BRANCH  11  21
ATOM     21  C   UNL     1       0.082  -0.189  -1.766  1.00  0.00     0.120 C 
ATOM     22  C   UNL     1       0.258  -1.030  -0.503  1.00  0.00     0.027 C 
ENDBRANCH  11  21
BRANCH  15  23
ATOM     23  C   UNL     1       1.346  -3.068  -5.580  1.00  0.00     0.120 C 
ATOM     24  C   UNL     1       1.581  -4.462  -5.025  1.00  0.00     0.027 C 
ENDBRANCH  15  23
ENDBRANCH   9  10
ENDBRANCH   8   9
ENDBRANCH   7   8
ENDBRANCH   4   7
ENDBRANCH   2   3
ENDBRANCH   1   2
BRANCH   1  25
ATOM     25  C   UNL     1       5.016   1.115   0.242  1.00  0.00     0.023 C 
BRANCH  25  26
ATOM     26  C   UNL     1       4.966  -0.408   0.159  1.00  0.00     0.116 C 
BRANCH  26  27
ATOM     27  N   UNL     1       5.745  -0.957  -0.944  1.00  0.00    -0.352 N 
ATOM     28  C   UNL     1       6.692  -1.956  -0.904  1.00  0.00     0.251 C 
ATOM     29  H   UNL     1       5.572  -0.564  -1.830  1.00  0.00     0.163 HD
ATOM     30  O   UNL     1       7.331  -2.248  -1.910  1.00  0.00    -0.269 OA
BRANCH  28  31
ATOM     31  C   UNL     1       6.958  -2.642   0.379  1.00  0.00     0.039 A 
ATOM     32  C   UNL     1       8.272  -2.722   0.843  1.00  0.00     0.014 A 
ATOM     33  C   UNL     1       5.903  -3.128   1.157  1.00  0.00     0.014 A 
ATOM     34  C   UNL     1       8.519  -3.230   2.120  1.00  0.00     0.010 A 
ATOM     35  C   UNL     1       6.143  -3.535   2.465  1.00  0.00     0.010 A 
ATOM     36  C   UNL     1       7.454  -3.605   2.959  1.00  0.00    -0.014 A 
BRANCH  36  37
ATOM     37  C   UNL     1       7.708  -4.069   4.350  1.00  0.00     0.031 A 
ATOM     38  C   UNL     1       7.290  -5.451   4.780  1.00  0.00     0.074 A 
ATOM     39  C   UNL     1       8.266  -3.228   5.245  1.00  0.00     0.049 A 
ATOM     40  N   UNL     1       7.452  -6.035   5.939  1.00  0.00    -0.248 NA
ATOM     41  C   UNL     1       6.571  -6.275   3.794  1.00  0.00     0.031 C 
ATOM     42  C   UNL     1       8.625  -1.831   4.987  1.00  0.00     0.029 A 
ATOM     43  N   UNL     1       8.618  -3.421   6.558  1.00  0.00    -0.354 N 
ATOM     44  C   UNL     1       6.829  -7.273   5.833  1.00  0.00     0.074 A 
ATOM     45  C   UNL     1       6.248  -7.341   4.511  1.00  0.00     0.031 C 
ATOM     46  C   UNL     1       9.163  -1.301   6.097  1.00  0.00     0.029 A 
ATOM     47  C   UNL     1       9.163  -2.307   7.154  1.00  0.00     0.049 A 
ATOM     48  H   UNL     1       8.493  -4.276   7.029  1.00  0.00     0.167 HD
ATOM     49  C   UNL     1       6.771  -8.278   6.738  1.00  0.00     0.034 A 
ATOM     50  C   UNL     1       9.613  -2.115   8.411  1.00  0.00     0.034 A 
ATOM     51  C   UNL     1       7.383  -8.226   8.038  1.00  0.00     0.049 A 
ATOM     52  C   UNL     1       9.593  -3.269   9.377  1.00  0.00     0.074 A 
ATOM     53  C   UNL     1       7.467  -9.227   8.989  1.00  0.00     0.029 A 
ATOM     54  N   UNL     1       8.003  -7.109   8.576  1.00  0.00    -0.354 N 
ATOM     55  N   UNL     1       9.157  -4.492   9.194  1.00  0.00    -0.248 NA
ATOM     56  C   UNL     1      10.167  -3.029  10.709  1.00  0.00     0.031 C 
ATOM     57  C   UNL     1       8.102  -8.703  10.120  1.00  0.00     0.029 A 
ATOM     58  C   UNL     1       8.458  -7.391   9.853  1.00  0.00     0.049 A 
ATOM     59  H   UNL     1       8.104  -6.244   8.119  1.00  0.00     0.167 HD
ATOM     60  C   UNL     1       9.439  -5.176  10.371  1.00  0.00     0.074 A 
ATOM     61  C   UNL     1      10.108  -4.238  11.249  1.00  0.00     0.031 C 
ATOM     62  C   UNL     1       9.160  -6.462  10.701  1.00  0.00     0.034 A 
BRANCH  49  63
ATOM     63  C   UNL     1       6.051  -9.541   6.341  1.00  0.00     0.023 A 
ATOM     64  C   UNL     1       6.606 -10.388   5.359  1.00  0.00     0.012 A 
ATOM     65  C   UNL     1       4.857  -9.921   6.984  1.00  0.00     0.148 A 
ATOM     66  C   UNL     1       5.967 -11.574   4.998  1.00  0.00     0.002 A 
ATOM     67  C   UNL     1       4.253 -11.129   6.656  1.00  0.00     0.091 A 
ATOM     68  F   UNL     1       4.332  -9.094   7.899  1.00  0.00    -0.205 F 
ATOM     69  C   UNL     1       4.798 -11.949   5.654  1.00  0.00     0.022 A 
BRANCH  67  70
ATOM     70  S   UNL     1       2.794 -11.745   7.503  1.00  0.00     0.127 S 
ATOM     71  O   UNL     1       1.786 -11.671   6.447  1.00  0.00    -0.237 OA
ATOM     72  O   UNL     1       3.201 -13.104   7.863  1.00  0.00    -0.237 OA
ATOM     73  O   UNL     1       2.577 -10.854   8.634  1.00  0.00    -0.744 OA
ENDBRANCH  67  70
ENDBRANCH  49  63
BRANCH  50  74
ATOM     74  C   UNL     1      10.175  -0.794   8.813  1.00  0.00     0.023 A 
ATOM     75  C   UNL     1      11.552  -0.672   9.088  1.00  0.00     0.012 A 
ATOM     76  C   UNL     1       9.352   0.344   8.918  1.00  0.00     0.148 A 
ATOM     77  C   UNL     1      12.090   0.548   9.501  1.00  0.00     0.002 A 
ATOM     78  C   UNL     1       9.905   1.569   9.270  1.00  0.00     0.091 A 
ATOM     79  F   UNL     1       8.044   0.206   8.662  1.00  0.00    -0.205 F 
ATOM     80  C   UNL     1      11.270   1.669   9.583  1.00  0.00     0.022 A 
BRANCH  78  81
ATOM     81  S   UNL     1       8.951   3.090   9.269  1.00  0.00     0.127 S 
ATOM     82  O   UNL     1       8.869   3.393  10.695  1.00  0.00    -0.237 OA
ATOM     83  O   UNL     1       9.813   3.985   8.495  1.00  0.00    -0.237 OA
ATOM     84  O   UNL     1       7.690   2.762   8.618  1.00  0.00    -0.744 OA
ENDBRANCH  78  81
ENDBRANCH  50  74
BRANCH  62  85
ATOM     85  C   UNL     1       9.619  -6.949  12.052  1.00  0.00     0.023 A 
ATOM     86  C   UNL     1       9.011  -6.464  13.226  1.00  0.00     0.012 A 
ATOM     87  C   UNL     1      10.631  -7.925  12.151  1.00  0.00     0.148 A 
ATOM     88  C   UNL     1       9.438  -6.903  14.479  1.00  0.00     0.002 A 
ATOM     89  C   UNL     1      11.011  -8.400  13.400  1.00  0.00     0.091 A 
ATOM     90  F   UNL     1      11.211  -8.364  11.025  1.00  0.00    -0.205 F 
ATOM     91  C   UNL     1      10.429  -7.877  14.566  1.00  0.00     0.022 A 
BRANCH  89  92
ATOM     92  S   UNL     1      12.205  -9.727  13.598  1.00  0.00     0.127 S 
ATOM     93  O   UNL     1      13.379  -9.001  14.079  1.00  0.00    -0.237 OA
ATOM     94  O   UNL     1      11.561 -10.578  14.600  1.00  0.00    -0.237 OA
ATOM     95  O   UNL     1      12.342 -10.342  12.285  1.00  0.00    -0.744 OA
ENDBRANCH  89  92
ENDBRANCH  62  85
ENDBRANCH  36  37
ENDBRANCH  28  31
ENDBRANCH  26  27
ENDBRANCH  25  26
ENDBRANCH   1  25
TORSDOF 19
