REMARK SMILES C[C@@H](C(=O)NCCCCNC(=O)c1ccc(-c2c3nc(c(-c4cccc(S(=O)(=O)[O-])c4F)c4ccc([nH]4)c(-c4cccc(S(=O)(=O)[O-])c4F)c4nc(c(-c5cccc(S(=O)(=O)[O-])c5F)c5ccc2[nH]5)C=C4)C=C3)cc1)N1C(=O)/C(=C\c2ccc(OCc3ccccc3Cl)cc2)SC1=S
REMARK SMILES IDX 6 1 5 2 3 3 4 4 2 6 1 7 76 8 77 9 97 10 78 11 79 12 96 13
REMARK SMILES IDX 98 14 80 15 81 16 82 17 95 18 83 19 94 20 84 21 85 22 86 23
REMARK SMILES IDX 87 24 88 25 92 26 89 27 91 28 93 29 90 30 7 31 8 32 9 33
REMARK SMILES IDX 10 34 11 35 12 37 13 38 14 39 75 40 15 41 74 42 16 43 17 44
REMARK SMILES IDX 18 45 68 46 19 47 73 48 67 49 69 50 20 51 72 52 66 53 65 54
REMARK SMILES IDX 21 56 53 57 33 58 52 59 34 60 37 61 51 62 70 63 35 64 36 65
REMARK SMILES IDX 50 67 71 68 38 69 22 70 23 71 31 72 24 73 26 74 32 75 25 76
REMARK SMILES IDX 27 77 28 78 29 79 30 80 54 81 55 82 63 83 56 84 58 85 64 86
REMARK SMILES IDX 57 87 59 88 60 89 61 90 62 91 39 92 40 93 48 94 41 95 43 96
REMARK SMILES IDX 49 97 42 98 44 99 45 100 46 101 47 102
REMARK H PARENT 5 5 10 36 69 55 37 66
REMARK Flexibility Score: inf
ROOT
ATOM      1  C   UNL     1       3.218  -1.764   1.011  1.00  0.00     0.116 C 
ENDROOT
BRANCH   1   2
ATOM      2  N   UNL     1       2.095  -1.770   1.929  1.00  0.00    -0.354 N 
ATOM      3  C   UNL     1       0.780  -1.468   1.712  1.00  0.00     0.242 C 
ATOM      4  O   UNL     1       0.019  -1.486   2.683  1.00  0.00    -0.273 OA
ATOM      5  H   UNL     1       2.314  -2.032   2.853  1.00  0.00     0.163 HD
BRANCH   3   6
ATOM      6  C   UNL     1       0.273  -1.157   0.286  1.00  0.00     0.178 C 
ATOM      7  C   UNL     1       0.885   0.107  -0.319  1.00  0.00     0.042 C 
BRANCH   6   8
ATOM      8  N   UNL     1      -1.214  -1.192   0.304  1.00  0.00    -0.281 N 
ATOM      9  C   UNL     1      -1.807  -2.450   0.195  1.00  0.00     0.266 C 
ATOM     10  C   UNL     1      -2.075  -0.149   0.581  1.00  0.00     0.149 C 
ATOM     11  O   UNL     1      -1.206  -3.497   0.005  1.00  0.00    -0.268 OA
ATOM     12  C   UNL     1      -3.294  -2.346   0.321  1.00  0.00     0.081 C 
ATOM     13  S   UNL     1      -3.743  -0.686   0.389  1.00  0.00    -0.054 SA
ATOM     14  S   UNL     1      -1.766   1.435   1.003  1.00  0.00    -0.052 S 
ATOM     15  C   UNL     1      -4.209  -3.322   0.424  1.00  0.00     0.029 C 
BRANCH  15  16
ATOM     16  C   UNL     1      -3.921  -4.749   0.542  1.00  0.00    -0.024 A 
ATOM     17  C   UNL     1      -4.115  -5.608  -0.540  1.00  0.00     0.012 A 
ATOM     18  C   UNL     1      -3.446  -5.260   1.756  1.00  0.00     0.012 A 
ATOM     19  C   UNL     1      -3.734  -6.947  -0.435  1.00  0.00     0.047 A 
ATOM     20  C   UNL     1      -3.080  -6.603   1.863  1.00  0.00     0.047 A 
ATOM     21  C   UNL     1      -3.153  -7.428   0.741  1.00  0.00     0.119 A 
BRANCH  21  22
ATOM     22  O   UNL     1      -2.587  -8.665   0.623  1.00  0.00    -0.489 OA
BRANCH  22  23
ATOM     23  C   UNL     1      -1.566  -9.056   1.554  1.00  0.00     0.267 C 
BRANCH  23  24
ATOM     24  C   UNL     1      -0.183  -8.427   1.397  1.00  0.00     0.008 A 
ATOM     25  C   UNL     1       0.003  -7.134   0.872  1.00  0.00     0.009 A 
ATOM     26  C   UNL     1       0.962  -9.086   1.885  1.00  0.00     0.047 A 
ATOM     27  C   UNL     1       1.253  -6.508   0.869  1.00  0.00     0.001 A 
ATOM     28  C   UNL     1       2.222  -8.470   1.854  1.00  0.00     0.021 A 
ATOM     29  Cl  UNL     1       0.887 -10.677   2.562  1.00  0.00    -0.084 Cl
ATOM     30  C   UNL     1       2.364  -7.176   1.360  1.00  0.00     0.002 A 
ENDBRANCH  23  24
ENDBRANCH  22  23
ENDBRANCH  21  22
ENDBRANCH  15  16
ENDBRANCH   6   8
ENDBRANCH   3   6
ENDBRANCH   1   2
BRANCH   1  31
ATOM     31  C   UNL     1       4.063  -0.500   1.182  1.00  0.00     0.023 C 
BRANCH  31  32
ATOM     32  C   UNL     1       4.891  -0.464   2.471  1.00  0.00     0.023 C 
BRANCH  32  33
ATOM     33  C   UNL     1       5.920  -1.581   2.612  1.00  0.00     0.116 C 
BRANCH  33  34
ATOM     34  N   UNL     1       6.897  -1.594   1.534  1.00  0.00    -0.352 N 
ATOM     35  C   UNL     1       8.254  -1.800   1.599  1.00  0.00     0.251 C 
ATOM     36  H   UNL     1       6.536  -1.433   0.632  1.00  0.00     0.163 HD
ATOM     37  O   UNL     1       8.944  -1.640   0.596  1.00  0.00    -0.269 OA
BRANCH  35  38
ATOM     38  C   UNL     1       8.882  -2.184   2.883  1.00  0.00     0.039 A 
ATOM     39  C   UNL     1      10.058  -1.540   3.275  1.00  0.00     0.014 A 
ATOM     40  C   UNL     1       8.311  -3.162   3.702  1.00  0.00     0.014 A 
ATOM     41  C   UNL     1      10.628  -1.837   4.516  1.00  0.00     0.010 A 
ATOM     42  C   UNL     1       8.835  -3.396   4.971  1.00  0.00     0.010 A 
ATOM     43  C   UNL     1      10.002  -2.742   5.390  1.00  0.00    -0.014 A 
BRANCH  43  44
ATOM     44  C   UNL     1      10.554  -3.001   6.747  1.00  0.00     0.031 A 
ATOM     45  C   UNL     1      11.018  -4.380   7.133  1.00  0.00     0.074 A 
ATOM     46  C   UNL     1      10.580  -2.004   7.655  1.00  0.00     0.049 A 
ATOM     47  N   UNL     1      11.505  -4.796   8.273  1.00  0.00    -0.248 NA
ATOM     48  C   UNL     1      10.896  -5.437   6.115  1.00  0.00     0.031 C 
ATOM     49  C   UNL     1      10.083  -0.644   7.433  1.00  0.00     0.029 A 
ATOM     50  N   UNL     1      11.024  -1.986   8.954  1.00  0.00    -0.354 N 
ATOM     51  C   UNL     1      11.729  -6.160   8.118  1.00  0.00     0.074 A 
ATOM     52  C   UNL     1      11.277  -6.512   6.790  1.00  0.00     0.031 C 
ATOM     53  C   UNL     1      10.259   0.077   8.552  1.00  0.00     0.029 A 
ATOM     54  C   UNL     1      10.849  -0.773   9.580  1.00  0.00     0.049 A 
ATOM     55  H   UNL     1      11.429  -2.766   9.396  1.00  0.00     0.167 HD
ATOM     56  C   UNL     1      12.291  -7.034   8.987  1.00  0.00     0.034 A 
ATOM     57  C   UNL     1      11.124  -0.391  10.842  1.00  0.00     0.034 A 
ATOM     58  C   UNL     1      12.762  -6.678  10.298  1.00  0.00     0.049 A 
ATOM     59  C   UNL     1      11.767  -1.377  11.780  1.00  0.00     0.074 A 
ATOM     60  C   UNL     1      13.403  -7.476  11.229  1.00  0.00     0.029 A 
ATOM     61  N   UNL     1      12.637  -5.421  10.870  1.00  0.00    -0.354 N 
ATOM     62  N   UNL     1      12.108  -2.624  11.561  1.00  0.00    -0.248 NA
ATOM     63  C   UNL     1      12.098  -0.893  13.128  1.00  0.00     0.031 C 
ATOM     64  C   UNL     1      13.641  -6.710  12.374  1.00  0.00     0.029 A 
ATOM     65  C   UNL     1      13.182  -5.423  12.143  1.00  0.00     0.049 A 
ATOM     66  H   UNL     1      12.221  -4.642  10.435  1.00  0.00     0.167 HD
ATOM     67  C   UNL     1      12.729  -3.059  12.726  1.00  0.00     0.074 A 
ATOM     68  C   UNL     1      12.740  -1.934  13.638  1.00  0.00     0.031 C 
ATOM     69  C   UNL     1      13.234  -4.283  13.021  1.00  0.00     0.034 A 
BRANCH  56  70
ATOM     70  C   UNL     1      12.481  -8.456   8.522  1.00  0.00     0.023 A 
ATOM     71  C   UNL     1      13.437  -8.738   7.523  1.00  0.00     0.012 A 
ATOM     72  C   UNL     1      11.764  -9.518   9.108  1.00  0.00     0.148 A 
ATOM     73  C   UNL     1      13.649 -10.045   7.088  1.00  0.00     0.002 A 
ATOM     74  C   UNL     1      12.016 -10.824   8.703  1.00  0.00     0.091 A 
ATOM     75  F   UNL     1      10.848  -9.231  10.043  1.00  0.00    -0.205 F 
ATOM     76  C   UNL     1      12.947 -11.088   7.685  1.00  0.00     0.022 A 
BRANCH  74  77
ATOM     77  S   UNL     1      11.226 -12.247   9.463  1.00  0.00     0.127 S 
ATOM     78  O   UNL     1      10.380 -12.730   8.374  1.00  0.00    -0.237 OA
ATOM     79  O   UNL     1      12.371 -13.104   9.772  1.00  0.00    -0.237 OA
ATOM     80  O   UNL     1      10.514 -11.739  10.627  1.00  0.00    -0.744 OA
ENDBRANCH  74  77
ENDBRANCH  56  70
BRANCH  57  81
ATOM     81  C   UNL     1      10.842   1.006  11.284  1.00  0.00     0.023 A 
ATOM     82  C   UNL     1      11.911   1.873  11.581  1.00  0.00     0.012 A 
ATOM     83  C   UNL     1       9.521   1.477  11.411  1.00  0.00     0.148 A 
ATOM     84  C   UNL     1      11.670   3.169  12.040  1.00  0.00     0.002 A 
ATOM     85  C   UNL     1       9.289   2.787  11.812  1.00  0.00     0.091 A 
ATOM     86  F   UNL     1       8.517   0.634  11.134  1.00  0.00    -0.205 F 
ATOM     87  C   UNL     1      10.361   3.628  12.148  1.00  0.00     0.022 A 
BRANCH  85  88
ATOM     88  S   UNL     1       7.642   3.502  11.849  1.00  0.00     0.127 S 
ATOM     89  O   UNL     1       7.401   3.623  13.284  1.00  0.00    -0.237 OA
ATOM     90  O   UNL     1       7.848   4.771  11.149  1.00  0.00    -0.237 OA
ATOM     91  O   UNL     1       6.789   2.558  11.139  1.00  0.00    -0.744 OA
ENDBRANCH  85  88
ENDBRANCH  57  81
BRANCH  69  92
ATOM     92  C   UNL     1      13.887  -4.462  14.368  1.00  0.00     0.023 A 
ATOM     93  C   UNL     1      13.103  -4.470  15.539  1.00  0.00     0.012 A 
ATOM     94  C   UNL     1      15.276  -4.677  14.465  1.00  0.00     0.148 A 
ATOM     95  C   UNL     1      13.697  -4.646  16.788  1.00  0.00     0.002 A 
ATOM     96  C   UNL     1      15.853  -4.907  15.708  1.00  0.00     0.091 A 
ATOM     97  F   UNL     1      16.008  -4.649  13.342  1.00  0.00    -0.205 F 
ATOM     98  C   UNL     1      15.068  -4.876  16.872  1.00  0.00     0.022 A 
BRANCH  96  99
ATOM     99  S   UNL     1      17.593  -5.309  15.903  1.00  0.00     0.127 S 
ATOM    100  O   UNL     1      18.114  -4.087  16.512  1.00  0.00    -0.237 OA
ATOM    101  O   UNL     1      17.544  -6.465  16.799  1.00  0.00    -0.237 OA
ATOM    102  O   UNL     1      18.090  -5.602  14.566  1.00  0.00    -0.744 OA
ENDBRANCH  96  99
ENDBRANCH  69  92
ENDBRANCH  43  44
ENDBRANCH  35  38
ENDBRANCH  33  34
ENDBRANCH  32  33
ENDBRANCH  31  32
ENDBRANCH   1  31
TORSDOF 19
