REMARK SMILES O=C(/C=C/c1cccs1)NCC(=O)NCCCCNC(=O)c1ccc(-c2c3nc(c(-c4cccc(S(=O)(=O)[O-])c4F)c4ccc([nH]4)c(-c4cccc(S(=O)(=O)[O-])c4F)c4nc(c(-c5cccc(S(=O)(=O)[O-])c5F)c5ccc2[nH]5)C=C4)C=C3)cc1
REMARK SMILES IDX 16 1 15 2 14 3 12 4 13 5 11 7 10 8 1 9 2 10 3 12 4 13 5 14
REMARK SMILES IDX 6 15 9 16 7 17 8 18 17 19 18 20 19 21 20 22 21 24 22 25
REMARK SMILES IDX 23 26 84 27 24 28 83 29 25 30 26 31 27 32 77 33 28 34 82 35
REMARK SMILES IDX 76 36 78 37 29 38 81 39 75 40 74 41 30 43 62 44 42 45 61 46
REMARK SMILES IDX 43 47 46 48 60 49 79 50 44 51 45 52 59 54 80 55 47 56 31 57
REMARK SMILES IDX 32 58 40 59 33 60 35 61 41 62 34 63 36 64 37 65 38 66 39 67
REMARK SMILES IDX 63 68 64 69 72 70 65 71 67 72 73 73 66 74 68 75 69 76 70 77
REMARK SMILES IDX 71 78 48 79 49 80 57 81 50 82 52 83 58 84 51 85 53 86 54 87
REMARK SMILES IDX 55 88 56 89
REMARK H PARENT 14 6 10 11 19 23 78 42 46 53
REMARK Flexibility Score: inf
ROOT
ATOM      1  C   UNL     1       2.665   3.098   1.059  1.00  0.00     0.023 C 
ENDROOT
BRANCH   1   2
ATOM      2  C   UNL     1       1.689   3.069  -0.117  1.00  0.00     0.116 C 
BRANCH   2   3
ATOM      3  N   UNL     1       2.354   3.369  -1.371  1.00  0.00    -0.355 N 
ATOM      4  C   UNL     1       2.704   2.510  -2.374  1.00  0.00     0.239 C 
ATOM      5  O   UNL     1       3.251   2.961  -3.381  1.00  0.00    -0.273 OA
ATOM      6  H   UNL     1       2.582   4.315  -1.519  1.00  0.00     0.163 HD
BRANCH   4   7
ATOM      7  C   UNL     1       2.375   1.022  -2.253  1.00  0.00     0.216 C 
BRANCH   7   8
ATOM      8  N   UNL     1       3.101   0.391  -1.162  1.00  0.00    -0.343 N 
ATOM      9  O   UNL     1       1.262  -0.610  -0.244  1.00  0.00    -0.270 OA
ATOM     10  C   UNL     1       2.467  -0.382  -0.232  1.00  0.00     0.244 C 
ATOM     11  H   UNL     1       4.074   0.524  -1.092  1.00  0.00     0.164 HD
BRANCH  10  12
ATOM     12  C   UNL     1       3.294  -0.980   0.846  1.00  0.00     0.072 C 
ATOM     13  C   UNL     1       4.596  -0.767   1.085  1.00  0.00     0.024 C 
BRANCH  13  14
ATOM     14  C   UNL     1       5.268  -1.418   2.164  1.00  0.00     0.027 A 
ATOM     15  C   UNL     1       4.943  -2.564   2.874  1.00  0.00     0.020 A 
ATOM     16  S   UNL     1       6.752  -0.760   2.748  1.00  0.00    -0.144 S 
ATOM     17  C   UNL     1       5.889  -2.884   3.891  1.00  0.00     0.012 A 
ATOM     18  C   UNL     1       6.918  -1.974   3.936  1.00  0.00     0.065 A 
ENDBRANCH  13  14
ENDBRANCH  10  12
ENDBRANCH   7   8
ENDBRANCH   4   7
ENDBRANCH   2   3
ENDBRANCH   1   2
BRANCH   1  19
ATOM     19  C   UNL     1       3.186   4.493   1.420  1.00  0.00     0.023 C 
BRANCH  19  20
ATOM     20  C   UNL     1       2.115   5.523   1.770  1.00  0.00     0.116 C 
BRANCH  20  21
ATOM     21  N   UNL     1       1.278   5.120   2.890  1.00  0.00    -0.352 N 
ATOM     22  C   UNL     1       0.795   5.887   3.924  1.00  0.00     0.251 C 
ATOM     23  H   UNL     1       1.022   4.170   2.910  1.00  0.00     0.163 HD
ATOM     24  O   UNL     1       0.197   5.354   4.856  1.00  0.00    -0.269 OA
BRANCH  22  25
ATOM     25  C   UNL     1       1.027   7.348   3.929  1.00  0.00     0.039 A 
ATOM     26  C   UNL     1       1.496   7.953   5.098  1.00  0.00     0.014 A 
ATOM     27  C   UNL     1       0.800   8.116   2.783  1.00  0.00     0.014 A 
ATOM     28  C   UNL     1       1.800   9.317   5.099  1.00  0.00     0.010 A 
ATOM     29  C   UNL     1       1.168   9.459   2.767  1.00  0.00     0.010 A 
ATOM     30  C   UNL     1       1.671  10.074   3.923  1.00  0.00    -0.014 A 
BRANCH  30  31
ATOM     31  C   UNL     1       2.078  11.502   3.876  1.00  0.00     0.031 A 
ATOM     32  C   UNL     1       1.061  12.575   3.595  1.00  0.00     0.074 A 
ATOM     33  C   UNL     1       3.382  11.826   3.993  1.00  0.00     0.049 A 
ATOM     34  N   UNL     1       1.239  13.863   3.457  1.00  0.00    -0.248 NA
ATOM     35  C   UNL     1      -0.335  12.141   3.420  1.00  0.00     0.031 C 
ATOM     36  C   UNL     1       4.476  10.872   4.185  1.00  0.00     0.029 A 
ATOM     37  N   UNL     1       4.011  13.045   3.939  1.00  0.00    -0.354 N 
ATOM     38  C   UNL     1      -0.009  14.389   3.144  1.00  0.00     0.074 A 
ATOM     39  C   UNL     1      -0.931  13.275   3.081  1.00  0.00     0.031 C 
ATOM     40  C   UNL     1       5.640  11.541   4.232  1.00  0.00     0.029 A 
ATOM     41  C   UNL     1       5.380  12.965   4.048  1.00  0.00     0.049 A 
ATOM     42  H   UNL     1       3.528  13.896   3.831  1.00  0.00     0.167 HD
ATOM     43  C   UNL     1      -0.364  15.682   2.956  1.00  0.00     0.034 A 
ATOM     44  C   UNL     1       6.321  13.929   4.000  1.00  0.00     0.034 A 
ATOM     45  C   UNL     1       0.544  16.792   3.067  1.00  0.00     0.049 A 
ATOM     46  C   UNL     1       5.894  15.363   3.835  1.00  0.00     0.074 A 
ATOM     47  C   UNL     1       0.262  18.145   2.990  1.00  0.00     0.029 A 
ATOM     48  N   UNL     1       1.910  16.680   3.271  1.00  0.00    -0.354 N 
ATOM     49  N   UNL     1       4.686  15.854   3.710  1.00  0.00    -0.248 NA
ATOM     50  C   UNL     1       6.958  16.378   3.840  1.00  0.00     0.031 C 
ATOM     51  C   UNL     1       1.462  18.850   3.128  1.00  0.00     0.029 A 
ATOM     52  C   UNL     1       2.488  17.937   3.313  1.00  0.00     0.049 A 
ATOM     53  H   UNL     1       2.398  15.830   3.371  1.00  0.00     0.167 HD
ATOM     54  C   UNL     1       4.839  17.235   3.656  1.00  0.00     0.074 A 
ATOM     55  C   UNL     1       6.257  17.503   3.785  1.00  0.00     0.031 C 
ATOM     56  C   UNL     1       3.894  18.194   3.496  1.00  0.00     0.034 A 
BRANCH  43  57
ATOM     57  C   UNL     1      -1.814  15.975   2.670  1.00  0.00     0.023 A 
ATOM     58  C   UNL     1      -2.766  15.835   3.701  1.00  0.00     0.012 A 
ATOM     59  C   UNL     1      -2.227  16.444   1.407  1.00  0.00     0.148 A 
ATOM     60  C   UNL     1      -4.111  16.122   3.471  1.00  0.00     0.002 A 
ATOM     61  C   UNL     1      -3.563  16.770   1.199  1.00  0.00     0.091 A 
ATOM     62  F   UNL     1      -1.313  16.551   0.433  1.00  0.00    -0.205 F 
ATOM     63  C   UNL     1      -4.507  16.599   2.225  1.00  0.00     0.022 A 
BRANCH  61  64
ATOM     64  S   UNL     1      -4.161  17.465  -0.346  1.00  0.00     0.127 S 
ATOM     65  O   UNL     1      -4.916  16.343  -0.902  1.00  0.00    -0.237 OA
ATOM     66  O   UNL     1      -4.984  18.583   0.117  1.00  0.00    -0.237 OA
ATOM     67  O   UNL     1      -2.975  17.855  -1.096  1.00  0.00    -0.744 OA
ENDBRANCH  61  64
ENDBRANCH  43  57
BRANCH  44  68
ATOM     68  C   UNL     1       7.758  13.576   4.182  1.00  0.00     0.023 A 
ATOM     69  C   UNL     1       8.416  13.955   5.368  1.00  0.00     0.012 A 
ATOM     70  C   UNL     1       8.466  12.847   3.207  1.00  0.00     0.148 A 
ATOM     71  C   UNL     1       9.761  13.643   5.566  1.00  0.00     0.002 A 
ATOM     72  C   UNL     1       9.790  12.491   3.435  1.00  0.00     0.091 A 
ATOM     73  F   UNL     1       7.826  12.505   2.079  1.00  0.00    -0.205 F 
ATOM     74  C   UNL     1      10.445  12.903   4.606  1.00  0.00     0.022 A 
BRANCH  72  75
ATOM     75  S   UNL     1      10.708  11.429   2.314  1.00  0.00     0.127 S 
ATOM     76  O   UNL     1      11.645  12.371   1.708  1.00  0.00    -0.237 OA
ATOM     77  O   UNL     1      11.312  10.466   3.236  1.00  0.00    -0.237 OA
ATOM     78  O   UNL     1       9.714  10.855   1.417  1.00  0.00    -0.744 OA
ENDBRANCH  72  75
ENDBRANCH  44  68
BRANCH  56  79
ATOM     79  C   UNL     1       4.349  19.630   3.478  1.00  0.00     0.023 A 
ATOM     80  C   UNL     1       5.038  20.130   2.356  1.00  0.00     0.012 A 
ATOM     81  C   UNL     1       4.030  20.500   4.539  1.00  0.00     0.148 A 
ATOM     82  C   UNL     1       5.428  21.468   2.303  1.00  0.00     0.002 A 
ATOM     83  C   UNL     1       4.380  21.843   4.458  1.00  0.00     0.091 A 
ATOM     84  F   UNL     1       3.391  20.000   5.607  1.00  0.00    -0.205 F 
ATOM     85  C   UNL     1       5.089  22.326   3.346  1.00  0.00     0.022 A 
BRANCH  83  86
ATOM     86  S   UNL     1       3.902  23.039   5.710  1.00  0.00     0.127 S 
ATOM     87  O   UNL     1       5.173  23.286   6.387  1.00  0.00    -0.237 OA
ATOM     88  O   UNL     1       3.414  24.158   4.902  1.00  0.00    -0.237 OA
ATOM     89  O   UNL     1       2.878  22.387   6.516  1.00  0.00    -0.744 OA
ENDBRANCH  83  86
ENDBRANCH  56  79
ENDBRANCH  30  31
ENDBRANCH  22  25
ENDBRANCH  20  21
ENDBRANCH  19  20
ENDBRANCH   1  19
TORSDOF 17
