REMARK SMILES COc1ccc(-n2ccnc2C[N@@H+]2Cc3[nH]cnc3C[C@H]2C(=O)NCCCCNC(=O)c2ccc(-c3c4nc(c(-c5cccc(S(=O)(=O)[O-])c5F)c5ccc([nH]5)c(-c5cccc(S(=O)(=O)[O-])c5F)c5nc(c(-c6cccc(S(=O)(=O)[O-])c6F)c6ccc3[nH]6)C=C5)C=C4)cc2)cc1
REMARK SMILES IDX 26 1 25 2 24 3 22 4 23 5 21 7 13 8 14 9 15 11 20 12 16 13
REMARK SMILES IDX 19 14 17 15 18 17 12 18 11 19 7 20 8 21 9 22 10 23 6 24 3 25
REMARK SMILES IDX 4 26 96 27 5 28 95 29 2 30 1 31 27 32 28 33 29 34 30 35
REMARK SMILES IDX 31 37 32 38 33 39 94 40 34 41 93 42 35 43 36 44 37 45 87 46
REMARK SMILES IDX 38 47 92 48 86 49 88 50 39 51 91 52 85 53 84 54 40 56 72 57
REMARK SMILES IDX 52 58 71 59 53 60 56 61 70 62 89 63 54 64 55 65 69 67 90 68
REMARK SMILES IDX 57 69 41 70 42 71 50 72 43 73 45 74 51 75 44 76 46 77 47 78
REMARK SMILES IDX 48 79 49 80 73 81 74 82 82 83 75 84 77 85 83 86 76 87 78 88
REMARK SMILES IDX 79 89 80 90 81 91 58 92 59 93 67 94 60 95 62 96 68 97 61 98
REMARK SMILES IDX 63 99 64 100 65 101 66 102
REMARK H PARENT 24 6 13 10 16 16 29 36 88 55 56 66
REMARK Flexibility Score: inf
ROOT
ATOM      1  C   UNL     1       3.680   2.271  -7.251  1.00  0.00     0.023 C 
ENDROOT
BRANCH   1   2
ATOM      2  C   UNL     1       2.313   2.884  -6.890  1.00  0.00     0.116 C 
BRANCH   2   3
ATOM      3  N   UNL     1       1.221   2.436  -7.748  1.00  0.00    -0.351 N 
ATOM      4  C   UNL     1       0.229   1.511  -7.706  1.00  0.00     0.278 C 
ATOM      5  O   UNL     1      -0.597   1.618  -8.631  1.00  0.00    -0.268 OA
ATOM      6  H   UNL     1       1.197   2.946  -8.590  1.00  0.00     0.163 HD
BRANCH   4   7
ATOM      7  C   UNL     1       0.014   0.355  -6.696  1.00  0.00     0.280 C 
ATOM      8  N   UNL     1       1.103  -0.692  -6.772  1.00  0.00    -0.313 N 
ATOM      9  C   UNL     1       2.246  -0.425  -5.893  1.00  0.00     0.320 C 
ATOM     10  H   UNL     1       1.540  -0.644  -7.692  1.00  0.00     0.349 HD
ATOM     11  C   UNL     1       1.906   0.363  -4.693  1.00  0.00     0.093 A 
ATOM     12  C   UNL     1      -0.475   0.772  -5.284  1.00  0.00     0.134 C 
ATOM     13  N   UNL     1       2.759   0.868  -3.750  1.00  0.00    -0.344 N 
ATOM     14  C   UNL     1       0.686   0.910  -4.390  1.00  0.00     0.074 A 
ATOM     15  C   UNL     1       2.011   1.656  -2.914  1.00  0.00     0.197 A 
ATOM     16  H   UNL     1       3.726   0.698  -3.685  1.00  0.00     0.167 HD
ATOM     17  N   UNL     1       0.743   1.668  -3.259  1.00  0.00    -0.241 NA
BRANCH   8  18
ATOM     18  C   UNL     1       0.507  -2.043  -6.666  1.00  0.00     0.340 C 
BRANCH  18  19
ATOM     19  C   UNL     1       1.483  -3.190  -6.555  1.00  0.00     0.168 A 
ATOM     20  N   UNL     1       2.011  -3.655  -5.351  1.00  0.00    -0.299 N 
ATOM     21  C   UNL     1       3.087  -4.448  -5.686  1.00  0.00     0.113 A 
ATOM     22  C   UNL     1       3.072  -4.549  -7.053  1.00  0.00     0.132 A 
ATOM     23  N   UNL     1       2.072  -3.785  -7.582  1.00  0.00    -0.236 NA
BRANCH  20  24
ATOM     24  C   UNL     1       1.664  -3.257  -4.035  1.00  0.00     0.047 A 
ATOM     25  C   UNL     1       1.004  -2.252  -1.522  1.00  0.00     0.119 A 
ATOM     26  C   UNL     1      -0.003  -2.685  -2.382  1.00  0.00     0.048 A 
ATOM     27  C   UNL     1       2.344  -2.367  -1.890  1.00  0.00     0.048 A 
ATOM     28  C   UNL     1       0.323  -3.180  -3.646  1.00  0.00     0.030 A 
ATOM     29  C   UNL     1       2.679  -2.884  -3.143  1.00  0.00     0.030 A 
BRANCH  25  30
ATOM     30  O   UNL     1       0.637  -1.820  -0.277  1.00  0.00    -0.497 OA
ATOM     31  C   UNL     1       0.978  -0.448  -0.069  1.00  0.00     0.278 C 
ENDBRANCH  25  30
ENDBRANCH  20  24
ENDBRANCH  18  19
ENDBRANCH   8  18
ENDBRANCH   4   7
ENDBRANCH   2   3
ENDBRANCH   1   2
BRANCH   1  32
ATOM     32  C   UNL     1       4.789   3.234  -7.692  1.00  0.00     0.023 C 
BRANCH  32  33
ATOM     33  C   UNL     1       5.295   4.161  -6.591  1.00  0.00     0.116 C 
BRANCH  33  34
ATOM     34  N   UNL     1       6.028   3.470  -5.527  1.00  0.00    -0.352 N 
ATOM     35  C   UNL     1       6.373   3.992  -4.287  1.00  0.00     0.251 C 
ATOM     36  H   UNL     1       6.303   2.542  -5.709  1.00  0.00     0.163 HD
ATOM     37  O   UNL     1       7.224   3.477  -3.586  1.00  0.00    -0.269 OA
BRANCH  35  38
ATOM     38  C   UNL     1       5.653   5.199  -3.852  1.00  0.00     0.039 A 
ATOM     39  C   UNL     1       6.335   6.401  -3.641  1.00  0.00     0.014 A 
ATOM     40  C   UNL     1       4.261   5.140  -3.849  1.00  0.00     0.014 A 
ATOM     41  C   UNL     1       5.597   7.581  -3.542  1.00  0.00     0.010 A 
ATOM     42  C   UNL     1       3.546   6.318  -3.851  1.00  0.00     0.010 A 
ATOM     43  C   UNL     1       4.202   7.544  -3.689  1.00  0.00    -0.014 A 
BRANCH  43  44
ATOM     44  C   UNL     1       3.439   8.791  -3.805  1.00  0.00     0.031 A 
ATOM     45  C   UNL     1       3.851   9.751  -4.879  1.00  0.00     0.074 A 
ATOM     46  C   UNL     1       2.259   8.988  -3.179  1.00  0.00     0.049 A 
ATOM     47  N   UNL     1       4.244  10.977  -4.740  1.00  0.00    -0.248 NA
ATOM     48  C   UNL     1       3.866   9.281  -6.272  1.00  0.00     0.031 C 
ATOM     49  C   UNL     1       1.504   8.032  -2.360  1.00  0.00     0.029 A 
ATOM     50  N   UNL     1       1.398  10.039  -3.295  1.00  0.00    -0.354 N 
ATOM     51  C   UNL     1       4.372  11.499  -6.030  1.00  0.00     0.074 A 
ATOM     52  C   UNL     1       4.259  10.377  -6.927  1.00  0.00     0.031 C 
ATOM     53  C   UNL     1       0.212   8.419  -2.307  1.00  0.00     0.029 A 
ATOM     54  C   UNL     1       0.098   9.730  -2.913  1.00  0.00     0.049 A 
ATOM     55  H   UNL     1       1.670  10.928  -3.617  1.00  0.00     0.167 HD
ATOM     56  C   UNL     1       4.376  12.841  -6.277  1.00  0.00     0.034 A 
ATOM     57  C   UNL     1      -1.008  10.478  -3.121  1.00  0.00     0.034 A 
ATOM     58  C   UNL     1       4.508  13.608  -5.066  1.00  0.00     0.049 A 
ATOM     59  C   UNL     1      -0.569  11.871  -3.345  1.00  0.00     0.074 A 
ATOM     60  C   UNL     1       5.439  13.709  -4.053  1.00  0.00     0.029 A 
ATOM     61  N   UNL     1       3.376  14.229  -4.600  1.00  0.00    -0.354 N 
ATOM     62  N   UNL     1      -0.008  12.608  -2.427  1.00  0.00    -0.248 NA
ATOM     63  C   UNL     1      -0.419  12.349  -4.708  1.00  0.00     0.031 C 
ATOM     64  C   UNL     1       4.669  13.942  -2.875  1.00  0.00     0.029 A 
ATOM     65  C   UNL     1       3.325  14.002  -3.252  1.00  0.00     0.049 A 
ATOM     66  H   UNL     1       2.726  14.740  -5.133  1.00  0.00     0.167 HD
ATOM     67  C   UNL     1       0.927  13.367  -3.116  1.00  0.00     0.074 A 
ATOM     68  C   UNL     1       0.524  13.275  -4.516  1.00  0.00     0.031 C 
ATOM     69  C   UNL     1       2.100  13.747  -2.526  1.00  0.00     0.034 A 
BRANCH  56  70
ATOM     70  C   UNL     1       3.956  13.525  -7.561  1.00  0.00     0.023 A 
ATOM     71  C   UNL     1       4.253  14.905  -7.692  1.00  0.00     0.012 A 
ATOM     72  C   UNL     1       3.063  12.974  -8.503  1.00  0.00     0.148 A 
ATOM     73  C   UNL     1       3.653  15.702  -8.673  1.00  0.00     0.002 A 
ATOM     74  C   UNL     1       2.533  13.755  -9.529  1.00  0.00     0.091 A 
ATOM     75  F   UNL     1       2.612  11.726  -8.342  1.00  0.00    -0.205 F 
ATOM     76  C   UNL     1       2.797  15.124  -9.600  1.00  0.00     0.022 A 
BRANCH  74  77
ATOM     77  S   UNL     1       1.479  13.039 -10.796  1.00  0.00     0.127 S 
ATOM     78  O   UNL     1       0.152  13.425 -10.326  1.00  0.00    -0.237 OA
ATOM     79  O   UNL     1       1.936  13.733 -12.001  1.00  0.00    -0.237 OA
ATOM     80  O   UNL     1       1.786  11.614 -10.780  1.00  0.00    -0.744 OA
ENDBRANCH  74  77
ENDBRANCH  56  70
BRANCH  57  81
ATOM     81  C   UNL     1      -2.408  10.044  -3.302  1.00  0.00     0.023 A 
ATOM     82  C   UNL     1      -3.458  10.928  -2.998  1.00  0.00     0.012 A 
ATOM     83  C   UNL     1      -2.711   8.857  -4.007  1.00  0.00     0.148 A 
ATOM     84  C   UNL     1      -4.768  10.655  -3.406  1.00  0.00     0.002 A 
ATOM     85  C   UNL     1      -4.016   8.586  -4.405  1.00  0.00     0.091 A 
ATOM     86  F   UNL     1      -1.706   8.044  -4.365  1.00  0.00    -0.205 F 
ATOM     87  C   UNL     1      -5.046   9.489  -4.115  1.00  0.00     0.022 A 
BRANCH  85  88
ATOM     88  S   UNL     1      -4.442   7.111  -5.341  1.00  0.00     0.127 S 
ATOM     89  O   UNL     1      -5.662   6.663  -4.666  1.00  0.00    -0.237 OA
ATOM     90  O   UNL     1      -4.648   7.655  -6.680  1.00  0.00    -0.237 OA
ATOM     91  O   UNL     1      -3.309   6.208  -5.187  1.00  0.00    -0.744 OA
ENDBRANCH  85  88
ENDBRANCH  57  81
BRANCH  69  92
ATOM     92  C   UNL     1       2.240  13.581  -1.032  1.00  0.00     0.023 A 
ATOM     93  C   UNL     1       2.161  12.316  -0.412  1.00  0.00     0.012 A 
ATOM     94  C   UNL     1       2.642  14.685  -0.261  1.00  0.00     0.148 A 
ATOM     95  C   UNL     1       2.446  12.160   0.946  1.00  0.00     0.002 A 
ATOM     96  C   UNL     1       2.972  14.518   1.079  1.00  0.00     0.091 A 
ATOM     97  F   UNL     1       2.724  15.884  -0.860  1.00  0.00    -0.205 F 
ATOM     98  C   UNL     1       2.864  13.259   1.690  1.00  0.00     0.022 A 
BRANCH  96  99
ATOM     99  S   UNL     1       3.651  15.869   2.048  1.00  0.00     0.127 S 
ATOM    100  O   UNL     1       2.481  16.336   2.787  1.00  0.00    -0.237 OA
ATOM    101  O   UNL     1       4.663  15.198   2.866  1.00  0.00    -0.237 OA
ATOM    102  O   UNL     1       4.205  16.808   1.079  1.00  0.00    -0.744 OA
ENDBRANCH  96  99
ENDBRANCH  69  92
ENDBRANCH  43  44
ENDBRANCH  35  38
ENDBRANCH  33  34
ENDBRANCH  32  33
ENDBRANCH   1  32
TORSDOF 18
