REMARK SMILES CCC(CC)COc1cc2c(cc1Cl)C=C(C(=O)NCCCCNC(=O)c1ccc(-c3c4nc(c(-c5cccc(S(=O)(=O)[O-])c5F)c5ccc([nH]5)c(-c5cccc(S(=O)(=O)[O-])c5F)c5nc(c(-c6cccc(S(=O)(=O)[O-])c6F)c6ccc3[nH]6)C=C5)C=C4)cc1)[C@@H](C(F)(F)F)O2
REMARK SMILES IDX 21 1 20 2 19 3 17 4 18 5 16 7 8 8 9 9 13 10 10 11 12 12
REMARK SMILES IDX 14 13 11 14 95 15 15 16 90 17 7 18 6 19 3 20 2 21 1 22 4 23
REMARK SMILES IDX 5 24 91 25 92 26 93 27 94 28 22 29 23 30 24 31 25 32 26 34
REMARK SMILES IDX 27 35 28 36 89 37 29 38 88 39 30 40 31 41 32 42 82 43 33 44
REMARK SMILES IDX 87 45 81 46 83 47 34 48 86 49 80 50 79 51 35 53 67 54 47 55
REMARK SMILES IDX 66 56 48 57 51 58 65 59 84 60 49 61 50 62 64 64 85 65 52 66
REMARK SMILES IDX 36 67 37 68 45 69 38 70 40 71 46 72 39 73 41 74 42 75 43 76
REMARK SMILES IDX 44 77 68 78 69 79 77 80 70 81 72 82 78 83 71 84 73 85 74 86
REMARK SMILES IDX 75 87 76 88 53 89 54 90 62 91 55 92 57 93 63 94 56 95 58 96
REMARK SMILES IDX 59 97 60 98 61 99
REMARK H PARENT 19 6 24 33 83 52 51 63
REMARK Flexibility Score: inf
ROOT
ATOM      1  C   UNL     1      -2.088 -10.424   2.043  1.00  0.00     0.023 C 
ENDROOT
BRANCH   1   2
ATOM      2  C   UNL     1      -0.670 -10.064   1.614  1.00  0.00     0.116 C 
BRANCH   2   3
ATOM      3  N   UNL     1      -0.659  -9.334   0.360  1.00  0.00    -0.352 N 
ATOM      4  C   UNL     1      -0.321  -8.086  -0.036  1.00  0.00     0.251 C 
ATOM      5  O   UNL     1      -0.411  -7.867  -1.248  1.00  0.00    -0.270 OA
ATOM      6  H   UNL     1      -0.976  -9.886  -0.390  1.00  0.00     0.163 HD
BRANCH   4   7
ATOM      7  C   UNL     1       0.124  -6.994   0.872  1.00  0.00     0.067 C 
ATOM      8  C   UNL     1       1.534  -2.565   2.730  1.00  0.00     0.141 A 
ATOM      9  C   UNL     1       0.668  -3.556   3.189  1.00  0.00     0.095 A 
ATOM     10  C   UNL     1       2.230  -2.740   1.524  1.00  0.00     0.083 A 
ATOM     11  C   UNL     1       0.448  -4.676   2.396  1.00  0.00     0.131 A 
ATOM     12  C   UNL     1       1.925  -3.817   0.690  1.00  0.00     0.036 A 
ATOM     13  Cl  UNL     1       3.455  -1.639   1.008  1.00  0.00    -0.080 Cl
ATOM     14  C   UNL     1       1.016  -4.779   1.119  1.00  0.00     0.019 A 
ATOM     15  O   UNL     1      -0.328  -5.684   2.910  1.00  0.00    -0.475 OA
ATOM     16  C   UNL     1       0.630  -5.900   0.271  1.00  0.00     0.025 C 
ATOM     17  C   UNL     1       0.015  -7.003   2.372  1.00  0.00     0.314 C 
BRANCH   8  18
ATOM     18  O   UNL     1       1.736  -1.443   3.490  1.00  0.00    -0.492 OA
BRANCH  18  19
ATOM     19  C   UNL     1       0.622  -0.525   3.436  1.00  0.00     0.233 C 
BRANCH  19  20
ATOM     20  C   UNL     1       0.753   0.440   2.233  1.00  0.00     0.026 C 
BRANCH  20  21
ATOM     21  C   UNL     1      -0.010  -0.098   1.001  1.00  0.00     0.003 C 
ATOM     22  C   UNL     1       0.439   0.548  -0.302  1.00  0.00     0.004 C 
ENDBRANCH  20  21
BRANCH  20  23
ATOM     23  C   UNL     1       0.338   1.880   2.603  1.00  0.00     0.003 C 
ATOM     24  C   UNL     1      -1.143   2.086   2.883  1.00  0.00     0.004 C 
ENDBRANCH  20  23
ENDBRANCH  19  20
ENDBRANCH  18  19
ENDBRANCH   8  18
BRANCH  17  25
ATOM     25  C   UNL     1       1.295  -7.556   3.049  1.00  0.00     0.429 C 
ATOM     26  F   UNL     1       1.032  -7.932   4.325  1.00  0.00    -0.167 F 
ATOM     27  F   UNL     1       1.782  -8.649   2.414  1.00  0.00    -0.167 F 
ATOM     28  F   UNL     1       2.307  -6.660   3.096  1.00  0.00    -0.167 F 
ENDBRANCH  17  25
ENDBRANCH   4   7
ENDBRANCH   2   3
ENDBRANCH   1   2
BRANCH   1  29
ATOM     29  C   UNL     1      -2.652 -11.667   1.359  1.00  0.00     0.023 C 
BRANCH  29  30
ATOM     30  C   UNL     1      -1.811 -12.932   1.507  1.00  0.00     0.116 C 
BRANCH  30  31
ATOM     31  N   UNL     1      -1.448 -13.249   2.883  1.00  0.00    -0.352 N 
ATOM     32  C   UNL     1      -1.266 -14.499   3.434  1.00  0.00     0.251 C 
ATOM     33  H   UNL     1      -1.318 -12.483   3.488  1.00  0.00     0.163 HD
ATOM     34  O   UNL     1      -0.999 -14.634   4.622  1.00  0.00    -0.269 OA
BRANCH  32  35
ATOM     35  C   UNL     1      -1.460 -15.665   2.555  1.00  0.00     0.039 A 
ATOM     36  C   UNL     1      -0.705 -15.777   1.384  1.00  0.00     0.014 A 
ATOM     37  C   UNL     1      -2.523 -16.531   2.815  1.00  0.00     0.014 A 
ATOM     38  C   UNL     1      -1.127 -16.650   0.390  1.00  0.00     0.010 A 
ATOM     39  C   UNL     1      -2.901 -17.452   1.839  1.00  0.00     0.010 A 
ATOM     40  C   UNL     1      -2.248 -17.472   0.596  1.00  0.00    -0.014 A 
BRANCH  40  41
ATOM     41  C   UNL     1      -2.765 -18.310  -0.513  1.00  0.00     0.031 A 
ATOM     42  C   UNL     1      -4.118 -18.030  -1.111  1.00  0.00     0.074 A 
ATOM     43  C   UNL     1      -2.004 -19.307  -1.000  1.00  0.00     0.049 A 
ATOM     44  N   UNL     1      -4.765 -18.701  -2.029  1.00  0.00    -0.248 NA
ATOM     45  C   UNL     1      -4.841 -16.845  -0.617  1.00  0.00     0.031 C 
ATOM     46  C   UNL     1      -0.670 -19.663  -0.513  1.00  0.00     0.029 A 
ATOM     47  N   UNL     1      -2.242 -20.200  -2.011  1.00  0.00    -0.354 N 
ATOM     48  C   UNL     1      -5.986 -18.055  -2.186  1.00  0.00     0.074 A 
ATOM     49  C   UNL     1      -5.990 -16.930  -1.277  1.00  0.00     0.031 C 
ATOM     50  C   UNL     1      -0.197 -20.684  -1.243  1.00  0.00     0.029 A 
ATOM     51  C   UNL     1      -1.214 -21.090  -2.207  1.00  0.00     0.049 A 
ATOM     52  H   UNL     1      -3.069 -20.204  -2.545  1.00  0.00     0.167 HD
ATOM     53  C   UNL     1      -7.003 -18.363  -3.024  1.00  0.00     0.034 A 
ATOM     54  C   UNL     1      -1.110 -22.132  -3.052  1.00  0.00     0.034 A 
ATOM     55  C   UNL     1      -6.974 -19.442  -3.973  1.00  0.00     0.049 A 
ATOM     56  C   UNL     1      -2.255 -22.455  -3.966  1.00  0.00     0.074 A 
ATOM     57  C   UNL     1      -7.947 -19.810  -4.886  1.00  0.00     0.029 A 
ATOM     58  N   UNL     1      -5.914 -20.319  -4.140  1.00  0.00    -0.354 N 
ATOM     59  N   UNL     1      -3.386 -21.813  -4.123  1.00  0.00    -0.248 NA
ATOM     60  C   UNL     1      -2.110 -23.644  -4.817  1.00  0.00     0.031 C 
ATOM     61  C   UNL     1      -7.471 -20.909  -5.610  1.00  0.00     0.029 A 
ATOM     62  C   UNL     1      -6.206 -21.226  -5.143  1.00  0.00     0.049 A 
ATOM     63  H   UNL     1      -5.077 -20.299  -3.622  1.00  0.00     0.167 HD
ATOM     64  C   UNL     1      -4.092 -22.520  -5.087  1.00  0.00     0.074 A 
ATOM     65  C   UNL     1      -3.246 -23.621  -5.503  1.00  0.00     0.031 C 
ATOM     66  C   UNL     1      -5.340 -22.294  -5.565  1.00  0.00     0.034 A 
BRANCH  53  67
ATOM     67  C   UNL     1      -8.227 -17.490  -2.995  1.00  0.00     0.023 A 
ATOM     68  C   UNL     1      -8.225 -16.282  -3.718  1.00  0.00     0.012 A 
ATOM     69  C   UNL     1      -9.399 -17.904  -2.332  1.00  0.00     0.148 A 
ATOM     70  C   UNL     1      -9.372 -15.491  -3.778  1.00  0.00     0.002 A 
ATOM     71  C   UNL     1     -10.546 -17.122  -2.415  1.00  0.00     0.091 A 
ATOM     72  F   UNL     1      -9.368 -19.049  -1.636  1.00  0.00    -0.205 F 
ATOM     73  C   UNL     1     -10.533 -15.915  -3.135  1.00  0.00     0.022 A 
BRANCH  71  74
ATOM     74  S   UNL     1     -12.106 -17.596  -1.661  1.00  0.00     0.127 S 
ATOM     75  O   UNL     1     -12.250 -16.578  -0.621  1.00  0.00    -0.237 OA
ATOM     76  O   UNL     1     -13.040 -17.463  -2.778  1.00  0.00    -0.237 OA
ATOM     77  O   UNL     1     -11.922 -18.956  -1.176  1.00  0.00    -0.744 OA
ENDBRANCH  71  74
ENDBRANCH  53  67
BRANCH  54  78
ATOM     78  C   UNL     1       0.149 -22.921  -3.076  1.00  0.00     0.023 A 
ATOM     79  C   UNL     1       1.046 -22.748  -4.146  1.00  0.00     0.012 A 
ATOM     80  C   UNL     1       0.500 -23.767  -2.006  1.00  0.00     0.148 A 
ATOM     81  C   UNL     1       2.275 -23.406  -4.151  1.00  0.00     0.002 A 
ATOM     82  C   UNL     1       1.745 -24.382  -1.995  1.00  0.00     0.091 A 
ATOM     83  F   UNL     1      -0.379 -23.921  -1.006  1.00  0.00    -0.205 F 
ATOM     84  C   UNL     1       2.630 -24.211  -3.071  1.00  0.00     0.022 A 
BRANCH  82  85
ATOM     85  S   UNL     1       2.338 -25.335  -0.593  1.00  0.00     0.127 S 
ATOM     86  O   UNL     1       2.391 -26.684  -1.150  1.00  0.00    -0.237 OA
ATOM     87  O   UNL     1       3.642 -24.719  -0.343  1.00  0.00    -0.237 OA
ATOM     88  O   UNL     1       1.361 -25.129   0.467  1.00  0.00    -0.744 OA
ENDBRANCH  82  85
ENDBRANCH  54  78
BRANCH  66  89
ATOM     89  C   UNL     1      -5.880 -23.267  -6.574  1.00  0.00     0.023 A 
ATOM     90  C   UNL     1      -6.406 -24.493  -6.123  1.00  0.00     0.012 A 
ATOM     91  C   UNL     1      -5.943 -22.941  -7.941  1.00  0.00     0.148 A 
ATOM     92  C   UNL     1      -6.977 -25.390  -7.024  1.00  0.00     0.002 A 
ATOM     93  C   UNL     1      -6.541 -23.828  -8.829  1.00  0.00     0.091 A 
ATOM     94  F   UNL     1      -5.416 -21.776  -8.348  1.00  0.00    -0.205 F 
ATOM     95  C   UNL     1      -7.054 -25.053  -8.374  1.00  0.00     0.022 A 
BRANCH  93  96
ATOM     96  S   UNL     1      -6.742 -23.443 -10.573  1.00  0.00     0.127 S 
ATOM     97  O   UNL     1      -5.678 -24.242 -11.179  1.00  0.00    -0.237 OA
ATOM     98  O   UNL     1      -8.097 -23.923 -10.847  1.00  0.00    -0.237 OA
ATOM     99  O   UNL     1      -6.584 -21.999 -10.680  1.00  0.00    -0.744 OA
ENDBRANCH  93  96
ENDBRANCH  66  89
ENDBRANCH  40  41
ENDBRANCH  32  35
ENDBRANCH  30  31
ENDBRANCH  29  30
ENDBRANCH   1  29
TORSDOF 20
