REMARK SMILES O=C(NCCCCNC(=O)[C@H]1[NH2+][C@@H]2CC[C@H]1CC2(F)F)c1ccc(-c2c3nc(c(-c4cccc(S(=O)(=O)[O-])c4F)c4ccc([nH]4)c(-c4cccc(S(=O)(=O)[O-])c4F)c4nc(c(-c5cccc(S(=O)(=O)[O-])c5F)c5ccc2[nH]5)C=C4)C=C3)cc1
REMARK SMILES IDX 4 1 3 2 1 3 2 4 21 6 22 7 83 8 23 9 82 10 24 11 25 12 26 13
REMARK SMILES IDX 76 14 27 15 81 16 75 17 77 18 28 19 80 20 74 21 73 22 29 24
REMARK SMILES IDX 61 25 41 26 60 27 42 28 45 29 59 30 78 31 43 32 44 33 58 35
REMARK SMILES IDX 79 36 46 37 30 38 31 39 39 40 32 41 34 42 40 43 33 44 35 45
REMARK SMILES IDX 36 46 37 47 38 48 62 49 63 50 71 51 64 52 66 53 72 54 65 55
REMARK SMILES IDX 67 56 68 57 69 58 70 59 47 60 48 61 56 62 49 63 51 64 57 65
REMARK SMILES IDX 50 66 52 67 53 68 54 69 55 70 5 71 6 72 7 73 8 74 9 75 10 77
REMARK SMILES IDX 11 78 12 79 16 80 13 81 15 84 17 85 14 86 18 87 19 88 20 89
REMARK H PARENT 3 5 77 23 45 34 8 76 12 82 12 83
REMARK Flexibility Score: inf
ROOT
ATOM      1  C   UNL     1       9.709   7.156  -8.106  1.00  0.00     0.116 C 
ENDROOT
BRANCH   1   2
ATOM      2  N   UNL     1      10.579   8.296  -7.863  1.00  0.00    -0.352 N 
ATOM      3  O   UNL     1      12.172   9.830  -8.302  1.00  0.00    -0.269 OA
ATOM      4  C   UNL     1      11.389   8.989  -8.736  1.00  0.00     0.251 C 
ATOM      5  H   UNL     1      10.592   8.622  -6.934  1.00  0.00     0.163 HD
BRANCH   4   6
ATOM      6  C   UNL     1      11.338   8.693 -10.186  1.00  0.00     0.039 A 
ATOM      7  C   UNL     1      10.113   8.530 -10.831  1.00  0.00     0.014 A 
ATOM      8  C   UNL     1      12.528   8.559 -10.908  1.00  0.00     0.014 A 
ATOM      9  C   UNL     1      10.079   8.041 -12.130  1.00  0.00     0.010 A 
ATOM     10  C   UNL     1      12.488   8.177 -12.254  1.00  0.00     0.010 A 
ATOM     11  C   UNL     1      11.265   7.869 -12.866  1.00  0.00    -0.014 A 
BRANCH  11  12
ATOM     12  C   UNL     1      11.164   7.434 -14.286  1.00  0.00     0.031 A 
ATOM     13  C   UNL     1      11.762   6.139 -14.767  1.00  0.00     0.074 A 
ATOM     14  C   UNL     1      10.464   8.210 -15.139  1.00  0.00     0.049 A 
ATOM     15  N   UNL     1      11.668   5.584 -15.950  1.00  0.00    -0.248 NA
ATOM     16  C   UNL     1      12.575   5.368 -13.813  1.00  0.00     0.031 C 
ATOM     17  C   UNL     1       9.891   9.517 -14.804  1.00  0.00     0.029 A 
ATOM     18  N   UNL     1      10.094   8.012 -16.444  1.00  0.00    -0.354 N 
ATOM     19  C   UNL     1      12.432   4.424 -15.895  1.00  0.00     0.074 A 
ATOM     20  C   UNL     1      12.994   4.356 -14.563  1.00  0.00     0.031 C 
ATOM     21  C   UNL     1       9.197   9.976 -15.853  1.00  0.00     0.029 A 
ATOM     22  C   UNL     1       9.319   9.028 -16.953  1.00  0.00     0.049 A 
ATOM     23  H   UNL     1      10.358   7.220 -16.966  1.00  0.00     0.167 HD
ATOM     24  C   UNL     1      12.629   3.492 -16.859  1.00  0.00     0.034 A 
ATOM     25  C   UNL     1       8.766   9.185 -18.171  1.00  0.00     0.034 A 
ATOM     26  C   UNL     1      12.035   3.543 -18.170  1.00  0.00     0.049 A 
ATOM     27  C   UNL     1       8.949   8.104 -19.194  1.00  0.00     0.074 A 
ATOM     28  C   UNL     1      12.146   2.626 -19.202  1.00  0.00     0.029 A 
ATOM     29  N   UNL     1      11.214   4.561 -18.631  1.00  0.00    -0.354 N 
ATOM     30  N   UNL     1       9.581   6.961 -19.079  1.00  0.00    -0.248 NA
ATOM     31  C   UNL     1       8.324   8.320 -20.506  1.00  0.00     0.031 C 
ATOM     32  C   UNL     1      11.395   3.092 -20.287  1.00  0.00     0.029 A 
ATOM     33  C   UNL     1      10.809   4.294 -19.929  1.00  0.00     0.049 A 
ATOM     34  H   UNL     1      10.956   5.356 -18.111  1.00  0.00     0.167 HD
ATOM     35  C   UNL     1       9.428   6.319 -20.301  1.00  0.00     0.074 A 
ATOM     36  C   UNL     1       8.601   7.179 -21.123  1.00  0.00     0.031 C 
ATOM     37  C   UNL     1       9.954   5.142 -20.718  1.00  0.00     0.034 A 
BRANCH  24  38
ATOM     38  C   UNL     1      13.481   2.294 -16.522  1.00  0.00     0.023 A 
ATOM     39  C   UNL     1      12.940   1.271 -15.717  1.00  0.00     0.012 A 
ATOM     40  C   UNL     1      14.768   2.132 -17.073  1.00  0.00     0.148 A 
ATOM     41  C   UNL     1      13.672   0.114 -15.451  1.00  0.00     0.002 A 
ATOM     42  C   UNL     1      15.478   0.960 -16.831  1.00  0.00     0.091 A 
ATOM     43  F   UNL     1      15.272   3.123 -17.822  1.00  0.00    -0.205 F 
ATOM     44  C   UNL     1      14.934  -0.046 -16.016  1.00  0.00     0.022 A 
BRANCH  42  45
ATOM     45  S   UNL     1      17.082   0.624 -17.569  1.00  0.00     0.127 S 
ATOM     46  O   UNL     1      17.966   0.722 -16.408  1.00  0.00    -0.237 OA
ATOM     47  O   UNL     1      16.906  -0.732 -18.088  1.00  0.00    -0.237 OA
ATOM     48  O   UNL     1      17.276   1.645 -18.589  1.00  0.00    -0.744 OA
ENDBRANCH  42  45
ENDBRANCH  24  38
BRANCH  25  49
ATOM     49  C   UNL     1       7.949  10.398 -18.457  1.00  0.00     0.023 A 
ATOM     50  C   UNL     1       6.559  10.277 -18.637  1.00  0.00     0.012 A 
ATOM     51  C   UNL     1       8.536  11.678 -18.489  1.00  0.00     0.148 A 
ATOM     52  C   UNL     1       5.771  11.407 -18.865  1.00  0.00     0.002 A 
ATOM     53  C   UNL     1       7.737  12.804 -18.649  1.00  0.00     0.091 A 
ATOM     54  F   UNL     1       9.865  11.776 -18.341  1.00  0.00    -0.205 F 
ATOM     55  C   UNL     1       6.357  12.671 -18.854  1.00  0.00     0.022 A 
BRANCH  53  56
ATOM     56  S   UNL     1       8.416  14.457 -18.471  1.00  0.00     0.127 S 
ATOM     57  O   UNL     1       8.706  14.816 -19.856  1.00  0.00    -0.237 OA
ATOM     58  O   UNL     1       7.304  15.191 -17.864  1.00  0.00    -0.237 OA
ATOM     59  O   UNL     1       9.566  14.295 -17.590  1.00  0.00    -0.744 OA
ENDBRANCH  53  56
ENDBRANCH  25  49
BRANCH  37  60
ATOM     60  C   UNL     1       9.655   4.726 -22.133  1.00  0.00     0.023 A 
ATOM     61  C   UNL     1      10.297   5.391 -23.196  1.00  0.00     0.012 A 
ATOM     62  C   UNL     1       8.774   3.664 -22.411  1.00  0.00     0.148 A 
ATOM     63  C   UNL     1      10.038   5.031 -24.517  1.00  0.00     0.002 A 
ATOM     64  C   UNL     1       8.552   3.284 -23.730  1.00  0.00     0.091 A 
ATOM     65  F   UNL     1       8.153   3.059 -21.388  1.00  0.00    -0.205 F 
ATOM     66  C   UNL     1       9.174   3.973 -24.784  1.00  0.00     0.022 A 
BRANCH  64  67
ATOM     67  S   UNL     1       7.514   1.880 -24.151  1.00  0.00     0.127 S 
ATOM     68  O   UNL     1       6.259   2.534 -24.516  1.00  0.00    -0.237 OA
ATOM     69  O   UNL     1       8.236   1.277 -25.273  1.00  0.00    -0.237 OA
ATOM     70  O   UNL     1       7.471   1.051 -22.953  1.00  0.00    -0.744 OA
ENDBRANCH  64  67
ENDBRANCH  37  60
ENDBRANCH  11  12
ENDBRANCH   4   6
ENDBRANCH   1   2
BRANCH   1  71
ATOM     71  C   UNL     1      10.211   5.873  -7.456  1.00  0.00     0.023 C 
BRANCH  71  72
ATOM     72  C   UNL     1      10.199   5.864  -5.929  1.00  0.00     0.023 C 
BRANCH  72  73
ATOM     73  C   UNL     1       8.899   6.323  -5.274  1.00  0.00     0.116 C 
BRANCH  73  74
ATOM     74  N   UNL     1       7.728   5.598  -5.734  1.00  0.00    -0.351 N 
ATOM     75  C   UNL     1       6.531   5.436  -5.092  1.00  0.00     0.278 C 
ATOM     76  H   UNL     1       7.805   5.170  -6.617  1.00  0.00     0.163 HD
ATOM     77  O   UNL     1       5.631   4.834  -5.679  1.00  0.00    -0.268 OA
BRANCH  75  78
ATOM     78  C   UNL     1       6.370   5.962  -3.648  1.00  0.00     0.276 C 
ATOM     79  N   UNL     1       6.710   7.415  -3.546  1.00  0.00    -0.328 N 
ATOM     80  C   UNL     1       4.959   5.689  -3.058  1.00  0.00     0.064 C 
ATOM     81  C   UNL     1       5.677   8.131  -2.749  1.00  0.00     0.253 C 
ATOM     82  H   UNL     1       6.752   7.817  -4.482  1.00  0.00     0.347 HD
ATOM     83  H   UNL     1       7.614   7.512  -3.083  1.00  0.00     0.347 HD
ATOM     84  C   UNL     1       5.028   6.016  -1.554  1.00  0.00     0.017 C 
ATOM     85  C   UNL     1       3.902   6.624  -3.697  1.00  0.00     0.094 C 
ATOM     86  C   UNL     1       5.548   7.449  -1.376  1.00  0.00     0.072 C 
ATOM     87  C   UNL     1       4.315   8.077  -3.475  1.00  0.00     0.298 C 
ATOM     88  F   UNL     1       3.371   8.733  -2.759  1.00  0.00    -0.200 F 
ATOM     89  F   UNL     1       4.413   8.714  -4.670  1.00  0.00    -0.200 F 
ENDBRANCH  75  78
ENDBRANCH  73  74
ENDBRANCH  72  73
ENDBRANCH  71  72
ENDBRANCH   1  71
TORSDOF 14
