REMARK SMILES CC(C)(O)CC[NH2+]CC(=O)NCCCCNC(=O)c1ccc(-c2c3nc(c(-c4cccc(S(=O)(=O)[O-])c4F)c4ccc([nH]4)c(-c4cccc(S(=O)(=O)[O-])c4F)c4nc(c(-c5cccc(S(=O)(=O)[O-])c5F)c5ccc2[nH]5)C=C4)C=C3)cc1
REMARK SMILES IDX 12 1 11 2 9 3 10 4 8 6 7 7 6 10 5 11 2 12 1 13 3 14 4 15
REMARK SMILES IDX 13 17 14 18 15 19 16 20 17 21 18 23 19 24 20 25 81 26 21 27
REMARK SMILES IDX 80 28 22 29 23 30 24 31 74 32 25 33 79 34 73 35 75 36 26 37
REMARK SMILES IDX 78 38 72 39 71 40 27 42 59 43 39 44 58 45 40 46 43 47 57 48
REMARK SMILES IDX 76 49 41 50 42 51 56 53 77 54 44 55 28 56 29 57 37 58 30 59
REMARK SMILES IDX 32 60 38 61 31 62 33 63 34 64 35 65 36 66 60 67 61 68 69 69
REMARK SMILES IDX 62 70 64 71 70 72 63 73 65 74 66 75 67 76 68 77 45 78 46 79
REMARK SMILES IDX 54 80 47 81 49 82 55 83 48 84 50 85 51 86 52 87 53 88
REMARK H PARENT 11 5 7 8 7 9 4 16 16 22 75 41 43 52
REMARK Flexibility Score: inf
ROOT
ATOM      1  C   UNL     1      -1.405  -0.284   4.463  1.00  0.00     0.116 C 
ENDROOT
BRANCH   1   2
ATOM      2  N   UNL     1      -1.651  -1.428   3.600  1.00  0.00    -0.351 N 
ATOM      3  C   UNL     1      -0.770  -2.277   2.987  1.00  0.00     0.275 C 
ATOM      4  O   UNL     1      -1.217  -3.094   2.175  1.00  0.00    -0.269 OA
ATOM      5  H   UNL     1      -2.600  -1.622   3.429  1.00  0.00     0.163 HD
BRANCH   3   6
ATOM      6  C   UNL     1       0.742  -2.220   3.280  1.00  0.00     0.361 C 
BRANCH   6   7
ATOM      7  N   UNL     1       1.496  -1.480   2.229  1.00  0.00    -0.338 N 
ATOM      8  H   UNL     1       2.489  -1.696   2.308  1.00  0.00     0.346 HD
ATOM      9  H   UNL     1       1.158  -1.760   1.308  1.00  0.00     0.346 HD
BRANCH   7  10
ATOM     10  C   UNL     1       1.295  -0.045   2.403  1.00  0.00     0.263 C 
BRANCH  10  11
ATOM     11  C   UNL     1       1.846   0.922   1.354  1.00  0.00     0.096 C 
BRANCH  11  12
ATOM     12  C   UNL     1       1.019   1.086   0.057  1.00  0.00     0.064 C 
ATOM     13  C   UNL     1       1.205  -0.091  -0.897  1.00  0.00     0.042 C 
ATOM     14  C   UNL     1       1.409   2.399  -0.632  1.00  0.00     0.042 C 
BRANCH  12  15
ATOM     15  O   UNL     1      -0.368   1.195   0.380  1.00  0.00    -0.390 OA
ATOM     16  H   UNL     1      -0.883   1.297  -0.435  1.00  0.00     0.211 HD
ENDBRANCH  12  15
ENDBRANCH  11  12
ENDBRANCH  10  11
ENDBRANCH   7  10
ENDBRANCH   6   7
ENDBRANCH   3   6
ENDBRANCH   1   2
BRANCH   1  17
ATOM     17  C   UNL     1      -1.664   1.045   3.741  1.00  0.00     0.023 C 
BRANCH  17  18
ATOM     18  C   UNL     1      -3.108   1.511   3.700  1.00  0.00     0.023 C 
BRANCH  18  19
ATOM     19  C   UNL     1      -3.680   1.903   5.045  1.00  0.00     0.116 C 
BRANCH  19  20
ATOM     20  N   UNL     1      -2.937   2.968   5.709  1.00  0.00    -0.352 N 
ATOM     21  C   UNL     1      -3.432   4.057   6.392  1.00  0.00     0.251 C 
ATOM     22  H   UNL     1      -1.956   2.900   5.662  1.00  0.00     0.163 HD
ATOM     23  O   UNL     1      -2.681   4.921   6.821  1.00  0.00    -0.269 OA
BRANCH  21  24
ATOM     24  C   UNL     1      -4.896   4.177   6.555  1.00  0.00     0.039 A 
ATOM     25  C   UNL     1      -5.523   5.374   6.207  1.00  0.00     0.014 A 
ATOM     26  C   UNL     1      -5.646   3.069   6.954  1.00  0.00     0.014 A 
ATOM     27  C   UNL     1      -6.917   5.432   6.183  1.00  0.00     0.010 A 
ATOM     28  C   UNL     1      -7.025   3.097   6.823  1.00  0.00     0.010 A 
ATOM     29  C   UNL     1      -7.677   4.281   6.450  1.00  0.00    -0.014 A 
BRANCH  29  30
ATOM     30  C   UNL     1      -9.157   4.284   6.365  1.00  0.00     0.031 A 
ATOM     31  C   UNL     1      -9.970   3.952   7.588  1.00  0.00     0.074 A 
ATOM     32  C   UNL     1      -9.762   4.471   5.175  1.00  0.00     0.049 A 
ATOM     33  N   UNL     1     -11.262   3.803   7.703  1.00  0.00    -0.248 NA
ATOM     34  C   UNL     1      -9.226   3.710   8.837  1.00  0.00     0.031 C 
ATOM     35  C   UNL     1      -9.077   4.696   3.900  1.00  0.00     0.029 A 
ATOM     36  N   UNL     1     -11.092   4.469   4.840  1.00  0.00    -0.354 N 
ATOM     37  C   UNL     1     -11.480   3.405   9.017  1.00  0.00     0.074 A 
ATOM     38  C   UNL     1     -10.184   3.288   9.647  1.00  0.00     0.031 C 
ATOM     39  C   UNL     1      -9.991   4.820   2.924  1.00  0.00     0.029 A 
ATOM     40  C   UNL     1     -11.324   4.660   3.497  1.00  0.00     0.049 A 
ATOM     41  H   UNL     1     -11.813   4.343   5.498  1.00  0.00     0.167 HD
ATOM     42  C   UNL     1     -12.654   3.198   9.656  1.00  0.00     0.034 A 
ATOM     43  C   UNL     1     -12.482   4.703   2.809  1.00  0.00     0.034 A 
ATOM     44  C   UNL     1     -13.939   3.392   9.046  1.00  0.00     0.049 A 
ATOM     45  C   UNL     1     -13.777   4.560   3.561  1.00  0.00     0.074 A 
ATOM     46  C   UNL     1     -15.190   3.315   9.630  1.00  0.00     0.029 A 
ATOM     47  N   UNL     1     -14.136   3.713   7.712  1.00  0.00    -0.354 N 
ATOM     48  N   UNL     1     -13.968   4.351   4.842  1.00  0.00    -0.248 NA
ATOM     49  C   UNL     1     -15.017   4.701   2.784  1.00  0.00     0.031 C 
ATOM     50  C   UNL     1     -16.146   3.586   8.645  1.00  0.00     0.029 A 
ATOM     51  C   UNL     1     -15.488   3.841   7.452  1.00  0.00     0.049 A 
ATOM     52  H   UNL     1     -13.419   3.831   7.048  1.00  0.00     0.167 HD
ATOM     53  C   UNL     1     -15.345   4.366   5.030  1.00  0.00     0.074 A 
ATOM     54  C   UNL     1     -15.940   4.629   3.735  1.00  0.00     0.031 C 
ATOM     55  C   UNL     1     -16.055   4.163   6.167  1.00  0.00     0.034 A 
BRANCH  42  56
ATOM     56  C   UNL     1     -12.594   2.817  11.112  1.00  0.00     0.023 A 
ATOM     57  C   UNL     1     -12.195   3.781  12.062  1.00  0.00     0.012 A 
ATOM     58  C   UNL     1     -12.958   1.529  11.546  1.00  0.00     0.148 A 
ATOM     59  C   UNL     1     -12.120   3.458  13.415  1.00  0.00     0.002 A 
ATOM     60  C   UNL     1     -12.924   1.227  12.904  1.00  0.00     0.091 A 
ATOM     61  F   UNL     1     -13.309   0.617  10.628  1.00  0.00    -0.205 F 
ATOM     62  C   UNL     1     -12.494   2.185  13.837  1.00  0.00     0.022 A 
BRANCH  60  63
ATOM     63  S   UNL     1     -13.458  -0.360  13.554  1.00  0.00     0.127 S 
ATOM     64  O   UNL     1     -12.181  -0.986  13.891  1.00  0.00    -0.237 OA
ATOM     65  O   UNL     1     -14.267   0.034  14.708  1.00  0.00    -0.237 OA
ATOM     66  O   UNL     1     -14.207  -0.998  12.480  1.00  0.00    -0.744 OA
ENDBRANCH  60  63
ENDBRANCH  42  56
BRANCH  43  67
ATOM     67  C   UNL     1     -12.466   4.986   1.346  1.00  0.00     0.023 A 
ATOM     68  C   UNL     1     -12.905   6.243   0.885  1.00  0.00     0.012 A 
ATOM     69  C   UNL     1     -11.982   4.046   0.416  1.00  0.00     0.148 A 
ATOM     70  C   UNL     1     -12.890   6.549  -0.476  1.00  0.00     0.002 A 
ATOM     71  C   UNL     1     -11.922   4.376  -0.934  1.00  0.00     0.091 A 
ATOM     72  F   UNL     1     -11.579   2.851   0.871  1.00  0.00    -0.205 F 
ATOM     73  C   UNL     1     -12.389   5.620  -1.384  1.00  0.00     0.022 A 
BRANCH  71  74
ATOM     74  S   UNL     1     -11.170   3.293  -2.155  1.00  0.00     0.127 S 
ATOM     75  O   UNL     1     -12.340   2.782  -2.864  1.00  0.00    -0.237 OA
ATOM     76  O   UNL     1     -10.343   4.225  -2.922  1.00  0.00    -0.237 OA
ATOM     77  O   UNL     1     -10.410   2.313  -1.390  1.00  0.00    -0.744 OA
ENDBRANCH  71  74
ENDBRANCH  43  67
BRANCH  55  78
ATOM     78  C   UNL     1     -17.555   4.242   6.077  1.00  0.00     0.023 A 
ATOM     79  C   UNL     1     -18.271   3.184   5.483  1.00  0.00     0.012 A 
ATOM     80  C   UNL     1     -18.256   5.316   6.659  1.00  0.00     0.148 A 
ATOM     81  C   UNL     1     -19.665   3.207   5.447  1.00  0.00     0.002 A 
ATOM     82  C   UNL     1     -19.646   5.309   6.659  1.00  0.00     0.091 A 
ATOM     83  F   UNL     1     -17.554   6.321   7.201  1.00  0.00    -0.205 F 
ATOM     84  C   UNL     1     -20.351   4.261   6.046  1.00  0.00     0.022 A 
BRANCH  82  85
ATOM     85  S   UNL     1     -20.608   6.579   7.490  1.00  0.00     0.127 S 
ATOM     86  O   UNL     1     -21.080   7.381   6.362  1.00  0.00    -0.237 OA
ATOM     87  O   UNL     1     -21.648   5.796   8.159  1.00  0.00    -0.237 OA
ATOM     88  O   UNL     1     -19.685   7.249   8.396  1.00  0.00    -0.744 OA
ENDBRANCH  82  85
ENDBRANCH  55  78
ENDBRANCH  29  30
ENDBRANCH  21  24
ENDBRANCH  19  20
ENDBRANCH  18  19
ENDBRANCH  17  18
ENDBRANCH   1  17
TORSDOF 19
