REMARK SMILES Nc1c(N2CCC(C(=O)NCCCCNC(=O)c3ccc(-c4c5nc(c(-c6cccc(S(=O)(=O)[O-])c6F)c6ccc([nH]6)c(-c6cccc(S(=O)(=O)[O-])c6F)c6nc(c(-c7cccc(S(=O)(=O)[O-])c7F)c7ccc4[nH]7)C=C6)C=C5)cc3)CC2)ncnc1N1CCN(c2ccccc2)CC1
REMARK SMILES IDX 12 1 11 2 10 3 8 4 9 5 7 7 4 8 5 9 82 10 6 11 81 12 3 13
REMARK SMILES IDX 2 14 86 15 83 16 85 17 84 18 1 19 87 22 88 23 98 24 89 25
REMARK SMILES IDX 97 26 90 27 91 28 92 29 96 30 93 31 95 32 94 33 13 34 14 35
REMARK SMILES IDX 15 36 16 37 17 39 18 40 19 41 80 42 20 43 79 44 21 45 22 46
REMARK SMILES IDX 23 47 73 48 24 49 78 50 72 51 74 52 25 53 77 54 71 55 70 56
REMARK SMILES IDX 26 58 58 59 38 60 57 61 39 62 42 63 56 64 75 65 40 66 41 67
REMARK SMILES IDX 55 69 76 70 43 71 27 72 28 73 36 74 29 75 31 76 37 77 30 78
REMARK SMILES IDX 32 79 33 80 34 81 35 82 59 83 60 84 68 85 61 86 63 87 69 88
REMARK SMILES IDX 62 89 64 90 65 91 66 92 67 93 44 94 45 95 53 96 46 97 48 98
REMARK SMILES IDX 54 99 47 100 49 101 50 102 51 103 52 104
REMARK H PARENT 10 6 1 20 1 21 15 38 74 57 42 68
REMARK Flexibility Score: inf
ROOT
ATOM      1  C   UNL     1      -4.344   5.083  -0.967  1.00  0.00     0.023 C 
ENDROOT
BRANCH   1   2
ATOM      2  C   UNL     1      -3.119   5.247  -0.072  1.00  0.00     0.116 C 
BRANCH   2   3
ATOM      3  N   UNL     1      -3.483   5.468   1.317  1.00  0.00    -0.356 N 
ATOM      4  C   UNL     1      -3.316   4.682   2.415  1.00  0.00     0.223 C 
ATOM      5  O   UNL     1      -3.710   5.109   3.503  1.00  0.00    -0.275 OA
ATOM      6  H   UNL     1      -3.924   6.330   1.493  1.00  0.00     0.163 HD
BRANCH   4   7
ATOM      7  C   UNL     1      -2.632   3.327   2.334  1.00  0.00     0.082 C 
ATOM      8  N   UNL     1      -1.242   1.312   0.880  1.00  0.00    -0.355 N 
ATOM      9  C   UNL     1      -2.630   1.049   1.205  1.00  0.00     0.119 C 
ATOM     10  C   UNL     1      -0.463   2.151   1.781  1.00  0.00     0.119 C 
ATOM     11  C   UNL     1      -3.397   2.339   1.445  1.00  0.00     0.035 C 
ATOM     12  C   UNL     1      -1.146   3.490   2.000  1.00  0.00     0.035 C 
BRANCH   8  13
ATOM     13  C   UNL     1      -0.810   1.172  -0.438  1.00  0.00     0.157 A 
ATOM     14  C   UNL     1       0.414   0.531  -0.679  1.00  0.00     0.118 A 
ATOM     15  C   UNL     1       0.846   0.467  -2.013  1.00  0.00     0.157 A 
ATOM     16  N   UNL     1      -1.550   1.683  -1.437  1.00  0.00    -0.217 NA
ATOM     17  N   UNL     1       0.153   1.033  -3.012  1.00  0.00    -0.217 NA
ATOM     18  C   UNL     1      -1.020   1.590  -2.670  1.00  0.00     0.226 A 
BRANCH  14  19
ATOM     19  N   UNL     1       1.132  -0.105   0.355  1.00  0.00    -0.393 N 
ATOM     20  H   UNL     1       0.811  -0.048   1.284  1.00  0.00     0.156 HD
ATOM     21  H   UNL     1       1.953  -0.607   0.148  1.00  0.00     0.156 HD
ENDBRANCH  14  19
BRANCH  15  22
ATOM     22  N   UNL     1       2.053  -0.154  -2.283  1.00  0.00    -0.351 N 
ATOM     23  C   UNL     1       2.986   0.436  -3.237  1.00  0.00     0.139 C 
ATOM     24  C   UNL     1       2.145  -1.612  -2.146  1.00  0.00     0.139 C 
ATOM     25  C   UNL     1       4.427   0.106  -2.769  1.00  0.00     0.138 C 
ATOM     26  C   UNL     1       3.572  -1.991  -1.694  1.00  0.00     0.138 C 
ATOM     27  N   UNL     1       4.588  -1.349  -2.557  1.00  0.00    -0.368 N 
BRANCH  27  28
ATOM     28  C   UNL     1       5.841  -1.932  -2.612  1.00  0.00     0.037 A 
ATOM     29  C   UNL     1       7.003  -1.282  -2.179  1.00  0.00     0.026 A 
ATOM     30  C   UNL     1       5.976  -3.220  -3.150  1.00  0.00     0.026 A 
ATOM     31  C   UNL     1       8.257  -1.893  -2.291  1.00  0.00     0.002 A 
ATOM     32  C   UNL     1       7.225  -3.830  -3.278  1.00  0.00     0.002 A 
ATOM     33  C   UNL     1       8.368  -3.164  -2.849  1.00  0.00     0.000 A 
ENDBRANCH  27  28
ENDBRANCH  15  22
ENDBRANCH   8  13
ENDBRANCH   4   7
ENDBRANCH   2   3
ENDBRANCH   1   2
BRANCH   1  34
ATOM     34  C   UNL     1      -5.181   6.349  -1.137  1.00  0.00     0.023 C 
BRANCH  34  35
ATOM     35  C   UNL     1      -4.409   7.576  -1.606  1.00  0.00     0.116 C 
BRANCH  35  36
ATOM     36  N   UNL     1      -3.676   7.351  -2.845  1.00  0.00    -0.352 N 
ATOM     37  C   UNL     1      -3.606   8.154  -3.957  1.00  0.00     0.251 C 
ATOM     38  H   UNL     1      -3.163   6.512  -2.891  1.00  0.00     0.163 HD
ATOM     39  O   UNL     1      -3.033   7.764  -4.971  1.00  0.00    -0.269 OA
BRANCH  37  40
ATOM     40  C   UNL     1      -4.257   9.479  -3.929  1.00  0.00     0.039 A 
ATOM     41  C   UNL     1      -5.138   9.820  -4.956  1.00  0.00     0.014 A 
ATOM     42  C   UNL     1      -4.033  10.354  -2.862  1.00  0.00     0.014 A 
ATOM     43  C   UNL     1      -5.852  11.017  -4.878  1.00  0.00     0.010 A 
ATOM     44  C   UNL     1      -4.794  11.512  -2.753  1.00  0.00     0.010 A 
ATOM     45  C   UNL     1      -5.710  11.855  -3.759  1.00  0.00    -0.014 A 
BRANCH  45  46
ATOM     46  C   UNL     1      -6.518  13.090  -3.616  1.00  0.00     0.031 A 
ATOM     47  C   UNL     1      -5.845  14.434  -3.624  1.00  0.00     0.074 A 
ATOM     48  C   UNL     1      -7.846  12.997  -3.405  1.00  0.00     0.049 A 
ATOM     49  N   UNL     1      -6.373  15.619  -3.469  1.00  0.00    -0.248 NA
ATOM     50  C   UNL     1      -4.383  14.447  -3.806  1.00  0.00     0.031 C 
ATOM     51  C   UNL     1      -8.600  11.746  -3.306  1.00  0.00     0.029 A 
ATOM     52  N   UNL     1      -8.794  13.971  -3.216  1.00  0.00    -0.354 N 
ATOM     53  C   UNL     1      -5.312  16.514  -3.511  1.00  0.00     0.074 A 
ATOM     54  C   UNL     1      -4.104  15.734  -3.664  1.00  0.00     0.031 C 
ATOM     55  C   UNL     1      -9.895  12.029  -3.093  1.00  0.00     0.029 A 
ATOM     56  C   UNL     1     -10.062  13.477  -3.015  1.00  0.00     0.049 A 
ATOM     57  H   UNL     1      -8.586  14.934  -3.224  1.00  0.00     0.167 HD
ATOM     58  C   UNL     1      -5.344  17.866  -3.468  1.00  0.00     0.034 A 
ATOM     59  C   UNL     1     -11.227  14.119  -2.801  1.00  0.00     0.034 A 
ATOM     60  C   UNL     1      -6.552  18.639  -3.369  1.00  0.00     0.049 A 
ATOM     61  C   UNL     1     -11.239  15.625  -2.787  1.00  0.00     0.074 A 
ATOM     62  C   UNL     1      -6.694  20.015  -3.391  1.00  0.00     0.029 A 
ATOM     63  N   UNL     1      -7.824  18.105  -3.235  1.00  0.00    -0.354 N 
ATOM     64  N   UNL     1     -10.244  16.458  -2.972  1.00  0.00    -0.248 NA
ATOM     65  C   UNL     1     -12.537  16.280  -2.566  1.00  0.00     0.031 C 
ATOM     66  C   UNL     1      -8.054  20.313  -3.264  1.00  0.00     0.029 A 
ATOM     67  C   UNL     1      -8.759  19.123  -3.172  1.00  0.00     0.049 A 
ATOM     68  H   UNL     1      -8.031  17.144  -3.192  1.00  0.00     0.167 HD
ATOM     69  C   UNL     1     -10.796  17.732  -2.918  1.00  0.00     0.074 A 
ATOM     70  C   UNL     1     -12.219  17.561  -2.705  1.00  0.00     0.031 C 
ATOM     71  C   UNL     1     -10.178  18.935  -3.015  1.00  0.00     0.034 A 
BRANCH  58  72
ATOM     72  C   UNL     1      -4.039  18.601  -3.616  1.00  0.00     0.023 A 
ATOM     73  C   UNL     1      -3.422  18.649  -4.883  1.00  0.00     0.012 A 
ATOM     74  C   UNL     1      -3.461  19.298  -2.538  1.00  0.00     0.148 A 
ATOM     75  C   UNL     1      -2.236  19.357  -5.070  1.00  0.00     0.002 A 
ATOM     76  C   UNL     1      -2.299  20.034  -2.742  1.00  0.00     0.091 A 
ATOM     77  F   UNL     1      -4.051  19.221  -1.336  1.00  0.00    -0.205 F 
ATOM     78  C   UNL     1      -1.682  20.058  -4.004  1.00  0.00     0.022 A 
BRANCH  76  79
ATOM     79  S   UNL     1      -1.544  21.032  -1.452  1.00  0.00     0.127 S 
ATOM     80  O   UNL     1      -0.341  20.259  -1.149  1.00  0.00    -0.237 OA
ATOM     81  O   UNL     1      -1.298  22.297  -2.144  1.00  0.00    -0.237 OA
ATOM     82  O   UNL     1      -2.525  21.108  -0.378  1.00  0.00    -0.744 OA
ENDBRANCH  76  79
ENDBRANCH  58  72
BRANCH  59  83
ATOM     83  C   UNL     1     -12.491  13.337  -2.687  1.00  0.00     0.023 A 
ATOM     84  C   UNL     1     -13.418  13.384  -3.747  1.00  0.00     0.012 A 
ATOM     85  C   UNL     1     -12.756  12.508  -1.580  1.00  0.00     0.148 A 
ATOM     86  C   UNL     1     -14.594  12.635  -3.699  1.00  0.00     0.002 A 
ATOM     87  C   UNL     1     -13.905  11.724  -1.562  1.00  0.00     0.091 A 
ATOM     88  F   UNL     1     -11.870  12.489  -0.574  1.00  0.00    -0.205 F 
ATOM     89  C   UNL     1     -14.832  11.796  -2.613  1.00  0.00     0.022 A 
BRANCH  87  90
ATOM     90  S   UNL     1     -14.226  10.515  -0.272  1.00  0.00     0.127 S 
ATOM     91  O   UNL     1     -15.316  11.146   0.466  1.00  0.00    -0.237 OA
ATOM     92  O   UNL     1     -14.609   9.335  -1.049  1.00  0.00    -0.237 OA
ATOM     93  O   UNL     1     -12.969  10.372   0.451  1.00  0.00    -0.744 OA
ENDBRANCH  87  90
ENDBRANCH  59  83
BRANCH  71  94
ATOM     94  C   UNL     1     -11.024  20.175  -2.900  1.00  0.00     0.023 A 
ATOM     95  C   UNL     1     -11.495  20.573  -1.633  1.00  0.00     0.012 A 
ATOM     96  C   UNL     1     -11.246  21.007  -4.015  1.00  0.00     0.148 A 
ATOM     97  C   UNL     1     -12.187  21.773  -1.480  1.00  0.00     0.002 A 
ATOM     98  C   UNL     1     -11.899  22.223  -3.846  1.00  0.00     0.091 A 
ATOM     99  F   UNL     1     -10.806  20.601  -5.215  1.00  0.00    -0.205 F 
ATOM    100  C   UNL     1     -12.376  22.604  -2.582  1.00  0.00     0.022 A 
BRANCH  98 101
ATOM    101  S   UNL     1     -12.098  23.402  -5.188  1.00  0.00     0.127 S 
ATOM    102  O   UNL     1     -13.521  23.268  -5.494  1.00  0.00    -0.237 OA
ATOM    103  O   UNL     1     -11.728  24.666  -4.550  1.00  0.00    -0.237 OA
ATOM    104  O   UNL     1     -11.187  22.969  -6.239  1.00  0.00    -0.744 OA
ENDBRANCH  98 101
ENDBRANCH  71  94
ENDBRANCH  45  46
ENDBRANCH  37  40
ENDBRANCH  35  36
ENDBRANCH  34  35
ENDBRANCH   1  34
TORSDOF 18
