REMARK SMILES O=C(NCCCCNC(=O)c1cc(N2C(=O)C[C@H](Nc3ccccc3O)C2=O)ccc1O)c1ccc(-c2c3nc(c(-c4cccc(S(=O)(=O)[O-])c4F)c4ccc([nH]4)c(-c4cccc(S(=O)(=O)[O-])c4F)c4nc(c(-c5cccc(S(=O)(=O)[O-])c5F)c5ccc2[nH]5)C=C4)C=C3)cc1
REMARK SMILES IDX 6 1 5 2 4 3 3 4 1 5 2 6 33 8 34 9 95 10 35 11 94 12 36 13
REMARK SMILES IDX 37 14 38 15 88 16 39 17 93 18 87 19 89 20 40 21 92 22 86 23
REMARK SMILES IDX 85 24 41 26 73 27 53 28 72 29 54 30 57 31 71 32 90 33 55 34
REMARK SMILES IDX 56 35 70 37 91 38 58 39 42 40 43 41 51 42 44 43 46 44 52 45
REMARK SMILES IDX 45 46 47 47 48 48 49 49 50 50 74 51 75 52 83 53 76 54 78 55
REMARK SMILES IDX 84 56 77 57 79 58 80 59 81 60 82 61 59 62 60 63 68 64 61 65
REMARK SMILES IDX 63 66 69 67 62 68 64 69 65 70 66 71 67 72 7 73 8 74 9 75
REMARK SMILES IDX 10 77 11 78 12 79 31 80 13 81 30 82 29 83 32 84 14 86 15 87
REMARK SMILES IDX 27 88 16 89 17 90 18 91 28 92 19 93 20 95 21 96 25 97 22 98
REMARK SMILES IDX 24 99 23 100 26 101
REMARK H PARENT 3 7 89 25 57 36 8 76 32 85 19 94 26 102
REMARK Flexibility Score: inf
ROOT
ATOM      1  C   UNL     1       4.292  -3.322  -1.800  1.00  0.00     0.023 C 
ENDROOT
BRANCH   1   2
ATOM      2  C   UNL     1       4.800  -2.481  -0.631  1.00  0.00     0.023 C 
BRANCH   2   3
ATOM      3  C   UNL     1       4.516  -0.988  -0.737  1.00  0.00     0.116 C 
BRANCH   3   4
ATOM      4  N   UNL     1       3.095  -0.678  -0.807  1.00  0.00    -0.352 N 
ATOM      5  O   UNL     1       1.116   0.166  -0.131  1.00  0.00    -0.269 OA
ATOM      6  C   UNL     1       2.334   0.128   0.009  1.00  0.00     0.251 C 
ATOM      7  H   UNL     1       2.607  -1.109  -1.546  1.00  0.00     0.163 HD
BRANCH   6   8
ATOM      8  C   UNL     1       2.993   0.911   1.077  1.00  0.00     0.039 A 
ATOM      9  C   UNL     1       4.165   1.621   0.812  1.00  0.00     0.014 A 
ATOM     10  C   UNL     1       2.460   0.894   2.369  1.00  0.00     0.014 A 
ATOM     11  C   UNL     1       4.904   2.142   1.867  1.00  0.00     0.010 A 
ATOM     12  C   UNL     1       3.157   1.510   3.413  1.00  0.00     0.010 A 
ATOM     13  C   UNL     1       4.413   2.090   3.182  1.00  0.00    -0.014 A 
BRANCH  13  14
ATOM     14  C   UNL     1       5.228   2.673   4.282  1.00  0.00     0.031 A 
ATOM     15  C   UNL     1       5.749   1.823   5.411  1.00  0.00     0.074 A 
ATOM     16  C   UNL     1       5.527   3.987   4.237  1.00  0.00     0.049 A 
ATOM     17  N   UNL     1       6.533   2.166   6.402  1.00  0.00    -0.248 NA
ATOM     18  C   UNL     1       5.333   0.411   5.444  1.00  0.00     0.031 C 
ATOM     19  C   UNL     1       5.043   4.924   3.220  1.00  0.00     0.029 A 
ATOM     20  N   UNL     1       6.317   4.759   5.050  1.00  0.00    -0.354 N 
ATOM     21  C   UNL     1       6.664   1.036   7.200  1.00  0.00     0.074 A 
ATOM     22  C   UNL     1       5.874  -0.007   6.582  1.00  0.00     0.031 C 
ATOM     23  C   UNL     1       5.583   6.131   3.441  1.00  0.00     0.029 A 
ATOM     24  C   UNL     1       6.410   6.068   4.640  1.00  0.00     0.049 A 
ATOM     25  H   UNL     1       6.774   4.409   5.849  1.00  0.00     0.167 HD
ATOM     26  C   UNL     1       7.388   0.875   8.334  1.00  0.00     0.034 A 
ATOM     27  C   UNL     1       7.085   7.107   5.168  1.00  0.00     0.034 A 
ATOM     28  C   UNL     1       8.220   1.896   8.914  1.00  0.00     0.049 A 
ATOM     29  C   UNL     1       7.924   6.883   6.393  1.00  0.00     0.074 A 
ATOM     30  C   UNL     1       9.054   1.804  10.016  1.00  0.00     0.029 A 
ATOM     31  N   UNL     1       8.325   3.196   8.444  1.00  0.00    -0.354 N 
ATOM     32  N   UNL     1       8.141   5.770   7.051  1.00  0.00    -0.248 NA
ATOM     33  C   UNL     1       8.634   8.050   6.932  1.00  0.00     0.031 C 
ATOM     34  C   UNL     1       9.651   3.053  10.220  1.00  0.00     0.029 A 
ATOM     35  C   UNL     1       9.203   3.918   9.236  1.00  0.00     0.049 A 
ATOM     36  H   UNL     1       7.846   3.553   7.661  1.00  0.00     0.167 HD
ATOM     37  C   UNL     1       9.032   6.096   8.065  1.00  0.00     0.074 A 
ATOM     38  C   UNL     1       9.336   7.506   7.916  1.00  0.00     0.031 C 
ATOM     39  C   UNL     1       9.538   5.306   9.044  1.00  0.00     0.034 A 
BRANCH  26  40
ATOM     40  C   UNL     1       7.353  -0.473   9.010  1.00  0.00     0.023 A 
ATOM     41  C   UNL     1       8.055  -1.556   8.444  1.00  0.00     0.012 A 
ATOM     42  C   UNL     1       6.689  -0.648  10.242  1.00  0.00     0.148 A 
ATOM     43  C   UNL     1       8.075  -2.799   9.077  1.00  0.00     0.002 A 
ATOM     44  C   UNL     1       6.747  -1.880  10.886  1.00  0.00     0.091 A 
ATOM     45  F   UNL     1       6.008   0.386  10.755  1.00  0.00    -0.205 F 
ATOM     46  C   UNL     1       7.431  -2.958  10.301  1.00  0.00     0.022 A 
BRANCH  44  47
ATOM     47  S   UNL     1       6.012  -2.157  12.503  1.00  0.00     0.127 S 
ATOM     48  O   UNL     1       4.816  -2.923  12.157  1.00  0.00    -0.237 OA
ATOM     49  O   UNL     1       7.051  -2.927  13.189  1.00  0.00    -0.237 OA
ATOM     50  O   UNL     1       5.774  -0.834  13.063  1.00  0.00    -0.744 OA
ENDBRANCH  44  47
ENDBRANCH  26  40
BRANCH  27  51
ATOM     51  C   UNL     1       7.046   8.432   4.490  1.00  0.00     0.023 A 
ATOM     52  C   UNL     1       8.203   8.912   3.846  1.00  0.00     0.012 A 
ATOM     53  C   UNL     1       5.862   9.191   4.431  1.00  0.00     0.148 A 
ATOM     54  C   UNL     1       8.186  10.134   3.174  1.00  0.00     0.002 A 
ATOM     55  C   UNL     1       5.836  10.378   3.710  1.00  0.00     0.091 A 
ATOM     56  F   UNL     1       4.776   8.726   5.066  1.00  0.00    -0.205 F 
ATOM     57  C   UNL     1       7.001  10.860   3.094  1.00  0.00     0.022 A 
BRANCH  55  58
ATOM     58  S   UNL     1       4.315  11.294   3.436  1.00  0.00     0.127 S 
ATOM     59  O   UNL     1       4.474  12.419   4.353  1.00  0.00    -0.237 OA
ATOM     60  O   UNL     1       4.416  11.637   2.016  1.00  0.00    -0.237 OA
ATOM     61  O   UNL     1       3.240  10.362   3.748  1.00  0.00    -0.744 OA
ENDBRANCH  55  58
ENDBRANCH  27  51
BRANCH  39  62
ATOM     62  C   UNL     1      10.495   5.939  10.018  1.00  0.00     0.023 A 
ATOM     63  C   UNL     1      10.007   6.826  10.998  1.00  0.00     0.012 A 
ATOM     64  C   UNL     1      11.865   5.614  10.000  1.00  0.00     0.148 A 
ATOM     65  C   UNL     1      10.873   7.407  11.922  1.00  0.00     0.002 A 
ATOM     66  C   UNL     1      12.715   6.162  10.953  1.00  0.00     0.091 A 
ATOM     67  F   UNL     1      12.316   4.787   9.045  1.00  0.00    -0.205 F 
ATOM     68  C   UNL     1      12.224   7.067  11.907  1.00  0.00     0.022 A 
BRANCH  66  69
ATOM     69  S   UNL     1      14.449   5.704  11.058  1.00  0.00     0.127 S 
ATOM     70  O   UNL     1      15.099   6.841  10.410  1.00  0.00    -0.237 OA
ATOM     71  O   UNL     1      14.667   5.619  12.503  1.00  0.00    -0.237 OA
ATOM     72  O   UNL     1      14.563   4.429  10.360  1.00  0.00    -0.744 OA
ENDBRANCH  66  69
ENDBRANCH  39  62
ENDBRANCH  13  14
ENDBRANCH   6   8
ENDBRANCH   3   4
ENDBRANCH   2   3
ENDBRANCH   1   2
BRANCH   1  73
ATOM     73  C   UNL     1       4.710  -2.827  -3.180  1.00  0.00     0.116 C 
BRANCH  73  74
ATOM     74  N   UNL     1       6.150  -2.821  -3.349  1.00  0.00    -0.352 N 
ATOM     75  C   UNL     1       6.877  -3.377  -4.368  1.00  0.00     0.255 C 
ATOM     76  H   UNL     1       6.667  -2.362  -2.648  1.00  0.00     0.163 HD
ATOM     77  O   UNL     1       8.105  -3.360  -4.353  1.00  0.00    -0.269 OA
BRANCH  75  78
ATOM     78  C   UNL     1       6.182  -4.070  -5.466  1.00  0.00     0.083 A 
ATOM     79  C   UNL     1       6.422  -5.442  -5.606  1.00  0.00     0.044 A 
ATOM     80  C   UNL     1       5.362  -3.399  -6.375  1.00  0.00     0.128 A 
ATOM     81  C   UNL     1       5.864  -6.158  -6.673  1.00  0.00     0.053 A 
ATOM     82  C   UNL     1       4.779  -4.103  -7.424  1.00  0.00     0.049 A 
ATOM     83  C   UNL     1       5.045  -5.469  -7.580  1.00  0.00     0.031 A 
BRANCH  80  84
ATOM     84  O   UNL     1       5.125  -2.062  -6.237  1.00  0.00    -0.507 OA
ATOM     85  H   UNL     1       5.518  -1.587  -5.531  1.00  0.00     0.293 HD
ENDBRANCH  80  84
BRANCH  81  86
ATOM     86  N   UNL     1       6.160  -7.535  -6.838  1.00  0.00    -0.249 N 
ATOM     87  C   UNL     1       6.274  -8.168  -8.049  1.00  0.00     0.236 C 
ATOM     88  C   UNL     1       6.325  -8.406  -5.784  1.00  0.00     0.256 C 
ATOM     89  O   UNL     1       6.103  -7.701  -9.169  1.00  0.00    -0.274 OA
ATOM     90  C   UNL     1       6.753  -9.570  -7.835  1.00  0.00     0.136 C 
ATOM     91  C   UNL     1       6.703  -9.775  -6.332  1.00  0.00     0.179 C 
ATOM     92  O   UNL     1       6.085  -8.177  -4.604  1.00  0.00    -0.272 OA
BRANCH  91  93
ATOM     93  N   UNL     1       5.686 -10.789  -6.008  1.00  0.00    -0.370 N 
ATOM     94  H   UNL     1       4.735 -10.648  -6.220  1.00  0.00     0.161 HD
BRANCH  93  95
ATOM     95  C   UNL     1       6.129 -11.965  -5.383  1.00  0.00     0.077 A 
ATOM     96  C   UNL     1       5.772 -13.198  -5.936  1.00  0.00     0.029 A 
ATOM     97  C   UNL     1       6.765 -11.963  -4.129  1.00  0.00     0.138 A 
ATOM     98  C   UNL     1       6.084 -14.394  -5.282  1.00  0.00     0.002 A 
ATOM     99  C   UNL     1       7.074 -13.150  -3.466  1.00  0.00     0.048 A 
ATOM    100  C   UNL     1       6.734 -14.369  -4.048  1.00  0.00     0.004 A 
BRANCH  97 101
ATOM    101  O   UNL     1       7.068 -10.763  -3.546  1.00  0.00    -0.506 OA
ATOM    102  H   UNL     1       6.862  -9.963  -3.987  1.00  0.00     0.293 HD
ENDBRANCH  97 101
ENDBRANCH  93  95
ENDBRANCH  91  93
ENDBRANCH  81  86
ENDBRANCH  75  78
ENDBRANCH  73  74
ENDBRANCH   1  73
TORSDOF 19
