REMARK SMILES O=C(NCCCCNC(=O)[C@@H]1C[C@@H](O)CN1C(=O)CSc1ccc(F)cc1F)c1ccc(-c2c3nc(c(-c4cccc(S(=O)(=O)[O-])c4F)c4ccc([nH]4)c(-c4cccc(S(=O)(=O)[O-])c4F)c4nc(c(-c5cccc(S(=O)(=O)[O-])c5F)c5ccc2[nH]5)C=C4)C=C3)cc1
REMARK SMILES IDX 6 1 5 2 4 3 3 4 1 5 2 6 29 8 30 9 91 10 31 11 90 12 32 13
REMARK SMILES IDX 33 14 34 15 84 16 35 17 89 18 83 19 85 20 36 21 88 22 82 23
REMARK SMILES IDX 81 24 37 26 69 27 49 28 68 29 50 30 53 31 67 32 86 33 51 34
REMARK SMILES IDX 52 35 66 37 87 38 54 39 38 40 39 41 47 42 40 43 42 44 48 45
REMARK SMILES IDX 41 46 43 47 44 48 45 49 46 50 70 51 71 52 79 53 72 54 74 55
REMARK SMILES IDX 80 56 73 57 75 58 76 59 77 60 78 61 55 62 56 63 64 64 57 65
REMARK SMILES IDX 59 66 65 67 58 68 60 69 61 70 62 71 63 72 7 73 8 74 9 75
REMARK SMILES IDX 10 77 11 78 12 79 16 80 13 81 15 82 17 83 18 84 19 85 20 86
REMARK SMILES IDX 21 87 22 88 27 89 23 90 26 91 28 92 24 93 25 94 14 95
REMARK H PARENT 3 7 85 25 53 36 8 76 14 96
REMARK Flexibility Score: inf
ROOT
ATOM      1  C   UNL     1       8.807  -3.877   8.004  1.00  0.00     0.023 C 
ENDROOT
BRANCH   1   2
ATOM      2  C   UNL     1       9.780  -4.731   8.817  1.00  0.00     0.023 C 
BRANCH   2   3
ATOM      3  C   UNL     1      11.241  -4.332   8.664  1.00  0.00     0.116 C 
BRANCH   3   4
ATOM      4  N   UNL     1      11.489  -2.942   9.006  1.00  0.00    -0.352 N 
ATOM      5  O   UNL     1      12.657  -1.219   9.870  1.00  0.00    -0.269 OA
ATOM      6  C   UNL     1      12.633  -2.391   9.533  1.00  0.00     0.251 C 
ATOM      7  H   UNL     1      10.745  -2.317   8.841  1.00  0.00     0.163 HD
BRANCH   6   8
ATOM      8  C   UNL     1      13.806  -3.266   9.719  1.00  0.00     0.039 A 
ATOM      9  C   UNL     1      14.278  -4.051   8.662  1.00  0.00     0.014 A 
ATOM     10  C   UNL     1      14.397  -3.332  10.981  1.00  0.00     0.014 A 
ATOM     11  C   UNL     1      15.276  -4.989   8.896  1.00  0.00     0.010 A 
ATOM     12  C   UNL     1      15.442  -4.227  11.197  1.00  0.00     0.010 A 
ATOM     13  C   UNL     1      15.870  -5.078  10.164  1.00  0.00    -0.014 A 
BRANCH  13  14
ATOM     14  C   UNL     1      16.995  -6.010  10.394  1.00  0.00     0.031 A 
ATOM     15  C   UNL     1      16.857  -7.160  11.346  1.00  0.00     0.074 A 
ATOM     16  C   UNL     1      18.170  -5.756   9.788  1.00  0.00     0.049 A 
ATOM     17  N   UNL     1      17.767  -8.007  11.747  1.00  0.00    -0.248 NA
ATOM     18  C   UNL     1      15.526  -7.383  11.934  1.00  0.00     0.031 C 
ATOM     19  C   UNL     1      18.417  -4.636   8.877  1.00  0.00     0.029 A 
ATOM     20  N   UNL     1      19.380  -6.391   9.876  1.00  0.00    -0.354 N 
ATOM     21  C   UNL     1      17.138  -8.833  12.670  1.00  0.00     0.074 A 
ATOM     22  C   UNL     1      15.764  -8.388  12.767  1.00  0.00     0.031 C 
ATOM     23  C   UNL     1      19.705  -4.648   8.508  1.00  0.00     0.029 A 
ATOM     24  C   UNL     1      20.382  -5.743   9.193  1.00  0.00     0.049 A 
ATOM     25  H   UNL     1      19.519  -7.228  10.377  1.00  0.00     0.167 HD
ATOM     26  C   UNL     1      17.660  -9.873  13.362  1.00  0.00     0.034 A 
ATOM     27  C   UNL     1      21.707  -5.977   9.154  1.00  0.00     0.034 A 
ATOM     28  C   UNL     1      19.020 -10.324  13.227  1.00  0.00     0.049 A 
ATOM     29  C   UNL     1      22.257  -7.149   9.911  1.00  0.00     0.074 A 
ATOM     30  C   UNL     1      19.626 -11.418  13.819  1.00  0.00     0.029 A 
ATOM     31  N   UNL     1      19.988  -9.697  12.456  1.00  0.00    -0.354 N 
ATOM     32  N   UNL     1      21.620  -8.006  10.672  1.00  0.00    -0.248 NA
ATOM     33  C   UNL     1      23.697  -7.409   9.783  1.00  0.00     0.031 C 
ATOM     34  C   UNL     1      20.966 -11.443  13.418  1.00  0.00     0.029 A 
ATOM     35  C   UNL     1      21.191 -10.374  12.564  1.00  0.00     0.049 A 
ATOM     36  H   UNL     1      19.841  -8.890  11.912  1.00  0.00     0.167 HD
ATOM     37  C   UNL     1      22.572  -8.924  11.094  1.00  0.00     0.074 A 
ATOM     38  C   UNL     1      23.829  -8.525  10.491  1.00  0.00     0.031 C 
ATOM     39  C   UNL     1      22.420  -9.992  11.914  1.00  0.00     0.034 A 
BRANCH  26  40
ATOM     40  C   UNL     1      16.749 -10.615  14.304  1.00  0.00     0.023 A 
ATOM     41  C   UNL     1      15.764 -11.479  13.783  1.00  0.00     0.012 A 
ATOM     42  C   UNL     1      16.896 -10.498  15.700  1.00  0.00     0.148 A 
ATOM     43  C   UNL     1      14.919 -12.189  14.636  1.00  0.00     0.002 A 
ATOM     44  C   UNL     1      16.073 -11.237  16.544  1.00  0.00     0.091 A 
ATOM     45  F   UNL     1      17.818  -9.652  16.180  1.00  0.00    -0.205 F 
ATOM     46  C   UNL     1      15.079 -12.075  16.014  1.00  0.00     0.022 A 
BRANCH  44  47
ATOM     47  S   UNL     1      16.265 -11.200  18.330  1.00  0.00     0.127 S 
ATOM     48  O   UNL     1      15.237 -10.236  18.718  1.00  0.00    -0.237 OA
ATOM     49  O   UNL     1      15.974 -12.583  18.709  1.00  0.00    -0.237 OA
ATOM     50  O   UNL     1      17.643 -10.791  18.565  1.00  0.00    -0.744 OA
ENDBRANCH  44  47
ENDBRANCH  26  40
BRANCH  27  51
ATOM     51  C   UNL     1      22.568  -5.087   8.330  1.00  0.00     0.023 A 
ATOM     52  C   UNL     1      23.077  -5.556   7.106  1.00  0.00     0.012 A 
ATOM     53  C   UNL     1      22.780  -3.742   8.697  1.00  0.00     0.148 A 
ATOM     54  C   UNL     1      23.788  -4.703   6.262  1.00  0.00     0.002 A 
ATOM     55  C   UNL     1      23.439  -2.884   7.826  1.00  0.00     0.091 A 
ATOM     56  F   UNL     1      22.290  -3.320   9.872  1.00  0.00    -0.205 F 
ATOM     57  C   UNL     1      23.956  -3.366   6.614  1.00  0.00     0.022 A 
BRANCH  55  58
ATOM     58  S   UNL     1      23.566  -1.117   8.125  1.00  0.00     0.127 S 
ATOM     59  O   UNL     1      24.994  -0.960   8.388  1.00  0.00    -0.237 OA
ATOM     60  O   UNL     1      23.109  -0.563   6.849  1.00  0.00    -0.237 OA
ATOM     61  O   UNL     1      22.682  -0.842   9.249  1.00  0.00    -0.744 OA
ENDBRANCH  55  58
ENDBRANCH  27  51
BRANCH  39  62
ATOM     62  C   UNL     1      23.634 -10.833  12.196  1.00  0.00     0.023 A 
ATOM     63  C   UNL     1      24.606 -10.370  13.104  1.00  0.00     0.012 A 
ATOM     64  C   UNL     1      23.756 -12.123  11.644  1.00  0.00     0.148 A 
ATOM     65  C   UNL     1      25.690 -11.175  13.449  1.00  0.00     0.002 A 
ATOM     66  C   UNL     1      24.816 -12.936  12.025  1.00  0.00     0.091 A 
ATOM     67  F   UNL     1      22.828 -12.533  10.767  1.00  0.00    -0.205 F 
ATOM     68  C   UNL     1      25.788 -12.461  12.921  1.00  0.00     0.022 A 
BRANCH  66  69
ATOM     69  S   UNL     1      24.975 -14.636  11.468  1.00  0.00     0.127 S 
ATOM     70  O   UNL     1      26.119 -14.548  10.563  1.00  0.00    -0.237 OA
ATOM     71  O   UNL     1      25.239 -15.349  12.719  1.00  0.00    -0.237 OA
ATOM     72  O   UNL     1      23.706 -14.974  10.837  1.00  0.00    -0.744 OA
ENDBRANCH  66  69
ENDBRANCH  39  62
ENDBRANCH  13  14
ENDBRANCH   6   8
ENDBRANCH   3   4
ENDBRANCH   2   3
ENDBRANCH   1   2
BRANCH   1  73
ATOM     73  C   UNL     1       8.963  -4.019   6.487  1.00  0.00     0.116 C 
BRANCH  73  74
ATOM     74  N   UNL     1       8.229  -5.173   6.016  1.00  0.00    -0.354 N 
ATOM     75  C   UNL     1       6.929  -5.256   5.594  1.00  0.00     0.242 C 
ATOM     76  H   UNL     1       8.736  -6.017   5.994  1.00  0.00     0.163 HD
ATOM     77  O   UNL     1       6.482  -6.388   5.402  1.00  0.00    -0.273 OA
BRANCH  75  78
ATOM     78  C   UNL     1       6.120  -3.952   5.334  1.00  0.00     0.177 C 
ATOM     79  C   UNL     1       5.907  -3.132   6.618  1.00  0.00     0.069 C 
ATOM     80  N   UNL     1       4.742  -4.163   4.847  1.00  0.00    -0.327 N 
ATOM     81  C   UNL     1       4.617  -2.373   6.366  1.00  0.00     0.136 C 
ATOM     82  C   UNL     1       3.773  -3.402   5.631  1.00  0.00     0.152 C 
BRANCH  80  83
ATOM     83  C   UNL     1       4.490  -4.843   3.677  1.00  0.00     0.233 C 
ATOM     84  O   UNL     1       5.418  -5.141   2.916  1.00  0.00    -0.274 OA
BRANCH  83  85
ATOM     85  C   UNL     1       3.057  -5.107   3.230  1.00  0.00     0.175 C 
BRANCH  85  86
ATOM     86  S   UNL     1       1.881  -5.722   4.482  1.00  0.00    -0.113 SA
BRANCH  86  87
ATOM     87  C   UNL     1       2.544  -7.335   4.841  1.00  0.00     0.044 A 
ATOM     88  C   UNL     1       1.973  -8.457   4.229  1.00  0.00     0.021 A 
ATOM     89  C   UNL     1       3.548  -7.528   5.799  1.00  0.00     0.139 A 
ATOM     90  C   UNL     1       2.436  -9.738   4.541  1.00  0.00     0.040 A 
ATOM     91  C   UNL     1       4.039  -8.797   6.087  1.00  0.00     0.079 A 
ATOM     92  F   UNL     1       4.018  -6.488   6.504  1.00  0.00    -0.206 F 
ATOM     93  C   UNL     1       3.475  -9.894   5.454  1.00  0.00     0.126 A 
ATOM     94  F   UNL     1       3.913 -11.125   5.744  1.00  0.00    -0.207 F 
ENDBRANCH  86  87
ENDBRANCH  85  86
ENDBRANCH  83  85
ENDBRANCH  80  83
BRANCH  81  95
ATOM     95  O   UNL     1       4.873  -1.230   5.551  1.00  0.00    -0.391 OA
ATOM     96  H   UNL     1       5.304  -1.509   4.728  1.00  0.00     0.211 HD
ENDBRANCH  81  95
ENDBRANCH  75  78
ENDBRANCH  73  74
ENDBRANCH   1  73
TORSDOF 19
