REMARK SMILES COc1cccc(C(=O)N2[C@@H](C(=O)NCCCCNC(=O)c3ccc(-c4c5nc(c(-c6cccc(S(=O)(=O)[O-])c6F)c6ccc([nH]6)c(-c6cccc(S(=O)(=O)[O-])c6F)c6nc(c(-c7cccc(S(=O)(=O)[O-])c7F)c7ccc4[nH]7)C=C6)C=C5)cc3)CS[C@@H]2c2ccccc2Cl)c1
REMARK SMILES IDX 16 1 15 2 14 3 12 4 13 5 11 7 10 8 87 9 85 10 86 11 8 12
REMARK SMILES IDX 9 13 7 14 3 15 4 16 95 17 5 18 6 19 2 20 1 21 88 22 89 23
REMARK SMILES IDX 93 24 90 25 92 26 94 27 91 28 17 29 18 30 19 31 20 32 21 34
REMARK SMILES IDX 22 35 23 36 84 37 24 38 83 39 25 40 26 41 27 42 77 43 28 44
REMARK SMILES IDX 82 45 76 46 78 47 29 48 81 49 75 50 74 51 30 53 62 54 42 55
REMARK SMILES IDX 61 56 43 57 46 58 60 59 79 60 44 61 45 62 59 64 80 65 47 66
REMARK SMILES IDX 31 67 32 68 40 69 33 70 35 71 41 72 34 73 36 74 37 75 38 76
REMARK SMILES IDX 39 77 63 78 64 79 72 80 65 81 67 82 73 83 66 84 68 85 69 86
REMARK SMILES IDX 70 87 71 88 48 89 49 90 57 91 50 92 52 93 58 94 51 95 53 96
REMARK SMILES IDX 54 97 55 98 56 99
REMARK H PARENT 14 6 19 33 78 52 46 63
REMARK Flexibility Score: inf
ROOT
ATOM      1  C   UNL     1       5.273   2.589  -2.048  1.00  0.00     0.023 C 
ENDROOT
BRANCH   1   2
ATOM      2  C   UNL     1       4.288   1.443  -2.292  1.00  0.00     0.116 C 
BRANCH   2   3
ATOM      3  N   UNL     1       4.361   0.980  -3.658  1.00  0.00    -0.354 N 
ATOM      4  C   UNL     1       5.128   0.029  -4.253  1.00  0.00     0.243 C 
ATOM      5  O   UNL     1       5.197   0.095  -5.487  1.00  0.00    -0.273 OA
ATOM      6  H   UNL     1       3.741   1.438  -4.271  1.00  0.00     0.163 HD
BRANCH   4   7
ATOM      7  C   UNL     1       5.884  -1.101  -3.503  1.00  0.00     0.186 C 
ATOM      8  N   UNL     1       5.006  -2.091  -2.848  1.00  0.00    -0.310 N 
ATOM      9  C   UNL     1       5.513  -2.636  -1.592  1.00  0.00     0.176 C 
ATOM     10  C   UNL     1       6.908  -0.590  -2.489  1.00  0.00     0.107 C 
ATOM     11  S   UNL     1       6.282  -1.110  -0.863  1.00  0.00    -0.129 SA
BRANCH   8  12
ATOM     12  C   UNL     1       3.945  -2.615  -3.572  1.00  0.00     0.255 C 
ATOM     13  O   UNL     1       3.996  -2.776  -4.788  1.00  0.00    -0.269 OA
BRANCH  12  14
ATOM     14  C   UNL     1       2.616  -2.782  -2.911  1.00  0.00     0.043 A 
ATOM     15  C   UNL     1       0.933  -2.080  -1.311  1.00  0.00     0.119 A 
ATOM     16  C   UNL     1      -0.014  -2.880  -1.953  1.00  0.00     0.046 A 
ATOM     17  C   UNL     1       2.247  -2.033  -1.785  1.00  0.00     0.060 A 
ATOM     18  C   UNL     1       0.336  -3.607  -3.089  1.00  0.00     0.005 A 
ATOM     19  C   UNL     1       1.646  -3.556  -3.567  1.00  0.00     0.014 A 
BRANCH  15  20
ATOM     20  O   UNL     1       0.484  -1.403  -0.210  1.00  0.00    -0.497 OA
ATOM     21  C   UNL     1       1.006  -0.085  -0.064  1.00  0.00     0.278 C 
ENDBRANCH  15  20
ENDBRANCH  12  14
ENDBRANCH   8  12
BRANCH   9  22
ATOM     22  C   UNL     1       6.622  -3.708  -1.582  1.00  0.00     0.003 A 
ATOM     23  C   UNL     1       7.148  -4.025  -0.295  1.00  0.00     0.008 A 
ATOM     24  C   UNL     1       7.266  -4.315  -2.672  1.00  0.00     0.047 A 
ATOM     25  C   UNL     1       8.331  -4.747  -0.120  1.00  0.00     0.001 A 
ATOM     26  C   UNL     1       8.465  -5.032  -2.491  1.00  0.00     0.021 A 
ATOM     27  Cl  UNL     1       6.685  -4.316  -4.290  1.00  0.00    -0.084 Cl
ATOM     28  C   UNL     1       9.013  -5.221  -1.227  1.00  0.00     0.002 A 
ENDBRANCH   9  22
ENDBRANCH   4   7
ENDBRANCH   2   3
ENDBRANCH   1   2
BRANCH   1  29
ATOM     29  C   UNL     1       4.820   3.942  -2.602  1.00  0.00     0.023 C 
BRANCH  29  30
ATOM     30  C   UNL     1       3.521   4.475  -2.014  1.00  0.00     0.116 C 
BRANCH  30  31
ATOM     31  N   UNL     1       3.544   4.575  -0.561  1.00  0.00    -0.352 N 
ATOM     32  C   UNL     1       2.879   5.479   0.232  1.00  0.00     0.251 C 
ATOM     33  H   UNL     1       4.103   3.915  -0.090  1.00  0.00     0.163 HD
ATOM     34  O   UNL     1       3.066   5.504   1.445  1.00  0.00    -0.269 OA
BRANCH  32  35
ATOM     35  C   UNL     1       1.971   6.449  -0.410  1.00  0.00     0.039 A 
ATOM     36  C   UNL     1       2.175   7.813  -0.191  1.00  0.00     0.014 A 
ATOM     37  C   UNL     1       0.981   6.006  -1.291  1.00  0.00     0.014 A 
ATOM     38  C   UNL     1       1.431   8.742  -0.919  1.00  0.00     0.010 A 
ATOM     39  C   UNL     1       0.289   6.932  -2.061  1.00  0.00     0.010 A 
ATOM     40  C   UNL     1       0.512   8.307  -1.888  1.00  0.00    -0.014 A 
BRANCH  40  41
ATOM     41  C   UNL     1      -0.201   9.268  -2.765  1.00  0.00     0.031 A 
ATOM     42  C   UNL     1      -1.698   9.377  -2.705  1.00  0.00     0.074 A 
ATOM     43  C   UNL     1       0.492   9.951  -3.697  1.00  0.00     0.049 A 
ATOM     44  N   UNL     1      -2.501  10.095  -3.445  1.00  0.00    -0.248 NA
ATOM     45  C   UNL     1      -2.387   8.545  -1.704  1.00  0.00     0.031 C 
ATOM     46  C   UNL     1       1.937   9.853  -3.918  1.00  0.00     0.029 A 
ATOM     47  N   UNL     1       0.069  10.832  -4.660  1.00  0.00    -0.354 N 
ATOM     48  C   UNL     1      -3.787   9.773  -3.031  1.00  0.00     0.074 A 
ATOM     49  C   UNL     1      -3.660   8.773  -1.993  1.00  0.00     0.031 C 
ATOM     50  C   UNL     1       2.278  10.637  -4.953  1.00  0.00     0.029 A 
ATOM     51  C   UNL     1       1.077  11.274  -5.485  1.00  0.00     0.049 A 
ATOM     52  H   UNL     1      -0.868  11.121  -4.752  1.00  0.00     0.167 HD
ATOM     53  C   UNL     1      -4.966  10.286  -3.455  1.00  0.00     0.034 A 
ATOM     54  C   UNL     1       1.038  12.093  -6.555  1.00  0.00     0.034 A 
ATOM     55  C   UNL     1      -5.082  11.322  -4.444  1.00  0.00     0.049 A 
ATOM     56  C   UNL     1      -0.277  12.697  -6.965  1.00  0.00     0.074 A 
ATOM     57  C   UNL     1      -6.218  11.998  -4.852  1.00  0.00     0.029 A 
ATOM     58  N   UNL     1      -4.027  11.826  -5.189  1.00  0.00    -0.354 N 
ATOM     59  N   UNL     1      -1.463  12.527  -6.431  1.00  0.00    -0.248 NA
ATOM     60  C   UNL     1      -0.257  13.631  -8.099  1.00  0.00     0.031 C 
ATOM     61  C   UNL     1      -5.851  12.902  -5.855  1.00  0.00     0.029 A 
ATOM     62  C   UNL     1      -4.485  12.795  -6.063  1.00  0.00     0.049 A 
ATOM     63  H   UNL     1      -3.089  11.536  -5.107  1.00  0.00     0.167 HD
ATOM     64  C   UNL     1      -2.325  13.350  -7.146  1.00  0.00     0.074 A 
ATOM     65  C   UNL     1      -1.520  14.038  -8.136  1.00  0.00     0.031 C 
ATOM     66  C   UNL     1      -3.664  13.508  -7.009  1.00  0.00     0.034 A 
BRANCH  53  67
ATOM     67  C   UNL     1      -6.222   9.780  -2.800  1.00  0.00     0.023 A 
ATOM     68  C   UNL     1      -6.516  10.166  -1.476  1.00  0.00     0.012 A 
ATOM     69  C   UNL     1      -7.135   8.969  -3.502  1.00  0.00     0.148 A 
ATOM     70  C   UNL     1      -7.681   9.727  -0.849  1.00  0.00     0.002 A 
ATOM     71  C   UNL     1      -8.314   8.568  -2.884  1.00  0.00     0.091 A 
ATOM     72  F   UNL     1      -6.826   8.589  -4.750  1.00  0.00    -0.205 F 
ATOM     73  C   UNL     1      -8.584   8.938  -1.556  1.00  0.00     0.022 A 
BRANCH  71  74
ATOM     74  S   UNL     1      -9.572   7.611  -3.737  1.00  0.00     0.127 S 
ATOM     75  O   UNL     1      -9.379   6.284  -3.153  1.00  0.00    -0.237 OA
ATOM     76  O   UNL     1     -10.806   8.283  -3.326  1.00  0.00    -0.237 OA
ATOM     77  O   UNL     1      -9.266   7.726  -5.155  1.00  0.00    -0.744 OA
ENDBRANCH  71  74
ENDBRANCH  53  67
BRANCH  54  78
ATOM     78  C   UNL     1       2.301  12.443  -7.263  1.00  0.00     0.023 A 
ATOM     79  C   UNL     1       2.835  13.738  -7.119  1.00  0.00     0.012 A 
ATOM     80  C   UNL     1       3.001  11.493  -8.032  1.00  0.00     0.148 A 
ATOM     81  C   UNL     1       4.030  14.089  -7.747  1.00  0.00     0.002 A 
ATOM     82  C   UNL     1       4.218  11.833  -8.612  1.00  0.00     0.091 A 
ATOM     83  F   UNL     1       2.470  10.270  -8.169  1.00  0.00    -0.205 F 
ATOM     84  C   UNL     1       4.727  13.135  -8.483  1.00  0.00     0.022 A 
BRANCH  82  85
ATOM     85  S   UNL     1       5.248  10.630  -9.459  1.00  0.00     0.127 S 
ATOM     86  O   UNL     1       5.076  11.019 -10.856  1.00  0.00    -0.237 OA
ATOM     87  O   UNL     1       6.570  10.912  -8.898  1.00  0.00    -0.237 OA
ATOM     88  O   UNL     1       4.709   9.328  -9.090  1.00  0.00    -0.744 OA
ENDBRANCH  82  85
ENDBRANCH  54  78
BRANCH  66  89
ATOM     89  C   UNL     1      -4.354  14.469  -7.939  1.00  0.00     0.023 A 
ATOM     90  C   UNL     1      -4.570  14.100  -9.281  1.00  0.00     0.012 A 
ATOM     91  C   UNL     1      -4.865  15.694  -7.466  1.00  0.00     0.148 A 
ATOM     92  C   UNL     1      -5.265  14.944 -10.145  1.00  0.00     0.002 A 
ATOM     93  C   UNL     1      -5.596  16.510  -8.322  1.00  0.00     0.091 A 
ATOM     94  F   UNL     1      -4.632  16.035  -6.191  1.00  0.00    -0.205 F 
ATOM     95  C   UNL     1      -5.788  16.142  -9.663  1.00  0.00     0.022 A 
BRANCH  93  96
ATOM     96  S   UNL     1      -6.385  18.025  -7.764  1.00  0.00     0.127 S 
ATOM     97  O   UNL     1      -5.522  19.046  -8.355  1.00  0.00    -0.237 OA
ATOM     98  O   UNL     1      -7.715  17.925  -8.367  1.00  0.00    -0.237 OA
ATOM     99  O   UNL     1      -6.378  17.966  -6.308  1.00  0.00    -0.744 OA
ENDBRANCH  93  96
ENDBRANCH  66  89
ENDBRANCH  40  41
ENDBRANCH  32  35
ENDBRANCH  30  31
ENDBRANCH  29  30
ENDBRANCH   1  29
TORSDOF 18
