REMARK SMILES O=C(Cn1cccc1C(=O)NCCCCNC(=O)c1ccc(-c2c3nc(c(-c4cccc(S(=O)(=O)[O-])c4F)c4ccc([nH]4)c(-c4cccc(S(=O)(=O)[O-])c4F)c4nc(c(-c5cccc(S(=O)(=O)[O-])c5F)c5ccc2[nH]5)C=C4)C=C3)cc1)NCC1CCCC1
REMARK SMILES IDX 13 1 12 2 11 3 9 4 10 5 8 7 4 8 5 9 6 10 7 11 3 12 2 13 1 14
REMARK SMILES IDX 82 15 83 17 84 18 85 19 88 20 86 21 87 22 14 23 15 24 16 25
REMARK SMILES IDX 17 26 18 28 19 29 20 30 81 31 21 32 80 33 22 34 23 35 24 36
REMARK SMILES IDX 74 37 25 38 79 39 73 40 75 41 26 42 78 43 72 44 71 45 27 47
REMARK SMILES IDX 59 48 39 49 58 50 40 51 43 52 57 53 76 54 41 55 42 56 56 58
REMARK SMILES IDX 77 59 44 60 28 61 29 62 37 63 30 64 32 65 38 66 31 67 33 68
REMARK SMILES IDX 34 69 35 70 36 71 60 72 61 73 69 74 62 75 64 76 70 77 63 78
REMARK SMILES IDX 65 79 66 80 67 81 68 82 45 83 46 84 54 85 47 86 49 87 55 88
REMARK SMILES IDX 48 89 50 90 51 91 52 92 53 93
REMARK H PARENT 11 6 82 16 16 27 75 46 43 57
REMARK Flexibility Score: inf
ROOT
ATOM      1  C   UNL     1       0.658   0.431  -0.678  1.00  0.00     0.023 C 
ENDROOT
BRANCH   1   2
ATOM      2  C   UNL     1       0.887  -0.287   0.662  1.00  0.00     0.116 C 
BRANCH   2   3
ATOM      3  N   UNL     1       1.633  -1.523   0.517  1.00  0.00    -0.351 N 
ATOM      4  C   UNL     1       2.798  -1.994   1.047  1.00  0.00     0.267 C 
ATOM      5  O   UNL     1       3.146  -3.126   0.706  1.00  0.00    -0.268 OA
ATOM      6  H   UNL     1       1.204  -2.161  -0.098  1.00  0.00     0.163 HD
BRANCH   4   7
ATOM      7  C   UNL     1       3.588  -1.249   2.003  1.00  0.00     0.107 A 
ATOM      8  N   UNL     1       4.370  -0.118   1.861  1.00  0.00    -0.334 N 
ATOM      9  C   UNL     1       5.032   0.125   3.060  1.00  0.00     0.087 A 
ATOM     10  C   UNL     1       4.784  -0.909   3.924  1.00  0.00     0.020 A 
ATOM     11  C   UNL     1       3.888  -1.767   3.264  1.00  0.00     0.033 A 
BRANCH   8  12
ATOM     12  C   UNL     1       4.632   0.781   0.736  1.00  0.00     0.222 C 
BRANCH  12  13
ATOM     13  C   UNL     1       4.301   0.387  -0.677  1.00  0.00     0.239 C 
ATOM     14  O   UNL     1       3.871   1.251  -1.441  1.00  0.00    -0.273 OA
ATOM     15  N   UNL     1       4.609  -0.888  -1.087  1.00  0.00    -0.354 N 
ATOM     16  H   UNL     1       5.418  -1.323  -0.732  1.00  0.00     0.163 HD
BRANCH  15  17
ATOM     17  C   UNL     1       3.773  -1.609  -2.032  1.00  0.00     0.119 C 
BRANCH  17  18
ATOM     18  C   UNL     1       3.856  -1.328  -3.532  1.00  0.00     0.008 C 
ATOM     19  C   UNL     1       2.845  -2.236  -4.252  1.00  0.00     0.005 C 
ATOM     20  C   UNL     1       3.434   0.069  -3.987  1.00  0.00     0.005 C 
ATOM     21  C   UNL     1       2.614  -1.577  -5.598  1.00  0.00     0.000 C 
ATOM     22  C   UNL     1       2.766  -0.085  -5.350  1.00  0.00     0.000 C 
ENDBRANCH  17  18
ENDBRANCH  15  17
ENDBRANCH  12  13
ENDBRANCH   8  12
ENDBRANCH   4   7
ENDBRANCH   2   3
ENDBRANCH   1   2
BRANCH   1  23
ATOM     23  C   UNL     1       0.070  -0.426  -1.814  1.00  0.00     0.023 C 
BRANCH  23  24
ATOM     24  C   UNL     1      -1.104   0.225  -2.536  1.00  0.00     0.116 C 
BRANCH  24  25
ATOM     25  N   UNL     1      -0.780   1.538  -3.089  1.00  0.00    -0.352 N 
ATOM     26  C   UNL     1      -1.642   2.594  -3.309  1.00  0.00     0.251 C 
ATOM     27  H   UNL     1       0.163   1.687  -3.332  1.00  0.00     0.163 HD
ATOM     28  O   UNL     1      -1.316   3.561  -3.975  1.00  0.00    -0.269 OA
BRANCH  26  29
ATOM     29  C   UNL     1      -3.009   2.484  -2.761  1.00  0.00     0.039 A 
ATOM     30  C   UNL     1      -4.069   2.356  -3.660  1.00  0.00     0.014 A 
ATOM     31  C   UNL     1      -3.192   2.317  -1.384  1.00  0.00     0.014 A 
ATOM     32  C   UNL     1      -5.298   1.916  -3.185  1.00  0.00     0.010 A 
ATOM     33  C   UNL     1      -4.409   1.835  -0.916  1.00  0.00     0.010 A 
ATOM     34  C   UNL     1      -5.445   1.590  -1.826  1.00  0.00    -0.014 A 
BRANCH  34  35
ATOM     35  C   UNL     1      -6.626   0.785  -1.426  1.00  0.00     0.031 A 
ATOM     36  C   UNL     1      -6.547  -0.650  -1.968  1.00  0.00     0.074 A 
ATOM     37  C   UNL     1      -7.602   1.401  -0.699  1.00  0.00     0.049 A 
ATOM     38  N   UNL     1      -7.470  -1.381  -2.521  1.00  0.00    -0.248 NA
ATOM     39  C   UNL     1      -5.220  -1.312  -2.050  1.00  0.00     0.031 C 
ATOM     40  C   UNL     1      -7.511   2.788  -0.208  1.00  0.00     0.029 A 
ATOM     41  N   UNL     1      -8.843   1.016  -0.225  1.00  0.00    -0.354 N 
ATOM     42  C   UNL     1      -6.891  -2.648  -2.786  1.00  0.00     0.074 A 
ATOM     43  C   UNL     1      -5.477  -2.479  -2.646  1.00  0.00     0.031 C 
ATOM     44  C   UNL     1      -8.645   3.147   0.426  1.00  0.00     0.029 A 
ATOM     45  C   UNL     1      -9.579   2.034   0.425  1.00  0.00     0.049 A 
ATOM     46  H   UNL     1      -9.190   0.101  -0.333  1.00  0.00     0.167 HD
ATOM     47  C   UNL     1      -7.632  -3.794  -2.901  1.00  0.00     0.034 A 
ATOM     48  C   UNL     1     -10.862   2.025   0.902  1.00  0.00     0.034 A 
ATOM     49  C   UNL     1      -8.995  -3.489  -2.606  1.00  0.00     0.049 A 
ATOM     50  C   UNL     1     -11.377   0.659   0.736  1.00  0.00     0.074 A 
ATOM     51  C   UNL     1     -10.002  -2.833  -3.259  1.00  0.00     0.029 A 
ATOM     52  N   UNL     1      -9.341  -3.666  -1.287  1.00  0.00    -0.354 N 
ATOM     53  N   UNL     1     -11.052  -0.352   1.486  1.00  0.00    -0.248 NA
ATOM     54  C   UNL     1     -12.256   0.361  -0.404  1.00  0.00     0.031 C 
ATOM     55  C   UNL     1     -10.785  -2.294  -2.216  1.00  0.00     0.029 A 
ATOM     56  C   UNL     1     -10.299  -2.742  -0.981  1.00  0.00     0.049 A 
ATOM     57  H   UNL     1      -8.965  -4.337  -0.673  1.00  0.00     0.167 HD
ATOM     58  C   UNL     1     -11.376  -1.416   0.678  1.00  0.00     0.074 A 
ATOM     59  C   UNL     1     -12.396  -0.950  -0.230  1.00  0.00     0.031 C 
ATOM     60  C   UNL     1     -10.420  -2.341   0.402  1.00  0.00     0.034 A 
BRANCH  47  61
ATOM     61  C   UNL     1      -7.310  -5.281  -2.931  1.00  0.00     0.023 A 
ATOM     62  C   UNL     1      -8.414  -6.128  -3.258  1.00  0.00     0.012 A 
ATOM     63  C   UNL     1      -6.170  -5.908  -2.406  1.00  0.00     0.148 A 
ATOM     64  C   UNL     1      -8.452  -7.483  -2.935  1.00  0.00     0.002 A 
ATOM     65  C   UNL     1      -6.189  -7.285  -2.141  1.00  0.00     0.091 A 
ATOM     66  F   UNL     1      -5.098  -5.180  -2.083  1.00  0.00    -0.205 F 
ATOM     67  C   UNL     1      -7.339  -8.059  -2.357  1.00  0.00     0.022 A 
BRANCH  65  68
ATOM     68  S   UNL     1      -4.754  -8.163  -1.507  1.00  0.00     0.127 S 
ATOM     69  O   UNL     1      -5.072  -8.284  -0.088  1.00  0.00    -0.237 OA
ATOM     70  O   UNL     1      -4.814  -9.424  -2.252  1.00  0.00    -0.237 OA
ATOM     71  O   UNL     1      -3.610  -7.331  -1.853  1.00  0.00    -0.744 OA
ENDBRANCH  65  68
ENDBRANCH  47  61
BRANCH  48  72
ATOM     72  C   UNL     1     -11.821   3.071   1.422  1.00  0.00     0.023 A 
ATOM     73  C   UNL     1     -11.417   4.303   1.954  1.00  0.00     0.012 A 
ATOM     74  C   UNL     1     -13.230   2.859   1.357  1.00  0.00     0.148 A 
ATOM     75  C   UNL     1     -12.351   5.303   2.287  1.00  0.00     0.002 A 
ATOM     76  C   UNL     1     -14.149   3.873   1.595  1.00  0.00     0.091 A 
ATOM     77  F   UNL     1     -13.710   1.641   1.093  1.00  0.00    -0.205 F 
ATOM     78  C   UNL     1     -13.712   5.106   2.070  1.00  0.00     0.022 A 
BRANCH  76  79
ATOM     79  S   UNL     1     -15.897   3.685   1.193  1.00  0.00     0.127 S 
ATOM     80  O   UNL     1     -16.548   4.080   2.440  1.00  0.00    -0.237 OA
ATOM     81  O   UNL     1     -16.045   4.637   0.092  1.00  0.00    -0.237 OA
ATOM     82  O   UNL     1     -16.088   2.290   0.816  1.00  0.00    -0.744 OA
ENDBRANCH  76  79
ENDBRANCH  48  72
BRANCH  60  83
ATOM     83  C   UNL     1      -9.367  -2.498   1.499  1.00  0.00     0.023 A 
ATOM     84  C   UNL     1      -9.815  -2.884   2.779  1.00  0.00     0.012 A 
ATOM     85  C   UNL     1      -8.001  -2.152   1.369  1.00  0.00     0.148 A 
ATOM     86  C   UNL     1      -8.955  -2.900   3.882  1.00  0.00     0.002 A 
ATOM     87  C   UNL     1      -7.142  -2.155   2.471  1.00  0.00     0.091 A 
ATOM     88  F   UNL     1      -7.548  -1.806   0.167  1.00  0.00    -0.205 F 
ATOM     89  C   UNL     1      -7.623  -2.532   3.731  1.00  0.00     0.022 A 
BRANCH  87  90
ATOM     90  S   UNL     1      -5.418  -1.617   2.407  1.00  0.00     0.127 S 
ATOM     91  O   UNL     1      -5.359  -0.611   3.470  1.00  0.00    -0.237 OA
ATOM     92  O   UNL     1      -4.696  -2.849   2.711  1.00  0.00    -0.237 OA
ATOM     93  O   UNL     1      -5.189  -1.076   1.072  1.00  0.00    -0.744 OA
ENDBRANCH  87  90
ENDBRANCH  60  83
ENDBRANCH  34  35
ENDBRANCH  26  29
ENDBRANCH  24  25
ENDBRANCH  23  24
ENDBRANCH   1  23
TORSDOF 18
