REMARK SMILES O=C(NCCCCNC(=O)[C@]12C[NH2+]C[C@H]1CN(C(=O)c1ccccc1-n1cncn1)C2)c1ccc(-c2c3nc(c(-c4cccc(S(=O)(=O)[O-])c4F)c4ccc([nH]4)c(-c4cccc(S(=O)(=O)[O-])c4F)c4nc(c(-c5cccc(S(=O)(=O)[O-])c5F)c5ccc2[nH]5)C=C4)C=C3)cc1
REMARK SMILES IDX 5 1 4 2 3 3 1 4 2 5 32 7 33 8 94 9 34 10 93 11 35 12 36 13
REMARK SMILES IDX 37 14 87 15 38 16 92 17 86 18 88 19 39 20 91 21 85 22 84 23
REMARK SMILES IDX 40 25 72 26 52 27 71 28 53 29 56 30 70 31 89 32 54 33 55 34
REMARK SMILES IDX 69 36 90 37 57 38 41 39 42 40 50 41 43 42 45 43 51 44 44 45
REMARK SMILES IDX 46 46 47 47 48 48 49 49 73 50 74 51 82 52 75 53 77 54 83 55
REMARK SMILES IDX 76 56 78 57 79 58 80 59 81 60 58 61 59 62 67 63 60 64 62 65
REMARK SMILES IDX 68 66 61 67 63 68 64 69 65 70 66 71 6 72 7 73 8 74 9 75
REMARK SMILES IDX 10 77 11 78 12 79 15 80 31 81 13 82 14 83 16 84 17 85 18 88
REMARK SMILES IDX 19 89 20 90 21 91 25 92 22 93 24 94 23 95 26 96 27 97 30 98
REMARK SMILES IDX 28 99 29 100
REMARK H PARENT 3 6 88 24 56 35 8 76 13 86 13 87
REMARK Flexibility Score: inf
ROOT
ATOM      1  C   UNL     1       4.884  -1.929  -0.564  1.00  0.00     0.023 C 
ENDROOT
BRANCH   1   2
ATOM      2  C   UNL     1       4.657  -0.432  -0.800  1.00  0.00     0.116 C 
BRANCH   2   3
ATOM      3  N   UNL     1       3.286  -0.057  -1.067  1.00  0.00    -0.352 N 
ATOM      4  O   UNL     1       1.238   0.729  -0.823  1.00  0.00    -0.269 OA
ATOM      5  C   UNL     1       2.211   0.218  -0.266  1.00  0.00     0.251 C 
ATOM      6  H   UNL     1       3.083   0.015  -2.028  1.00  0.00     0.163 HD
BRANCH   5   7
ATOM      7  C   UNL     1       2.127  -0.158   1.169  1.00  0.00     0.039 A 
ATOM      8  C   UNL     1       3.197  -0.610   1.943  1.00  0.00     0.014 A 
ATOM      9  C   UNL     1       0.844  -0.135   1.740  1.00  0.00     0.014 A 
ATOM     10  C   UNL     1       2.976  -1.199   3.175  1.00  0.00     0.010 A 
ATOM     11  C   UNL     1       0.619  -0.675   2.997  1.00  0.00     0.010 A 
ATOM     12  C   UNL     1       1.680  -1.264   3.678  1.00  0.00    -0.014 A 
BRANCH  12  13
ATOM     13  C   UNL     1       1.510  -1.820   5.010  1.00  0.00     0.031 A 
ATOM     14  C   UNL     1       2.163  -1.012   6.079  1.00  0.00     0.074 A 
ATOM     15  C   UNL     1       0.733  -2.894   5.249  1.00  0.00     0.049 A 
ATOM     16  N   UNL     1       3.119  -1.363   6.877  1.00  0.00    -0.248 NA
ATOM     17  C   UNL     1       1.821   0.417   6.150  1.00  0.00     0.031 C 
ATOM     18  C   UNL     1      -0.155  -3.581   4.308  1.00  0.00     0.029 A 
ATOM     19  N   UNL     1       0.456  -3.504   6.434  1.00  0.00    -0.354 N 
ATOM     20  C   UNL     1       3.328  -0.263   7.712  1.00  0.00     0.074 A 
ATOM     21  C   UNL     1       2.660   0.847   7.092  1.00  0.00     0.031 C 
ATOM     22  C   UNL     1      -1.057  -4.309   5.005  1.00  0.00     0.029 A 
ATOM     23  C   UNL     1      -0.726  -4.239   6.417  1.00  0.00     0.049 A 
ATOM     24  H   UNL     1       1.036  -3.433   7.226  1.00  0.00     0.167 HD
ATOM     25  C   UNL     1       3.803  -0.413   8.979  1.00  0.00     0.034 A 
ATOM     26  C   UNL     1      -1.431  -4.661   7.497  1.00  0.00     0.034 A 
ATOM     27  C   UNL     1       4.445  -1.691   9.151  1.00  0.00     0.049 A 
ATOM     28  C   UNL     1      -0.515  -4.638   8.661  1.00  0.00     0.074 A 
ATOM     29  C   UNL     1       5.519  -2.338   8.576  1.00  0.00     0.029 A 
ATOM     30  N   UNL     1       3.730  -2.661   9.809  1.00  0.00    -0.354 N 
ATOM     31  N   UNL     1       0.519  -5.422   8.773  1.00  0.00    -0.248 NA
ATOM     32  C   UNL     1      -0.488  -3.438   9.481  1.00  0.00     0.031 C 
ATOM     33  C   UNL     1       5.127  -3.708   8.510  1.00  0.00     0.029 A 
ATOM     34  C   UNL     1       3.868  -3.822   9.101  1.00  0.00     0.049 A 
ATOM     35  H   UNL     1       3.214  -2.542  10.639  1.00  0.00     0.167 HD
ATOM     36  C   UNL     1       1.512  -4.605   9.296  1.00  0.00     0.074 A 
ATOM     37  C   UNL     1       0.807  -3.430   9.808  1.00  0.00     0.031 C 
ATOM     38  C   UNL     1       2.828  -4.820   9.000  1.00  0.00     0.034 A 
BRANCH  25  39
ATOM     39  C   UNL     1       3.330   0.391  10.178  1.00  0.00     0.023 A 
ATOM     40  C   UNL     1       3.961   0.123  11.416  1.00  0.00     0.012 A 
ATOM     41  C   UNL     1       2.131   1.139  10.226  1.00  0.00     0.148 A 
ATOM     42  C   UNL     1       3.378   0.488  12.634  1.00  0.00     0.002 A 
ATOM     43  C   UNL     1       1.590   1.560  11.436  1.00  0.00     0.091 A 
ATOM     44  F   UNL     1       1.421   1.352   9.117  1.00  0.00    -0.205 F 
ATOM     45  C   UNL     1       2.189   1.204  12.645  1.00  0.00     0.022 A 
BRANCH  43  46
ATOM     46  S   UNL     1       0.070   2.517  11.508  1.00  0.00     0.127 S 
ATOM     47  O   UNL     1      -0.875   1.523  12.004  1.00  0.00    -0.237 OA
ATOM     48  O   UNL     1       0.425   3.569  12.460  1.00  0.00    -0.237 OA
ATOM     49  O   UNL     1      -0.157   2.996  10.148  1.00  0.00    -0.744 OA
ENDBRANCH  43  46
ENDBRANCH  25  39
BRANCH  26  50
ATOM     50  C   UNL     1      -2.900  -4.768   7.663  1.00  0.00     0.023 A 
ATOM     51  C   UNL     1      -3.437  -5.573   8.688  1.00  0.00     0.012 A 
ATOM     52  C   UNL     1      -3.767  -3.870   7.000  1.00  0.00     0.148 A 
ATOM     53  C   UNL     1      -4.785  -5.471   9.054  1.00  0.00     0.002 A 
ATOM     54  C   UNL     1      -5.108  -3.779   7.361  1.00  0.00     0.091 A 
ATOM     55  F   UNL     1      -3.256  -3.038   6.084  1.00  0.00    -0.205 F 
ATOM     56  C   UNL     1      -5.619  -4.570   8.396  1.00  0.00     0.022 A 
BRANCH  54  57
ATOM     57  S   UNL     1      -6.233  -2.622   6.566  1.00  0.00     0.127 S 
ATOM     58  O   UNL     1      -7.362  -3.490   6.224  1.00  0.00    -0.237 OA
ATOM     59  O   UNL     1      -6.501  -1.672   7.648  1.00  0.00    -0.237 OA
ATOM     60  O   UNL     1      -5.517  -2.090   5.421  1.00  0.00    -0.744 OA
ENDBRANCH  54  57
ENDBRANCH  26  50
BRANCH  38  61
ATOM     61  C   UNL     1       3.192  -6.092   8.278  1.00  0.00     0.023 A 
ATOM     62  C   UNL     1       2.748  -6.371   6.967  1.00  0.00     0.012 A 
ATOM     63  C   UNL     1       4.144  -6.939   8.867  1.00  0.00     0.148 A 
ATOM     64  C   UNL     1       3.225  -7.485   6.271  1.00  0.00     0.002 A 
ATOM     65  C   UNL     1       4.650  -8.018   8.155  1.00  0.00     0.091 A 
ATOM     66  F   UNL     1       4.564  -6.651  10.108  1.00  0.00    -0.205 F 
ATOM     67  C   UNL     1       4.186  -8.302   6.860  1.00  0.00     0.022 A 
BRANCH  65  68
ATOM     68  S   UNL     1       5.978  -9.032   8.807  1.00  0.00     0.127 S 
ATOM     69  O   UNL     1       5.280 -10.273   9.137  1.00  0.00    -0.237 OA
ATOM     70  O   UNL     1       6.888  -9.126   7.664  1.00  0.00    -0.237 OA
ATOM     71  O   UNL     1       6.524  -8.298   9.942  1.00  0.00    -0.744 OA
ENDBRANCH  65  68
ENDBRANCH  38  61
ENDBRANCH  12  13
ENDBRANCH   5   7
ENDBRANCH   2   3
ENDBRANCH   1   2
BRANCH   1  72
ATOM     72  C   UNL     1       4.385  -2.841  -1.679  1.00  0.00     0.023 C 
BRANCH  72  73
ATOM     73  C   UNL     1       4.823  -2.408  -3.058  1.00  0.00     0.116 C 
BRANCH  73  74
ATOM     74  N   UNL     1       6.268  -2.382  -3.197  1.00  0.00    -0.355 N 
ATOM     75  C   UNL     1       6.945  -2.741  -4.339  1.00  0.00     0.234 C 
ATOM     76  H   UNL     1       6.799  -2.087  -2.422  1.00  0.00     0.163 HD
ATOM     77  O   UNL     1       8.128  -2.437  -4.477  1.00  0.00    -0.274 OA
BRANCH  75  78
ATOM     78  C   UNL     1       6.063  -3.468  -5.373  1.00  0.00     0.125 C 
ATOM     79  C   UNL     1       7.066  -4.686  -5.224  1.00  0.00     0.280 C 
ATOM     80  C   UNL     1       5.660  -4.030  -6.773  1.00  0.00     0.087 C 
ATOM     81  C   UNL     1       5.940  -1.994  -6.024  1.00  0.00     0.143 C 
ATOM     82  N   UNL     1       6.350  -5.919  -5.610  1.00  0.00    -0.345 N 
ATOM     83  C   UNL     1       5.487  -5.529  -6.704  1.00  0.00     0.267 C 
ATOM     84  C   UNL     1       4.368  -3.320  -7.142  1.00  0.00     0.130 C 
ATOM     85  N   UNL     1       4.611  -1.997  -6.642  1.00  0.00    -0.337 N 
ATOM     86  H   UNL     1       5.799  -6.273  -4.828  1.00  0.00     0.346 HD
ATOM     87  H   UNL     1       6.992  -6.666  -5.878  1.00  0.00     0.346 HD
BRANCH  85  88
ATOM     88  C   UNL     1       3.580  -1.073  -6.574  1.00  0.00     0.256 C 
ATOM     89  O   UNL     1       2.447  -1.328  -6.976  1.00  0.00    -0.269 OA
BRANCH  88  90
ATOM     90  C   UNL     1       3.807   0.279  -5.998  1.00  0.00     0.065 A 
ATOM     91  C   UNL     1       2.920   0.682  -4.982  1.00  0.00     0.016 A 
ATOM     92  C   UNL     1       4.842   1.145  -6.381  1.00  0.00     0.079 A 
ATOM     93  C   UNL     1       3.085   1.910  -4.333  1.00  0.00     0.001 A 
ATOM     94  C   UNL     1       5.034   2.356  -5.689  1.00  0.00     0.029 A 
ATOM     95  C   UNL     1       4.148   2.740  -4.680  1.00  0.00     0.002 A 
BRANCH  92  96
ATOM     96  N   UNL     1       5.715   0.847  -7.448  1.00  0.00    -0.220 N 
ATOM     97  C   UNL     1       5.480   0.145  -8.606  1.00  0.00     0.225 A 
ATOM     98  N   UNL     1       7.024   1.195  -7.398  1.00  0.00    -0.155 NA
ATOM     99  N   UNL     1       6.612  -0.113  -9.220  1.00  0.00    -0.223 NA
ATOM    100  C   UNL     1       7.527   0.515  -8.430  1.00  0.00     0.246 A 
ENDBRANCH  92  96
ENDBRANCH  88  90
ENDBRANCH  85  88
ENDBRANCH  75  78
ENDBRANCH  73  74
ENDBRANCH  72  73
ENDBRANCH   1  72
TORSDOF 17
