REMARK SMILES O=C(NCCCCNC(=O)c1cccc(Nc2ccc([N+](=O)[O-])cc2)c1)c1ccc(-c2c3nc(c(-c4cccc(S(=O)(=O)[O-])c4F)c4ccc([nH]4)c(-c4cccc(S(=O)(=O)[O-])c4F)c4nc(c(-c5cccc(S(=O)(=O)[O-])c5F)c5ccc2[nH]5)C=C4)C=C3)cc1
REMARK SMILES IDX 5 1 4 2 3 3 1 4 2 5 27 7 28 8 89 9 29 10 88 11 30 12 31 13
REMARK SMILES IDX 32 14 82 15 33 16 87 17 81 18 83 19 34 20 86 21 80 22 79 23
REMARK SMILES IDX 35 25 67 26 47 27 66 28 48 29 51 30 65 31 84 32 49 33 50 34
REMARK SMILES IDX 64 36 85 37 52 38 36 39 37 40 45 41 38 42 40 43 46 44 39 45
REMARK SMILES IDX 41 46 42 47 43 48 44 49 68 50 69 51 77 52 70 53 72 54 78 55
REMARK SMILES IDX 71 56 73 57 74 58 75 59 76 60 53 61 54 62 62 63 55 64 57 65
REMARK SMILES IDX 63 66 56 67 58 68 59 69 60 70 61 71 6 72 7 73 8 74 9 75
REMARK SMILES IDX 10 77 11 78 12 79 26 80 13 81 15 82 14 83 16 84 17 86 18 87
REMARK SMILES IDX 25 88 19 89 24 90 20 91 21 92 22 93 23 94
REMARK H PARENT 3 6 83 24 51 35 8 76 16 85
REMARK Flexibility Score: inf
ROOT
ATOM      1  C   UNL     1       4.948  -1.180   2.108  1.00  0.00     0.023 C 
ENDROOT
BRANCH   1   2
ATOM      2  C   UNL     1       4.599  -0.949   0.644  1.00  0.00     0.116 C 
BRANCH   2   3
ATOM      3  N   UNL     1       3.165  -0.946   0.400  1.00  0.00    -0.352 N 
ATOM      4  O   UNL     1       1.147  -0.068  -0.076  1.00  0.00    -0.269 OA
ATOM      5  C   UNL     1       2.368   0.059  -0.097  1.00  0.00     0.251 C 
ATOM      6  H   UNL     1       2.698  -1.783   0.624  1.00  0.00     0.163 HD
BRANCH   5   7
ATOM      7  C   UNL     1       2.988   1.294  -0.621  1.00  0.00     0.039 A 
ATOM      8  C   UNL     1       4.094   1.229  -1.473  1.00  0.00     0.014 A 
ATOM      9  C   UNL     1       2.466   2.533  -0.241  1.00  0.00     0.014 A 
ATOM     10  C   UNL     1       4.775   2.393  -1.810  1.00  0.00     0.010 A 
ATOM     11  C   UNL     1       3.099   3.706  -0.659  1.00  0.00     0.010 A 
ATOM     12  C   UNL     1       4.282   3.645  -1.414  1.00  0.00    -0.014 A 
BRANCH  12  13
ATOM     13  C   UNL     1       4.980   4.885  -1.840  1.00  0.00     0.031 A 
ATOM     14  C   UNL     1       5.569   5.830  -0.830  1.00  0.00     0.074 A 
ATOM     15  C   UNL     1       5.056   5.168  -3.155  1.00  0.00     0.049 A 
ATOM     16  N   UNL     1       6.166   6.978  -1.028  1.00  0.00    -0.248 NA
ATOM     17  C   UNL     1       5.466   5.445   0.586  1.00  0.00     0.031 C 
ATOM     18  C   UNL     1       4.497   4.342  -4.227  1.00  0.00     0.029 A 
ATOM     19  N   UNL     1       5.611   6.236  -3.813  1.00  0.00    -0.354 N 
ATOM     20  C   UNL     1       6.469   7.475   0.234  1.00  0.00     0.074 A 
ATOM     21  C   UNL     1       5.984   6.505   1.194  1.00  0.00     0.031 C 
ATOM     22  C   UNL     1       4.739   4.928  -5.407  1.00  0.00     0.029 A 
ATOM     23  C   UNL     1       5.414   6.200  -5.173  1.00  0.00     0.049 A 
ATOM     24  H   UNL     1       6.102   6.956  -3.357  1.00  0.00     0.167 HD
ATOM     25  C   UNL     1       7.101   8.628   0.563  1.00  0.00     0.034 A 
ATOM     26  C   UNL     1       5.709   7.103  -6.127  1.00  0.00     0.034 A 
ATOM     27  C   UNL     1       7.597   9.578  -0.399  1.00  0.00     0.049 A 
ATOM     28  C   UNL     1       6.404   8.374  -5.737  1.00  0.00     0.074 A 
ATOM     29  C   UNL     1       8.306  10.744  -0.170  1.00  0.00     0.029 A 
ATOM     30  N   UNL     1       7.421   9.482  -1.772  1.00  0.00    -0.354 N 
ATOM     31  N   UNL     1       6.785   8.773  -4.548  1.00  0.00    -0.248 NA
ATOM     32  C   UNL     1       6.739   9.307  -6.822  1.00  0.00     0.031 C 
ATOM     33  C   UNL     1       8.524  11.373  -1.400  1.00  0.00     0.029 A 
ATOM     34  C   UNL     1       7.993  10.576  -2.401  1.00  0.00     0.049 A 
ATOM     35  H   UNL     1       6.958   8.745  -2.231  1.00  0.00     0.167 HD
ATOM     36  C   UNL     1       7.438   9.983  -4.744  1.00  0.00     0.074 A 
ATOM     37  C   UNL     1       7.410  10.246  -6.168  1.00  0.00     0.031 C 
ATOM     38  C   UNL     1       8.002  10.804  -3.824  1.00  0.00     0.034 A 
BRANCH  25  39
ATOM     39  C   UNL     1       7.302   8.926   2.028  1.00  0.00     0.023 A 
ATOM     40  C   UNL     1       8.220   8.166   2.782  1.00  0.00     0.012 A 
ATOM     41  C   UNL     1       6.619   9.992   2.648  1.00  0.00     0.148 A 
ATOM     42  C   UNL     1       8.422   8.432   4.136  1.00  0.00     0.002 A 
ATOM     43  C   UNL     1       6.861  10.281   3.987  1.00  0.00     0.091 A 
ATOM     44  F   UNL     1       5.737  10.695   1.924  1.00  0.00    -0.205 F 
ATOM     45  C   UNL     1       7.750   9.494   4.736  1.00  0.00     0.022 A 
BRANCH  43  46
ATOM     46  S   UNL     1       6.106  11.679   4.826  1.00  0.00     0.127 S 
ATOM     47  O   UNL     1       5.142  11.013   5.700  1.00  0.00    -0.237 OA
ATOM     48  O   UNL     1       7.248  12.275   5.521  1.00  0.00    -0.237 OA
ATOM     49  O   UNL     1       5.532  12.513   3.779  1.00  0.00    -0.744 OA
ENDBRANCH  43  46
ENDBRANCH  25  39
BRANCH  26  50
ATOM     50  C   UNL     1       5.365   6.808  -7.545  1.00  0.00     0.023 A 
ATOM     51  C   UNL     1       6.392   6.532  -8.467  1.00  0.00     0.012 A 
ATOM     52  C   UNL     1       4.022   6.740  -7.968  1.00  0.00     0.148 A 
ATOM     53  C   UNL     1       6.090   6.216  -9.791  1.00  0.00     0.002 A 
ATOM     54  C   UNL     1       3.727   6.367  -9.272  1.00  0.00     0.091 A 
ATOM     55  F   UNL     1       3.062   7.010  -7.073  1.00  0.00    -0.205 F 
ATOM     56  C   UNL     1       4.759   6.122 -10.191  1.00  0.00     0.022 A 
BRANCH  54  57
ATOM     57  S   UNL     1       2.046   6.086  -9.839  1.00  0.00     0.127 S 
ATOM     58  O   UNL     1       1.875   7.162 -10.812  1.00  0.00    -0.237 OA
ATOM     59  O   UNL     1       2.146   4.744 -10.413  1.00  0.00    -0.237 OA
ATOM     60  O   UNL     1       1.207   6.173  -8.652  1.00  0.00    -0.744 OA
ENDBRANCH  54  57
ENDBRANCH  26  50
BRANCH  38  61
ATOM     61  C   UNL     1       8.694  12.045  -4.326  1.00  0.00     0.023 A 
ATOM     62  C   UNL     1       7.940  13.128  -4.817  1.00  0.00     0.012 A 
ATOM     63  C   UNL     1      10.095  12.162  -4.232  1.00  0.00     0.148 A 
ATOM     64  C   UNL     1       8.573  14.299  -5.236  1.00  0.00     0.002 A 
ATOM     65  C   UNL     1      10.713  13.350  -4.600  1.00  0.00     0.091 A 
ATOM     66  F   UNL     1      10.795  11.112  -3.781  1.00  0.00    -0.205 F 
ATOM     67  C   UNL     1       9.956  14.415  -5.114  1.00  0.00     0.022 A 
BRANCH  65  68
ATOM     68  S   UNL     1      12.475  13.626  -4.384  1.00  0.00     0.127 S 
ATOM     69  O   UNL     1      12.945  13.646  -5.769  1.00  0.00    -0.237 OA
ATOM     70  O   UNL     1      12.504  14.925  -3.711  1.00  0.00    -0.237 OA
ATOM     71  O   UNL     1      12.962  12.515  -3.578  1.00  0.00    -0.744 OA
ENDBRANCH  65  68
ENDBRANCH  38  61
ENDBRANCH  12  13
ENDBRANCH   5   7
ENDBRANCH   2   3
ENDBRANCH   1   2
BRANCH   1  72
ATOM     72  C   UNL     1       4.485  -2.518   2.679  1.00  0.00     0.023 C 
BRANCH  72  73
ATOM     73  C   UNL     1       4.912  -3.743   1.879  1.00  0.00     0.116 C 
BRANCH  73  74
ATOM     74  N   UNL     1       6.357  -3.869   1.776  1.00  0.00    -0.352 N 
ATOM     75  C   UNL     1       7.157  -4.928   2.118  1.00  0.00     0.251 C 
ATOM     76  H   UNL     1       6.826  -3.084   1.410  1.00  0.00     0.163 HD
ATOM     77  O   UNL     1       8.382  -4.815   2.115  1.00  0.00    -0.269 OA
BRANCH  75  78
ATOM     78  C   UNL     1       6.546  -6.212   2.508  1.00  0.00     0.041 A 
ATOM     79  C   UNL     1       6.974  -6.830   3.682  1.00  0.00     0.014 A 
ATOM     80  C   UNL     1       5.568  -6.810   1.703  1.00  0.00     0.039 A 
ATOM     81  C   UNL     1       6.377  -8.021   4.080  1.00  0.00     0.003 A 
ATOM     82  C   UNL     1       4.949  -7.999   2.098  1.00  0.00     0.039 A 
ATOM     83  C   UNL     1       5.363  -8.589   3.300  1.00  0.00     0.026 A 
BRANCH  82  84
ATOM     84  N   UNL     1       3.920  -8.523   1.295  1.00  0.00    -0.356 N 
ATOM     85  H   UNL     1       3.805  -8.078   0.424  1.00  0.00     0.167 HD
BRANCH  84  86
ATOM     86  C   UNL     1       3.032  -9.581   1.541  1.00  0.00     0.039 A 
ATOM     87  C   UNL     1       2.891 -10.581   0.569  1.00  0.00     0.033 A 
ATOM     88  C   UNL     1       2.366  -9.729   2.764  1.00  0.00     0.033 A 
ATOM     89  C   UNL     1       2.136 -11.728   0.825  1.00  0.00     0.088 A 
ATOM     90  C   UNL     1       1.597 -10.864   3.032  1.00  0.00     0.088 A 
ATOM     91  C   UNL     1       1.502 -11.871   2.064  1.00  0.00     0.269 A 
BRANCH  91  92
ATOM     92  N   UNL     1       0.759 -13.101   2.362  1.00  0.00     0.062 N 
ATOM     93  O   UNL     1       0.717 -13.976   1.485  1.00  0.00    -0.258 OA
ATOM     94  O   UNL     1       0.229 -13.200   3.478  1.00  0.00    -0.258 OA
ENDBRANCH  91  92
ENDBRANCH  84  86
ENDBRANCH  82  84
ENDBRANCH  75  78
ENDBRANCH  73  74
ENDBRANCH  72  73
ENDBRANCH   1  72
TORSDOF 17
