REMARK SMILES C[C@H](C(=O)NCCCCNC(=O)c1ccc(-c2c3nc(c(-c4cccc(S(=O)(=O)[O-])c4F)c4ccc([nH]4)c(-c4cccc(S(=O)(=O)[O-])c4F)c4nc(c(-c5cccc(S(=O)(=O)[O-])c5F)c5ccc2[nH]5)C=C4)C=C3)cc1)c1ccc2c(c1)[nH]c1ccc(Cl)cc12
REMARK SMILES IDX 8 1 7 2 6 3 5 4 3 5 4 6 2 8 1 9 76 10 77 11 81 12 78 13
REMARK SMILES IDX 80 14 79 15 82 16 89 17 83 18 88 20 84 21 86 22 85 23 87 24
REMARK SMILES IDX 9 25 10 26 11 27 12 29 13 30 14 31 75 32 15 33 74 34 16 35
REMARK SMILES IDX 17 36 18 37 68 38 19 39 73 40 67 41 69 42 20 43 72 44 66 45
REMARK SMILES IDX 65 46 21 48 53 49 33 50 52 51 34 52 37 53 51 54 70 55 35 56
REMARK SMILES IDX 36 57 50 59 71 60 38 61 22 62 23 63 31 64 24 65 26 66 32 67
REMARK SMILES IDX 25 68 27 69 28 70 29 71 30 72 54 73 55 74 63 75 56 76 58 77
REMARK SMILES IDX 64 78 57 79 59 80 60 81 61 82 62 83 39 84 40 85 48 86 41 87
REMARK SMILES IDX 43 88 49 89 42 90 44 91 45 92 46 93 47 94
REMARK H PARENT 5 7 82 19 10 28 69 47 37 58
REMARK Flexibility Score: inf
ROOT
ATOM      1  C   UNL     1      -1.645   2.999   2.078  1.00  0.00     0.023 C 
ENDROOT
BRANCH   1   2
ATOM      2  C   UNL     1      -2.018   1.539   1.845  1.00  0.00     0.023 C 
BRANCH   2   3
ATOM      3  C   UNL     1      -1.514   0.871   0.572  1.00  0.00     0.116 C 
BRANCH   3   4
ATOM      4  N   UNL     1      -0.077   0.818   0.426  1.00  0.00    -0.356 N 
ATOM      5  C   UNL     1       0.713   0.018  -0.338  1.00  0.00     0.227 C 
ATOM      6  O   UNL     1       1.869   0.439  -0.505  1.00  0.00    -0.274 OA
ATOM      7  H   UNL     1       0.414   1.473   0.973  1.00  0.00     0.163 HD
BRANCH   5   8
ATOM      8  C   UNL     1       0.348  -1.361  -0.926  1.00  0.00     0.105 C 
ATOM      9  C   UNL     1       1.298  -2.369  -0.243  1.00  0.00     0.023 C 
BRANCH   8  10
ATOM     10  C   UNL     1      -1.107  -1.827  -0.964  1.00  0.00    -0.034 A 
ATOM     11  C   UNL     1      -2.052  -1.135  -1.742  1.00  0.00     0.005 A 
ATOM     12  C   UNL     1      -1.538  -2.952  -0.237  1.00  0.00     0.031 A 
ATOM     13  C   UNL     1      -3.426  -1.440  -1.678  1.00  0.00     0.011 A 
ATOM     14  C   UNL     1      -2.901  -3.265  -0.214  1.00  0.00     0.047 A 
ATOM     15  C   UNL     1      -3.866  -2.509  -0.870  1.00  0.00     0.007 A 
ATOM     16  N   UNL     1      -3.549  -4.288   0.432  1.00  0.00    -0.355 N 
ATOM     17  C   UNL     1      -5.144  -3.034  -0.481  1.00  0.00     0.009 A 
ATOM     18  C   UNL     1      -4.910  -4.143   0.335  1.00  0.00     0.047 A 
ATOM     19  H   UNL     1      -3.098  -5.027   0.901  1.00  0.00     0.167 HD
ATOM     20  C   UNL     1      -6.482  -2.652  -0.716  1.00  0.00     0.031 A 
ATOM     21  C   UNL     1      -5.931  -4.898   0.921  1.00  0.00     0.028 A 
ATOM     22  C   UNL     1      -7.514  -3.385  -0.115  1.00  0.00     0.041 A 
ATOM     23  C   UNL     1      -7.246  -4.490   0.688  1.00  0.00     0.022 A 
ATOM     24  Cl  UNL     1      -9.150  -2.903  -0.361  1.00  0.00    -0.084 Cl
ENDBRANCH   8  10
ENDBRANCH   5   8
ENDBRANCH   3   4
ENDBRANCH   2   3
ENDBRANCH   1   2
BRANCH   1  25
ATOM     25  C   UNL     1      -1.852   3.966   0.918  1.00  0.00     0.116 C 
BRANCH  25  26
ATOM     26  N   UNL     1      -3.195   3.955   0.357  1.00  0.00    -0.352 N 
ATOM     27  C   UNL     1      -4.089   4.982   0.146  1.00  0.00     0.251 C 
ATOM     28  H   UNL     1      -3.518   3.066   0.083  1.00  0.00     0.163 HD
ATOM     29  O   UNL     1      -5.195   4.729  -0.314  1.00  0.00    -0.269 OA
BRANCH  27  30
ATOM     30  C   UNL     1      -3.745   6.377   0.515  1.00  0.00     0.039 A 
ATOM     31  C   UNL     1      -4.701   7.140   1.193  1.00  0.00     0.014 A 
ATOM     32  C   UNL     1      -2.499   6.932   0.221  1.00  0.00     0.014 A 
ATOM     33  C   UNL     1      -4.370   8.416   1.659  1.00  0.00     0.010 A 
ATOM     34  C   UNL     1      -2.141   8.166   0.764  1.00  0.00     0.010 A 
ATOM     35  C   UNL     1      -3.069   8.920   1.496  1.00  0.00    -0.014 A 
BRANCH  35  36
ATOM     36  C   UNL     1      -2.664  10.207   2.128  1.00  0.00     0.031 A 
ATOM     37  C   UNL     1      -2.190  11.366   1.292  1.00  0.00     0.074 A 
ATOM     38  C   UNL     1      -2.654  10.306   3.474  1.00  0.00     0.049 A 
ATOM     39  N   UNL     1      -1.802  12.555   1.679  1.00  0.00    -0.248 NA
ATOM     40  C   UNL     1      -2.116  11.159  -0.164  1.00  0.00     0.031 C 
ATOM     41  C   UNL     1      -2.980   9.223   4.405  1.00  0.00     0.029 A 
ATOM     42  N   UNL     1      -2.339  11.361   4.295  1.00  0.00    -0.354 N 
ATOM     43  C   UNL     1      -1.418  13.227   0.524  1.00  0.00     0.074 A 
ATOM     44  C   UNL     1      -1.575  12.298  -0.574  1.00  0.00     0.031 C 
ATOM     45  C   UNL     1      -2.860   9.671   5.665  1.00  0.00     0.029 A 
ATOM     46  C   UNL     1      -2.431  11.065   5.636  1.00  0.00     0.049 A 
ATOM     47  H   UNL     1      -2.073  12.246   3.956  1.00  0.00     0.167 HD
ATOM     48  C   UNL     1      -1.011  14.511   0.381  1.00  0.00     0.034 A 
ATOM     49  C   UNL     1      -2.200  11.829   6.722  1.00  0.00     0.034 A 
ATOM     50  C   UNL     1      -0.893  15.448   1.467  1.00  0.00     0.049 A 
ATOM     51  C   UNL     1      -1.820  13.273   6.530  1.00  0.00     0.074 A 
ATOM     52  C   UNL     1      -0.563  16.791   1.413  1.00  0.00     0.029 A 
ATOM     53  N   UNL     1      -1.102  15.142   2.802  1.00  0.00    -0.354 N 
ATOM     54  N   UNL     1      -1.632  13.936   5.415  1.00  0.00    -0.248 NA
ATOM     55  C   UNL     1      -1.666  14.086   7.745  1.00  0.00     0.031 C 
ATOM     56  C   UNL     1      -0.562  17.295   2.719  1.00  0.00     0.029 A 
ATOM     57  C   UNL     1      -0.910  16.270   3.583  1.00  0.00     0.049 A 
ATOM     58  H   UNL     1      -1.350  14.253   3.146  1.00  0.00     0.167 HD
ATOM     59  C   UNL     1      -1.363  15.246   5.792  1.00  0.00     0.074 A 
ATOM     60  C   UNL     1      -1.452  15.291   7.237  1.00  0.00     0.031 C 
ATOM     61  C   UNL     1      -1.047  16.312   5.016  1.00  0.00     0.034 A 
BRANCH  48  62
ATOM     62  C   UNL     1      -0.740  15.007  -1.017  1.00  0.00     0.023 A 
ATOM     63  C   UNL     1      -1.826  15.215  -1.893  1.00  0.00     0.012 A 
ATOM     64  C   UNL     1       0.562  15.334  -1.442  1.00  0.00     0.148 A 
ATOM     65  C   UNL     1      -1.619  15.711  -3.179  1.00  0.00     0.002 A 
ATOM     66  C   UNL     1       0.756  15.869  -2.712  1.00  0.00     0.091 A 
ATOM     67  F   UNL     1       1.584  15.114  -0.602  1.00  0.00    -0.205 F 
ATOM     68  C   UNL     1      -0.330  16.047  -3.584  1.00  0.00     0.022 A 
BRANCH  66  69
ATOM     69  S   UNL     1       2.364  16.408  -3.307  1.00  0.00     0.127 S 
ATOM     70  O   UNL     1       2.635  15.426  -4.355  1.00  0.00    -0.237 OA
ATOM     71  O   UNL     1       2.073  17.756  -3.795  1.00  0.00    -0.237 OA
ATOM     72  O   UNL     1       3.257  16.355  -2.158  1.00  0.00    -0.744 OA
ENDBRANCH  66  69
ENDBRANCH  48  62
BRANCH  49  73
ATOM     73  C   UNL     1      -2.396  11.266   8.089  1.00  0.00     0.023 A 
ATOM     74  C   UNL     1      -3.473  11.716   8.878  1.00  0.00     0.012 A 
ATOM     75  C   UNL     1      -1.534  10.280   8.605  1.00  0.00     0.148 A 
ATOM     76  C   UNL     1      -3.664  11.224  10.170  1.00  0.00     0.002 A 
ATOM     77  C   UNL     1      -1.765   9.751   9.870  1.00  0.00     0.091 A 
ATOM     78  F   UNL     1      -0.505   9.874   7.848  1.00  0.00    -0.205 F 
ATOM     79  C   UNL     1      -2.817  10.235  10.662  1.00  0.00     0.022 A 
BRANCH  77  80
ATOM     80  S   UNL     1      -0.806   8.377  10.519  1.00  0.00     0.127 S 
ATOM     81  O   UNL     1       0.077   9.049  11.468  1.00  0.00    -0.237 OA
ATOM     82  O   UNL     1      -1.841   7.540  11.127  1.00  0.00    -0.237 OA
ATOM     83  O   UNL     1      -0.160   7.776   9.359  1.00  0.00    -0.744 OA
ENDBRANCH  77  80
ENDBRANCH  49  73
BRANCH  61  84
ATOM     84  C   UNL     1      -0.789  17.623   5.713  1.00  0.00     0.023 A 
ATOM     85  C   UNL     1       0.386  17.789   6.473  1.00  0.00     0.012 A 
ATOM     86  C   UNL     1      -1.685  18.702   5.582  1.00  0.00     0.148 A 
ATOM     87  C   UNL     1       0.644  18.992   7.128  1.00  0.00     0.002 A 
ATOM     88  C   UNL     1      -1.397  19.914   6.199  1.00  0.00     0.091 A 
ATOM     89  F   UNL     1      -2.808  18.521   4.872  1.00  0.00    -0.205 F 
ATOM     90  C   UNL     1      -0.242  20.057   6.984  1.00  0.00     0.022 A 
BRANCH  88  91
ATOM     91  S   UNL     1      -2.437  21.364   5.989  1.00  0.00     0.127 S 
ATOM     92  O   UNL     1      -3.167  21.394   7.255  1.00  0.00    -0.237 OA
ATOM     93  O   UNL     1      -1.453  22.436   5.828  1.00  0.00    -0.237 OA
ATOM     94  O   UNL     1      -3.242  21.106   4.803  1.00  0.00    -0.744 OA
ENDBRANCH  88  91
ENDBRANCH  61  84
ENDBRANCH  35  36
ENDBRANCH  27  30
ENDBRANCH  25  26
ENDBRANCH   1  25
TORSDOF 15
