REMARK SMILES O=C(NCCCCNC(=O)[C@@H]1O[C@H](OC(=O)c2cccnc2)[C@@H](O)[C@H](O)[C@H]1O)c1ccc(-c2c3nc(c(-c4cccc(S(=O)(=O)[O-])c4F)c4ccc([nH]4)c(-c4cccc(S(=O)(=O)[O-])c4F)c4nc(c(-c5cccc(S(=O)(=O)[O-])c5F)c5ccc2[nH]5)C=C4)C=C3)cc1
REMARK SMILES IDX 5 1 4 2 3 3 1 4 2 5 29 7 30 8 91 9 31 10 90 11 32 12 33 13
REMARK SMILES IDX 34 14 84 15 35 16 89 17 83 18 85 19 36 20 88 21 82 22 81 23
REMARK SMILES IDX 37 25 69 26 49 27 68 28 50 29 53 30 67 31 86 32 51 33 52 34
REMARK SMILES IDX 66 36 87 37 54 38 38 39 39 40 47 41 40 42 42 43 48 44 41 45
REMARK SMILES IDX 43 46 44 47 45 48 46 49 70 50 71 51 79 52 72 53 74 54 80 55
REMARK SMILES IDX 73 56 75 57 76 58 77 59 78 60 55 61 56 62 64 63 57 64 59 65
REMARK SMILES IDX 65 66 58 67 60 68 61 69 62 70 63 71 6 72 7 73 8 74 9 75
REMARK SMILES IDX 10 77 11 78 12 79 27 80 13 81 25 82 23 83 28 84 14 86 15 87
REMARK SMILES IDX 16 88 17 89 18 90 22 91 19 92 21 93 20 94 26 95 24 97
REMARK H PARENT 3 6 85 24 53 35 8 76 28 85 26 96 24 98
REMARK Flexibility Score: inf
ROOT
ATOM      1  C   UNL     1       2.611   7.417   6.897  1.00  0.00     0.023 C 
ENDROOT
BRANCH   1   2
ATOM      2  C   UNL     1       3.423   7.874   8.102  1.00  0.00     0.116 C 
BRANCH   2   3
ATOM      3  N   UNL     1       3.560   9.321   8.174  1.00  0.00    -0.352 N 
ATOM      4  O   UNL     1       3.225  11.382   9.030  1.00  0.00    -0.269 OA
ATOM      5  C   UNL     1       3.201  10.167   9.198  1.00  0.00     0.251 C 
ATOM      6  H   UNL     1       3.962   9.752   7.385  1.00  0.00     0.163 HD
BRANCH   5   7
ATOM      7  C   UNL     1       2.754   9.591  10.485  1.00  0.00     0.039 A 
ATOM      8  C   UNL     1       3.472   8.548  11.076  1.00  0.00     0.014 A 
ATOM      9  C   UNL     1       1.591  10.077  11.089  1.00  0.00     0.014 A 
ATOM     10  C   UNL     1       2.950   7.894  12.185  1.00  0.00     0.010 A 
ATOM     11  C   UNL     1       1.117   9.476  12.258  1.00  0.00     0.010 A 
ATOM     12  C   UNL     1       1.777   8.362  12.800  1.00  0.00    -0.014 A 
BRANCH  12  13
ATOM     13  C   UNL     1       1.335   7.745  14.075  1.00  0.00     0.031 A 
ATOM     14  C   UNL     1       0.024   7.019  14.193  1.00  0.00     0.074 A 
ATOM     15  C   UNL     1       2.145   7.867  15.147  1.00  0.00     0.049 A 
ATOM     16  N   UNL     1      -0.485   6.418  15.238  1.00  0.00    -0.248 NA
ATOM     17  C   UNL     1      -0.831   6.963  12.997  1.00  0.00     0.031 C 
ATOM     18  C   UNL     1       3.414   8.601  15.160  1.00  0.00     0.029 A 
ATOM     19  N   UNL     1       2.025   7.391  16.427  1.00  0.00    -0.354 N 
ATOM     20  C   UNL     1      -1.733   5.951  14.844  1.00  0.00     0.074 A 
ATOM     21  C   UNL     1      -1.905   6.333  13.459  1.00  0.00     0.031 C 
ATOM     22  C   UNL     1       3.961   8.515  16.379  1.00  0.00     0.029 A 
ATOM     23  C   UNL     1       3.062   7.768  17.248  1.00  0.00     0.049 A 
ATOM     24  H   UNL     1       1.271   6.835  16.728  1.00  0.00     0.167 HD
ATOM     25  C   UNL     1      -2.641   5.256  15.571  1.00  0.00     0.034 A 
ATOM     26  C   UNL     1       3.260   7.557  18.563  1.00  0.00     0.034 A 
ATOM     27  C   UNL     1      -2.437   4.839  16.934  1.00  0.00     0.049 A 
ATOM     28  C   UNL     1       2.246   6.758  19.327  1.00  0.00     0.074 A 
ATOM     29  C   UNL     1      -3.253   4.041  17.718  1.00  0.00     0.029 A 
ATOM     30  N   UNL     1      -1.353   5.194  17.720  1.00  0.00    -0.354 N 
ATOM     31  N   UNL     1       1.154   6.181  18.889  1.00  0.00    -0.248 NA
ATOM     32  C   UNL     1       2.502   6.560  20.759  1.00  0.00     0.031 C 
ATOM     33  C   UNL     1      -2.673   3.934  18.987  1.00  0.00     0.029 A 
ATOM     34  C   UNL     1      -1.489   4.653  18.988  1.00  0.00     0.049 A 
ATOM     35  H   UNL     1      -0.597   5.750  17.422  1.00  0.00     0.167 HD
ATOM     36  C   UNL     1       0.596   5.543  19.989  1.00  0.00     0.074 A 
ATOM     37  C   UNL     1       1.494   5.770  21.103  1.00  0.00     0.031 C 
ATOM     38  C   UNL     1      -0.568   4.855  20.075  1.00  0.00     0.034 A 
BRANCH  25  39
ATOM     39  C   UNL     1      -3.933   4.852  14.910  1.00  0.00     0.023 A 
ATOM     40  C   UNL     1      -3.944   3.759  14.021  1.00  0.00     0.012 A 
ATOM     41  C   UNL     1      -5.149   5.470  15.264  1.00  0.00     0.148 A 
ATOM     42  C   UNL     1      -5.144   3.291  13.488  1.00  0.00     0.002 A 
ATOM     43  C   UNL     1      -6.345   4.976  14.754  1.00  0.00     0.091 A 
ATOM     44  F   UNL     1      -5.114   6.518  16.099  1.00  0.00    -0.205 F 
ATOM     45  C   UNL     1      -6.344   3.890  13.863  1.00  0.00     0.022 A 
BRANCH  43  46
ATOM     46  S   UNL     1      -7.950   5.631  15.229  1.00  0.00     0.127 S 
ATOM     47  O   UNL     1      -8.393   6.256  13.983  1.00  0.00    -0.237 OA
ATOM     48  O   UNL     1      -8.681   4.418  15.595  1.00  0.00    -0.237 OA
ATOM     49  O   UNL     1      -7.702   6.550  16.331  1.00  0.00    -0.744 OA
ENDBRANCH  43  46
ENDBRANCH  25  39
BRANCH  26  50
ATOM     50  C   UNL     1       4.482   8.095  19.221  1.00  0.00     0.023 A 
ATOM     51  C   UNL     1       5.478   7.207  19.667  1.00  0.00     0.012 A 
ATOM     52  C   UNL     1       4.684   9.481  19.363  1.00  0.00     0.148 A 
ATOM     53  C   UNL     1       6.643   7.690  20.265  1.00  0.00     0.002 A 
ATOM     54  C   UNL     1       5.872   9.957  19.904  1.00  0.00     0.091 A 
ATOM     55  F   UNL     1       3.716  10.314  18.954  1.00  0.00    -0.205 F 
ATOM     56  C   UNL     1       6.846   9.064  20.371  1.00  0.00     0.022 A 
BRANCH  54  57
ATOM     57  S   UNL     1       6.255  11.712  19.922  1.00  0.00     0.127 S 
ATOM     58  O   UNL     1       5.853  12.094  21.273  1.00  0.00    -0.237 OA
ATOM     59  O   UNL     1       7.700  11.720  19.684  1.00  0.00    -0.237 OA
ATOM     60  O   UNL     1       5.473  12.279  18.831  1.00  0.00    -0.744 OA
ENDBRANCH  54  57
ENDBRANCH  26  50
BRANCH  38  61
ATOM     61  C   UNL     1      -0.939   4.302  21.424  1.00  0.00     0.023 A 
ATOM     62  C   UNL     1      -1.394   5.180  22.427  1.00  0.00     0.012 A 
ATOM     63  C   UNL     1      -0.891   2.919  21.682  1.00  0.00     0.148 A 
ATOM     64  C   UNL     1      -1.767   4.694  23.679  1.00  0.00     0.002 A 
ATOM     65  C   UNL     1      -1.306   2.436  22.918  1.00  0.00     0.091 A 
ATOM     66  F   UNL     1      -0.435   2.103  20.721  1.00  0.00    -0.205 F 
ATOM     67  C   UNL     1      -1.734   3.322  23.920  1.00  0.00     0.022 A 
BRANCH  65  68
ATOM     68  S   UNL     1      -1.377   0.680  23.286  1.00  0.00     0.127 S 
ATOM     69  O   UNL     1      -0.213   0.509  24.153  1.00  0.00    -0.237 OA
ATOM     70  O   UNL     1      -2.667   0.554  23.966  1.00  0.00    -0.237 OA
ATOM     71  O   UNL     1      -1.307  -0.000  21.999  1.00  0.00    -0.744 OA
ENDBRANCH  65  68
ENDBRANCH  38  61
ENDBRANCH  12  13
ENDBRANCH   5   7
ENDBRANCH   2   3
ENDBRANCH   1   2
BRANCH   1  72
ATOM     72  C   UNL     1       3.219   7.769   5.546  1.00  0.00     0.023 C 
BRANCH  72  73
ATOM     73  C   UNL     1       4.640   7.271   5.338  1.00  0.00     0.116 C 
BRANCH  73  74
ATOM     74  N   UNL     1       4.749   5.828   5.249  1.00  0.00    -0.354 N 
ATOM     75  C   UNL     1       5.707   5.114   4.575  1.00  0.00     0.252 C 
ATOM     76  H   UNL     1       4.061   5.306   5.722  1.00  0.00     0.163 HD
ATOM     77  O   UNL     1       5.762   3.894   4.748  1.00  0.00    -0.272 OA
BRANCH  75  78
ATOM     78  C   UNL     1       6.666   5.834   3.607  1.00  0.00     0.242 C 
ATOM     79  O   UNL     1       7.245   6.949   4.288  1.00  0.00    -0.324 OA
ATOM     80  C   UNL     1       5.913   6.214   2.322  1.00  0.00     0.184 C 
ATOM     81  C   UNL     1       8.059   7.806   3.498  1.00  0.00     0.343 C 
ATOM     82  C   UNL     1       6.790   7.113   1.450  1.00  0.00     0.181 C 
ATOM     83  C   UNL     1       7.359   8.302   2.216  1.00  0.00     0.214 C 
BRANCH  80  84
ATOM     84  O   UNL     1       5.576   5.039   1.572  1.00  0.00    -0.387 OA
ATOM     85  H   UNL     1       6.388   4.572   1.320  1.00  0.00     0.211 HD
ENDBRANCH  80  84
BRANCH  81  86
ATOM     86  O   UNL     1       8.549   8.910   4.294  1.00  0.00    -0.429 OA
BRANCH  86  87
ATOM     87  C   UNL     1       7.628   9.706   4.880  1.00  0.00     0.342 C 
ATOM     88  O   UNL     1       6.409   9.632   4.771  1.00  0.00    -0.246 OA
BRANCH  87  89
ATOM     89  C   UNL     1       8.278  10.716   5.724  1.00  0.00     0.078 A 
ATOM     90  C   UNL     1       9.514  11.283   5.409  1.00  0.00     0.019 A 
ATOM     91  C   UNL     1       7.612  11.174   6.853  1.00  0.00     0.126 A 
ATOM     92  C   UNL     1      10.032  12.281   6.232  1.00  0.00     0.021 A 
ATOM     93  N   UNL     1       8.102  12.135   7.672  1.00  0.00    -0.264 NA
ATOM     94  C   UNL     1       9.297  12.669   7.343  1.00  0.00     0.111 A 
ENDBRANCH  87  89
ENDBRANCH  86  87
ENDBRANCH  81  86
BRANCH  82  95
ATOM     95  O   UNL     1       6.044   7.582   0.310  1.00  0.00    -0.387 OA
ATOM     96  H   UNL     1       5.297   8.122   0.612  1.00  0.00     0.211 HD
ENDBRANCH  82  95
BRANCH  83  97
ATOM     97  O   UNL     1       8.288   8.992   1.361  1.00  0.00    -0.384 OA
ATOM     98  H   UNL     1       8.999   8.385   1.101  1.00  0.00     0.211 HD
ENDBRANCH  83  97
ENDBRANCH  75  78
ENDBRANCH  73  74
ENDBRANCH  72  73
ENDBRANCH   1  72
TORSDOF 20
