REMARK SMILES COCC[C@@]1(C(=O)NCCCCNC(=O)c2ccc(-c3c4nc(c(-c5cccc(S(=O)(=O)[O-])c5F)c5ccc([nH]5)c(-c5cccc(S(=O)(=O)[O-])c5F)c5nc(c(-c6cccc(S(=O)(=O)[O-])c6F)c6ccc3[nH]6)C=C5)C=C4)cc2)CCCN(C(=O)NCc2ccc(OC)cc2)C1
REMARK SMILES IDX 10 1 9 2 8 3 6 4 7 5 5 7 79 8 95 9 80 10 82 11 81 12 4 13
REMARK SMILES IDX 3 14 2 15 1 16 83 17 84 18 85 19 86 21 87 22 88 23 94 24
REMARK SMILES IDX 89 25 93 26 90 27 91 28 92 29 11 30 12 31 13 32 14 33 15 35
REMARK SMILES IDX 16 36 17 37 78 38 18 39 77 40 19 41 20 42 21 43 71 44 22 45
REMARK SMILES IDX 76 46 70 47 72 48 23 49 75 50 69 51 68 52 24 54 56 55 36 56
REMARK SMILES IDX 55 57 37 58 40 59 54 60 73 61 38 62 39 63 53 65 74 66 41 67
REMARK SMILES IDX 25 68 26 69 34 70 27 71 29 72 35 73 28 74 30 75 31 76 32 77
REMARK SMILES IDX 33 78 57 79 58 80 66 81 59 82 61 83 67 84 60 85 62 86 63 87
REMARK SMILES IDX 64 88 65 89 42 90 43 91 51 92 44 93 46 94 52 95 45 96 47 97
REMARK SMILES IDX 48 98 49 99 50 100
REMARK H PARENT 8 6 85 20 13 34 72 53 40 64
REMARK Flexibility Score: inf
ROOT
ATOM      1  C   UNL     1      -1.080   6.185   0.222  1.00  0.00     0.023 C 
ENDROOT
BRANCH   1   2
ATOM      2  C   UNL     1      -1.055   4.715   0.604  1.00  0.00     0.116 C 
BRANCH   2   3
ATOM      3  N   UNL     1      -0.536   3.783  -0.367  1.00  0.00    -0.356 N 
ATOM      4  C   UNL     1      -0.034   2.529  -0.181  1.00  0.00     0.228 C 
ATOM      5  O   UNL     1      -0.072   1.802  -1.185  1.00  0.00    -0.274 OA
ATOM      6  H   UNL     1      -0.546   4.098  -1.300  1.00  0.00     0.163 HD
BRANCH   4   7
ATOM      7  C   UNL     1       0.730   2.041   1.090  1.00  0.00     0.069 C 
ATOM      8  C   UNL     1       0.783   0.474   1.061  1.00  0.00     0.021 C 
ATOM      9  C   UNL     1       0.135   2.371   2.479  1.00  0.00     0.138 C 
ATOM     10  C   UNL     1      -0.599  -0.163   1.326  1.00  0.00     0.023 C 
ATOM     11  N   UNL     1      -1.210   1.829   2.620  1.00  0.00    -0.324 N 
ATOM     12  C   UNL     1      -1.248   0.375   2.599  1.00  0.00     0.121 C 
BRANCH   7  13
ATOM     13  C   UNL     1       2.150   2.679   1.020  1.00  0.00     0.047 C 
BRANCH  13  14
ATOM     14  C   UNL     1       3.075   2.158  -0.088  1.00  0.00     0.161 C 
BRANCH  14  15
ATOM     15  O   UNL     1       3.568   3.207  -0.921  1.00  0.00    -0.385 OA
ATOM     16  C   UNL     1       2.662   3.561  -1.962  1.00  0.00     0.194 C 
ENDBRANCH  14  15
ENDBRANCH  13  14
ENDBRANCH   7  13
BRANCH  11  17
ATOM     17  C   UNL     1      -2.221   2.719   2.795  1.00  0.00     0.317 C 
ATOM     18  O   UNL     1      -2.017   3.850   3.248  1.00  0.00    -0.249 OA
ATOM     19  N   UNL     1      -3.461   2.514   2.342  1.00  0.00    -0.334 N 
ATOM     20  H   UNL     1      -3.955   3.361   2.250  1.00  0.00     0.165 HD
BRANCH  19  21
ATOM     21  C   UNL     1      -4.273   1.384   1.949  1.00  0.00     0.153 C 
BRANCH  21  22
ATOM     22  C   UNL     1      -5.091   0.956   3.146  1.00  0.00    -0.028 A 
ATOM     23  C   UNL     1      -5.766   1.925   3.909  1.00  0.00     0.009 A 
ATOM     24  C   UNL     1      -5.163  -0.380   3.548  1.00  0.00     0.009 A 
ATOM     25  C   UNL     1      -6.428   1.578   5.082  1.00  0.00     0.047 A 
ATOM     26  C   UNL     1      -5.849  -0.730   4.719  1.00  0.00     0.047 A 
ATOM     27  C   UNL     1      -6.471   0.251   5.496  1.00  0.00     0.118 A 
BRANCH  27  28
ATOM     28  O   UNL     1      -7.133   0.055   6.675  1.00  0.00    -0.497 OA
ATOM     29  C   UNL     1      -7.383  -1.291   7.048  1.00  0.00     0.278 C 
ENDBRANCH  27  28
ENDBRANCH  21  22
ENDBRANCH  19  21
ENDBRANCH  11  17
ENDBRANCH   4   7
ENDBRANCH   2   3
ENDBRANCH   1   2
BRANCH   1  30
ATOM     30  C   UNL     1      -1.965   6.587  -0.948  1.00  0.00     0.023 C 
BRANCH  30  31
ATOM     31  C   UNL     1      -3.358   5.974  -1.015  1.00  0.00     0.116 C 
BRANCH  31  32
ATOM     32  N   UNL     1      -4.193   6.198   0.159  1.00  0.00    -0.352 N 
ATOM     33  C   UNL     1      -5.490   6.663   0.231  1.00  0.00     0.251 C 
ATOM     34  H   UNL     1      -3.772   5.987   1.023  1.00  0.00     0.163 HD
ATOM     35  O   UNL     1      -6.053   6.764   1.318  1.00  0.00    -0.269 OA
BRANCH  33  36
ATOM     36  C   UNL     1      -6.181   7.096  -1.004  1.00  0.00     0.039 A 
ATOM     37  C   UNL     1      -6.731   8.380  -1.054  1.00  0.00     0.014 A 
ATOM     38  C   UNL     1      -6.204   6.277  -2.134  1.00  0.00     0.014 A 
ATOM     39  C   UNL     1      -7.200   8.883  -2.271  1.00  0.00     0.010 A 
ATOM     40  C   UNL     1      -6.583   6.814  -3.360  1.00  0.00     0.010 A 
ATOM     41  C   UNL     1      -7.074   8.126  -3.447  1.00  0.00    -0.014 A 
BRANCH  41  42
ATOM     42  C   UNL     1      -7.412   8.692  -4.781  1.00  0.00     0.031 A 
ATOM     43  C   UNL     1      -8.473   8.047  -5.632  1.00  0.00     0.074 A 
ATOM     44  C   UNL     1      -6.689   9.717  -5.277  1.00  0.00     0.049 A 
ATOM     45  N   UNL     1      -8.856   8.352  -6.845  1.00  0.00    -0.248 NA
ATOM     46  C   UNL     1      -9.169   6.885  -5.058  1.00  0.00     0.031 C 
ATOM     47  C   UNL     1      -5.575  10.379  -4.594  1.00  0.00     0.029 A 
ATOM     48  N   UNL     1      -6.768  10.368  -6.484  1.00  0.00    -0.354 N 
ATOM     49  C   UNL     1      -9.801   7.394  -7.195  1.00  0.00     0.074 A 
ATOM     50  C   UNL     1      -9.901   6.475  -6.082  1.00  0.00     0.031 C 
ATOM     51  C   UNL     1      -5.092  11.355  -5.380  1.00  0.00     0.029 A 
ATOM     52  C   UNL     1      -5.837  11.371  -6.635  1.00  0.00     0.049 A 
ATOM     53  H   UNL     1      -7.428  10.139  -7.177  1.00  0.00     0.167 HD
ATOM     54  C   UNL     1     -10.546   7.305  -8.323  1.00  0.00     0.034 A 
ATOM     55  C   UNL     1      -5.613  12.212  -7.663  1.00  0.00     0.034 A 
ATOM     56  C   UNL     1     -10.488   8.252  -9.403  1.00  0.00     0.049 A 
ATOM     57  C   UNL     1      -6.482  12.122  -8.888  1.00  0.00     0.074 A 
ATOM     58  C   UNL     1     -11.278   8.314 -10.537  1.00  0.00     0.029 A 
ATOM     59  N   UNL     1      -9.586   9.301  -9.486  1.00  0.00    -0.354 N 
ATOM     60  N   UNL     1      -7.488  11.316  -9.129  1.00  0.00    -0.248 NA
ATOM     61  C   UNL     1      -6.207  13.079  -9.970  1.00  0.00     0.031 C 
ATOM     62  C   UNL     1     -10.839   9.392 -11.315  1.00  0.00     0.029 A 
ATOM     63  C   UNL     1      -9.789  10.011 -10.657  1.00  0.00     0.049 A 
ATOM     64  H   UNL     1      -8.901   9.511  -8.810  1.00  0.00     0.167 HD
ATOM     65  C   UNL     1      -7.991  11.693 -10.370  1.00  0.00     0.074 A 
ATOM     66  C   UNL     1      -7.186  12.809 -10.824  1.00  0.00     0.031 C 
ATOM     67  C   UNL     1      -9.017  11.155 -11.074  1.00  0.00     0.034 A 
BRANCH  54  68
ATOM     68  C   UNL     1     -11.531   6.168  -8.409  1.00  0.00     0.023 A 
ATOM     69  C   UNL     1     -12.672   6.172  -7.579  1.00  0.00     0.012 A 
ATOM     70  C   UNL     1     -11.342   5.106  -9.314  1.00  0.00     0.148 A 
ATOM     71  C   UNL     1     -13.579   5.114  -7.609  1.00  0.00     0.002 A 
ATOM     72  C   UNL     1     -12.277   4.077  -9.372  1.00  0.00     0.091 A 
ATOM     73  F   UNL     1     -10.242   5.101 -10.080  1.00  0.00    -0.205 F 
ATOM     74  C   UNL     1     -13.387   4.072  -8.511  1.00  0.00     0.022 A 
BRANCH  72  75
ATOM     75  S   UNL     1     -12.150   2.734 -10.558  1.00  0.00     0.127 S 
ATOM     76  O   UNL     1     -11.608   1.658  -9.731  1.00  0.00    -0.237 OA
ATOM     77  O   UNL     1     -13.543   2.545 -10.967  1.00  0.00    -0.237 OA
ATOM     78  O   UNL     1     -11.276   3.224 -11.615  1.00  0.00    -0.744 OA
ENDBRANCH  72  75
ENDBRANCH  54  68
BRANCH  55  79
ATOM     79  C   UNL     1      -4.586  13.286  -7.534  1.00  0.00     0.023 A 
ATOM     80  C   UNL     1      -5.015  14.620  -7.384  1.00  0.00     0.012 A 
ATOM     81  C   UNL     1      -3.208  13.001  -7.514  1.00  0.00     0.148 A 
ATOM     82  C   UNL     1      -4.090  15.654  -7.240  1.00  0.00     0.002 A 
ATOM     83  C   UNL     1      -2.292  14.030  -7.322  1.00  0.00     0.091 A 
ATOM     84  F   UNL     1      -2.821  11.726  -7.666  1.00  0.00    -0.205 F 
ATOM     85  C   UNL     1      -2.731  15.359  -7.199  1.00  0.00     0.022 A 
BRANCH  83  86
ATOM     86  S   UNL     1      -0.529  13.739  -7.135  1.00  0.00     0.127 S 
ATOM     87  O   UNL     1       0.008  14.374  -8.336  1.00  0.00    -0.237 OA
ATOM     88  O   UNL     1      -0.241  14.442  -5.885  1.00  0.00    -0.237 OA
ATOM     89  O   UNL     1      -0.373  12.293  -7.064  1.00  0.00    -0.744 OA
ENDBRANCH  83  86
ENDBRANCH  55  79
BRANCH  67  90
ATOM     90  C   UNL     1      -9.361  11.780 -12.400  1.00  0.00     0.023 A 
ATOM     91  C   UNL     1      -8.516  11.576 -13.509  1.00  0.00     0.012 A 
ATOM     92  C   UNL     1     -10.559  12.502 -12.567  1.00  0.00     0.148 A 
ATOM     93  C   UNL     1      -8.845  12.104 -14.758  1.00  0.00     0.002 A 
ATOM     94  C   UNL     1     -10.904  12.985 -13.825  1.00  0.00     0.091 A 
ATOM     95  F   UNL     1     -11.339  12.705 -11.495  1.00  0.00    -0.205 F 
ATOM     96  C   UNL     1     -10.043  12.796 -14.918  1.00  0.00     0.022 A 
BRANCH  94  97
ATOM     97  S   UNL     1     -12.472  13.803 -14.143  1.00  0.00     0.127 S 
ATOM     98  O   UNL     1     -12.059  15.198 -14.277  1.00  0.00    -0.237 OA
ATOM     99  O   UNL     1     -12.905  13.172 -15.391  1.00  0.00    -0.237 OA
ATOM    100  O   UNL     1     -13.317  13.506 -12.994  1.00  0.00    -0.744 OA
ENDBRANCH  94  97
ENDBRANCH  67  90
ENDBRANCH  41  42
ENDBRANCH  33  36
ENDBRANCH  31  32
ENDBRANCH  30  31
ENDBRANCH   1  30
TORSDOF 21
