REMARK SMILES C[C@@H]1[C@@H](C(=O)NCCCCNC(=O)c2ccc(-c3c4nc(c(-c5cccc(S(=O)(=O)[O-])c5F)c5ccc([nH]5)c(-c5cccc(S(=O)(=O)[O-])c5F)c5nc(c(-c6cccc(S(=O)(=O)[O-])c6F)c6ccc3[nH]6)C=C5)C=C4)cc2)CCN1c1ccc(C(F)(F)F)cc1C#N
REMARK SMILES IDX 9 1 8 2 7 3 6 4 4 5 5 6 3 8 1 9 2 10 79 11 77 12 78 13 80 14
REMARK SMILES IDX 81 15 89 16 82 17 88 18 83 19 90 20 91 21 84 22 85 23 86 24
REMARK SMILES IDX 87 25 10 26 11 27 12 28 13 30 14 31 15 32 76 33 16 34 75 35
REMARK SMILES IDX 17 36 18 37 19 38 69 39 20 40 74 41 68 42 70 43 21 44 73 45
REMARK SMILES IDX 67 46 66 47 22 49 54 50 34 51 53 52 35 53 38 54 52 55 71 56
REMARK SMILES IDX 36 57 37 58 51 60 72 61 39 62 23 63 24 64 32 65 25 66 27 67
REMARK SMILES IDX 33 68 26 69 28 70 29 71 30 72 31 73 55 74 56 75 64 76 57 77
REMARK SMILES IDX 59 78 65 79 58 80 60 81 61 82 62 83 63 84 40 85 41 86 49 87
REMARK SMILES IDX 42 88 44 89 50 90 43 91 45 92 46 93 47 94 48 95
REMARK H PARENT 6 7 11 29 70 48 38 59
REMARK Flexibility Score: inf
ROOT
ATOM      1  C   UNL     1      -3.739   4.525  -2.449  1.00  0.00     0.023 C 
ENDROOT
BRANCH   1   2
ATOM      2  C   UNL     1      -2.847   4.386  -1.219  1.00  0.00     0.023 C 
BRANCH   2   3
ATOM      3  C   UNL     1      -2.487   2.961  -0.826  1.00  0.00     0.116 C 
BRANCH   3   4
ATOM      4  N   UNL     1      -1.811   2.212  -1.865  1.00  0.00    -0.356 N 
ATOM      5  C   UNL     1      -0.845   1.253  -1.741  1.00  0.00     0.225 C 
ATOM      6  O   UNL     1      -0.472   0.684  -2.766  1.00  0.00    -0.275 OA
ATOM      7  H   UNL     1      -2.084   2.422  -2.787  1.00  0.00     0.163 HD
BRANCH   5   8
ATOM      8  C   UNL     1      -0.214   0.998  -0.376  1.00  0.00     0.102 C 
ATOM      9  C   UNL     1       2.027   0.198   0.444  1.00  0.00     0.032 C 
ATOM     10  C   UNL     1       0.824  -0.160  -0.431  1.00  0.00     0.091 C 
ATOM     11  N   UNL     1       0.096  -1.324   0.132  1.00  0.00    -0.367 N 
ATOM     12  C   UNL     1      -1.191   0.525   0.705  1.00  0.00     0.037 C 
ATOM     13  C   UNL     1      -1.280  -0.965   0.459  1.00  0.00     0.118 C 
BRANCH  11  14
ATOM     14  C   UNL     1       0.345  -2.629  -0.262  1.00  0.00     0.055 A 
ATOM     15  C   UNL     1      -0.442  -3.237  -1.258  1.00  0.00     0.028 A 
ATOM     16  C   UNL     1       1.304  -3.433   0.382  1.00  0.00     0.076 A 
ATOM     17  C   UNL     1      -0.331  -4.600  -1.560  1.00  0.00     0.015 A 
ATOM     18  C   UNL     1       1.433  -4.797   0.059  1.00  0.00     0.034 A 
ATOM     19  C   UNL     1       0.602  -5.399  -0.895  1.00  0.00     0.057 A 
BRANCH  16  20
ATOM     20  C   UNL     1       2.127  -2.930   1.450  1.00  0.00     0.101 C 
ATOM     21  N   UNL     1       2.818  -2.592   2.314  1.00  0.00    -0.192 NA
ENDBRANCH  16  20
BRANCH  19  22
ATOM     22  C   UNL     1       0.675  -6.880  -1.169  1.00  0.00     0.416 C 
ATOM     23  F   UNL     1      -0.453  -7.535  -0.778  1.00  0.00    -0.166 F 
ATOM     24  F   UNL     1       0.841  -7.167  -2.488  1.00  0.00    -0.166 F 
ATOM     25  F   UNL     1       1.703  -7.498  -0.521  1.00  0.00    -0.166 F 
ENDBRANCH  19  22
ENDBRANCH  11  14
ENDBRANCH   5   8
ENDBRANCH   3   4
ENDBRANCH   2   3
ENDBRANCH   1   2
BRANCH   1  26
ATOM     26  C   UNL     1      -4.999   3.669  -2.444  1.00  0.00     0.116 C 
BRANCH  26  27
ATOM     27  N   UNL     1      -5.889   3.971  -1.331  1.00  0.00    -0.352 N 
ATOM     28  C   UNL     1      -7.182   4.442  -1.349  1.00  0.00     0.251 C 
ATOM     29  H   UNL     1      -5.511   3.815  -0.436  1.00  0.00     0.163 HD
ATOM     30  O   UNL     1      -7.722   4.783  -0.301  1.00  0.00    -0.269 OA
BRANCH  28  31
ATOM     31  C   UNL     1      -7.904   4.561  -2.634  1.00  0.00     0.039 A 
ATOM     32  C   UNL     1      -8.615   5.731  -2.910  1.00  0.00     0.014 A 
ATOM     33  C   UNL     1      -7.859   3.529  -3.574  1.00  0.00     0.014 A 
ATOM     34  C   UNL     1      -9.218   5.894  -4.159  1.00  0.00     0.010 A 
ATOM     35  C   UNL     1      -8.370   3.736  -4.850  1.00  0.00     0.010 A 
ATOM     36  C   UNL     1      -9.068   4.914  -5.155  1.00  0.00    -0.014 A 
BRANCH  36  37
ATOM     37  C   UNL     1      -9.642   5.094  -6.515  1.00  0.00     0.031 A 
ATOM     38  C   UNL     1     -10.657   4.113  -7.040  1.00  0.00     0.074 A 
ATOM     39  C   UNL     1      -9.194   6.088  -7.308  1.00  0.00     0.049 A 
ATOM     40  N   UNL     1     -11.227   4.066  -8.216  1.00  0.00    -0.248 NA
ATOM     41  C   UNL     1     -11.064   3.024  -6.136  1.00  0.00     0.031 C 
ATOM     42  C   UNL     1      -8.160   7.061  -6.946  1.00  0.00     0.029 A 
ATOM     43  N   UNL     1      -9.534   6.430  -8.593  1.00  0.00    -0.354 N 
ATOM     44  C   UNL     1     -12.026   2.929  -8.206  1.00  0.00     0.074 A 
ATOM     45  C   UNL     1     -11.834   2.289  -6.924  1.00  0.00     0.031 C 
ATOM     46  C   UNL     1      -7.962   7.897  -7.978  1.00  0.00     0.029 A 
ATOM     47  C   UNL     1      -8.820   7.497  -9.088  1.00  0.00     0.049 A 
ATOM     48  H   UNL     1     -10.224   5.957  -9.112  1.00  0.00     0.167 HD
ATOM     49  C   UNL     1     -12.868   2.471  -9.163  1.00  0.00     0.034 A 
ATOM     50  C   UNL     1      -8.845   8.082 -10.302  1.00  0.00     0.034 A 
ATOM     51  C   UNL     1     -13.080   3.125 -10.425  1.00  0.00     0.049 A 
ATOM     52  C   UNL     1      -9.802   7.565 -11.343  1.00  0.00     0.074 A 
ATOM     53  C   UNL     1     -13.967   2.786 -11.431  1.00  0.00     0.029 A 
ATOM     54  N   UNL     1     -12.387   4.243 -10.864  1.00  0.00    -0.354 N 
ATOM     55  N   UNL     1     -10.652   6.571 -11.263  1.00  0.00    -0.248 NA
ATOM     56  C   UNL     1      -9.829   8.275 -12.631  1.00  0.00     0.031 C 
ATOM     57  C   UNL     1     -13.781   3.673 -12.495  1.00  0.00     0.029 A 
ATOM     58  C   UNL     1     -12.817   4.599 -12.130  1.00  0.00     0.049 A 
ATOM     59  H   UNL     1     -11.692   4.714 -10.350  1.00  0.00     0.167 HD
ATOM     60  C   UNL     1     -11.347   6.565 -12.467  1.00  0.00     0.074 A 
ATOM     61  C   UNL     1     -10.826   7.664 -13.254  1.00  0.00     0.031 C 
ATOM     62  C   UNL     1     -12.325   5.724 -12.885  1.00  0.00     0.034 A 
BRANCH  49  63
ATOM     63  C   UNL     1     -13.648   1.216  -8.865  1.00  0.00     0.023 A 
ATOM     64  C   UNL     1     -14.656   1.231  -7.878  1.00  0.00     0.012 A 
ATOM     65  C   UNL     1     -13.413   0.032  -9.591  1.00  0.00     0.148 A 
ATOM     66  C   UNL     1     -15.384   0.079  -7.586  1.00  0.00     0.002 A 
ATOM     67  C   UNL     1     -14.180  -1.098  -9.332  1.00  0.00     0.091 A 
ATOM     68  F   UNL     1     -12.439   0.029 -10.512  1.00  0.00    -0.205 F 
ATOM     69  C   UNL     1     -15.153  -1.081  -8.320  1.00  0.00     0.022 A 
BRANCH  67  70
ATOM     70  S   UNL     1     -14.020  -2.616 -10.278  1.00  0.00     0.127 S 
ATOM     71  O   UNL     1     -13.446  -3.523  -9.284  1.00  0.00    -0.237 OA
ATOM     72  O   UNL     1     -15.409  -2.902 -10.634  1.00  0.00    -0.237 OA
ATOM     73  O   UNL     1     -13.155  -2.299 -11.405  1.00  0.00    -0.744 OA
ENDBRANCH  67  70
ENDBRANCH  49  63
BRANCH  50  74
ATOM     74  C   UNL     1      -7.974   9.258 -10.584  1.00  0.00     0.023 A 
ATOM     75  C   UNL     1      -8.557  10.528 -10.762  1.00  0.00     0.012 A 
ATOM     76  C   UNL     1      -6.574   9.128 -10.663  1.00  0.00     0.148 A 
ATOM     77  C   UNL     1      -7.765  11.640 -11.052  1.00  0.00     0.002 A 
ATOM     78  C   UNL     1      -5.787  10.249 -10.895  1.00  0.00     0.091 A 
ATOM     79  F   UNL     1      -6.041   7.910 -10.496  1.00  0.00    -0.205 F 
ATOM     80  C   UNL     1      -6.381  11.503 -11.109  1.00  0.00     0.022 A 
BRANCH  78  81
ATOM     81  S   UNL     1      -3.993  10.193 -10.860  1.00  0.00     0.127 S 
ATOM     82  O   UNL     1      -3.657  10.488 -12.250  1.00  0.00    -0.237 OA
ATOM     83  O   UNL     1      -3.679  11.261  -9.909  1.00  0.00    -0.237 OA
ATOM     84  O   UNL     1      -3.647   8.855 -10.398  1.00  0.00    -0.744 OA
ENDBRANCH  78  81
ENDBRANCH  50  74
BRANCH  62  85
ATOM     85  C   UNL     1     -12.952   5.989 -14.229  1.00  0.00     0.023 A 
ATOM     86  C   UNL     1     -12.225   5.762 -15.414  1.00  0.00     0.012 A 
ATOM     87  C   UNL     1     -14.298   6.400 -14.313  1.00  0.00     0.148 A 
ATOM     88  C   UNL     1     -12.814   5.980 -16.659  1.00  0.00     0.002 A 
ATOM     89  C   UNL     1     -14.896   6.559 -15.556  1.00  0.00     0.091 A 
ATOM     90  F   UNL     1     -14.969   6.627 -13.174  1.00  0.00    -0.205 F 
ATOM     91  C   UNL     1     -14.151   6.365 -16.731  1.00  0.00     0.022 A 
BRANCH  89  92
ATOM     92  S   UNL     1     -16.638   6.952 -15.744  1.00  0.00     0.127 S 
ATOM     93  O   UNL     1     -16.581   8.323 -16.250  1.00  0.00    -0.237 OA
ATOM     94  O   UNL     1     -17.074   5.957 -16.724  1.00  0.00    -0.237 OA
ATOM     95  O   UNL     1     -17.231   6.801 -14.422  1.00  0.00    -0.744 OA
ENDBRANCH  89  92
ENDBRANCH  62  85
ENDBRANCH  36  37
ENDBRANCH  28  31
ENDBRANCH  26  27
ENDBRANCH   1  26
TORSDOF 17
