REMARK SMILES CC1(C)S[C@@H](c2cccc3c2sc2ccccc23)[NH2+][C@@H]1C(=O)NCCCCNC(=O)c1ccc(-c2c3nc(c(-c4cccc(S(=O)(=O)[O-])c4F)c4ccc([nH]4)c(-c4cccc(S(=O)(=O)[O-])c4F)c4nc(c(-c5cccc(S(=O)(=O)[O-])c5F)c5ccc2[nH]5)C=C4)C=C3)cc1
REMARK SMILES IDX 26 1 25 2 24 3 23 4 21 5 22 6 20 8 1 9 2 10 3 11 4 12 5 13
REMARK SMILES IDX 19 14 6 17 7 18 11 19 8 20 10 21 12 22 9 23 18 24 13 25
REMARK SMILES IDX 17 26 14 27 16 28 15 29 27 30 28 31 29 32 30 34 31 35 32 36
REMARK SMILES IDX 93 37 33 38 92 39 34 40 35 41 36 42 86 43 37 44 91 45 85 46
REMARK SMILES IDX 87 47 38 48 90 49 84 50 83 51 39 53 71 54 51 55 70 56 52 57
REMARK SMILES IDX 55 58 69 59 88 60 53 61 54 62 68 64 89 65 56 66 40 67 41 68
REMARK SMILES IDX 49 69 42 70 44 71 50 72 43 73 45 74 46 75 47 76 48 77 72 78
REMARK SMILES IDX 73 79 81 80 74 81 76 82 82 83 75 84 77 85 78 86 79 87 80 88
REMARK SMILES IDX 57 89 58 90 66 91 59 92 61 93 67 94 60 95 62 96 63 97 64 98
REMARK SMILES IDX 65 99
REMARK H PARENT 23 7 19 15 19 16 28 33 87 52 55 63
REMARK Flexibility Score: inf
ROOT
ATOM      1  C   UNL     1      -3.399   3.591  -4.019  1.00  0.00     0.023 C 
ENDROOT
BRANCH   1   2
ATOM      2  C   UNL     1      -3.032   3.678  -2.540  1.00  0.00     0.023 C 
BRANCH   2   3
ATOM      3  C   UNL     1      -2.596   2.371  -1.886  1.00  0.00     0.116 C 
BRANCH   3   4
ATOM      4  N   UNL     1      -1.434   1.783  -2.529  1.00  0.00    -0.351 N 
ATOM      5  C   UNL     1      -0.307   1.215  -2.008  1.00  0.00     0.279 C 
ATOM      6  O   UNL     1       0.516   0.819  -2.835  1.00  0.00    -0.268 OA
ATOM      7  H   UNL     1      -1.465   1.796  -3.513  1.00  0.00     0.163 HD
BRANCH   5   8
ATOM      8  C   UNL     1      -0.019   1.207  -0.478  1.00  0.00     0.289 C 
ATOM      9  C   UNL     1       1.593   0.608   1.406  1.00  0.00     0.030 C 
ATOM     10  C   UNL     1       1.009   0.160   0.049  1.00  0.00     0.077 C 
ATOM     11  C   UNL     1       2.179  -0.203  -0.866  1.00  0.00     0.030 C 
ATOM     12  S   UNL     1      -0.016  -1.328   0.371  1.00  0.00    -0.081 SA
ATOM     13  C   UNL     1      -1.586  -0.424   0.260  1.00  0.00     0.276 C 
ATOM     14  N   UNL     1      -1.261   1.004   0.321  1.00  0.00    -0.320 N 
ATOM     15  H   UNL     1      -1.105   1.286   1.288  1.00  0.00     0.348 HD
ATOM     16  H   UNL     1      -2.027   1.566  -0.051  1.00  0.00     0.348 HD
BRANCH  13  17
ATOM     17  C   UNL     1      -2.588  -0.792   1.341  1.00  0.00     0.038 A 
ATOM     18  C   UNL     1      -2.223  -0.711   2.707  1.00  0.00     0.012 A 
ATOM     19  C   UNL     1      -3.934  -1.174   1.064  1.00  0.00     0.046 A 
ATOM     20  C   UNL     1      -3.111  -1.002   3.729  1.00  0.00     0.001 A 
ATOM     21  C   UNL     1      -4.845  -1.492   2.078  1.00  0.00     0.001 A 
ATOM     22  S   UNL     1      -4.694  -1.307  -0.480  1.00  0.00    -0.135 S 
ATOM     23  C   UNL     1      -4.408  -1.397   3.424  1.00  0.00     0.010 A 
ATOM     24  C   UNL     1      -6.141  -1.892   1.560  1.00  0.00     0.000 A 
ATOM     25  C   UNL     1      -6.190  -1.823   0.170  1.00  0.00     0.036 A 
ATOM     26  C   UNL     1      -7.311  -2.322   2.241  1.00  0.00     0.010 A 
ATOM     27  C   UNL     1      -7.357  -2.154  -0.548  1.00  0.00     0.019 A 
ATOM     28  C   UNL     1      -8.468  -2.662   1.535  1.00  0.00     0.001 A 
ATOM     29  C   UNL     1      -8.490  -2.574   0.152  1.00  0.00     0.002 A 
ENDBRANCH  13  17
ENDBRANCH   5   8
ENDBRANCH   3   4
ENDBRANCH   2   3
ENDBRANCH   1   2
BRANCH   1  30
ATOM     30  C   UNL     1      -4.440   2.537  -4.375  1.00  0.00     0.116 C 
BRANCH  30  31
ATOM     31  N   UNL     1      -5.707   2.733  -3.685  1.00  0.00    -0.352 N 
ATOM     32  C   UNL     1      -6.973   2.851  -4.207  1.00  0.00     0.251 C 
ATOM     33  H   UNL     1      -5.649   2.788  -2.704  1.00  0.00     0.163 HD
ATOM     34  O   UNL     1      -7.912   3.157  -3.477  1.00  0.00    -0.269 OA
BRANCH  32  35
ATOM     35  C   UNL     1      -7.198   2.633  -5.653  1.00  0.00     0.039 A 
ATOM     36  C   UNL     1      -7.993   3.539  -6.361  1.00  0.00     0.014 A 
ATOM     37  C   UNL     1      -6.620   1.545  -6.310  1.00  0.00     0.014 A 
ATOM     38  C   UNL     1      -8.155   3.386  -7.741  1.00  0.00     0.010 A 
ATOM     39  C   UNL     1      -6.711   1.445  -7.695  1.00  0.00     0.010 A 
ATOM     40  C   UNL     1      -7.491   2.355  -8.425  1.00  0.00    -0.014 A 
BRANCH  40  41
ATOM     41  C   UNL     1      -7.609   2.199  -9.898  1.00  0.00     0.031 A 
ATOM     42  C   UNL     1      -8.207   0.943 -10.476  1.00  0.00     0.074 A 
ATOM     43  C   UNL     1      -7.102   3.142 -10.717  1.00  0.00     0.049 A 
ATOM     44  N   UNL     1      -8.336   0.590 -11.729  1.00  0.00    -0.248 NA
ATOM     45  C   UNL     1      -8.696  -0.065  -9.519  1.00  0.00     0.031 C 
ATOM     46  C   UNL     1      -6.425   4.366 -10.284  1.00  0.00     0.029 A 
ATOM     47  N   UNL     1      -7.053   3.204 -12.088  1.00  0.00    -0.354 N 
ATOM     48  C   UNL     1      -8.879  -0.689 -11.710  1.00  0.00     0.074 A 
ATOM     49  C   UNL     1      -9.019  -1.068 -10.321  1.00  0.00     0.031 C 
ATOM     50  C   UNL     1      -6.034   5.059 -11.366  1.00  0.00     0.029 A 
ATOM     51  C   UNL     1      -6.405   4.319 -12.568  1.00  0.00     0.049 A 
ATOM     52  H   UNL     1      -7.444   2.515 -12.673  1.00  0.00     0.167 HD
ATOM     53  C   UNL     1      -9.258  -1.468 -12.750  1.00  0.00     0.034 A 
ATOM     54  C   UNL     1      -6.137   4.700 -13.832  1.00  0.00     0.034 A 
ATOM     55  C   UNL     1      -9.164  -1.070 -14.128  1.00  0.00     0.049 A 
ATOM     56  C   UNL     1      -6.619   3.841 -14.972  1.00  0.00     0.074 A 
ATOM     57  C   UNL     1      -9.599  -1.749 -15.252  1.00  0.00     0.029 A 
ATOM     58  N   UNL     1      -8.594   0.113 -14.572  1.00  0.00    -0.354 N 
ATOM     59  N   UNL     1      -7.270   2.704 -14.931  1.00  0.00    -0.248 NA
ATOM     60  C   UNL     1      -6.365   4.339 -16.332  1.00  0.00     0.031 C 
ATOM     61  C   UNL     1      -9.274  -0.985 -16.378  1.00  0.00     0.029 A 
ATOM     62  C   UNL     1      -8.664   0.184 -15.952  1.00  0.00     0.049 A 
ATOM     63  H   UNL     1      -8.198   0.802 -13.990  1.00  0.00     0.167 HD
ATOM     64  C   UNL     1      -7.544   2.373 -16.254  1.00  0.00     0.074 A 
ATOM     65  C   UNL     1      -7.002   3.440 -17.070  1.00  0.00     0.031 C 
ATOM     66  C   UNL     1      -8.176   1.281 -16.748  1.00  0.00     0.034 A 
BRANCH  53  67
ATOM     67  C   UNL     1      -9.864  -2.812 -12.433  1.00  0.00     0.023 A 
ATOM     68  C   UNL     1     -11.146  -2.878 -11.848  1.00  0.00     0.012 A 
ATOM     69  C   UNL     1      -9.192  -4.007 -12.757  1.00  0.00     0.148 A 
ATOM     70  C   UNL     1     -11.731  -4.108 -11.553  1.00  0.00     0.002 A 
ATOM     71  C   UNL     1      -9.803  -5.230 -12.505  1.00  0.00     0.091 A 
ATOM     72  F   UNL     1      -7.966  -3.927 -13.294  1.00  0.00    -0.205 F 
ATOM     73  C   UNL     1     -11.065  -5.282 -11.891  1.00  0.00     0.022 A 
BRANCH  71  74
ATOM     74  S   UNL     1      -9.066  -6.798 -12.978  1.00  0.00     0.127 S 
ATOM     75  O   UNL     1      -8.704  -7.358 -11.677  1.00  0.00    -0.237 OA
ATOM     76  O   UNL     1     -10.181  -7.473 -13.643  1.00  0.00    -0.237 OA
ATOM     77  O   UNL     1      -7.948  -6.470 -13.851  1.00  0.00    -0.744 OA
ENDBRANCH  71  74
ENDBRANCH  53  67
BRANCH  54  78
ATOM     78  C   UNL     1      -5.444   5.994 -14.093  1.00  0.00     0.023 A 
ATOM     79  C   UNL     1      -6.164   7.061 -14.665  1.00  0.00     0.012 A 
ATOM     80  C   UNL     1      -4.088   6.181 -13.762  1.00  0.00     0.148 A 
ATOM     81  C   UNL     1      -5.539   8.277 -14.939  1.00  0.00     0.002 A 
ATOM     82  C   UNL     1      -3.485   7.414 -13.986  1.00  0.00     0.091 A 
ATOM     83  F   UNL     1      -3.417   5.152 -13.227  1.00  0.00    -0.205 F 
ATOM     84  C   UNL     1      -4.203   8.457 -14.591  1.00  0.00     0.022 A 
BRANCH  82  85
ATOM     85  S   UNL     1      -1.808   7.778 -13.455  1.00  0.00     0.127 S 
ATOM     86  O   UNL     1      -1.102   7.864 -14.730  1.00  0.00    -0.237 OA
ATOM     87  O   UNL     1      -1.983   9.054 -12.759  1.00  0.00    -0.237 OA
ATOM     88  O   UNL     1      -1.421   6.672 -12.590  1.00  0.00    -0.744 OA
ENDBRANCH  82  85
ENDBRANCH  54  78
BRANCH  66  89
ATOM     89  C   UNL     1      -8.372   1.200 -18.240  1.00  0.00     0.023 A 
ATOM     90  C   UNL     1      -7.272   0.952 -19.085  1.00  0.00     0.012 A 
ATOM     91  C   UNL     1      -9.662   1.303 -18.797  1.00  0.00     0.148 A 
ATOM     92  C   UNL     1      -7.449   0.843 -20.464  1.00  0.00     0.002 A 
ATOM     93  C   UNL     1      -9.838   1.142 -20.166  1.00  0.00     0.091 A 
ATOM     94  F   UNL     1     -10.694   1.559 -17.980  1.00  0.00    -0.205 F 
ATOM     95  C   UNL     1      -8.731   0.926 -21.003  1.00  0.00     0.022 A 
BRANCH  93  96
ATOM     96  S   UNL     1     -11.463   1.133 -20.930  1.00  0.00     0.127 S 
ATOM     97  O   UNL     1     -11.492   2.440 -21.585  1.00  0.00    -0.237 OA
ATOM     98  O   UNL     1     -11.372  -0.005 -21.845  1.00  0.00    -0.237 OA
ATOM     99  O   UNL     1     -12.415   0.955 -19.842  1.00  0.00    -0.744 OA
ENDBRANCH  93  96
ENDBRANCH  66  89
ENDBRANCH  40  41
ENDBRANCH  32  35
ENDBRANCH  30  31
ENDBRANCH   1  30
TORSDOF 15
