REMARK SMILES C/C(=C(\C#N)C(=O)NCCCCNC(=O)c1ccc(-c2c3nc(c(-c4cccc(S(=O)(=O)[O-])c4F)c4ccc([nH]4)c(-c4cccc(S(=O)(=O)[O-])c4F)c4nc(c(-c5cccc(S(=O)(=O)[O-])c5F)c5ccc2[nH]5)C=C4)C=C3)cc1)c1cccc2ccccc12
REMARK SMILES IDX 11 1 10 2 9 3 8 4 6 5 7 6 3 8 1 9 2 10 79 11 80 12 88 13
REMARK SMILES IDX 81 14 83 15 87 16 82 17 84 18 86 19 85 20 4 21 5 22 12 23
REMARK SMILES IDX 13 24 14 25 15 27 16 28 17 29 78 30 18 31 77 32 19 33 20 34
REMARK SMILES IDX 21 35 71 36 22 37 76 38 70 39 72 40 23 41 75 42 69 43 68 44
REMARK SMILES IDX 24 46 56 47 36 48 55 49 37 50 40 51 54 52 73 53 38 54 39 55
REMARK SMILES IDX 53 57 74 58 41 59 25 60 26 61 34 62 27 63 29 64 35 65 28 66
REMARK SMILES IDX 30 67 31 68 32 69 33 70 57 71 58 72 66 73 59 74 61 75 67 76
REMARK SMILES IDX 60 77 62 78 63 79 64 80 65 81 42 82 43 83 51 84 44 85 46 86
REMARK SMILES IDX 52 87 45 88 47 89 48 90 49 91 50 92
REMARK H PARENT 8 7 13 26 72 45 40 56
REMARK Flexibility Score: inf
ROOT
ATOM      1  C   UNL     1      -4.211   5.184  -0.435  1.00  0.00     0.023 C 
ENDROOT
BRANCH   1   2
ATOM      2  C   UNL     1      -3.489   3.971  -1.025  1.00  0.00     0.023 C 
BRANCH   2   3
ATOM      3  C   UNL     1      -1.968   4.080  -1.078  1.00  0.00     0.116 C 
BRANCH   3   4
ATOM      4  N   UNL     1      -1.335   4.027   0.230  1.00  0.00    -0.351 N 
ATOM      5  C   UNL     1      -0.371   3.254   0.810  1.00  0.00     0.262 C 
ATOM      6  O   UNL     1       0.144   3.766   1.808  1.00  0.00    -0.268 OA
ATOM      7  H   UNL     1      -1.686   4.712   0.844  1.00  0.00     0.163 HD
BRANCH   5   8
ATOM      8  C   UNL     1       0.071   1.891   0.309  1.00  0.00     0.120 C 
ATOM      9  C   UNL     1       1.226  -0.342   0.495  1.00  0.00     0.046 C 
ATOM     10  C   UNL     1       0.717   0.958   1.084  1.00  0.00    -0.020 C 
BRANCH  10  11
ATOM     11  C   UNL     1       0.962   1.127   2.562  1.00  0.00    -0.013 A 
ATOM     12  C   UNL     1      -0.167   1.447   3.340  1.00  0.00     0.009 A 
ATOM     13  C   UNL     1       2.239   1.070   3.221  1.00  0.00    -0.011 A 
ATOM     14  C   UNL     1      -0.031   1.991   4.611  1.00  0.00     0.001 A 
ATOM     15  C   UNL     1       2.368   1.758   4.456  1.00  0.00    -0.018 A 
ATOM     16  C   UNL     1       3.392   0.344   2.810  1.00  0.00     0.009 A 
ATOM     17  C   UNL     1       1.237   2.244   5.114  1.00  0.00     0.009 A 
ATOM     18  C   UNL     1       3.614   1.901   5.082  1.00  0.00     0.009 A 
ATOM     19  C   UNL     1       4.566   0.307   3.575  1.00  0.00     0.001 A 
ATOM     20  C   UNL     1       4.698   1.133   4.679  1.00  0.00     0.001 A 
ENDBRANCH  10  11
BRANCH   8  21
ATOM     21  C   UNL     1      -0.155   1.577  -1.066  1.00  0.00     0.105 C 
ATOM     22  N   UNL     1      -0.328   1.260  -2.167  1.00  0.00    -0.192 NA
ENDBRANCH   8  21
ENDBRANCH   5   8
ENDBRANCH   3   4
ENDBRANCH   2   3
ENDBRANCH   1   2
BRANCH   1  23
ATOM     23  C   UNL     1      -3.869   6.530  -1.067  1.00  0.00     0.116 C 
BRANCH  23  24
ATOM     24  N   UNL     1      -4.104   6.570  -2.505  1.00  0.00    -0.352 N 
ATOM     25  C   UNL     1      -4.757   7.526  -3.248  1.00  0.00     0.251 C 
ATOM     26  H   UNL     1      -3.746   5.807  -3.014  1.00  0.00     0.163 HD
ATOM     27  O   UNL     1      -4.980   7.334  -4.440  1.00  0.00    -0.269 OA
BRANCH  25  28
ATOM     28  C   UNL     1      -5.216   8.770  -2.595  1.00  0.00     0.039 A 
ATOM     29  C   UNL     1      -6.523   9.209  -2.816  1.00  0.00     0.014 A 
ATOM     30  C   UNL     1      -4.370   9.477  -1.737  1.00  0.00     0.014 A 
ATOM     31  C   UNL     1      -7.004  10.317  -2.117  1.00  0.00     0.010 A 
ATOM     32  C   UNL     1      -4.880  10.524  -0.976  1.00  0.00     0.010 A 
ATOM     33  C   UNL     1      -6.201  10.958  -1.159  1.00  0.00    -0.014 A 
BRANCH  33  34
ATOM     34  C   UNL     1      -6.733  12.071  -0.329  1.00  0.00     0.031 A 
ATOM     35  C   UNL     1      -6.097  13.433  -0.388  1.00  0.00     0.074 A 
ATOM     36  C   UNL     1      -7.741  11.835   0.535  1.00  0.00     0.049 A 
ATOM     37  N   UNL     1      -6.392  14.509   0.295  1.00  0.00    -0.248 NA
ATOM     38  C   UNL     1      -4.968  13.605  -1.317  1.00  0.00     0.031 C 
ATOM     39  C   UNL     1      -8.397  10.542   0.738  1.00  0.00     0.029 A 
ATOM     40  N   UNL     1      -8.375  12.669   1.423  1.00  0.00    -0.354 N 
ATOM     41  C   UNL     1      -5.468  15.472  -0.094  1.00  0.00     0.074 A 
ATOM     42  C   UNL     1      -4.580  14.843  -1.046  1.00  0.00     0.031 C 
ATOM     43  C   UNL     1      -9.347  10.671   1.677  1.00  0.00     0.029 A 
ATOM     44  C   UNL     1      -9.337  12.041   2.180  1.00  0.00     0.049 A 
ATOM     45  H   UNL     1      -8.162  13.626   1.510  1.00  0.00     0.167 HD
ATOM     46  C   UNL     1      -5.380  16.768   0.288  1.00  0.00     0.034 A 
ATOM     47  C   UNL     1     -10.110  12.506   3.181  1.00  0.00     0.034 A 
ATOM     48  C   UNL     1      -6.275  17.394   1.223  1.00  0.00     0.049 A 
ATOM     49  C   UNL     1      -9.991  13.950   3.588  1.00  0.00     0.074 A 
ATOM     50  C   UNL     1      -6.316  18.720   1.615  1.00  0.00     0.029 A 
ATOM     51  N   UNL     1      -7.269  16.737   1.931  1.00  0.00    -0.354 N 
ATOM     52  N   UNL     1      -9.206  14.881   3.103  1.00  0.00    -0.248 NA
ATOM     53  C   UNL     1     -10.886  14.416   4.657  1.00  0.00     0.031 C 
ATOM     54  C   UNL     1      -7.296  18.854   2.602  1.00  0.00     0.029 A 
ATOM     55  C   UNL     1      -7.912  17.625   2.777  1.00  0.00     0.049 A 
ATOM     56  H   UNL     1      -7.485  15.780   1.846  1.00  0.00     0.167 HD
ATOM     57  C   UNL     1      -9.539  16.050   3.778  1.00  0.00     0.074 A 
ATOM     58  C   UNL     1     -10.610  15.712   4.693  1.00  0.00     0.031 C 
ATOM     59  C   UNL     1      -9.003  17.289   3.655  1.00  0.00     0.034 A 
BRANCH  46  60
ATOM     60  C   UNL     1      -4.284  17.605  -0.319  1.00  0.00     0.023 A 
ATOM     61  C   UNL     1      -4.328  17.942  -1.688  1.00  0.00     0.012 A 
ATOM     62  C   UNL     1      -3.238  18.106   0.481  1.00  0.00     0.148 A 
ATOM     63  C   UNL     1      -3.328  18.729  -2.259  1.00  0.00     0.002 A 
ATOM     64  C   UNL     1      -2.274  18.933  -0.084  1.00  0.00     0.091 A 
ATOM     65  F   UNL     1      -3.202  17.762   1.776  1.00  0.00    -0.205 F 
ATOM     66  C   UNL     1      -2.309  19.232  -1.456  1.00  0.00     0.022 A 
BRANCH  64  67
ATOM     67  S   UNL     1      -0.969  19.701   0.881  1.00  0.00     0.127 S 
ATOM     68  O   UNL     1       0.219  19.031   0.354  1.00  0.00    -0.237 OA
ATOM     69  O   UNL     1      -1.096  21.107   0.501  1.00  0.00    -0.237 OA
ATOM     70  O   UNL     1      -1.276  19.415   2.276  1.00  0.00    -0.744 OA
ENDBRANCH  64  67
ENDBRANCH  46  60
BRANCH  47  71
ATOM     71  C   UNL     1     -11.087  11.604   3.854  1.00  0.00     0.023 A 
ATOM     72  C   UNL     1     -12.469  11.823   3.693  1.00  0.00     0.012 A 
ATOM     73  C   UNL     1     -10.651  10.525   4.647  1.00  0.00     0.148 A 
ATOM     74  C   UNL     1     -13.399  11.009   4.342  1.00  0.00     0.002 A 
ATOM     75  C   UNL     1     -11.582   9.682   5.242  1.00  0.00     0.091 A 
ATOM     76  F   UNL     1      -9.332  10.337   4.792  1.00  0.00    -0.205 F 
ATOM     77  C   UNL     1     -12.956   9.935   5.109  1.00  0.00     0.022 A 
BRANCH  75  78
ATOM     78  S   UNL     1     -11.106   8.203   6.143  1.00  0.00     0.127 S 
ATOM     79  O   UNL     1     -11.531   8.531   7.501  1.00  0.00    -0.237 OA
ATOM     80  O   UNL     1     -11.908   7.177   5.475  1.00  0.00    -0.237 OA
ATOM     81  O   UNL     1      -9.669   8.065   5.949  1.00  0.00    -0.744 OA
ENDBRANCH  75  78
ENDBRANCH  47  71
BRANCH  59  82
ATOM     82  C   UNL     1      -9.598  18.398   4.485  1.00  0.00     0.023 A 
ATOM     83  C   UNL     1      -9.407  18.427   5.880  1.00  0.00     0.012 A 
ATOM     84  C   UNL     1     -10.290  19.455   3.860  1.00  0.00     0.148 A 
ATOM     85  C   UNL     1      -9.927  19.471   6.644  1.00  0.00     0.002 A 
ATOM     86  C   UNL     1     -10.755  20.520   4.620  1.00  0.00     0.091 A 
ATOM     87  F   UNL     1     -10.474  19.401   2.533  1.00  0.00    -0.205 F 
ATOM     88  C   UNL     1     -10.589  20.522   6.014  1.00  0.00     0.022 A 
BRANCH  86  89
ATOM     89  S   UNL     1     -11.530  21.964   3.885  1.00  0.00     0.127 S 
ATOM     90  O   UNL     1     -12.902  21.846   4.375  1.00  0.00    -0.237 OA
ATOM     91  O   UNL     1     -10.762  23.059   4.478  1.00  0.00    -0.237 OA
ATOM     92  O   UNL     1     -11.371  21.821   2.444  1.00  0.00    -0.744 OA
ENDBRANCH  86  89
ENDBRANCH  59  82
ENDBRANCH  33  34
ENDBRANCH  25  28
ENDBRANCH  23  24
ENDBRANCH   1  23
TORSDOF 16
