REMARK SMILES O=C(NCCCCNC(=O)[C@@H]1CN(c2nc(-c3ccccc3)no2)CC[NH2+]1)c1ccc(-c2c3nc(c(-c4cccc(S(=O)(=O)[O-])c4F)c4ccc([nH]4)c(-c4cccc(S(=O)(=O)[O-])c4F)c4nc(c(-c5cccc(S(=O)(=O)[O-])c5F)c5ccc2[nH]5)C=C4)C=C3)cc1
REMARK SMILES IDX 5 1 4 2 3 3 1 4 2 5 28 7 29 8 90 9 30 10 89 11 31 12 32 13
REMARK SMILES IDX 33 14 83 15 34 16 88 17 82 18 84 19 35 20 87 21 81 22 80 23
REMARK SMILES IDX 36 25 68 26 48 27 67 28 49 29 52 30 66 31 85 32 50 33 51 34
REMARK SMILES IDX 65 36 86 37 53 38 37 39 38 40 46 41 39 42 41 43 47 44 40 45
REMARK SMILES IDX 42 46 43 47 44 48 45 49 69 50 70 51 78 52 71 53 73 54 79 55
REMARK SMILES IDX 72 56 74 57 75 58 76 59 77 60 54 61 55 62 63 63 56 64 58 65
REMARK SMILES IDX 64 66 57 67 59 68 60 69 61 70 62 71 6 72 7 73 8 74 9 75
REMARK SMILES IDX 10 77 11 78 12 79 27 80 13 81 26 82 25 85 14 86 15 87 24 88
REMARK SMILES IDX 16 89 23 90 17 91 18 92 22 93 19 94 21 95 20 96
REMARK H PARENT 3 6 84 24 52 35 8 76 27 83 27 84
REMARK Flexibility Score: inf
ROOT
ATOM      1  C   UNL     1       5.083  -0.321   2.462  1.00  0.00     0.023 C 
ENDROOT
BRANCH   1   2
ATOM      2  C   UNL     1       4.705  -0.466   0.990  1.00  0.00     0.116 C 
BRANCH   2   3
ATOM      3  N   UNL     1       3.282  -0.687   0.784  1.00  0.00    -0.352 N 
ATOM      4  O   UNL     1       1.233  -0.315  -0.077  1.00  0.00    -0.269 OA
ATOM      5  C   UNL     1       2.439  -0.090  -0.120  1.00  0.00     0.251 C 
ATOM      6  H   UNL     1       2.867  -1.357   1.374  1.00  0.00     0.163 HD
BRANCH   5   7
ATOM      7  C   UNL     1       2.999   0.845  -1.113  1.00  0.00     0.039 A 
ATOM      8  C   UNL     1       4.109   0.479  -1.881  1.00  0.00     0.014 A 
ATOM      9  C   UNL     1       2.428   2.111  -1.242  1.00  0.00     0.014 A 
ATOM     10  C   UNL     1       4.726   1.426  -2.691  1.00  0.00     0.010 A 
ATOM     11  C   UNL     1       3.010   3.038  -2.104  1.00  0.00     0.010 A 
ATOM     12  C   UNL     1       4.180   2.713  -2.809  1.00  0.00    -0.014 A 
BRANCH  12  13
ATOM     13  C   UNL     1       4.802   3.708  -3.714  1.00  0.00     0.031 A 
ATOM     14  C   UNL     1       5.403   4.971  -3.169  1.00  0.00     0.074 A 
ATOM     15  C   UNL     1       4.759   3.489  -5.042  1.00  0.00     0.049 A 
ATOM     16  N   UNL     1       5.898   5.992  -3.818  1.00  0.00    -0.248 NA
ATOM     17  C   UNL     1       5.444   5.111  -1.705  1.00  0.00     0.031 C 
ATOM     18  C   UNL     1       4.165   2.312  -5.678  1.00  0.00     0.029 A 
ATOM     19  N   UNL     1       5.187   4.258  -6.092  1.00  0.00    -0.354 N 
ATOM     20  C   UNL     1       6.264   6.917  -2.849  1.00  0.00     0.074 A 
ATOM     21  C   UNL     1       5.936   6.335  -1.565  1.00  0.00     0.031 C 
ATOM     22  C   UNL     1       4.247   2.446  -7.009  1.00  0.00     0.029 A 
ATOM     23  C   UNL     1       4.853   3.737  -7.318  1.00  0.00     0.049 A 
ATOM     24  H   UNL     1       5.685   5.101  -5.979  1.00  0.00     0.167 HD
ATOM     25  C   UNL     1       6.832   8.136  -3.017  1.00  0.00     0.034 A 
ATOM     26  C   UNL     1       4.982   4.253  -8.555  1.00  0.00     0.034 A 
ATOM     27  C   UNL     1       7.186   8.687  -4.298  1.00  0.00     0.049 A 
ATOM     28  C   UNL     1       5.633   5.595  -8.717  1.00  0.00     0.074 A 
ATOM     29  C   UNL     1       7.837   9.876  -4.572  1.00  0.00     0.029 A 
ATOM     30  N   UNL     1       6.909   8.091  -5.519  1.00  0.00    -0.354 N 
ATOM     31  N   UNL     1       6.094   6.400  -7.791  1.00  0.00    -0.248 NA
ATOM     32  C   UNL     1       5.811   6.089 -10.089  1.00  0.00     0.031 C 
ATOM     33  C   UNL     1       7.936  10.008  -5.962  1.00  0.00     0.029 A 
ATOM     34  C   UNL     1       7.365   8.891  -6.552  1.00  0.00     0.049 A 
ATOM     35  H   UNL     1       6.454   7.225  -5.635  1.00  0.00     0.167 HD
ATOM     36  C   UNL     1       6.645   7.482  -8.465  1.00  0.00     0.074 A 
ATOM     37  C   UNL     1       6.469   7.223  -9.881  1.00  0.00     0.031 C 
ATOM     38  C   UNL     1       7.232   8.593  -7.956  1.00  0.00     0.034 A 
BRANCH  25  39
ATOM     39  C   UNL     1       7.134   8.944  -1.782  1.00  0.00     0.023 A 
ATOM     40  C   UNL     1       8.207   8.569  -0.949  1.00  0.00     0.012 A 
ATOM     41  C   UNL     1       6.390  10.099  -1.471  1.00  0.00     0.148 A 
ATOM     42  C   UNL     1       8.514   9.310   0.193  1.00  0.00     0.002 A 
ATOM     43  C   UNL     1       6.726  10.854  -0.352  1.00  0.00     0.091 A 
ATOM     44  F   UNL     1       5.356  10.428  -2.257  1.00  0.00    -0.205 F 
ATOM     45  C   UNL     1       7.780  10.456   0.486  1.00  0.00     0.022 A 
BRANCH  43  46
ATOM     46  S   UNL     1       5.877  12.385   0.053  1.00  0.00     0.127 S 
ATOM     47  O   UNL     1       4.932  11.938   1.075  1.00  0.00    -0.237 OA
ATOM     48  O   UNL     1       6.964  13.226   0.557  1.00  0.00    -0.237 OA
ATOM     49  O   UNL     1       5.290  12.849  -1.196  1.00  0.00    -0.744 OA
ENDBRANCH  43  46
ENDBRANCH  25  39
BRANCH  26  50
ATOM     50  C   UNL     1       4.510   3.457  -9.720  1.00  0.00     0.023 A 
ATOM     51  C   UNL     1       5.452   2.839 -10.563  1.00  0.00     0.012 A 
ATOM     52  C   UNL     1       3.136   3.217  -9.925  1.00  0.00     0.148 A 
ATOM     53  C   UNL     1       5.033   2.001 -11.597  1.00  0.00     0.002 A 
ATOM     54  C   UNL     1       2.729   2.337 -10.920  1.00  0.00     0.091 A 
ATOM     55  F   UNL     1       2.258   3.822  -9.112  1.00  0.00    -0.205 F 
ATOM     56  C   UNL     1       3.676   1.738 -11.766  1.00  0.00     0.022 A 
BRANCH  54  57
ATOM     57  S   UNL     1       1.019   1.822 -11.114  1.00  0.00     0.127 S 
ATOM     58  O   UNL     1       0.665   2.436 -12.391  1.00  0.00    -0.237 OA
ATOM     59  O   UNL     1       1.146   0.364 -11.145  1.00  0.00    -0.237 OA
ATOM     60  O   UNL     1       0.316   2.339  -9.948  1.00  0.00    -0.744 OA
ENDBRANCH  54  57
ENDBRANCH  26  50
BRANCH  38  61
ATOM     61  C   UNL     1       7.768   9.609  -8.927  1.00  0.00     0.023 A 
ATOM     62  C   UNL     1       6.878  10.474  -9.593  1.00  0.00     0.012 A 
ATOM     63  C   UNL     1       9.156   9.776  -9.094  1.00  0.00     0.148 A 
ATOM     64  C   UNL     1       7.364  11.484 -10.423  1.00  0.00     0.002 A 
ATOM     65  C   UNL     1       9.634  10.811  -9.888  1.00  0.00     0.091 A 
ATOM     66  F   UNL     1       9.982   8.927  -8.464  1.00  0.00    -0.205 F 
ATOM     67  C   UNL     1       8.740  11.661 -10.559  1.00  0.00     0.022 A 
BRANCH  65  68
ATOM     68  S   UNL     1      11.386  11.173 -10.048  1.00  0.00     0.127 S 
ATOM     69  O   UNL     1      11.649  10.769 -11.429  1.00  0.00    -0.237 OA
ATOM     70  O   UNL     1      11.427  12.617  -9.817  1.00  0.00    -0.237 OA
ATOM     71  O   UNL     1      12.057  10.378  -9.028  1.00  0.00    -0.744 OA
ENDBRANCH  65  68
ENDBRANCH  38  61
ENDBRANCH  12  13
ENDBRANCH   5   7
ENDBRANCH   2   3
ENDBRANCH   1   2
BRANCH   1  72
ATOM     72  C   UNL     1       4.572  -1.433   3.377  1.00  0.00     0.023 C 
BRANCH  72  73
ATOM     73  C   UNL     1       4.928  -2.842   2.914  1.00  0.00     0.116 C 
BRANCH  73  74
ATOM     74  N   UNL     1       6.331  -3.142   3.138  1.00  0.00    -0.351 N 
ATOM     75  C   UNL     1       7.011  -3.929   4.011  1.00  0.00     0.280 C 
ATOM     76  H   UNL     1       6.925  -2.666   2.514  1.00  0.00     0.163 HD
ATOM     77  O   UNL     1       8.245  -3.824   3.958  1.00  0.00    -0.268 OA
BRANCH  75  78
ATOM     78  C   UNL     1       6.399  -4.978   4.963  1.00  0.00     0.292 C 
ATOM     79  C   UNL     1       6.880  -6.366   4.460  1.00  0.00     0.197 C 
ATOM     80  N   UNL     1       4.916  -4.912   5.107  1.00  0.00    -0.333 N 
ATOM     81  N   UNL     1       6.246  -7.473   5.190  1.00  0.00    -0.312 N 
ATOM     82  C   UNL     1       4.469  -5.995   6.007  1.00  0.00     0.283 C 
ATOM     83  H   UNL     1       4.479  -5.026   4.193  1.00  0.00     0.347 HD
ATOM     84  H   UNL     1       4.649  -4.009   5.498  1.00  0.00     0.347 HD
ATOM     85  C   UNL     1       4.806  -7.381   5.416  1.00  0.00     0.183 C 
BRANCH  81  86
ATOM     86  C   UNL     1       6.984  -8.258   5.999  1.00  0.00     0.324 A 
ATOM     87  N   UNL     1       8.141  -8.024   6.566  1.00  0.00    -0.171 NA
ATOM     88  O   UNL     1       6.477  -9.490   6.317  1.00  0.00    -0.315 OA
ATOM     89  C   UNL     1       8.337  -9.157   7.316  1.00  0.00     0.204 A 
ATOM     90  N   UNL     1       7.385 -10.091   7.184  1.00  0.00    -0.055 NA
BRANCH  89  91
ATOM     91  C   UNL     1       9.420  -9.281   8.265  1.00  0.00     0.023 A 
ATOM     92  C   UNL     1      10.559 -10.031   7.955  1.00  0.00     0.012 A 
ATOM     93  C   UNL     1       9.303  -8.678   9.524  1.00  0.00     0.012 A 
ATOM     94  C   UNL     1      11.572 -10.181   8.903  1.00  0.00     0.001 A 
ATOM     95  C   UNL     1      10.314  -8.836  10.472  1.00  0.00     0.001 A 
ATOM     96  C   UNL     1      11.446  -9.588  10.161  1.00  0.00     0.000 A 
ENDBRANCH  89  91
ENDBRANCH  81  86
ENDBRANCH  75  78
ENDBRANCH  73  74
ENDBRANCH  72  73
ENDBRANCH   1  72
TORSDOF 16
