REMARK SMILES C[C@H]([C@@H](C)C(=O)NCCCCNC(=O)c1ccc(-c2c3nc(c(-c4cccc(S(=O)(=O)[O-])c4F)c4ccc([nH]4)c(-c4cccc(S(=O)(=O)[O-])c4F)c4nc(c(-c5cccc(S(=O)(=O)[O-])c5F)c5ccc2[nH]5)C=C4)C=C3)cc1)[NH+]1CCN(c2nccs2)CC1
REMARK SMILES IDX 9 1 8 2 7 3 5 4 6 5 3 7 4 8 2 9 1 10 78 11 79 12 88 13 80 15
REMARK SMILES IDX 87 16 81 17 82 18 83 19 86 20 84 21 85 22 10 23 11 24 12 25
REMARK SMILES IDX 13 26 14 28 15 29 16 30 77 31 17 32 76 33 18 34 19 35 20 36
REMARK SMILES IDX 70 37 21 38 75 39 69 40 71 41 22 42 74 43 68 44 67 45 23 47
REMARK SMILES IDX 55 48 35 49 54 50 36 51 39 52 53 53 72 54 37 55 38 56 52 58
REMARK SMILES IDX 73 59 40 60 24 61 25 62 33 63 26 64 28 65 34 66 27 67 29 68
REMARK SMILES IDX 30 69 31 70 32 71 56 72 57 73 65 74 58 75 60 76 66 77 59 78
REMARK SMILES IDX 61 79 62 80 63 81 64 82 41 83 42 84 50 85 43 86 45 87 51 88
REMARK SMILES IDX 44 89 46 90 47 91 48 92 49 93
REMARK H PARENT 7 6 78 14 12 27 71 46 39 57
REMARK Flexibility Score: inf
ROOT
ATOM      1  C   UNL     1       2.863  -2.353  -3.232  1.00  0.00     0.023 C 
ENDROOT
BRANCH   1   2
ATOM      2  C   UNL     1       2.551  -2.325  -1.739  1.00  0.00     0.116 C 
BRANCH   2   3
ATOM      3  N   UNL     1       3.098  -1.149  -1.090  1.00  0.00    -0.356 N 
ATOM      4  C   UNL     1       2.481  -0.162  -0.382  1.00  0.00     0.228 C 
ATOM      5  O   UNL     1       3.169   0.786   0.007  1.00  0.00    -0.275 OA
ATOM      6  H   UNL     1       4.074  -1.047  -1.174  1.00  0.00     0.163 HD
BRANCH   4   7
ATOM      7  C   UNL     1       0.977  -0.191  -0.080  1.00  0.00     0.133 C 
ATOM      8  C   UNL     1       0.554  -1.538   0.510  1.00  0.00     0.024 C 
BRANCH   7   9
ATOM      9  C   UNL     1       0.141   0.496  -1.215  1.00  0.00     0.193 C 
ATOM     10  C   UNL     1       0.458   0.008  -2.635  1.00  0.00     0.076 C 
BRANCH   9  11
ATOM     11  N   UNL     1      -1.340   0.553  -1.199  1.00  0.00    -0.329 N 
ATOM     12  C   UNL     1      -2.089  -0.015  -0.077  1.00  0.00     0.284 C 
ATOM     13  C   UNL     1      -1.843   1.933  -1.430  1.00  0.00     0.284 C 
ATOM     14  H   UNL     1      -1.532  -0.089  -1.967  1.00  0.00     0.348 HD
ATOM     15  C   UNL     1      -2.021   0.795   1.230  1.00  0.00     0.180 C 
ATOM     16  C   UNL     1      -1.802   2.845  -0.181  1.00  0.00     0.180 C 
ATOM     17  N   UNL     1      -2.393   2.185   0.988  1.00  0.00    -0.337 N 
BRANCH  17  18
ATOM     18  C   UNL     1      -2.905   2.955   1.980  1.00  0.00     0.185 A 
ATOM     19  N   UNL     1      -3.760   3.932   1.766  1.00  0.00    -0.229 NA
ATOM     20  S   UNL     1      -2.488   2.736   3.651  1.00  0.00    -0.106 S 
ATOM     21  C   UNL     1      -4.176   4.481   2.961  1.00  0.00     0.125 A 
ATOM     22  C   UNL     1      -3.567   3.984   4.088  1.00  0.00     0.088 A 
ENDBRANCH  17  18
ENDBRANCH   9  11
ENDBRANCH   7   9
ENDBRANCH   4   7
ENDBRANCH   2   3
ENDBRANCH   1   2
BRANCH   1  23
ATOM     23  C   UNL     1       4.287  -2.771  -3.564  1.00  0.00     0.023 C 
BRANCH  23  24
ATOM     24  C   UNL     1       4.665  -4.152  -3.055  1.00  0.00     0.116 C 
BRANCH  24  25
ATOM     25  N   UNL     1       3.753  -5.198  -3.505  1.00  0.00    -0.352 N 
ATOM     26  C   UNL     1       4.070  -6.426  -4.045  1.00  0.00     0.251 C 
ATOM     27  H   UNL     1       2.792  -5.003  -3.413  1.00  0.00     0.163 HD
ATOM     28  O   UNL     1       3.212  -7.162  -4.495  1.00  0.00    -0.269 OA
BRANCH  26  29
ATOM     29  C   UNL     1       5.496  -6.802  -4.081  1.00  0.00     0.039 A 
ATOM     30  C   UNL     1       6.088  -7.112  -5.306  1.00  0.00     0.014 A 
ATOM     31  C   UNL     1       6.257  -6.702  -2.914  1.00  0.00     0.014 A 
ATOM     32  C   UNL     1       7.474  -7.251  -5.372  1.00  0.00     0.010 A 
ATOM     33  C   UNL     1       7.639  -6.746  -3.003  1.00  0.00     0.010 A 
ATOM     34  C   UNL     1       8.261  -7.028  -4.230  1.00  0.00    -0.014 A 
BRANCH  34  35
ATOM     35  C   UNL     1       9.741  -7.089  -4.277  1.00  0.00     0.031 A 
ATOM     36  C   UNL     1      10.464  -8.097  -3.427  1.00  0.00     0.074 A 
ATOM     37  C   UNL     1      10.430  -6.169  -4.982  1.00  0.00     0.049 A 
ATOM     38  N   UNL     1      11.747  -8.243  -3.232  1.00  0.00    -0.248 NA
ATOM     39  C   UNL     1       9.630  -9.039  -2.658  1.00  0.00     0.031 C 
ATOM     40  C   UNL     1       9.840  -5.081  -5.765  1.00  0.00     0.029 A 
ATOM     41  N   UNL     1      11.782  -5.984  -5.126  1.00  0.00    -0.354 N 
ATOM     42  C   UNL     1      11.872  -9.250  -2.284  1.00  0.00     0.074 A 
ATOM     43  C   UNL     1      10.535  -9.653  -1.911  1.00  0.00     0.031 C 
ATOM     44  C   UNL     1      10.824  -4.348  -6.313  1.00  0.00     0.029 A 
ATOM     45  C   UNL     1      12.112  -4.896  -5.901  1.00  0.00     0.049 A 
ATOM     46  H   UNL     1      12.453  -6.575  -4.714  1.00  0.00     0.167 HD
ATOM     47  C   UNL     1      12.998  -9.820  -1.797  1.00  0.00     0.034 A 
ATOM     48  C   UNL     1      13.319  -4.400  -6.239  1.00  0.00     0.034 A 
ATOM     49  C   UNL     1      14.320  -9.472  -2.235  1.00  0.00     0.049 A 
ATOM     50  C   UNL     1      14.556  -5.107  -5.752  1.00  0.00     0.074 A 
ATOM     51  C   UNL     1      15.523 -10.063  -1.895  1.00  0.00     0.029 A 
ATOM     52  N   UNL     1      14.612  -8.443  -3.118  1.00  0.00    -0.354 N 
ATOM     53  N   UNL     1      14.651  -6.168  -4.988  1.00  0.00    -0.248 NA
ATOM     54  C   UNL     1      15.849  -4.572  -6.201  1.00  0.00     0.031 C 
ATOM     55  C   UNL     1      16.544  -9.388  -2.571  1.00  0.00     0.029 A 
ATOM     56  C   UNL     1      15.975  -8.382  -3.336  1.00  0.00     0.049 A 
ATOM     57  H   UNL     1      13.946  -7.845  -3.528  1.00  0.00     0.167 HD
ATOM     58  C   UNL     1      16.009  -6.448  -4.892  1.00  0.00     0.074 A 
ATOM     59  C   UNL     1      16.697  -5.457  -5.693  1.00  0.00     0.031 C 
ATOM     60  C   UNL     1      16.633  -7.425  -4.189  1.00  0.00     0.034 A 
BRANCH  47  61
ATOM     61  C   UNL     1      12.838 -10.932  -0.796  1.00  0.00     0.023 A 
ATOM     62  C   UNL     1      12.352 -12.184  -1.226  1.00  0.00     0.012 A 
ATOM     63  C   UNL     1      13.200 -10.757   0.553  1.00  0.00     0.148 A 
ATOM     64  C   UNL     1      12.193 -13.233  -0.323  1.00  0.00     0.002 A 
ATOM     65  C   UNL     1      13.079 -11.821   1.440  1.00  0.00     0.091 A 
ATOM     66  F   UNL     1      13.635  -9.552   0.950  1.00  0.00    -0.205 F 
ATOM     67  C   UNL     1      12.566 -13.055   1.006  1.00  0.00     0.022 A 
BRANCH  65  68
ATOM     68  S   UNL     1      13.602 -11.714   3.155  1.00  0.00     0.127 S 
ATOM     69  O   UNL     1      12.319 -11.649   3.851  1.00  0.00    -0.237 OA
ATOM     70  O   UNL     1      14.331 -12.970   3.335  1.00  0.00    -0.237 OA
ATOM     71  O   UNL     1      14.428 -10.518   3.246  1.00  0.00    -0.744 OA
ENDBRANCH  65  68
ENDBRANCH  47  61
BRANCH  48  72
ATOM     72  C   UNL     1      13.412  -3.229  -7.156  1.00  0.00     0.023 A 
ATOM     73  C   UNL     1      13.860  -3.428  -8.477  1.00  0.00     0.012 A 
ATOM     74  C   UNL     1      13.030  -1.937  -6.749  1.00  0.00     0.148 A 
ATOM     75  C   UNL     1      13.954  -2.357  -9.367  1.00  0.00     0.002 A 
ATOM     76  C   UNL     1      13.077  -0.883  -7.656  1.00  0.00     0.091 A 
ATOM     77  F   UNL     1      12.620  -1.763  -5.485  1.00  0.00    -0.205 F 
ATOM     78  C   UNL     1      13.553  -1.088  -8.961  1.00  0.00     0.022 A 
BRANCH  76  79
ATOM     79  S   UNL     1      12.457   0.755  -7.256  1.00  0.00     0.127 S 
ATOM     80  O   UNL     1      13.695   1.507  -7.071  1.00  0.00    -0.237 OA
ATOM     81  O   UNL     1      11.701   1.099  -8.461  1.00  0.00    -0.237 OA
ATOM     82  O   UNL     1      11.634   0.578  -6.067  1.00  0.00    -0.744 OA
ENDBRANCH  76  79
ENDBRANCH  48  72
BRANCH  60  83
ATOM     83  C   UNL     1      18.134  -7.495  -4.270  1.00  0.00     0.023 A 
ATOM     84  C   UNL     1      18.911  -6.556  -3.565  1.00  0.00     0.012 A 
ATOM     85  C   UNL     1      18.769  -8.546  -4.960  1.00  0.00     0.148 A 
ATOM     86  C   UNL     1      20.301  -6.648  -3.564  1.00  0.00     0.002 A 
ATOM     87  C   UNL     1      20.153  -8.657  -4.918  1.00  0.00     0.091 A 
ATOM     88  F   UNL     1      18.009  -9.417  -5.640  1.00  0.00    -0.205 F 
ATOM     89  C   UNL     1      20.921  -7.704  -4.228  1.00  0.00     0.022 A 
BRANCH  87  90
ATOM     90  S   UNL     1      21.027 -10.037  -5.664  1.00  0.00     0.127 S 
ATOM     91  O   UNL     1      21.609  -9.415  -6.851  1.00  0.00    -0.237 OA
ATOM     92  O   UNL     1      21.995 -10.393  -4.625  1.00  0.00    -0.237 OA
ATOM     93  O   UNL     1      20.019 -11.057  -5.920  1.00  0.00    -0.744 OA
ENDBRANCH  87  90
ENDBRANCH  60  83
ENDBRANCH  34  35
ENDBRANCH  26  29
ENDBRANCH  24  25
ENDBRANCH  23  24
ENDBRANCH   1  23
TORSDOF 17
