REMARK SMILES COC(=O)[C@@H]1CCN(S(=O)(=O)N2CCC(C(=O)NCCCCNC(=O)c3ccc(-c4c5nc(c(-c6cccc(S(=O)(=O)[O-])c6F)c6ccc([nH]6)c(-c6cccc(S(=O)(=O)[O-])c6F)c6nc(c(-c7cccc(S(=O)(=O)[O-])c7F)c7ccc4[nH]7)C=C6)C=C5)cc3)CC2)C1
REMARK SMILES IDX 20 1 19 2 18 3 16 4 17 5 15 7 12 8 13 9 90 10 14 11 89 12
REMARK SMILES IDX 9 13 10 14 11 15 8 16 5 17 6 18 91 19 7 20 3 21 4 22 2 23
REMARK SMILES IDX 1 24 21 25 22 26 23 27 24 28 25 30 26 31 27 32 88 33 28 34
REMARK SMILES IDX 87 35 29 36 30 37 31 38 81 39 32 40 86 41 80 42 82 43 33 44
REMARK SMILES IDX 85 45 79 46 78 47 34 49 66 50 46 51 65 52 47 53 50 54 64 55
REMARK SMILES IDX 83 56 48 57 49 58 63 60 84 61 51 62 35 63 36 64 44 65 37 66
REMARK SMILES IDX 39 67 45 68 38 69 40 70 41 71 42 72 43 73 67 74 68 75 76 76
REMARK SMILES IDX 69 77 71 78 77 79 70 80 72 81 73 82 74 83 75 84 52 85 53 86
REMARK SMILES IDX 61 87 54 88 56 89 62 90 55 91 57 92 58 93 59 94 60 95
REMARK H PARENT 18 6 23 29 82 48 50 59
REMARK Flexibility Score: inf
ROOT
ATOM      1  C   UNL     1      -3.959 -11.298   2.345  1.00  0.00     0.023 C 
ENDROOT
BRANCH   1   2
ATOM      2  C   UNL     1      -3.760  -9.896   2.898  1.00  0.00     0.116 C 
BRANCH   2   3
ATOM      3  N   UNL     1      -2.917  -9.908   4.081  1.00  0.00    -0.356 N 
ATOM      4  C   UNL     1      -1.682  -9.383   4.284  1.00  0.00     0.223 C 
ATOM      5  O   UNL     1      -1.129  -9.571   5.369  1.00  0.00    -0.275 OA
ATOM      6  H   UNL     1      -3.304 -10.371   4.859  1.00  0.00     0.163 HD
BRANCH   4   7
ATOM      7  C   UNL     1      -1.012  -8.535   3.224  1.00  0.00     0.081 C 
ATOM      8  N   UNL     1      -0.984  -7.285   0.638  1.00  0.00    -0.189 NA
ATOM      9  C   UNL     1      -0.056  -8.410   0.861  1.00  0.00     0.104 C 
ATOM     10  C   UNL     1      -1.229  -6.486   1.847  1.00  0.00     0.104 C 
ATOM     11  C   UNL     1      -0.603  -9.315   1.969  1.00  0.00     0.030 C 
ATOM     12  C   UNL     1      -1.856  -7.292   2.948  1.00  0.00     0.030 C 
BRANCH   8  13
ATOM     13  S   UNL     1      -0.910  -6.479  -0.841  1.00  0.00     0.281 S 
ATOM     14  O   UNL     1      -2.135  -5.734  -0.997  1.00  0.00    -0.195 OA
ATOM     15  O   UNL     1      -0.506  -7.425  -1.859  1.00  0.00    -0.195 OA
BRANCH  13  16
ATOM     16  N   UNL     1       0.370  -5.349  -0.670  1.00  0.00    -0.188 NA
ATOM     17  C   UNL     1       0.022  -3.117  -1.653  1.00  0.00     0.116 C 
ATOM     18  C   UNL     1      -0.604  -3.240  -0.267  1.00  0.00     0.033 C 
ATOM     19  C   UNL     1       0.588  -4.530  -1.941  1.00  0.00     0.118 C 
ATOM     20  C   UNL     1       0.281  -4.287   0.355  1.00  0.00     0.104 C 
BRANCH  17  21
ATOM     21  C   UNL     1       1.088  -2.030  -1.667  1.00  0.00     0.310 C 
ATOM     22  O   UNL     1       2.066  -2.007  -2.398  1.00  0.00    -0.252 OA
BRANCH  21  23
ATOM     23  O   UNL     1       0.752  -1.046  -0.785  1.00  0.00    -0.469 OA
ATOM     24  C   UNL     1       1.644   0.054  -0.628  1.00  0.00     0.282 C 
ENDBRANCH  21  23
ENDBRANCH  17  21
ENDBRANCH  13  16
ENDBRANCH   8  13
ENDBRANCH   4   7
ENDBRANCH   2   3
ENDBRANCH   1   2
BRANCH   1  25
ATOM     25  C   UNL     1      -4.770 -12.208   3.261  1.00  0.00     0.023 C 
BRANCH  25  26
ATOM     26  C   UNL     1      -6.111 -11.632   3.692  1.00  0.00     0.116 C 
BRANCH  26  27
ATOM     27  N   UNL     1      -6.950 -11.254   2.564  1.00  0.00    -0.352 N 
ATOM     28  C   UNL     1      -8.279 -11.529   2.358  1.00  0.00     0.251 C 
ATOM     29  H   UNL     1      -6.506 -10.733   1.856  1.00  0.00     0.163 HD
ATOM     30  O   UNL     1      -8.802 -11.277   1.277  1.00  0.00    -0.269 OA
BRANCH  28  31
ATOM     31  C   UNL     1      -9.062 -12.149   3.445  1.00  0.00     0.039 A 
ATOM     32  C   UNL     1      -9.901 -13.223   3.147  1.00  0.00     0.014 A 
ATOM     33  C   UNL     1      -8.944 -11.685   4.758  1.00  0.00     0.014 A 
ATOM     34  C   UNL     1     -10.596 -13.855   4.177  1.00  0.00     0.010 A 
ATOM     35  C   UNL     1      -9.556 -12.380   5.792  1.00  0.00     0.010 A 
ATOM     36  C   UNL     1     -10.413 -13.452   5.511  1.00  0.00    -0.014 A 
BRANCH  36  37
ATOM     37  C   UNL     1     -11.146 -14.116   6.618  1.00  0.00     0.031 A 
ATOM     38  C   UNL     1     -12.107 -13.322   7.465  1.00  0.00     0.074 A 
ATOM     39  C   UNL     1     -10.911 -15.413   6.894  1.00  0.00     0.049 A 
ATOM     40  N   UNL     1     -12.836 -13.719   8.475  1.00  0.00    -0.248 NA
ATOM     41  C   UNL     1     -12.246 -11.888   7.156  1.00  0.00     0.031 C 
ATOM     42  C   UNL     1      -9.946 -16.267   6.198  1.00  0.00     0.029 A 
ATOM     43  N   UNL     1     -11.459 -16.238   7.843  1.00  0.00    -0.354 N 
ATOM     44  C   UNL     1     -13.491 -12.584   8.938  1.00  0.00     0.074 A 
ATOM     45  C   UNL     1     -13.034 -11.473   8.135  1.00  0.00     0.031 C 
ATOM     46  C   UNL     1      -9.987 -17.500   6.729  1.00  0.00     0.029 A 
ATOM     47  C   UNL     1     -10.955 -17.518   7.820  1.00  0.00     0.049 A 
ATOM     48  H   UNL     1     -12.148 -15.942   8.481  1.00  0.00     0.167 HD
ATOM     49  C   UNL     1     -14.418 -12.478   9.919  1.00  0.00     0.034 A 
ATOM     50  C   UNL     1     -11.244 -18.584   8.591  1.00  0.00     0.034 A 
ATOM     51  C   UNL     1     -14.896 -13.592  10.691  1.00  0.00     0.049 A 
ATOM     52  C   UNL     1     -12.303 -18.448   9.653  1.00  0.00     0.074 A 
ATOM     53  C   UNL     1     -15.886 -13.608  11.657  1.00  0.00     0.029 A 
ATOM     54  N   UNL     1     -14.413 -14.888  10.591  1.00  0.00    -0.354 N 
ATOM     55  N   UNL     1     -13.018 -17.399   9.978  1.00  0.00    -0.248 NA
ATOM     56  C   UNL     1     -12.624 -19.657  10.425  1.00  0.00     0.031 C 
ATOM     57  C   UNL     1     -15.978 -14.909  12.165  1.00  0.00     0.029 A 
ATOM     58  C   UNL     1     -15.079 -15.711  11.482  1.00  0.00     0.049 A 
ATOM     59  H   UNL     1     -13.701 -15.179   9.976  1.00  0.00     0.167 HD
ATOM     60  C   UNL     1     -13.906 -17.831  10.957  1.00  0.00     0.074 A 
ATOM     61  C   UNL     1     -13.648 -19.243  11.158  1.00  0.00     0.031 C 
ATOM     62  C   UNL     1     -14.846 -17.125  11.633  1.00  0.00     0.034 A 
BRANCH  49  63
ATOM     63  C   UNL     1     -15.006 -11.114  10.180  1.00  0.00     0.023 A 
ATOM     64  C   UNL     1     -15.847 -10.518   9.217  1.00  0.00     0.012 A 
ATOM     65  C   UNL     1     -14.762 -10.440  11.392  1.00  0.00     0.148 A 
ATOM     66  C   UNL     1     -16.397  -9.256   9.435  1.00  0.00     0.002 A 
ATOM     67  C   UNL     1     -15.356  -9.205  11.624  1.00  0.00     0.091 A 
ATOM     68  F   UNL     1     -13.944 -11.011  12.288  1.00  0.00    -0.205 F 
ATOM     69  C   UNL     1     -16.161  -8.605  10.642  1.00  0.00     0.022 A 
BRANCH  67  70
ATOM     70  S   UNL     1     -15.184  -8.323  13.179  1.00  0.00     0.127 S 
ATOM     71  O   UNL     1     -14.366  -7.179  12.780  1.00  0.00    -0.237 OA
ATOM     72  O   UNL     1     -16.573  -7.997  13.502  1.00  0.00    -0.237 OA
ATOM     73  O   UNL     1     -14.547  -9.253  14.102  1.00  0.00    -0.744 OA
ENDBRANCH  67  70
ENDBRANCH  49  63
BRANCH  50  74
ATOM     74  C   UNL     1     -10.576 -19.892   8.341  1.00  0.00     0.023 A 
ATOM     75  C   UNL     1     -11.326 -20.968   7.827  1.00  0.00     0.012 A 
ATOM     76  C   UNL     1      -9.204 -20.074   8.599  1.00  0.00     0.148 A 
ATOM     77  C   UNL     1     -10.733 -22.212   7.612  1.00  0.00     0.002 A 
ATOM     78  C   UNL     1      -8.606 -21.299   8.329  1.00  0.00     0.091 A 
ATOM     79  F   UNL     1      -8.509 -19.040   9.093  1.00  0.00    -0.205 F 
ATOM     80  C   UNL     1      -9.372 -22.375   7.855  1.00  0.00     0.022 A 
BRANCH  78  81
ATOM     81  S   UNL     1      -6.837 -21.566   8.492  1.00  0.00     0.127 S 
ATOM     82  O   UNL     1      -6.778 -22.494   9.618  1.00  0.00    -0.237 OA
ATOM     83  O   UNL     1      -6.501 -22.149   7.193  1.00  0.00    -0.237 OA
ATOM     84  O   UNL     1      -6.260 -20.250   8.728  1.00  0.00    -0.744 OA
ENDBRANCH  78  81
ENDBRANCH  50  74
BRANCH  62  85
ATOM     85  C   UNL     1     -15.712 -17.875  12.612  1.00  0.00     0.023 A 
ATOM     86  C   UNL     1     -15.168 -18.362  13.816  1.00  0.00     0.012 A 
ATOM     87  C   UNL     1     -17.088 -18.044  12.356  1.00  0.00     0.148 A 
ATOM     88  C   UNL     1     -15.970 -19.047  14.729  1.00  0.00     0.002 A 
ATOM     89  C   UNL     1     -17.891 -18.677  13.296  1.00  0.00     0.091 A 
ATOM     90  F   UNL     1     -17.584 -17.589  11.197  1.00  0.00    -0.205 F 
ATOM     91  C   UNL     1     -17.331 -19.194  14.475  1.00  0.00     0.022 A 
BRANCH  89  92
ATOM     92  S   UNL     1     -19.671 -18.817  13.099  1.00  0.00     0.127 S 
ATOM     93  O   UNL     1     -19.826 -20.239  12.799  1.00  0.00    -0.237 OA
ATOM     94  O   UNL     1     -20.161 -18.415  14.418  1.00  0.00    -0.237 OA
ATOM     95  O   UNL     1     -20.029 -17.907  12.020  1.00  0.00    -0.744 OA
ENDBRANCH  89  92
ENDBRANCH  62  85
ENDBRANCH  36  37
ENDBRANCH  28  31
ENDBRANCH  26  27
ENDBRANCH  25  26
ENDBRANCH   1  25
TORSDOF 18
