REMARK SMILES [NH3+]C[C@@H](Cc1ccc(Br)cc1)C(=O)NCCCCNC(=O)c1ccc(-c2c3nc(c(-c4cccc(S(=O)(=O)[O-])c4F)c4ccc([nH]4)c(-c4cccc(S(=O)(=O)[O-])c4F)c4nc(c(-c5cccc(S(=O)(=O)[O-])c5F)c5ccc2[nH]5)C=C4)C=C3)cc1
REMARK SMILES IDX 17 1 16 2 15 3 14 4 12 5 13 6 3 8 2 9 1 10 4 14 5 15 6 16
REMARK SMILES IDX 11 17 7 18 10 19 8 20 9 21 18 22 19 23 20 24 21 26 22 27
REMARK SMILES IDX 23 28 84 29 24 30 83 31 25 32 26 33 27 34 77 35 28 36 82 37
REMARK SMILES IDX 76 38 78 39 29 40 81 41 75 42 74 43 30 45 62 46 42 47 61 48
REMARK SMILES IDX 43 49 46 50 60 51 79 52 44 53 45 54 59 56 80 57 47 58 31 59
REMARK SMILES IDX 32 60 40 61 33 62 35 63 41 64 34 65 36 66 37 67 38 68 39 69
REMARK SMILES IDX 63 70 64 71 72 72 65 73 67 74 73 75 66 76 68 77 69 78 70 79
REMARK SMILES IDX 71 80 48 81 49 82 57 83 50 84 52 85 58 86 51 87 53 88 54 89
REMARK SMILES IDX 55 90 56 91
REMARK H PARENT 14 7 1 11 1 12 1 13 19 25 78 44 46 55
REMARK Flexibility Score: inf
ROOT
ATOM      1  C   UNL     1      -3.591   4.430  -1.113  1.00  0.00     0.023 C 
ENDROOT
BRANCH   1   2
ATOM      2  C   UNL     1      -2.724   3.277  -0.603  1.00  0.00     0.023 C 
BRANCH   2   3
ATOM      3  C   UNL     1      -1.927   2.550  -1.677  1.00  0.00     0.116 C 
BRANCH   3   4
ATOM      4  N   UNL     1      -0.679   3.198  -2.021  1.00  0.00    -0.356 N 
ATOM      5  C   UNL     1       0.555   2.679  -2.250  1.00  0.00     0.229 C 
ATOM      6  O   UNL     1       1.382   3.420  -2.794  1.00  0.00    -0.275 OA
ATOM      7  H   UNL     1      -0.734   4.178  -2.103  1.00  0.00     0.163 HD
BRANCH   5   8
ATOM      8  C   UNL     1       0.967   1.250  -1.886  1.00  0.00     0.137 C 
BRANCH   8   9
ATOM      9  C   UNL     1       0.675   0.873  -0.426  1.00  0.00     0.272 C 
BRANCH   9  10
ATOM     10  N   UNL     1       1.444  -0.282   0.051  1.00  0.00    -0.357 N 
ATOM     11  H   UNL     1       1.200  -0.475   1.023  1.00  0.00     0.344 HD
ATOM     12  H   UNL     1       2.441  -0.078  -0.015  1.00  0.00     0.344 HD
ATOM     13  H   UNL     1       1.226  -1.097  -0.522  1.00  0.00     0.344 HD
ENDBRANCH   9  10
ENDBRANCH   8   9
BRANCH   8  14
ATOM     14  C   UNL     1       0.641   0.211  -2.978  1.00  0.00     0.055 C 
BRANCH  14  15
ATOM     15  C   UNL     1      -0.793  -0.224  -3.147  1.00  0.00    -0.047 A 
ATOM     16  C   UNL     1      -1.327  -1.267  -2.377  1.00  0.00     0.005 A 
ATOM     17  C   UNL     1      -1.621   0.419  -4.080  1.00  0.00     0.005 A 
ATOM     18  C   UNL     1      -2.672  -1.625  -2.501  1.00  0.00     0.016 A 
ATOM     19  C   UNL     1      -2.970   0.073  -4.194  1.00  0.00     0.016 A 
ATOM     20  C   UNL     1      -3.490  -0.943  -3.398  1.00  0.00     0.017 A 
ATOM     21  Br  UNL     1      -5.320  -1.394  -3.526  1.00  0.00    -0.051 Br
ENDBRANCH  14  15
ENDBRANCH   8  14
ENDBRANCH   5   8
ENDBRANCH   3   4
ENDBRANCH   2   3
ENDBRANCH   1   2
BRANCH   1  22
ATOM     22  C   UNL     1      -4.535   4.114  -2.276  1.00  0.00     0.116 C 
BRANCH  22  23
ATOM     23  N   UNL     1      -5.370   2.936  -2.072  1.00  0.00    -0.352 N 
ATOM     24  C   UNL     1      -6.693   2.744  -2.420  1.00  0.00     0.251 C 
ATOM     25  H   UNL     1      -4.932   2.175  -1.627  1.00  0.00     0.163 HD
ATOM     26  O   UNL     1      -7.272   1.715  -2.123  1.00  0.00    -0.269 OA
BRANCH  24  27
ATOM     27  C   UNL     1      -7.414   3.836  -3.113  1.00  0.00     0.039 A 
ATOM     28  C   UNL     1      -8.590   4.327  -2.539  1.00  0.00     0.014 A 
ATOM     29  C   UNL     1      -6.883   4.428  -4.261  1.00  0.00     0.014 A 
ATOM     30  C   UNL     1      -9.169   5.491  -3.050  1.00  0.00     0.010 A 
ATOM     31  C   UNL     1      -7.430   5.619  -4.734  1.00  0.00     0.010 A 
ATOM     32  C   UNL     1      -8.555   6.181  -4.109  1.00  0.00    -0.014 A 
BRANCH  32  33
ATOM     33  C   UNL     1      -8.997   7.546  -4.491  1.00  0.00     0.031 A 
ATOM     34  C   UNL     1      -9.565   7.824  -5.853  1.00  0.00     0.074 A 
ATOM     35  C   UNL     1      -8.764   8.565  -3.637  1.00  0.00     0.049 A 
ATOM     36  N   UNL     1      -9.944   8.966  -6.365  1.00  0.00    -0.248 NA
ATOM     37  C   UNL     1      -9.704   6.679  -6.766  1.00  0.00     0.031 C 
ATOM     38  C   UNL     1      -8.123   8.437  -2.325  1.00  0.00     0.029 A 
ATOM     39  N   UNL     1      -9.004   9.911  -3.756  1.00  0.00    -0.354 N 
ATOM     40  C   UNL     1     -10.338   8.687  -7.667  1.00  0.00     0.074 A 
ATOM     41  C   UNL     1     -10.133   7.269  -7.875  1.00  0.00     0.031 C 
ATOM     42  C   UNL     1      -8.015   9.653  -1.766  1.00  0.00     0.029 A 
ATOM     43  C   UNL     1      -8.557  10.649  -2.683  1.00  0.00     0.049 A 
ATOM     44  H   UNL     1      -9.454  10.312  -4.535  1.00  0.00     0.167 HD
ATOM     45  C   UNL     1     -10.849   9.530  -8.595  1.00  0.00     0.034 A 
ATOM     46  C   UNL     1      -8.573  11.979  -2.464  1.00  0.00     0.034 A 
ATOM     47  C   UNL     1     -11.098  10.929  -8.369  1.00  0.00     0.049 A 
ATOM     48  C   UNL     1      -9.195  12.882  -3.494  1.00  0.00     0.074 A 
ATOM     49  C   UNL     1     -11.724  11.837  -9.206  1.00  0.00     0.029 A 
ATOM     50  N   UNL     1     -10.724  11.627  -7.232  1.00  0.00    -0.354 N 
ATOM     51  N   UNL     1      -9.749  12.566  -4.638  1.00  0.00    -0.248 NA
ATOM     52  C   UNL     1      -9.225  14.319  -3.188  1.00  0.00     0.031 C 
ATOM     53  C   UNL     1     -11.714  13.088  -8.580  1.00  0.00     0.029 A 
ATOM     54  C   UNL     1     -11.091  12.957  -7.350  1.00  0.00     0.049 A 
ATOM     55  H   UNL     1     -10.265  11.235  -6.454  1.00  0.00     0.167 HD
ATOM     56  C   UNL     1     -10.215  13.759  -5.177  1.00  0.00     0.074 A 
ATOM     57  C   UNL     1      -9.905  14.800  -4.220  1.00  0.00     0.031 C 
ATOM     58  C   UNL     1     -10.824  13.976  -6.369  1.00  0.00     0.034 A 
BRANCH  45  59
ATOM     59  C   UNL     1     -11.247   8.954  -9.927  1.00  0.00     0.023 A 
ATOM     60  C   UNL     1     -12.428   8.192 -10.021  1.00  0.00     0.012 A 
ATOM     61  C   UNL     1     -10.511   9.239 -11.094  1.00  0.00     0.148 A 
ATOM     62  C   UNL     1     -12.862   7.704 -11.252  1.00  0.00     0.002 A 
ATOM     63  C   UNL     1     -10.968   8.778 -12.323  1.00  0.00     0.091 A 
ATOM     64  F   UNL     1      -9.380   9.950 -10.979  1.00  0.00    -0.205 F 
ATOM     65  C   UNL     1     -12.139   8.006 -12.403  1.00  0.00     0.022 A 
BRANCH  63  66
ATOM     66  S   UNL     1     -10.149   9.167 -13.874  1.00  0.00     0.127 S 
ATOM     67  O   UNL     1      -9.600   7.865 -14.251  1.00  0.00    -0.237 OA
ATOM     68  O   UNL     1     -11.263   9.623 -14.705  1.00  0.00    -0.237 OA
ATOM     69  O   UNL     1      -9.163  10.192 -13.561  1.00  0.00    -0.744 OA
ENDBRANCH  63  66
ENDBRANCH  45  59
BRANCH  46  70
ATOM     70  C   UNL     1      -8.040  12.531  -1.187  1.00  0.00     0.023 A 
ATOM     71  C   UNL     1      -8.936  13.061  -0.238  1.00  0.00     0.012 A 
ATOM     72  C   UNL     1      -6.663  12.513  -0.893  1.00  0.00     0.148 A 
ATOM     73  C   UNL     1      -8.469  13.593   0.964  1.00  0.00     0.002 A 
ATOM     74  C   UNL     1      -6.209  12.995   0.330  1.00  0.00     0.091 A 
ATOM     75  F   UNL     1      -5.820  12.024  -1.814  1.00  0.00    -0.205 F 
ATOM     76  C   UNL     1      -7.107  13.550   1.253  1.00  0.00     0.022 A 
BRANCH  74  77
ATOM     77  S   UNL     1      -4.488  12.842   0.824  1.00  0.00     0.127 S 
ATOM     78  O   UNL     1      -3.964  14.166   0.505  1.00  0.00    -0.237 OA
ATOM     79  O   UNL     1      -4.598  12.549   2.254  1.00  0.00    -0.237 OA
ATOM     80  O   UNL     1      -3.965  11.735   0.033  1.00  0.00    -0.744 OA
ENDBRANCH  74  77
ENDBRANCH  46  70
BRANCH  58  81
ATOM     81  C   UNL     1     -11.205  15.392  -6.708  1.00  0.00     0.023 A 
ATOM     82  C   UNL     1     -10.201  16.307  -7.081  1.00  0.00     0.012 A 
ATOM     83  C   UNL     1     -12.554  15.796  -6.729  1.00  0.00     0.148 A 
ATOM     84  C   UNL     1     -10.531  17.611  -7.446  1.00  0.00     0.002 A 
ATOM     85  C   UNL     1     -12.879  17.085  -7.135  1.00  0.00     0.091 A 
ATOM     86  F   UNL     1     -13.493  14.917  -6.349  1.00  0.00    -0.205 F 
ATOM     87  C   UNL     1     -11.869  17.997  -7.484  1.00  0.00     0.022 A 
BRANCH  85  88
ATOM     88  S   UNL     1     -14.581  17.638  -7.299  1.00  0.00     0.127 S 
ATOM     89  O   UNL     1     -14.739  18.475  -6.111  1.00  0.00    -0.237 OA
ATOM     90  O   UNL     1     -14.551  18.374  -8.564  1.00  0.00    -0.237 OA
ATOM     91  O   UNL     1     -15.391  16.428  -7.328  1.00  0.00    -0.744 OA
ENDBRANCH  85  88
ENDBRANCH  58  81
ENDBRANCH  32  33
ENDBRANCH  24  27
ENDBRANCH  22  23
ENDBRANCH   1  22
TORSDOF 18
