REMARK SMILES C[C@H]1C[C@](C(=O)NCCCCNC(=O)c2ccc(-c3c4nc(c(-c5cccc(S(=O)(=O)[O-])c5F)c5ccc([nH]5)c(-c5cccc(S(=O)(=O)[O-])c5F)c5nc(c(-c6cccc(S(=O)(=O)[O-])c6F)c6ccc3[nH]6)C=C5)C=C4)cc2)(N(C=O)C2CC2)CS1
REMARK SMILES IDX 10 1 9 2 8 3 7 4 5 5 6 6 4 8 1 9 2 10 3 11 85 12 84 13 78 14
REMARK SMILES IDX 79 15 80 16 81 17 82 18 83 19 11 20 12 21 13 22 14 24 15 25
REMARK SMILES IDX 16 26 77 27 17 28 76 29 18 30 19 31 20 32 70 33 21 34 75 35
REMARK SMILES IDX 69 36 71 37 22 38 74 39 68 40 67 41 23 43 55 44 35 45 54 46
REMARK SMILES IDX 36 47 39 48 53 49 72 50 37 51 38 52 52 54 73 55 40 56 24 57
REMARK SMILES IDX 25 58 33 59 26 60 28 61 34 62 27 63 29 64 30 65 31 66 32 67
REMARK SMILES IDX 56 68 57 69 65 70 58 71 60 72 66 73 59 74 61 75 62 76 63 77
REMARK SMILES IDX 64 78 41 79 42 80 50 81 43 82 45 83 51 84 44 85 46 86 47 87
REMARK SMILES IDX 48 88 49 89
REMARK H PARENT 7 7 12 23 71 42 39 53
REMARK Flexibility Score: inf
ROOT
ATOM      1  C   UNL     1      -2.655   3.586   3.325  1.00  0.00     0.023 C 
ENDROOT
BRANCH   1   2
ATOM      2  C   UNL     1      -1.437   2.954   2.649  1.00  0.00     0.023 C 
BRANCH   2   3
ATOM      3  C   UNL     1      -0.118   3.139   3.395  1.00  0.00     0.116 C 
BRANCH   3   4
ATOM      4  N   UNL     1       0.031   2.170   4.464  1.00  0.00    -0.354 N 
ATOM      5  C   UNL     1       0.490   0.896   4.547  1.00  0.00     0.246 C 
ATOM      6  O   UNL     1       0.427   0.415   5.690  1.00  0.00    -0.272 OA
ATOM      7  H   UNL     1      -0.273   2.518   5.333  1.00  0.00     0.163 HD
BRANCH   5   8
ATOM      8  C   UNL     1       1.213   0.080   3.413  1.00  0.00     0.131 C 
ATOM      9  C   UNL     1      -1.240  -0.397   0.986  1.00  0.00     0.019 C 
ATOM     10  C   UNL     1       0.255  -0.647   1.120  1.00  0.00     0.046 C 
ATOM     11  C   UNL     1       0.991   0.435   1.915  1.00  0.00     0.054 C 
ATOM     12  S   UNL     1       0.556  -2.172   2.011  1.00  0.00    -0.156 SA
ATOM     13  C   UNL     1       0.619  -1.343   3.621  1.00  0.00     0.108 C 
BRANCH   8  14
ATOM     14  N   UNL     1       2.679   0.239   3.728  1.00  0.00    -0.327 N 
BRANCH  14  15
ATOM     15  C   UNL     1       3.267   1.506   3.675  1.00  0.00     0.341 C 
ATOM     16  O   UNL     1       4.441   1.774   3.904  1.00  0.00    -0.279 OA
ENDBRANCH  14  15
BRANCH  14  17
ATOM     17  C   UNL     1       3.565  -0.839   4.116  1.00  0.00     0.086 C 
ATOM     18  C   UNL     1       3.660  -2.277   3.695  1.00  0.00     0.027 C 
ATOM     19  C   UNL     1       4.560  -1.283   3.053  1.00  0.00     0.027 C 
ENDBRANCH  14  17
ENDBRANCH   8  14
ENDBRANCH   5   8
ENDBRANCH   3   4
ENDBRANCH   2   3
ENDBRANCH   1   2
BRANCH   1  20
ATOM     20  C   UNL     1      -2.596   5.102   3.471  1.00  0.00     0.116 C 
BRANCH  20  21
ATOM     21  N   UNL     1      -2.399   5.801   2.209  1.00  0.00    -0.352 N 
ATOM     22  C   UNL     1      -2.800   7.073   1.875  1.00  0.00     0.251 C 
ATOM     23  H   UNL     1      -1.919   5.301   1.509  1.00  0.00     0.163 HD
ATOM     24  O   UNL     1      -2.643   7.491   0.732  1.00  0.00    -0.269 OA
BRANCH  22  25
ATOM     25  C   UNL     1      -3.462   7.908   2.897  1.00  0.00     0.039 A 
ATOM     26  C   UNL     1      -4.689   8.502   2.592  1.00  0.00     0.014 A 
ATOM     27  C   UNL     1      -2.901   8.053   4.168  1.00  0.00     0.014 A 
ATOM     28  C   UNL     1      -5.387   9.188   3.587  1.00  0.00     0.010 A 
ATOM     29  C   UNL     1      -3.631   8.674   5.175  1.00  0.00     0.010 A 
ATOM     30  C   UNL     1      -4.880   9.249   4.895  1.00  0.00    -0.014 A 
BRANCH  30  31
ATOM     31  C   UNL     1      -5.643   9.896   5.991  1.00  0.00     0.031 A 
ATOM     32  C   UNL     1      -5.088  11.111   6.681  1.00  0.00     0.074 A 
ATOM     33  C   UNL     1      -6.784   9.329   6.430  1.00  0.00     0.049 A 
ATOM     34  N   UNL     1      -5.579  11.779   7.692  1.00  0.00    -0.248 NA
ATOM     35  C   UNL     1      -3.796  11.623   6.194  1.00  0.00     0.031 C 
ATOM     36  C   UNL     1      -7.378   8.099   5.899  1.00  0.00     0.029 A 
ATOM     37  N   UNL     1      -7.636   9.697   7.441  1.00  0.00    -0.354 N 
ATOM     38  C   UNL     1      -4.641  12.760   7.989  1.00  0.00     0.074 A 
ATOM     39  C   UNL     1      -3.537  12.581   7.072  1.00  0.00     0.031 C 
ATOM     40  C   UNL     1      -8.500   7.821   6.583  1.00  0.00     0.029 A 
ATOM     41  C   UNL     1      -8.694   8.835   7.614  1.00  0.00     0.049 A 
ATOM     42  H   UNL     1      -7.502  10.502   7.992  1.00  0.00     0.167 HD
ATOM     43  C   UNL     1      -4.706  13.741   8.920  1.00  0.00     0.034 A 
ATOM     44  C   UNL     1      -9.707   8.863   8.502  1.00  0.00     0.034 A 
ATOM     45  C   UNL     1      -5.834  13.953   9.785  1.00  0.00     0.049 A 
ATOM     46  C   UNL     1      -9.786  10.000   9.484  1.00  0.00     0.074 A 
ATOM     47  C   UNL     1      -6.049  14.985  10.680  1.00  0.00     0.029 A 
ATOM     48  N   UNL     1      -6.935  13.116   9.867  1.00  0.00    -0.354 N 
ATOM     49  N   UNL     1      -8.979  11.024   9.627  1.00  0.00    -0.248 NA
ATOM     50  C   UNL     1     -10.935  10.008  10.402  1.00  0.00     0.031 C 
ATOM     51  C   UNL     1      -7.276  14.763  11.315  1.00  0.00     0.029 A 
ATOM     52  C   UNL     1      -7.831  13.601  10.803  1.00  0.00     0.049 A 
ATOM     53  H   UNL     1      -7.062  12.296   9.336  1.00  0.00     0.167 HD
ATOM     54  C   UNL     1      -9.541  11.816  10.622  1.00  0.00     0.074 A 
ATOM     55  C   UNL     1     -10.767  11.162  11.034  1.00  0.00     0.031 C 
ATOM     56  C   UNL     1      -9.076  12.971  11.158  1.00  0.00     0.034 A 
BRANCH  43  57
ATOM     57  C   UNL     1      -3.548  14.700   9.007  1.00  0.00     0.023 A 
ATOM     58  C   UNL     1      -3.358  15.653   7.985  1.00  0.00     0.012 A 
ATOM     59  C   UNL     1      -2.682  14.694  10.117  1.00  0.00     0.148 A 
ATOM     60  C   UNL     1      -2.304  16.562   8.049  1.00  0.00     0.002 A 
ATOM     61  C   UNL     1      -1.658  15.632  10.194  1.00  0.00     0.091 A 
ATOM     62  F   UNL     1      -2.862  13.765  11.066  1.00  0.00    -0.205 F 
ATOM     63  C   UNL     1      -1.461  16.558   9.156  1.00  0.00     0.022 A 
BRANCH  61  64
ATOM     64  S   UNL     1      -0.568  15.756  11.616  1.00  0.00     0.127 S 
ATOM     65  O   UNL     1       0.670  15.182  11.091  1.00  0.00    -0.237 OA
ATOM     66  O   UNL     1      -0.521  17.201  11.846  1.00  0.00    -0.237 OA
ATOM     67  O   UNL     1      -1.212  14.996  12.679  1.00  0.00    -0.744 OA
ENDBRANCH  61  64
ENDBRANCH  43  57
BRANCH  44  68
ATOM     68  C   UNL     1     -10.780   7.830   8.440  1.00  0.00     0.023 A 
ATOM     69  C   UNL     1     -12.061   8.200   7.985  1.00  0.00     0.012 A 
ATOM     70  C   UNL     1     -10.538   6.489   8.794  1.00  0.00     0.148 A 
ATOM     71  C   UNL     1     -13.090   7.261   7.911  1.00  0.00     0.002 A 
ATOM     72  C   UNL     1     -11.554   5.547   8.668  1.00  0.00     0.091 A 
ATOM     73  F   UNL     1      -9.317   6.158   9.237  1.00  0.00    -0.205 F 
ATOM     74  C   UNL     1     -12.834   5.933   8.243  1.00  0.00     0.022 A 
BRANCH  72  75
ATOM     75  S   UNL     1     -11.279   3.793   8.948  1.00  0.00     0.127 S 
ATOM     76  O   UNL     1     -11.965   3.582  10.220  1.00  0.00    -0.237 OA
ATOM     77  O   UNL     1     -11.934   3.193   7.785  1.00  0.00    -0.237 OA
ATOM     78  O   UNL     1      -9.832   3.625   8.970  1.00  0.00    -0.744 OA
ENDBRANCH  72  75
ENDBRANCH  44  68
BRANCH  56  79
ATOM     79  C   UNL     1      -9.907  13.630  12.227  1.00  0.00     0.023 A 
ATOM     80  C   UNL     1      -9.947  13.075  13.521  1.00  0.00     0.012 A 
ATOM     81  C   UNL     1     -10.579  14.842  11.972  1.00  0.00     0.148 A 
ATOM     82  C   UNL     1     -10.666  13.701  14.538  1.00  0.00     0.002 A 
ATOM     83  C   UNL     1     -11.254  15.485  13.002  1.00  0.00     0.091 A 
ATOM     84  F   UNL     1     -10.545  15.343  10.728  1.00  0.00    -0.205 F 
ATOM     85  C   UNL     1     -11.308  14.911  14.283  1.00  0.00     0.022 A 
BRANCH  83  86
ATOM     86  S   UNL     1     -12.025  17.093  12.785  1.00  0.00     0.127 S 
ATOM     87  O   UNL     1     -13.442  16.738  12.723  1.00  0.00    -0.237 OA
ATOM     88  O   UNL     1     -11.627  17.798  14.004  1.00  0.00    -0.237 OA
ATOM     89  O   UNL     1     -11.460  17.643  11.560  1.00  0.00    -0.744 OA
ENDBRANCH  83  86
ENDBRANCH  56  79
ENDBRANCH  30  31
ENDBRANCH  22  25
ENDBRANCH  20  21
ENDBRANCH   1  20
TORSDOF 17
