REMARK SMILES Cc1c(C(=O)N[C@H]2C=C[C@@H](C(=O)NCCCCNC(=O)c3ccc(-c4c5nc(c(-c6cccc(S(=O)(=O)[O-])c6F)c6ccc([nH]6)c(-c6cccc(S(=O)(=O)[O-])c6F)c6nc(c(-c7cccc(S(=O)(=O)[O-])c7F)c7ccc4[nH]7)C=C6)C=C5)cc3)C2)oc2ccccc12
REMARK SMILES IDX 16 1 15 2 14 3 13 4 11 5 12 6 10 8 7 9 8 10 84 11 9 12 6 13
REMARK SMILES IDX 4 14 5 15 3 17 1 18 2 19 91 20 85 21 86 22 90 23 87 24 89 25
REMARK SMILES IDX 88 26 17 27 18 28 19 29 20 31 21 32 22 33 83 34 23 35 82 36
REMARK SMILES IDX 24 37 25 38 26 39 76 40 27 41 81 42 75 43 77 44 28 45 80 46
REMARK SMILES IDX 74 47 73 48 29 50 61 51 41 52 60 53 42 54 45 55 59 56 78 57
REMARK SMILES IDX 43 58 44 59 58 61 79 62 46 63 30 64 31 65 39 66 32 67 34 68
REMARK SMILES IDX 40 69 33 70 35 71 36 72 37 73 38 74 62 75 63 76 71 77 64 78
REMARK SMILES IDX 66 79 72 80 65 81 67 82 68 83 69 84 70 85 47 86 48 87 56 88
REMARK SMILES IDX 49 89 51 90 57 91 50 92 52 93 53 94 54 95 55 96
REMARK H PARENT 13 7 6 16 18 30 77 49 45 60
REMARK Flexibility Score: inf
ROOT
ATOM      1  C   UNL     1       9.114  -2.294   3.349  1.00  0.00     0.023 C 
ENDROOT
BRANCH   1   2
ATOM      2  C   UNL     1       8.022  -1.693   2.475  1.00  0.00     0.023 C 
BRANCH   2   3
ATOM      3  C   UNL     1       7.497  -2.650   1.418  1.00  0.00     0.116 C 
BRANCH   3   4
ATOM      4  N   UNL     1       6.677  -3.689   2.002  1.00  0.00    -0.356 N 
ATOM      5  C   UNL     1       5.380  -4.003   1.744  1.00  0.00     0.227 C 
ATOM      6  O   UNL     1       4.847  -4.900   2.401  1.00  0.00    -0.274 OA
ATOM      7  H   UNL     1       7.120  -4.247   2.682  1.00  0.00     0.163 HD
BRANCH   5   8
ATOM      8  C   UNL     1       4.583  -3.247   0.691  1.00  0.00     0.103 C 
ATOM      9  C   UNL     1       4.045  -1.150  -0.263  1.00  0.00     0.106 C 
ATOM     10  C   UNL     1       5.072  -1.803  -1.113  1.00  0.00    -0.006 C 
ATOM     11  C   UNL     1       4.262  -1.806   1.094  1.00  0.00     0.047 C 
ATOM     12  C   UNL     1       5.270  -3.048  -0.644  1.00  0.00    -0.016 C 
BRANCH   9  13
ATOM     13  N   UNL     1       4.009   0.258  -0.223  1.00  0.00    -0.343 N 
ATOM     14  C   UNL     1       2.871   1.028  -0.064  1.00  0.00     0.287 C 
ATOM     15  O   UNL     1       3.101   2.240   0.033  1.00  0.00    -0.266 OA
ATOM     16  H   UNL     1       4.865   0.734  -0.318  1.00  0.00     0.164 HD
BRANCH  14  17
ATOM     17  C   UNL     1       1.486   0.495  -0.033  1.00  0.00     0.195 A 
ATOM     18  C   UNL     1       1.140  -2.167  -0.110  1.00  0.00     0.049 C 
ATOM     19  C   UNL     1       0.768  -0.723  -0.062  1.00  0.00     0.008 A 
ATOM     20  C   UNL     1      -0.625  -0.383  -0.043  1.00  0.00     0.024 A 
ATOM     21  O   UNL     1       0.545   1.515   0.039  1.00  0.00    -0.451 OA
ATOM     22  C   UNL     1      -0.698   0.989   0.031  1.00  0.00     0.135 A 
ATOM     23  C   UNL     1      -1.822  -1.126  -0.076  1.00  0.00     0.012 A 
ATOM     24  C   UNL     1      -1.893   1.700   0.086  1.00  0.00     0.048 A 
ATOM     25  C   UNL     1      -3.040  -0.448  -0.024  1.00  0.00     0.001 A 
ATOM     26  C   UNL     1      -3.072   0.945   0.058  1.00  0.00     0.004 A 
ENDBRANCH  14  17
ENDBRANCH   9  13
ENDBRANCH   5   8
ENDBRANCH   3   4
ENDBRANCH   2   3
ENDBRANCH   1   2
BRANCH   1  27
ATOM     27  C   UNL     1      10.224  -2.988   2.572  1.00  0.00     0.116 C 
BRANCH  27  28
ATOM     28  N   UNL     1      10.755  -2.174   1.485  1.00  0.00    -0.352 N 
ATOM     29  C   UNL     1      12.061  -2.027   1.081  1.00  0.00     0.251 C 
ATOM     30  H   UNL     1      10.089  -1.662   0.971  1.00  0.00     0.163 HD
ATOM     31  O   UNL     1      12.361  -1.223   0.221  1.00  0.00    -0.269 OA
BRANCH  29  32
ATOM     32  C   UNL     1      13.086  -2.849   1.752  1.00  0.00     0.039 A 
ATOM     33  C   UNL     1      14.188  -2.209   2.317  1.00  0.00     0.014 A 
ATOM     34  C   UNL     1      12.900  -4.227   1.895  1.00  0.00     0.014 A 
ATOM     35  C   UNL     1      15.082  -2.952   3.084  1.00  0.00     0.010 A 
ATOM     36  C   UNL     1      13.742  -4.945   2.734  1.00  0.00     0.010 A 
ATOM     37  C   UNL     1      14.845  -4.316   3.329  1.00  0.00    -0.014 A 
BRANCH  37  38
ATOM     38  C   UNL     1      15.744  -5.090   4.219  1.00  0.00     0.031 A 
ATOM     39  C   UNL     1      16.525  -6.255   3.676  1.00  0.00     0.074 A 
ATOM     40  C   UNL     1      15.817  -4.768   5.526  1.00  0.00     0.049 A 
ATOM     41  N   UNL     1      17.367  -7.038   4.296  1.00  0.00    -0.248 NA
ATOM     42  C   UNL     1      16.318  -6.603   2.259  1.00  0.00     0.031 C 
ATOM     43  C   UNL     1      15.033  -3.720   6.186  1.00  0.00     0.029 A 
ATOM     44  N   UNL     1      16.576  -5.298   6.537  1.00  0.00    -0.354 N 
ATOM     45  C   UNL     1      17.777  -7.975   3.356  1.00  0.00     0.074 A 
ATOM     46  C   UNL     1      17.053  -7.699   2.136  1.00  0.00     0.031 C 
ATOM     47  C   UNL     1      15.364  -3.674   7.487  1.00  0.00     0.029 A 
ATOM     48  C   UNL     1      16.363  -4.702   7.759  1.00  0.00     0.049 A 
ATOM     49  H   UNL     1      17.214  -6.036   6.402  1.00  0.00     0.167 HD
ATOM     50  C   UNL     1      18.708  -8.950   3.482  1.00  0.00     0.034 A 
ATOM     51  C   UNL     1      16.915  -4.957   8.961  1.00  0.00     0.034 A 
ATOM     52  C   UNL     1      19.452  -9.198   4.686  1.00  0.00     0.049 A 
ATOM     53  C   UNL     1      17.974  -6.022   9.059  1.00  0.00     0.074 A 
ATOM     54  C   UNL     1      20.458 -10.123   4.901  1.00  0.00     0.029 A 
ATOM     55  N   UNL     1      19.272  -8.517   5.880  1.00  0.00    -0.354 N 
ATOM     56  N   UNL     1      18.463  -6.791   8.116  1.00  0.00    -0.248 NA
ATOM     57  C   UNL     1      18.590  -6.225  10.378  1.00  0.00     0.031 C 
ATOM     58  C   UNL     1      20.877 -10.011   6.230  1.00  0.00     0.029 A 
ATOM     59  C   UNL     1      20.149  -9.000   6.836  1.00  0.00     0.049 A 
ATOM     60  H   UNL     1      18.617  -7.797   6.027  1.00  0.00     0.167 HD
ATOM     61  C   UNL     1      19.465  -7.542   8.719  1.00  0.00     0.074 A 
ATOM     62  C   UNL     1      19.537  -7.109  10.099  1.00  0.00     0.031 C 
ATOM     63  C   UNL     1      20.243  -8.517   8.188  1.00  0.00     0.034 A 
BRANCH  50  64
ATOM     64  C   UNL     1      19.032  -9.772   2.263  1.00  0.00     0.023 A 
ATOM     65  C   UNL     1      19.753  -9.179   1.206  1.00  0.00     0.012 A 
ATOM     66  C   UNL     1      18.701 -11.139   2.193  1.00  0.00     0.148 A 
ATOM     67  C   UNL     1      20.120  -9.925   0.088  1.00  0.00     0.002 A 
ATOM     68  C   UNL     1      19.109 -11.888   1.095  1.00  0.00     0.091 A 
ATOM     69  F   UNL     1      17.999 -11.678   3.199  1.00  0.00    -0.205 F 
ATOM     70  C   UNL     1      19.809 -11.281   0.039  1.00  0.00     0.022 A 
BRANCH  68  71
ATOM     71  S   UNL     1      18.829 -13.657   0.965  1.00  0.00     0.127 S 
ATOM     72  O   UNL     1      17.919 -13.728  -0.179  1.00  0.00    -0.237 OA
ATOM     73  O   UNL     1      20.177 -14.161   0.703  1.00  0.00    -0.237 OA
ATOM     74  O   UNL     1      18.256 -14.071   2.237  1.00  0.00    -0.744 OA
ENDBRANCH  68  71
ENDBRANCH  50  64
BRANCH  51  75
ATOM     75  C   UNL     1      16.524  -4.159  10.158  1.00  0.00     0.023 A 
ATOM     76  C   UNL     1      17.462  -3.294  10.757  1.00  0.00     0.012 A 
ATOM     77  C   UNL     1      15.235  -4.260  10.714  1.00  0.00     0.148 A 
ATOM     78  C   UNL     1      17.141  -2.587  11.916  1.00  0.00     0.002 A 
ATOM     79  C   UNL     1      14.902  -3.507  11.834  1.00  0.00     0.091 A 
ATOM     80  F   UNL     1      14.358  -5.097  10.142  1.00  0.00    -0.205 F 
ATOM     81  C   UNL     1      15.859  -2.687  12.450  1.00  0.00     0.022 A 
BRANCH  79  82
ATOM     82  S   UNL     1      13.233  -3.477  12.498  1.00  0.00     0.127 S 
ATOM     83  O   UNL     1      13.363  -4.333  13.674  1.00  0.00    -0.237 OA
ATOM     84  O   UNL     1      13.045  -2.054  12.788  1.00  0.00    -0.237 OA
ATOM     85  O   UNL     1      12.384  -3.983  11.428  1.00  0.00    -0.744 OA
ENDBRANCH  79  82
ENDBRANCH  51  75
BRANCH  63  86
ATOM     86  C   UNL     1      21.264  -9.156   9.092  1.00  0.00     0.023 A 
ATOM     87  C   UNL     1      20.843 -10.012  10.130  1.00  0.00     0.012 A 
ATOM     88  C   UNL     1      22.641  -8.948   8.883  1.00  0.00     0.148 A 
ATOM     89  C   UNL     1      21.774 -10.613  10.975  1.00  0.00     0.002 A 
ATOM     90  C   UNL     1      23.565  -9.592   9.695  1.00  0.00     0.091 A 
ATOM     91  F   UNL     1      23.021  -8.117   7.901  1.00  0.00    -0.205 F 
ATOM     92  C   UNL     1      23.134 -10.411  10.751  1.00  0.00     0.022 A 
BRANCH  90  93
ATOM     93  S   UNL     1      25.336  -9.468   9.421  1.00  0.00     0.127 S 
ATOM     94  O   UNL     1      25.747  -8.593  10.517  1.00  0.00    -0.237 OA
ATOM     95  O   UNL     1      25.769 -10.860   9.555  1.00  0.00    -0.237 OA
ATOM     96  O   UNL     1      25.495  -8.914   8.083  1.00  0.00    -0.744 OA
ENDBRANCH  90  93
ENDBRANCH  63  86
ENDBRANCH  37  38
ENDBRANCH  29  32
ENDBRANCH  27  28
ENDBRANCH   1  27
TORSDOF 16
