REMARK SMILES CSCC[C@H](NC(=O)Cc1c(C)c2cc(Cl)c(O)cc2oc1=O)C(=O)NCCCCNC(=O)c1ccc(-c2c3nc(c(-c4cccc(S(=O)(=O)[O-])c4F)c4ccc([nH]4)c(-c4cccc(S(=O)(=O)[O-])c4F)c4nc(c(-c5cccc(S(=O)(=O)[O-])c5F)c5ccc2[nH]5)C=C4)C=C3)cc1
REMARK SMILES IDX 28 1 27 2 26 3 24 4 25 5 5 7 4 8 3 9 2 10 1 11 6 12 7 13
REMARK SMILES IDX 8 15 9 16 10 17 11 18 22 19 12 20 13 21 21 22 23 23 14 24
REMARK SMILES IDX 20 25 15 26 19 27 16 28 17 29 18 30 29 32 30 33 31 34 32 35
REMARK SMILES IDX 33 37 34 38 35 39 96 40 36 41 95 42 37 43 38 44 39 45 89 46
REMARK SMILES IDX 40 47 94 48 88 49 90 50 41 51 93 52 87 53 86 54 42 56 74 57
REMARK SMILES IDX 54 58 73 59 55 60 58 61 72 62 91 63 56 64 57 65 71 67 92 68
REMARK SMILES IDX 59 69 43 70 44 71 52 72 45 73 47 74 53 75 46 76 48 77 49 78
REMARK SMILES IDX 50 79 51 80 75 81 76 82 84 83 77 84 79 85 85 86 78 87 80 88
REMARK SMILES IDX 81 89 82 90 83 91 60 92 61 93 69 94 62 95 64 96 70 97 63 98
REMARK SMILES IDX 65 99 66 100 67 101 68 102
REMARK H PARENT 26 6 6 14 18 31 31 36 90 55 58 66
REMARK Flexibility Score: inf
ROOT
ATOM      1  C   UNL     1       2.386   3.797   5.756  1.00  0.00     0.023 C 
ENDROOT
BRANCH   1   2
ATOM      2  C   UNL     1       3.084   2.495   5.355  1.00  0.00     0.116 C 
BRANCH   2   3
ATOM      3  N   UNL     1       2.281   1.291   5.446  1.00  0.00    -0.354 N 
ATOM      4  C   UNL     1       1.665   0.551   4.486  1.00  0.00     0.242 C 
ATOM      5  O   UNL     1       1.300  -0.595   4.769  1.00  0.00    -0.273 OA
ATOM      6  H   UNL     1       2.161   0.950   6.362  1.00  0.00     0.163 HD
BRANCH   4   7
ATOM      7  C   UNL     1       1.520   1.037   3.040  1.00  0.00     0.172 C 
BRANCH   7   8
ATOM      8  C   UNL     1       2.880   0.849   2.336  1.00  0.00     0.046 C 
BRANCH   8   9
ATOM      9  C   UNL     1       2.792   0.184   0.962  1.00  0.00     0.072 C 
BRANCH   9  10
ATOM     10  S   UNL     1       2.241   1.327  -0.346  1.00  0.00    -0.165 SA
ATOM     11  C   UNL     1       0.496   0.864  -0.455  1.00  0.00     0.085 C 
ENDBRANCH   9  10
ENDBRANCH   8   9
ENDBRANCH   7   8
BRANCH   7  12
ATOM     12  N   UNL     1       1.004   2.393   2.846  1.00  0.00    -0.344 N 
ATOM     13  C   UNL     1      -0.224   2.872   3.215  1.00  0.00     0.225 C 
ATOM     14  H   UNL     1       1.607   3.031   2.400  1.00  0.00     0.164 HD
ATOM     15  O   UNL     1      -0.769   3.673   2.452  1.00  0.00    -0.275 OA
BRANCH  13  16
ATOM     16  C   UNL     1      -0.806   2.561   4.597  1.00  0.00     0.143 C 
BRANCH  16  17
ATOM     17  C   UNL     1      -1.692   1.364   4.824  1.00  0.00     0.051 A 
ATOM     18  C   UNL     1      -2.832   1.098   4.151  1.00  0.00    -0.029 A 
ATOM     19  C   UNL     1      -1.298   0.545   6.018  1.00  0.00     0.340 A 
ATOM     20  C   UNL     1      -3.388   2.016   3.094  1.00  0.00     0.046 C 
ATOM     21  C   UNL     1      -3.623  -0.094   4.520  1.00  0.00     0.023 A 
ATOM     22  O   UNL     1      -1.995  -0.623   6.252  1.00  0.00    -0.422 OA
ATOM     23  O   UNL     1      -0.409   0.899   6.787  1.00  0.00    -0.246 OA
ATOM     24  C   UNL     1      -4.824  -0.458   3.895  1.00  0.00     0.036 A 
ATOM     25  C   UNL     1      -3.177  -0.908   5.559  1.00  0.00     0.142 A 
ATOM     26  C   UNL     1      -5.554  -1.573   4.330  1.00  0.00     0.083 A 
ATOM     27  C   UNL     1      -3.883  -2.028   6.004  1.00  0.00     0.095 A 
ATOM     28  Cl  UNL     1      -7.043  -1.937   3.536  1.00  0.00    -0.080 Cl
ATOM     29  C   UNL     1      -5.087  -2.350   5.391  1.00  0.00     0.137 A 
BRANCH  29  30
ATOM     30  O   UNL     1      -5.810  -3.423   5.831  1.00  0.00    -0.506 OA
ATOM     31  H   UNL     1      -6.622  -3.641   5.419  1.00  0.00     0.293 HD
ENDBRANCH  29  30
ENDBRANCH  16  17
ENDBRANCH  13  16
ENDBRANCH   7  12
ENDBRANCH   4   7
ENDBRANCH   2   3
ENDBRANCH   1   2
BRANCH   1  32
ATOM     32  C   UNL     1       1.616   3.801   7.079  1.00  0.00     0.023 C 
BRANCH  32  33
ATOM     33  C   UNL     1       2.363   3.250   8.276  1.00  0.00     0.116 C 
BRANCH  33  34
ATOM     34  N   UNL     1       3.458   4.114   8.674  1.00  0.00    -0.352 N 
ATOM     35  C   UNL     1       3.753   4.572   9.935  1.00  0.00     0.251 C 
ATOM     36  H   UNL     1       4.062   4.408   7.954  1.00  0.00     0.163 HD
ATOM     37  O   UNL     1       4.574   5.479  10.077  1.00  0.00    -0.269 OA
BRANCH  35  38
ATOM     38  C   UNL     1       3.063   3.987  11.106  1.00  0.00     0.039 A 
ATOM     39  C   UNL     1       2.852   2.608  11.188  1.00  0.00     0.014 A 
ATOM     40  C   UNL     1       2.615   4.825  12.131  1.00  0.00     0.014 A 
ATOM     41  C   UNL     1       2.078   2.087  12.217  1.00  0.00     0.010 A 
ATOM     42  C   UNL     1       1.919   4.284  13.217  1.00  0.00     0.010 A 
ATOM     43  C   UNL     1       1.618   2.913  13.255  1.00  0.00    -0.014 A 
BRANCH  43  44
ATOM     44  C   UNL     1       0.879   2.300  14.389  1.00  0.00     0.031 A 
ATOM     45  C   UNL     1      -0.550   2.667  14.679  1.00  0.00     0.074 A 
ATOM     46  C   UNL     1       1.507   1.371  15.138  1.00  0.00     0.049 A 
ATOM     47  N   UNL     1      -1.348   2.184  15.596  1.00  0.00    -0.248 NA
ATOM     48  C   UNL     1      -1.164   3.712  13.844  1.00  0.00     0.031 C 
ATOM     49  C   UNL     1       2.904   0.963  14.966  1.00  0.00     0.029 A 
ATOM     50  N   UNL     1       1.060   0.588  16.171  1.00  0.00    -0.354 N 
ATOM     51  C   UNL     1      -2.540   2.888  15.476  1.00  0.00     0.074 A 
ATOM     52  C   UNL     1      -2.359   3.843  14.405  1.00  0.00     0.031 C 
ATOM     53  C   UNL     1       3.180  -0.034  15.818  1.00  0.00     0.029 A 
ATOM     54  C   UNL     1       2.005  -0.295  16.641  1.00  0.00     0.049 A 
ATOM     55  H   UNL     1       0.149   0.651  16.541  1.00  0.00     0.167 HD
ATOM     56  C   UNL     1      -3.688   2.733  16.178  1.00  0.00     0.034 A 
ATOM     57  C   UNL     1       1.939  -1.211  17.626  1.00  0.00     0.034 A 
ATOM     58  C   UNL     1      -3.874   1.742  17.205  1.00  0.00     0.049 A 
ATOM     59  C   UNL     1       0.650  -1.367  18.381  1.00  0.00     0.074 A 
ATOM     60  C   UNL     1      -5.020   1.464  17.929  1.00  0.00     0.029 A 
ATOM     61  N   UNL     1      -2.895   0.868  17.652  1.00  0.00    -0.354 N 
ATOM     62  N   UNL     1      -0.499  -0.769  18.176  1.00  0.00    -0.248 NA
ATOM     63  C   UNL     1       0.640  -2.326  19.494  1.00  0.00     0.031 C 
ATOM     64  C   UNL     1      -4.727   0.435  18.828  1.00  0.00     0.029 A 
ATOM     65  C   UNL     1      -3.404   0.061  18.655  1.00  0.00     0.049 A 
ATOM     66  H   UNL     1      -1.973   0.828  17.308  1.00  0.00     0.167 HD
ATOM     67  C   UNL     1      -1.369  -1.279  19.131  1.00  0.00     0.074 A 
ATOM     68  C   UNL     1      -0.625  -2.264  19.890  1.00  0.00     0.031 C 
ATOM     69  C   UNL     1      -2.659  -0.941  19.375  1.00  0.00     0.034 A 
BRANCH  56  70
ATOM     70  C   UNL     1      -4.859   3.615  15.830  1.00  0.00     0.023 A 
ATOM     71  C   UNL     1      -5.582   3.368  14.645  1.00  0.00     0.012 A 
ATOM     72  C   UNL     1      -5.301   4.622  16.712  1.00  0.00     0.148 A 
ATOM     73  C   UNL     1      -6.711   4.123  14.331  1.00  0.00     0.002 A 
ATOM     74  C   UNL     1      -6.450   5.344  16.411  1.00  0.00     0.091 A 
ATOM     75  F   UNL     1      -4.591   4.853  17.825  1.00  0.00    -0.205 F 
ATOM     76  C   UNL     1      -7.151   5.102  15.218  1.00  0.00     0.022 A 
BRANCH  74  77
ATOM     77  S   UNL     1      -7.145   6.574  17.522  1.00  0.00     0.127 S 
ATOM     78  O   UNL     1      -6.881   7.813  16.791  1.00  0.00    -0.237 OA
ATOM     79  O   UNL     1      -8.555   6.184  17.570  1.00  0.00    -0.237 OA
ATOM     80  O   UNL     1      -6.430   6.428  18.781  1.00  0.00    -0.744 OA
ENDBRANCH  74  77
ENDBRANCH  56  70
BRANCH  57  81
ATOM     81  C   UNL     1       3.119  -2.080  17.903  1.00  0.00     0.023 A 
ATOM     82  C   UNL     1       3.052  -3.452  17.592  1.00  0.00     0.012 A 
ATOM     83  C   UNL     1       4.329  -1.545  18.387  1.00  0.00     0.148 A 
ATOM     84  C   UNL     1       4.166  -4.275  17.764  1.00  0.00     0.002 A 
ATOM     85  C   UNL     1       5.452  -2.357  18.496  1.00  0.00     0.091 A 
ATOM     86  F   UNL     1       4.368  -0.242  18.699  1.00  0.00    -0.205 F 
ATOM     87  C   UNL     1       5.369  -3.726  18.199  1.00  0.00     0.022 A 
BRANCH  85  88
ATOM     88  S   UNL     1       7.077  -1.700  18.892  1.00  0.00     0.127 S 
ATOM     89  O   UNL     1       7.279  -2.198  20.249  1.00  0.00    -0.237 OA
ATOM     90  O   UNL     1       7.916  -2.331  17.872  1.00  0.00    -0.237 OA
ATOM     91  O   UNL     1       6.958  -0.254  18.756  1.00  0.00    -0.744 OA
ENDBRANCH  85  88
ENDBRANCH  57  81
BRANCH  69  92
ATOM     92  C   UNL     1      -3.356  -1.619  20.524  1.00  0.00     0.023 A 
ATOM     93  C   UNL     1      -3.046  -1.226  21.840  1.00  0.00     0.012 A 
ATOM     94  C   UNL     1      -4.398  -2.539  20.300  1.00  0.00     0.148 A 
ATOM     95  C   UNL     1      -3.755  -1.749  22.920  1.00  0.00     0.002 A 
ATOM     96  C   UNL     1      -5.131  -3.021  21.378  1.00  0.00     0.091 A 
ATOM     97  F   UNL     1      -4.665  -2.908  19.039  1.00  0.00    -0.205 F 
ATOM     98  C   UNL     1      -4.806  -2.633  22.689  1.00  0.00     0.022 A 
BRANCH  96  99
ATOM     99  S   UNL     1      -6.565  -4.085  21.176  1.00  0.00     0.127 S 
ATOM    100  O   UNL     1      -6.088  -5.340  21.753  1.00  0.00    -0.237 OA
ATOM    101  O   UNL     1      -7.578  -3.392  21.974  1.00  0.00    -0.237 OA
ATOM    102  O   UNL     1      -6.840  -4.124  19.746  1.00  0.00    -0.744 OA
ENDBRANCH  96  99
ENDBRANCH  69  92
ENDBRANCH  43  44
ENDBRANCH  35  38
ENDBRANCH  33  34
ENDBRANCH  32  33
ENDBRANCH   1  32
TORSDOF 21
