REMARK SMILES C/C=C/C=C/C(=O)N[C@@](C)(C(=O)NCCCCNC(=O)c1ccc(-c2c3nc(c(-c4cccc(S(=O)(=O)[O-])c4F)c4ccc([nH]4)c(-c4cccc(S(=O)(=O)[O-])c4F)c4nc(c(-c5cccc(S(=O)(=O)[O-])c5F)c5ccc2[nH]5)C=C4)C=C3)cc1)C(F)(F)F
REMARK SMILES IDX 15 1 14 2 13 3 11 4 12 5 9 7 10 8 8 9 6 10 7 11 5 13 4 14
REMARK SMILES IDX 3 15 1 16 2 17 84 18 85 19 86 20 87 21 16 22 17 23 18 24
REMARK SMILES IDX 19 25 20 27 21 28 22 29 83 30 23 31 82 32 24 33 25 34 26 35
REMARK SMILES IDX 76 36 27 37 81 38 75 39 77 40 28 41 80 42 74 43 73 44 29 46
REMARK SMILES IDX 61 47 41 48 60 49 42 50 45 51 59 52 78 53 43 54 44 55 58 57
REMARK SMILES IDX 79 58 46 59 30 60 31 61 39 62 32 63 34 64 40 65 33 66 35 67
REMARK SMILES IDX 36 68 37 69 38 70 62 71 63 72 71 73 64 74 66 75 72 76 65 77
REMARK SMILES IDX 67 78 68 79 69 80 70 81 47 82 48 83 56 84 49 85 51 86 57 87
REMARK SMILES IDX 50 88 52 89 53 90 54 91 55 92
REMARK H PARENT 13 6 8 12 18 26 77 45 45 56
REMARK Flexibility Score: inf
ROOT
ATOM      1  C   UNL     1      -3.420   7.537   5.132  1.00  0.00     0.023 C 
ENDROOT
BRANCH   1   2
ATOM      2  C   UNL     1      -2.024   6.923   5.080  1.00  0.00     0.116 C 
BRANCH   2   3
ATOM      3  N   UNL     1      -2.089   5.480   5.181  1.00  0.00    -0.354 N 
ATOM      4  C   UNL     1      -1.576   4.460   4.446  1.00  0.00     0.254 C 
ATOM      5  O   UNL     1      -2.029   3.350   4.738  1.00  0.00    -0.272 OA
ATOM      6  H   UNL     1      -2.620   5.171   5.950  1.00  0.00     0.163 HD
BRANCH   4   7
ATOM      7  C   UNL     1      -0.564   4.662   3.299  1.00  0.00     0.212 C 
ATOM      8  C   UNL     1       0.617   5.578   3.688  1.00  0.00     0.056 C 
BRANCH   7   9
ATOM      9  N   UNL     1      -1.303   5.365   2.178  1.00  0.00    -0.331 N 
ATOM     10  C   UNL     1      -1.829   5.151   0.954  1.00  0.00     0.245 C 
ATOM     11  O   UNL     1      -2.545   6.044   0.495  1.00  0.00    -0.270 OA
ATOM     12  H   UNL     1      -1.451   6.304   2.432  1.00  0.00     0.165 HD
BRANCH  10  13
ATOM     13  C   UNL     1      -1.640   3.937   0.149  1.00  0.00     0.071 C 
ATOM     14  C   UNL     1      -0.465   3.317   0.034  1.00  0.00     0.005 C 
BRANCH  14  15
ATOM     15  C   UNL     1      -0.256   2.054  -0.632  1.00  0.00    -0.004 C 
ATOM     16  C   UNL     1       0.910  -0.191  -0.622  1.00  0.00     0.035 C 
ATOM     17  C   UNL     1       0.568   1.151  -0.076  1.00  0.00    -0.030 C 
ENDBRANCH  14  15
ENDBRANCH  10  13
ENDBRANCH   7   9
BRANCH   7  18
ATOM     18  C   UNL     1       0.062   3.250   3.149  1.00  0.00     0.420 C 
ATOM     19  F   UNL     1      -0.764   2.324   2.631  1.00  0.00    -0.168 F 
ATOM     20  F   UNL     1       1.178   3.296   2.371  1.00  0.00    -0.168 F 
ATOM     21  F   UNL     1       0.515   2.778   4.342  1.00  0.00    -0.168 F 
ENDBRANCH   7  18
ENDBRANCH   4   7
ENDBRANCH   2   3
ENDBRANCH   1   2
BRANCH   1  22
ATOM     22  C   UNL     1      -4.212   7.229   6.403  1.00  0.00     0.023 C 
BRANCH  22  23
ATOM     23  C   UNL     1      -3.470   7.493   7.707  1.00  0.00     0.116 C 
BRANCH  23  24
ATOM     24  N   UNL     1      -3.003   8.866   7.811  1.00  0.00    -0.352 N 
ATOM     25  C   UNL     1      -3.190   9.770   8.830  1.00  0.00     0.251 C 
ATOM     26  H   UNL     1      -2.480   9.195   7.045  1.00  0.00     0.163 HD
ATOM     27  O   UNL     1      -2.863  10.938   8.675  1.00  0.00    -0.269 OA
BRANCH  25  28
ATOM     28  C   UNL     1      -3.806   9.322  10.097  1.00  0.00     0.039 A 
ATOM     29  C   UNL     1      -4.806  10.107  10.673  1.00  0.00     0.014 A 
ATOM     30  C   UNL     1      -3.405   8.130  10.707  1.00  0.00     0.014 A 
ATOM     31  C   UNL     1      -5.435   9.672  11.841  1.00  0.00     0.010 A 
ATOM     32  C   UNL     1      -4.096   7.656  11.817  1.00  0.00     0.010 A 
ATOM     33  C   UNL     1      -5.103   8.431  12.410  1.00  0.00    -0.014 A 
BRANCH  33  34
ATOM     34  C   UNL     1      -5.784   7.946  13.637  1.00  0.00     0.031 A 
ATOM     35  C   UNL     1      -4.994   7.703  14.896  1.00  0.00     0.074 A 
ATOM     36  C   UNL     1      -7.103   7.670  13.605  1.00  0.00     0.049 A 
ATOM     37  N   UNL     1      -5.410   7.276  16.061  1.00  0.00    -0.248 NA
ATOM     38  C   UNL     1      -3.542   7.942  14.834  1.00  0.00     0.031 C 
ATOM     39  C   UNL     1      -7.964   7.783  12.425  1.00  0.00     0.029 A 
ATOM     40  N   UNL     1      -7.949   7.222  14.589  1.00  0.00    -0.354 N 
ATOM     41  C   UNL     1      -4.274   7.165  16.853  1.00  0.00     0.074 A 
ATOM     42  C   UNL     1      -3.145   7.524  16.026  1.00  0.00     0.031 C 
ATOM     43  C   UNL     1      -9.216   7.430  12.757  1.00  0.00     0.029 A 
ATOM     44  C   UNL     1      -9.243   7.038  14.162  1.00  0.00     0.049 A 
ATOM     45  H   UNL     1      -7.656   7.048  15.512  1.00  0.00     0.167 HD
ATOM     46  C   UNL     1      -4.179   6.827  18.161  1.00  0.00     0.034 A 
ATOM     47  C   UNL     1     -10.330   6.600  14.829  1.00  0.00     0.034 A 
ATOM     48  C   UNL     1      -5.308   6.507  18.991  1.00  0.00     0.049 A 
ATOM     49  C   UNL     1     -10.205   6.271  16.292  1.00  0.00     0.074 A 
ATOM     50  C   UNL     1      -5.329   6.234  20.348  1.00  0.00     0.029 A 
ATOM     51  N   UNL     1      -6.616   6.407  18.543  1.00  0.00    -0.354 N 
ATOM     52  N   UNL     1      -9.146   6.325  17.064  1.00  0.00    -0.248 NA
ATOM     53  C   UNL     1     -11.434   5.862  16.987  1.00  0.00     0.031 C 
ATOM     54  C   UNL     1      -6.645   5.935  20.712  1.00  0.00     0.029 A 
ATOM     55  C   UNL     1      -7.451   6.066  19.593  1.00  0.00     0.049 A 
ATOM     56  H   UNL     1      -6.907   6.556  17.615  1.00  0.00     0.167 HD
ATOM     57  C   UNL     1      -9.588   5.998  18.341  1.00  0.00     0.074 A 
ATOM     58  C   UNL     1     -11.015   5.769  18.241  1.00  0.00     0.031 C 
ATOM     59  C   UNL     1      -8.877   5.889  19.490  1.00  0.00     0.034 A 
BRANCH  46  60
ATOM     60  C   UNL     1      -2.807   6.830  18.787  1.00  0.00     0.023 A 
ATOM     61  C   UNL     1      -2.132   8.052  18.989  1.00  0.00     0.012 A 
ATOM     62  C   UNL     1      -2.208   5.632  19.221  1.00  0.00     0.148 A 
ATOM     63  C   UNL     1      -0.867   8.079  19.575  1.00  0.00     0.002 A 
ATOM     64  C   UNL     1      -0.969   5.671  19.850  1.00  0.00     0.091 A 
ATOM     65  F   UNL     1      -2.853   4.477  19.003  1.00  0.00    -0.205 F 
ATOM     66  C   UNL     1      -0.291   6.891  20.015  1.00  0.00     0.022 A 
BRANCH  64  67
ATOM     67  S   UNL     1      -0.178   4.208  20.529  1.00  0.00     0.127 S 
ATOM     68  O   UNL     1       0.962   4.045  19.628  1.00  0.00    -0.237 OA
ATOM     69  O   UNL     1       0.170   4.647  21.880  1.00  0.00    -0.237 OA
ATOM     70  O   UNL     1      -1.174   3.148  20.471  1.00  0.00    -0.744 OA
ENDBRANCH  64  67
ENDBRANCH  46  60
BRANCH  47  71
ATOM     71  C   UNL     1     -11.646   6.510  14.135  1.00  0.00     0.023 A 
ATOM     72  C   UNL     1     -12.680   7.401  14.485  1.00  0.00     0.012 A 
ATOM     73  C   UNL     1     -11.874   5.558  13.123  1.00  0.00     0.148 A 
ATOM     74  C   UNL     1     -13.929   7.320  13.869  1.00  0.00     0.002 A 
ATOM     75  C   UNL     1     -13.102   5.521  12.472  1.00  0.00     0.091 A 
ATOM     76  F   UNL     1     -10.881   4.715  12.809  1.00  0.00    -0.205 F 
ATOM     77  C   UNL     1     -14.137   6.387  12.857  1.00  0.00     0.022 A 
BRANCH  75  78
ATOM     78  S   UNL     1     -13.418   4.442  11.072  1.00  0.00     0.127 S 
ATOM     79  O   UNL     1     -14.384   3.500  11.632  1.00  0.00    -0.237 OA
ATOM     80  O   UNL     1     -13.966   5.378  10.090  1.00  0.00    -0.237 OA
ATOM     81  O   UNL     1     -12.125   3.879  10.709  1.00  0.00    -0.744 OA
ENDBRANCH  75  78
ENDBRANCH  47  71
BRANCH  59  82
ATOM     82  C   UNL     1      -9.633   5.555  20.750  1.00  0.00     0.023 A 
ATOM     83  C   UNL     1     -10.177   4.268  20.931  1.00  0.00     0.012 A 
ATOM     84  C   UNL     1      -9.751   6.507  21.783  1.00  0.00     0.148 A 
ATOM     85  C   UNL     1     -10.864   3.948  22.102  1.00  0.00     0.002 A 
ATOM     86  C   UNL     1     -10.387   6.163  22.968  1.00  0.00     0.091 A 
ATOM     87  F   UNL     1      -9.242   7.731  21.586  1.00  0.00    -0.205 F 
ATOM     88  C   UNL     1     -10.959   4.890  23.124  1.00  0.00     0.022 A 
BRANCH  86  89
ATOM     89  S   UNL     1     -10.466   7.277  24.375  1.00  0.00     0.127 S 
ATOM     90  O   UNL     1     -11.874   7.671  24.364  1.00  0.00    -0.237 OA
ATOM     91  O   UNL     1     -10.087   6.401  25.485  1.00  0.00    -0.237 OA
ATOM     92  O   UNL     1      -9.515   8.344  24.096  1.00  0.00    -0.744 OA
ENDBRANCH  86  89
ENDBRANCH  59  82
ENDBRANCH  33  34
ENDBRANCH  25  28
ENDBRANCH  23  24
ENDBRANCH  22  23
ENDBRANCH   1  22
TORSDOF 18
