REMARK SMILES CN(C)S(=O)(=O)c1ccc(N(CC(=O)NCCCCNC(=O)c2ccc(-c3c4nc(c(-c5cccc(S(=O)(=O)[O-])c5F)c5ccc([nH]5)c(-c5cccc(S(=O)(=O)[O-])c5F)c5nc(c(-c6cccc(S(=O)(=O)[O-])c6F)c6ccc3[nH]6)C=C5)C=C4)cc2)C(C)(C)C)cc1
REMARK SMILES IDX 17 1 16 2 15 3 13 4 14 5 12 7 11 8 10 9 7 10 8 11 91 12 9 13
REMARK SMILES IDX 90 14 4 15 5 16 6 17 2 18 1 19 3 20 86 21 87 22 88 23 89 24
REMARK SMILES IDX 18 25 19 26 20 27 21 28 22 30 23 31 24 32 85 33 25 34 84 35
REMARK SMILES IDX 26 36 27 37 28 38 78 39 29 40 83 41 77 42 79 43 30 44 82 45
REMARK SMILES IDX 76 46 75 47 31 49 63 50 43 51 62 52 44 53 47 54 61 55 80 56
REMARK SMILES IDX 45 57 46 58 60 60 81 61 48 62 32 63 33 64 41 65 34 66 36 67
REMARK SMILES IDX 42 68 35 69 37 70 38 71 39 72 40 73 64 74 65 75 73 76 66 77
REMARK SMILES IDX 68 78 74 79 67 80 69 81 70 82 71 83 72 84 49 85 50 86 58 87
REMARK SMILES IDX 51 88 53 89 59 90 52 91 54 92 55 93 56 94 57 95
REMARK H PARENT 15 6 20 29 79 48 47 59
REMARK Flexibility Score: inf
ROOT
ATOM      1  C   UNL     1      -3.192   4.663   4.471  1.00  0.00     0.023 C 
ENDROOT
BRANCH   1   2
ATOM      2  C   UNL     1      -2.442   5.899   3.986  1.00  0.00     0.116 C 
BRANCH   2   3
ATOM      3  N   UNL     1      -2.428   6.958   4.970  1.00  0.00    -0.355 N 
ATOM      4  C   UNL     1      -1.424   7.305   5.828  1.00  0.00     0.239 C 
ATOM      5  O   UNL     1      -1.568   8.334   6.495  1.00  0.00    -0.273 OA
ATOM      6  H   UNL     1      -3.249   7.499   5.029  1.00  0.00     0.163 HD
BRANCH   4   7
ATOM      7  C   UNL     1      -0.114   6.505   5.869  1.00  0.00     0.217 C 
BRANCH   7   8
ATOM      8  N   UNL     1      -0.226   5.102   6.381  1.00  0.00    -0.357 N 
BRANCH   8   9
ATOM      9  C   UNL     1       0.144   4.041   5.527  1.00  0.00     0.038 A 
ATOM     10  C   UNL     1       0.779   1.894   3.718  1.00  0.00     0.082 A 
ATOM     11  C   UNL     1       1.171   3.192   3.426  1.00  0.00     0.024 A 
ATOM     12  C   UNL     1       0.109   1.637   4.902  1.00  0.00     0.024 A 
ATOM     13  C   UNL     1       0.869   4.231   4.327  1.00  0.00     0.027 A 
ATOM     14  C   UNL     1      -0.195   2.697   5.776  1.00  0.00     0.027 A 
BRANCH  10  15
ATOM     15  S   UNL     1       1.200   0.571   2.617  1.00  0.00     0.242 S 
ATOM     16  O   UNL     1       0.569  -0.644   3.095  1.00  0.00    -0.207 OA
ATOM     17  O   UNL     1       2.631   0.631   2.410  1.00  0.00    -0.207 OA
BRANCH  15  18
ATOM     18  N   UNL     1       0.430   0.994   1.145  1.00  0.00    -0.204 NA
ATOM     19  C   UNL     1       0.881   0.148   0.012  1.00  0.00     0.124 C 
ATOM     20  C   UNL     1      -1.050   1.057   1.202  1.00  0.00     0.124 C 
ENDBRANCH  15  18
ENDBRANCH  10  15
ENDBRANCH   8   9
BRANCH   8  21
ATOM     21  C   UNL     1      -0.571   4.910   7.853  1.00  0.00     0.032 C 
ATOM     22  C   UNL     1      -1.976   4.301   8.043  1.00  0.00     0.034 C 
ATOM     23  C   UNL     1       0.528   4.088   8.565  1.00  0.00     0.034 C 
ATOM     24  C   UNL     1      -0.624   6.236   8.664  1.00  0.00     0.034 C 
ENDBRANCH   8  21
ENDBRANCH   7   8
ENDBRANCH   4   7
ENDBRANCH   2   3
ENDBRANCH   1   2
BRANCH   1  25
ATOM     25  C   UNL     1      -4.698   4.861   4.651  1.00  0.00     0.023 C 
BRANCH  25  26
ATOM     26  C   UNL     1      -5.445   5.278   3.389  1.00  0.00     0.116 C 
BRANCH  26  27
ATOM     27  N   UNL     1      -5.261   4.343   2.288  1.00  0.00    -0.352 N 
ATOM     28  C   UNL     1      -6.163   3.971   1.322  1.00  0.00     0.251 C 
ATOM     29  H   UNL     1      -4.373   3.922   2.229  1.00  0.00     0.163 HD
ATOM     30  O   UNL     1      -5.882   3.073   0.533  1.00  0.00    -0.269 OA
BRANCH  28  31
ATOM     31  C   UNL     1      -7.480   4.639   1.264  1.00  0.00     0.039 A 
ATOM     32  C   UNL     1      -8.633   3.854   1.189  1.00  0.00     0.014 A 
ATOM     33  C   UNL     1      -7.574   6.032   1.310  1.00  0.00     0.014 A 
ATOM     34  C   UNL     1      -9.888   4.467   1.224  1.00  0.00     0.010 A 
ATOM     35  C   UNL     1      -8.824   6.636   1.406  1.00  0.00     0.010 A 
ATOM     36  C   UNL     1      -9.992   5.861   1.362  1.00  0.00    -0.014 A 
BRANCH  36  37
ATOM     37  C   UNL     1     -11.311   6.532   1.476  1.00  0.00     0.031 A 
ATOM     38  C   UNL     1     -11.763   7.491   0.409  1.00  0.00     0.074 A 
ATOM     39  C   UNL     1     -12.051   6.360   2.590  1.00  0.00     0.049 A 
ATOM     40  N   UNL     1     -12.841   8.229   0.368  1.00  0.00    -0.248 NA
ATOM     41  C   UNL     1     -10.873   7.668  -0.752  1.00  0.00     0.031 C 
ATOM     42  C   UNL     1     -11.677   5.526   3.735  1.00  0.00     0.029 A 
ATOM     43  N   UNL     1     -13.256   6.905   2.958  1.00  0.00    -0.354 N 
ATOM     44  C   UNL     1     -12.739   8.989  -0.790  1.00  0.00     0.074 A 
ATOM     45  C   UNL     1     -11.483   8.639  -1.417  1.00  0.00     0.031 C 
ATOM     46  C   UNL     1     -12.630   5.617   4.676  1.00  0.00     0.029 A 
ATOM     47  C   UNL     1     -13.672   6.529   4.214  1.00  0.00     0.049 A 
ATOM     48  H   UNL     1     -13.773   7.508   2.377  1.00  0.00     0.167 HD
ATOM     49  C   UNL     1     -13.624   9.876  -1.302  1.00  0.00     0.034 A 
ATOM     50  C   UNL     1     -14.770   6.880   4.912  1.00  0.00     0.034 A 
ATOM     51  C   UNL     1     -14.905  10.164  -0.716  1.00  0.00     0.049 A 
ATOM     52  C   UNL     1     -15.774   7.806   4.279  1.00  0.00     0.074 A 
ATOM     53  C   UNL     1     -15.921  10.957  -1.220  1.00  0.00     0.029 A 
ATOM     54  N   UNL     1     -15.347   9.669   0.500  1.00  0.00    -0.354 N 
ATOM     55  N   UNL     1     -15.743   8.370   3.096  1.00  0.00    -0.248 NA
ATOM     56  C   UNL     1     -16.982   8.113   5.059  1.00  0.00     0.031 C 
ATOM     57  C   UNL     1     -16.978  10.944  -0.304  1.00  0.00     0.029 A 
ATOM     58  C   UNL     1     -16.620  10.139   0.766  1.00  0.00     0.049 A 
ATOM     59  H   UNL     1     -14.831   9.070   1.087  1.00  0.00     0.167 HD
ATOM     60  C   UNL     1     -16.940   9.066   2.975  1.00  0.00     0.074 A 
ATOM     61  C   UNL     1     -17.684   8.836   4.197  1.00  0.00     0.031 C 
ATOM     62  C   UNL     1     -17.377   9.841   1.953  1.00  0.00     0.034 A 
BRANCH  49  63
ATOM     63  C   UNL     1     -13.277  10.549  -2.602  1.00  0.00     0.023 A 
ATOM     64  C   UNL     1     -13.367   9.815  -3.802  1.00  0.00     0.012 A 
ATOM     65  C   UNL     1     -12.946  11.916  -2.648  1.00  0.00     0.148 A 
ATOM     66  C   UNL     1     -13.111  10.426  -5.028  1.00  0.00     0.002 A 
ATOM     67  C   UNL     1     -12.729  12.528  -3.878  1.00  0.00     0.091 A 
ATOM     68  F   UNL     1     -12.845  12.590  -1.494  1.00  0.00    -0.205 F 
ATOM     69  C   UNL     1     -12.804  11.784  -5.067  1.00  0.00     0.022 A 
BRANCH  67  70
ATOM     70  S   UNL     1     -12.395  14.286  -4.042  1.00  0.00     0.127 S 
ATOM     71  O   UNL     1     -10.988  14.283  -4.440  1.00  0.00    -0.237 OA
ATOM     72  O   UNL     1     -13.326  14.679  -5.100  1.00  0.00    -0.237 OA
ATOM     73  O   UNL     1     -12.674  14.871  -2.738  1.00  0.00    -0.744 OA
ENDBRANCH  67  70
ENDBRANCH  49  63
BRANCH  50  74
ATOM     74  C   UNL     1     -15.024   6.286   6.255  1.00  0.00     0.023 A 
ATOM     75  C   UNL     1     -16.061   5.344   6.403  1.00  0.00     0.012 A 
ATOM     76  C   UNL     1     -14.245   6.628   7.377  1.00  0.00     0.148 A 
ATOM     77  C   UNL     1     -16.340   4.780   7.648  1.00  0.00     0.002 A 
ATOM     78  C   UNL     1     -14.496   6.024   8.605  1.00  0.00     0.091 A 
ATOM     79  F   UNL     1     -13.274   7.541   7.226  1.00  0.00    -0.205 F 
ATOM     80  C   UNL     1     -15.553   5.112   8.747  1.00  0.00     0.022 A 
BRANCH  78  81
ATOM     81  S   UNL     1     -13.435   6.307  10.027  1.00  0.00     0.127 S 
ATOM     82  O   UNL     1     -14.168   7.344  10.748  1.00  0.00    -0.237 OA
ATOM     83  O   UNL     1     -13.425   4.995  10.677  1.00  0.00    -0.237 OA
ATOM     84  O   UNL     1     -12.149   6.698   9.465  1.00  0.00    -0.744 OA
ENDBRANCH  78  81
ENDBRANCH  50  74
BRANCH  62  85
ATOM     85  C   UNL     1     -18.735  10.476   2.086  1.00  0.00     0.023 A 
ATOM     86  C   UNL     1     -18.902  11.585   2.937  1.00  0.00     0.012 A 
ATOM     87  C   UNL     1     -19.818  10.030   1.304  1.00  0.00     0.148 A 
ATOM     88  C   UNL     1     -20.136  12.228   3.026  1.00  0.00     0.002 A 
ATOM     89  C   UNL     1     -21.033  10.703   1.367  1.00  0.00     0.091 A 
ATOM     90  F   UNL     1     -19.644   8.959   0.517  1.00  0.00    -0.205 F 
ATOM     91  C   UNL     1     -21.197  11.796   2.233  1.00  0.00     0.022 A 
BRANCH  89  92
ATOM     92  S   UNL     1     -22.419  10.267   0.309  1.00  0.00     0.127 S 
ATOM     93  O   UNL     1     -23.267   9.507   1.225  1.00  0.00    -0.237 OA
ATOM     94  O   UNL     1     -22.951  11.577  -0.069  1.00  0.00    -0.237 OA
ATOM     95  O   UNL     1     -21.848   9.510  -0.797  1.00  0.00    -0.744 OA
ENDBRANCH  89  92
ENDBRANCH  62  85
ENDBRANCH  36  37
ENDBRANCH  28  31
ENDBRANCH  26  27
ENDBRANCH  25  26
ENDBRANCH   1  25
TORSDOF 19
