REMARK SMILES CC(C)c1nc(N2C[C@H](C)OC(C)(C)C2)sc1C(=O)NCCCCNC(=O)c1ccc(-c2c3nc(c(-c4cccc(S(=O)(=O)[O-])c4F)c4ccc([nH]4)c(-c4cccc(S(=O)(=O)[O-])c4F)c4nc(c(-c5cccc(S(=O)(=O)[O-])c5F)c5ccc2[nH]5)C=C4)C=C3)cc1
REMARK SMILES IDX 23 1 22 2 21 3 20 4 18 5 19 6 17 8 4 9 5 10 6 11 16 12 2 13
REMARK SMILES IDX 1 14 3 15 7 16 8 17 15 18 9 19 12 20 11 21 10 22 13 23 14 24
REMARK SMILES IDX 24 25 25 26 26 27 27 29 28 30 29 31 90 32 30 33 89 34 31 35
REMARK SMILES IDX 32 36 33 37 83 38 34 39 88 40 82 41 84 42 35 43 87 44 81 45
REMARK SMILES IDX 80 46 36 48 68 49 48 50 67 51 49 52 52 53 66 54 85 55 50 56
REMARK SMILES IDX 51 57 65 59 86 60 53 61 37 62 38 63 46 64 39 65 41 66 47 67
REMARK SMILES IDX 40 68 42 69 43 70 44 71 45 72 69 73 70 74 78 75 71 76 73 77
REMARK SMILES IDX 79 78 72 79 74 80 75 81 76 82 77 83 54 84 55 85 63 86 56 87
REMARK SMILES IDX 58 88 64 89 57 90 59 91 60 92 61 93 62 94
REMARK H PARENT 20 7 25 28 84 47 52 58
REMARK Flexibility Score: inf
ROOT
ATOM      1  C   UNL     1       3.001   1.988  -2.052  1.00  0.00     0.023 C 
ENDROOT
BRANCH   1   2
ATOM      2  C   UNL     1       2.179   0.791  -2.537  1.00  0.00     0.023 C 
BRANCH   2   3
ATOM      3  C   UNL     1       1.202   0.198  -1.528  1.00  0.00     0.116 C 
BRANCH   3   4
ATOM      4  N   UNL     1       0.161   1.099  -1.101  1.00  0.00    -0.351 N 
ATOM      5  C   UNL     1      -1.086   0.830  -0.588  1.00  0.00     0.263 C 
ATOM      6  O   UNL     1      -1.777   1.820  -0.331  1.00  0.00    -0.268 OA
ATOM      7  H   UNL     1       0.377   2.056  -1.189  1.00  0.00     0.163 HD
BRANCH   5   8
ATOM      8  C   UNL     1      -1.575  -0.526  -0.404  1.00  0.00     0.117 A 
ATOM      9  C   UNL     1      -1.075  -1.686   0.179  1.00  0.00     0.069 A 
ATOM     10  N   UNL     1      -1.995  -2.734   0.229  1.00  0.00    -0.224 NA
ATOM     11  C   UNL     1      -3.145  -2.425  -0.322  1.00  0.00     0.186 A 
ATOM     12  S   UNL     1      -3.193  -0.819  -0.930  1.00  0.00    -0.091 S 
BRANCH   9  13
ATOM     13  C   UNL     1       0.288  -1.967   0.772  1.00  0.00     0.034 C 
ATOM     14  C   UNL     1       0.657  -1.009   1.904  1.00  0.00     0.014 C 
ATOM     15  C   UNL     1       0.454  -3.415   1.254  1.00  0.00     0.014 C 
ENDBRANCH   9  13
BRANCH  11  16
ATOM     16  N   UNL     1      -4.196  -3.284  -0.374  1.00  0.00    -0.343 N 
ATOM     17  C   UNL     1      -5.232  -3.251  -1.400  1.00  0.00     0.150 C 
ATOM     18  C   UNL     1      -4.263  -4.435   0.528  1.00  0.00     0.153 C 
ATOM     19  C   UNL     1      -5.189  -4.576  -2.189  1.00  0.00     0.135 C 
ATOM     20  C   UNL     1      -4.345  -5.768  -0.264  1.00  0.00     0.081 C 
ATOM     21  O   UNL     1      -5.342  -5.710  -1.313  1.00  0.00    -0.369 OA
ATOM     22  C   UNL     1      -6.315  -4.638  -3.212  1.00  0.00     0.040 C 
ATOM     23  C   UNL     1      -2.980  -6.169  -0.841  1.00  0.00     0.044 C 
ATOM     24  C   UNL     1      -4.819  -6.882   0.682  1.00  0.00     0.044 C 
ENDBRANCH  11  16
ENDBRANCH   5   8
ENDBRANCH   3   4
ENDBRANCH   2   3
ENDBRANCH   1   2
BRANCH   1  25
ATOM     25  C   UNL     1       3.645   1.871  -0.671  1.00  0.00     0.116 C 
BRANCH  25  26
ATOM     26  N   UNL     1       4.547   0.735  -0.531  1.00  0.00    -0.352 N 
ATOM     27  C   UNL     1       5.897   0.692  -0.269  1.00  0.00     0.251 C 
ATOM     28  H   UNL     1       4.121  -0.146  -0.641  1.00  0.00     0.163 HD
ATOM     29  O   UNL     1       6.477  -0.393  -0.257  1.00  0.00    -0.269 OA
BRANCH  27  30
ATOM     30  C   UNL     1       6.664   1.939  -0.052  1.00  0.00     0.039 A 
ATOM     31  C   UNL     1       7.860   2.121  -0.753  1.00  0.00     0.014 A 
ATOM     32  C   UNL     1       6.203   2.935   0.809  1.00  0.00     0.014 A 
ATOM     33  C   UNL     1       8.531   3.345  -0.678  1.00  0.00     0.010 A 
ATOM     34  C   UNL     1       6.828   4.181   0.821  1.00  0.00     0.010 A 
ATOM     35  C   UNL     1       7.987   4.407   0.063  1.00  0.00    -0.014 A 
BRANCH  35  36
ATOM     36  C   UNL     1       8.574   5.774   0.009  1.00  0.00     0.031 A 
ATOM     37  C   UNL     1       9.091   6.439   1.255  1.00  0.00     0.074 A 
ATOM     38  C   UNL     1       8.532   6.465  -1.149  1.00  0.00     0.049 A 
ATOM     39  N   UNL     1       9.555   7.653   1.409  1.00  0.00    -0.248 NA
ATOM     40  C   UNL     1       9.054   5.650   2.497  1.00  0.00     0.031 C 
ATOM     41  C   UNL     1       7.970   5.973  -2.410  1.00  0.00     0.029 A 
ATOM     42  N   UNL     1       8.941   7.742  -1.449  1.00  0.00    -0.354 N 
ATOM     43  C   UNL     1       9.823   7.789   2.765  1.00  0.00     0.074 A 
ATOM     44  C   UNL     1       9.444   6.543   3.396  1.00  0.00     0.031 C 
ATOM     45  C   UNL     1       8.072   6.931  -3.344  1.00  0.00     0.029 A 
ATOM     46  C   UNL     1       8.682   8.115  -2.748  1.00  0.00     0.049 A 
ATOM     47  H   UNL     1       9.378   8.334  -0.795  1.00  0.00     0.167 HD
ATOM     48  C   UNL     1      10.366   8.842   3.423  1.00  0.00     0.034 A 
ATOM     49  C   UNL     1       8.907   9.279  -3.389  1.00  0.00     0.034 A 
ATOM     50  C   UNL     1      10.801  10.056   2.788  1.00  0.00     0.049 A 
ATOM     51  C   UNL     1       9.574  10.408  -2.650  1.00  0.00     0.074 A 
ATOM     52  C   UNL     1      11.459  11.134   3.353  1.00  0.00     0.029 A 
ATOM     53  N   UNL     1      10.624  10.355   1.446  1.00  0.00    -0.354 N 
ATOM     54  N   UNL     1       9.981  10.450  -1.405  1.00  0.00    -0.248 NA
ATOM     55  C   UNL     1       9.845  11.635  -3.413  1.00  0.00     0.031 C 
ATOM     56  C   UNL     1      11.674  12.089   2.353  1.00  0.00     0.029 A 
ATOM     57  C   UNL     1      11.157  11.602   1.164  1.00  0.00     0.049 A 
ATOM     58  H   UNL     1      10.183   9.768   0.790  1.00  0.00     0.167 HD
ATOM     59  C   UNL     1      10.584  11.692  -1.244  1.00  0.00     0.074 A 
ATOM     60  C   UNL     1      10.509  12.363  -2.525  1.00  0.00     0.031 C 
ATOM     61  C   UNL     1      11.132  12.235  -0.129  1.00  0.00     0.034 A 
BRANCH  48  62
ATOM     62  C   UNL     1      10.589   8.696   4.905  1.00  0.00     0.023 A 
ATOM     63  C   UNL     1      11.628   7.862   5.366  1.00  0.00     0.012 A 
ATOM     64  C   UNL     1       9.817   9.417   5.837  1.00  0.00     0.148 A 
ATOM     65  C   UNL     1      11.874   7.720   6.730  1.00  0.00     0.002 A 
ATOM     66  C   UNL     1      10.095   9.301   7.195  1.00  0.00     0.091 A 
ATOM     67  F   UNL     1       8.819  10.188   5.383  1.00  0.00    -0.205 F 
ATOM     68  C   UNL     1      11.115   8.446   7.643  1.00  0.00     0.022 A 
BRANCH  66  69
ATOM     69  S   UNL     1       9.219  10.252   8.443  1.00  0.00     0.127 S 
ATOM     70  O   UNL     1       8.335   9.241   9.018  1.00  0.00    -0.237 OA
ATOM     71  O   UNL     1      10.305  10.684   9.324  1.00  0.00    -0.237 OA
ATOM     72  O   UNL     1       8.558  11.334   7.726  1.00  0.00    -0.744 OA
ENDBRANCH  66  69
ENDBRANCH  48  62
BRANCH  49  73
ATOM     73  C   UNL     1       8.576   9.405  -4.837  1.00  0.00     0.023 A 
ATOM     74  C   UNL     1       9.623   9.446  -5.777  1.00  0.00     0.012 A 
ATOM     75  C   UNL     1       7.243   9.446  -5.291  1.00  0.00     0.148 A 
ATOM     76  C   UNL     1       9.352   9.554  -7.141  1.00  0.00     0.002 A 
ATOM     77  C   UNL     1       6.979   9.501  -6.655  1.00  0.00     0.091 A 
ATOM     78  F   UNL     1       6.260   9.420  -4.380  1.00  0.00    -0.205 F 
ATOM     79  C   UNL     1       8.031   9.570  -7.581  1.00  0.00     0.022 A 
BRANCH  77  80
ATOM     80  S   UNL     1       5.310   9.390  -7.312  1.00  0.00     0.127 S 
ATOM     81  O   UNL     1       5.051  10.773  -7.704  1.00  0.00    -0.237 OA
ATOM     82  O   UNL     1       5.481   8.456  -8.426  1.00  0.00    -0.237 OA
ATOM     83  O   UNL     1       4.497   8.872  -6.220  1.00  0.00    -0.744 OA
ENDBRANCH  77  80
ENDBRANCH  49  73
BRANCH  61  84
ATOM     84  C   UNL     1      11.719  13.617  -0.240  1.00  0.00     0.023 A 
ATOM     85  C   UNL     1      10.861  14.732  -0.320  1.00  0.00     0.012 A 
ATOM     86  C   UNL     1      13.112  13.818  -0.184  1.00  0.00     0.148 A 
ATOM     87  C   UNL     1      11.382  16.024  -0.368  1.00  0.00     0.002 A 
ATOM     88  C   UNL     1      13.622  15.111  -0.189  1.00  0.00     0.091 A 
ATOM     89  F   UNL     1      13.913  12.743  -0.131  1.00  0.00    -0.205 F 
ATOM     90  C   UNL     1      12.760  16.215  -0.290  1.00  0.00     0.022 A 
BRANCH  88  91
ATOM     91  S   UNL     1      15.377  15.449  -0.002  1.00  0.00     0.127 S 
ATOM     92  O   UNL     1      15.767  15.773  -1.372  1.00  0.00    -0.237 OA
ATOM     93  O   UNL     1      15.382  16.587   0.919  1.00  0.00    -0.237 OA
ATOM     94  O   UNL     1      15.959  14.231   0.548  1.00  0.00    -0.744 OA
ENDBRANCH  88  91
ENDBRANCH  61  84
ENDBRANCH  35  36
ENDBRANCH  27  30
ENDBRANCH  25  26
ENDBRANCH   1  25
TORSDOF 16
