REMARK SMILES Cc1cccc(NC(=O)C[C@@H]2CCCCO2)c1C(=O)NCCCCNC(=O)c1ccc(-c2c3nc(c(-c4cccc(S(=O)(=O)[O-])c4F)c4ccc([nH]4)c(-c4cccc(S(=O)(=O)[O-])c4F)c4nc(c(-c5cccc(S(=O)(=O)[O-])c5F)c5ccc2[nH]5)C=C4)C=C3)cc1
REMARK SMILES IDX 22 1 21 2 20 3 18 4 19 5 17 7 1 8 2 9 3 10 4 11 6 12 5 13
REMARK SMILES IDX 7 14 8 15 9 17 10 18 11 19 12 20 16 21 13 22 15 23 14 24
REMARK SMILES IDX 23 25 24 26 25 27 26 28 27 30 28 31 29 32 90 33 30 34 89 35
REMARK SMILES IDX 31 36 32 37 33 38 83 39 34 40 88 41 82 42 84 43 35 44 87 45
REMARK SMILES IDX 81 46 80 47 36 49 68 50 48 51 67 52 49 53 52 54 66 55 85 56
REMARK SMILES IDX 50 57 51 58 65 60 86 61 53 62 37 63 38 64 46 65 39 66 41 67
REMARK SMILES IDX 47 68 40 69 42 70 43 71 44 72 45 73 69 74 70 75 78 76 71 77
REMARK SMILES IDX 73 78 79 79 72 80 74 81 75 82 76 83 77 84 54 85 55 86 63 87
REMARK SMILES IDX 56 88 58 89 64 90 57 91 59 92 60 93 61 94 62 95
REMARK H PARENT 20 6 7 16 25 29 84 48 52 59
REMARK Flexibility Score: inf
ROOT
ATOM      1  C   UNL     1       4.165   1.492  -1.317  1.00  0.00     0.023 C 
ENDROOT
BRANCH   1   2
ATOM      2  C   UNL     1       3.560   1.919   0.030  1.00  0.00     0.116 C 
BRANCH   2   3
ATOM      3  N   UNL     1       2.339   2.661  -0.199  1.00  0.00    -0.352 N 
ATOM      4  C   UNL     1       1.006   2.348  -0.204  1.00  0.00     0.253 C 
ATOM      5  O   UNL     1       0.266   3.238  -0.631  1.00  0.00    -0.269 OA
ATOM      6  H   UNL     1       2.505   3.611  -0.397  1.00  0.00     0.163 HD
BRANCH   4   7
ATOM      7  C   UNL     1       0.402   1.111   0.408  1.00  0.00     0.066 A 
ATOM      8  C   UNL     1       1.852  -0.672  -0.748  1.00  0.00     0.045 C 
ATOM      9  C   UNL     1       0.924  -0.200   0.333  1.00  0.00    -0.036 A 
ATOM     10  C   UNL     1       0.402  -1.214   1.161  1.00  0.00     0.004 A 
ATOM     11  C   UNL     1      -0.708  -0.978   1.960  1.00  0.00     0.002 A 
ATOM     12  C   UNL     1      -0.886   1.246   1.008  1.00  0.00     0.054 A 
ATOM     13  C   UNL     1      -1.371   0.240   1.855  1.00  0.00     0.027 A 
BRANCH  12  14
ATOM     14  N   UNL     1      -1.723   2.325   0.619  1.00  0.00    -0.325 N 
ATOM     15  C   UNL     1      -3.019   2.341   0.162  1.00  0.00     0.227 C 
ATOM     16  H   UNL     1      -1.304   3.212   0.689  1.00  0.00     0.169 HD
ATOM     17  O   UNL     1      -3.494   3.411  -0.237  1.00  0.00    -0.275 OA
BRANCH  15  18
ATOM     18  C   UNL     1      -3.878   1.094   0.105  1.00  0.00     0.132 C 
BRANCH  18  19
ATOM     19  C   UNL     1      -4.140   0.510  -1.298  1.00  0.00     0.127 C 
ATOM     20  C   UNL     1      -4.841  -0.856  -1.204  1.00  0.00     0.033 C 
ATOM     21  O   UNL     1      -3.007   0.361  -2.157  1.00  0.00    -0.378 OA
ATOM     22  C   UNL     1      -3.903  -1.930  -0.654  1.00  0.00     0.005 C 
ATOM     23  C   UNL     1      -2.046  -0.599  -1.750  1.00  0.00     0.160 C 
ATOM     24  C   UNL     1      -2.610  -1.980  -1.456  1.00  0.00     0.029 C 
ENDBRANCH  18  19
ENDBRANCH  15  18
ENDBRANCH  12  14
ENDBRANCH   4   7
ENDBRANCH   2   3
ENDBRANCH   1   2
BRANCH   1  25
ATOM     25  C   UNL     1       4.792   2.596  -2.182  1.00  0.00     0.023 C 
BRANCH  25  26
ATOM     26  C   UNL     1       6.214   3.001  -1.821  1.00  0.00     0.116 C 
BRANCH  26  27
ATOM     27  N   UNL     1       7.123   1.859  -1.847  1.00  0.00    -0.352 N 
ATOM     28  C   UNL     1       8.313   1.657  -1.178  1.00  0.00     0.251 C 
ATOM     29  H   UNL     1       6.844   1.117  -2.431  1.00  0.00     0.163 HD
ATOM     30  O   UNL     1       9.155   0.935  -1.696  1.00  0.00    -0.269 OA
BRANCH  28  31
ATOM     31  C   UNL     1       8.503   2.226   0.171  1.00  0.00     0.039 A 
ATOM     32  C   UNL     1       9.748   2.244   0.813  1.00  0.00     0.014 A 
ATOM     33  C   UNL     1       7.363   2.568   0.880  1.00  0.00     0.014 A 
ATOM     34  C   UNL     1       9.796   2.454   2.192  1.00  0.00     0.010 A 
ATOM     35  C   UNL     1       7.443   3.064   2.137  1.00  0.00     0.010 A 
ATOM     36  C   UNL     1       8.610   2.779   2.837  1.00  0.00    -0.014 A 
BRANCH  36  37
ATOM     37  C   UNL     1       8.326   2.667   4.254  1.00  0.00     0.031 A 
ATOM     38  C   UNL     1       8.587   3.814   5.121  1.00  0.00     0.074 A 
ATOM     39  C   UNL     1       7.350   1.756   4.502  1.00  0.00     0.049 A 
ATOM     40  N   UNL     1       8.367   3.830   6.386  1.00  0.00    -0.248 NA
ATOM     41  C   UNL     1       9.137   5.061   4.604  1.00  0.00     0.031 C 
ATOM     42  C   UNL     1       6.259   1.842   5.457  1.00  0.00     0.029 A 
ATOM     43  N   UNL     1       7.099   0.545   3.837  1.00  0.00    -0.354 N 
ATOM     44  C   UNL     1       8.370   5.159   6.759  1.00  0.00     0.074 A 
ATOM     45  C   UNL     1       9.056   5.836   5.688  1.00  0.00     0.031 C 
ATOM     46  C   UNL     1       5.644   0.646   5.515  1.00  0.00     0.029 A 
ATOM     47  C   UNL     1       6.465  -0.290   4.760  1.00  0.00     0.049 A 
ATOM     48  H   UNL     1       7.326   0.328   2.904  1.00  0.00     0.167 HD
ATOM     49  C   UNL     1       7.594   5.537   7.816  1.00  0.00     0.034 A 
ATOM     50  C   UNL     1       7.100  -1.383   5.286  1.00  0.00     0.034 A 
ATOM     51  C   UNL     1       6.972   4.344   8.437  1.00  0.00     0.049 A 
ATOM     52  C   UNL     1       7.407  -1.199   6.767  1.00  0.00     0.074 A 
ATOM     53  C   UNL     1       5.687   3.824   8.407  1.00  0.00     0.029 A 
ATOM     54  N   UNL     1       7.783   3.329   8.943  1.00  0.00    -0.354 N 
ATOM     55  N   UNL     1       7.164  -0.102   7.433  1.00  0.00    -0.248 NA
ATOM     56  C   UNL     1       8.007  -2.221   7.619  1.00  0.00     0.031 C 
ATOM     57  C   UNL     1       5.761   2.447   8.774  1.00  0.00     0.029 A 
ATOM     58  C   UNL     1       7.079   2.137   9.069  1.00  0.00     0.049 A 
ATOM     59  H   UNL     1       8.732   3.442   9.180  1.00  0.00     0.167 HD
ATOM     60  C   UNL     1       7.684  -0.177   8.692  1.00  0.00     0.074 A 
ATOM     61  C   UNL     1       8.119  -1.562   8.789  1.00  0.00     0.031 C 
ATOM     62  C   UNL     1       7.767   0.919   9.513  1.00  0.00     0.034 A 
BRANCH  49  63
ATOM     63  C   UNL     1       7.139   6.962   8.145  1.00  0.00     0.023 A 
ATOM     64  C   UNL     1       6.179   7.101   9.175  1.00  0.00     0.012 A 
ATOM     65  C   UNL     1       7.515   8.172   7.507  1.00  0.00     0.148 A 
ATOM     66  C   UNL     1       5.592   8.330   9.508  1.00  0.00     0.002 A 
ATOM     67  C   UNL     1       6.937   9.403   7.840  1.00  0.00     0.091 A 
ATOM     68  F   UNL     1       8.447   8.177   6.560  1.00  0.00    -0.205 F 
ATOM     69  C   UNL     1       5.964   9.483   8.835  1.00  0.00     0.022 A 
BRANCH  67  70
ATOM     70  S   UNL     1       7.381  10.947   7.011  1.00  0.00     0.127 S 
ATOM     71  O   UNL     1       6.090  11.394   6.484  1.00  0.00    -0.237 OA
ATOM     72  O   UNL     1       7.899  11.754   8.115  1.00  0.00    -0.237 OA
ATOM     73  O   UNL     1       8.363  10.606   5.989  1.00  0.00    -0.744 OA
ENDBRANCH  67  70
ENDBRANCH  49  63
BRANCH  50  74
ATOM     74  C   UNL     1       7.959  -2.089   4.278  1.00  0.00     0.023 A 
ATOM     75  C   UNL     1       7.277  -2.734   3.217  1.00  0.00     0.012 A 
ATOM     76  C   UNL     1       9.305  -1.720   4.088  1.00  0.00     0.148 A 
ATOM     77  C   UNL     1       7.860  -2.851   1.953  1.00  0.00     0.002 A 
ATOM     78  C   UNL     1       9.870  -1.813   2.815  1.00  0.00     0.091 A 
ATOM     79  F   UNL     1       9.969  -1.181   5.119  1.00  0.00    -0.205 F 
ATOM     80  C   UNL     1       9.136  -2.342   1.740  1.00  0.00     0.022 A 
BRANCH  78  81
ATOM     81  S   UNL     1      11.482  -1.105   2.436  1.00  0.00     0.127 S 
ATOM     82  O   UNL     1      12.332  -2.291   2.438  1.00  0.00    -0.237 OA
ATOM     83  O   UNL     1      11.265  -0.508   1.121  1.00  0.00    -0.237 OA
ATOM     84  O   UNL     1      11.728  -0.136   3.497  1.00  0.00    -0.744 OA
ENDBRANCH  78  81
ENDBRANCH  50  74
BRANCH  62  85
ATOM     85  C   UNL     1       8.534   0.961  10.822  1.00  0.00     0.023 A 
ATOM     86  C   UNL     1       9.595   0.082  11.107  1.00  0.00     0.012 A 
ATOM     87  C   UNL     1       8.308   2.008  11.754  1.00  0.00     0.148 A 
ATOM     88  C   UNL     1      10.347   0.187  12.282  1.00  0.00     0.002 A 
ATOM     89  C   UNL     1       9.146   2.189  12.849  1.00  0.00     0.091 A 
ATOM     90  F   UNL     1       7.261   2.831  11.597  1.00  0.00    -0.205 F 
ATOM     91  C   UNL     1      10.141   1.257  13.141  1.00  0.00     0.022 A 
BRANCH  89  92
ATOM     92  S   UNL     1       9.088   3.709  13.808  1.00  0.00     0.127 S 
ATOM     93  O   UNL     1       8.197   3.344  14.905  1.00  0.00    -0.237 OA
ATOM     94  O   UNL     1      10.489   3.890  14.194  1.00  0.00    -0.237 OA
ATOM     95  O   UNL     1       8.593   4.720  12.883  1.00  0.00    -0.744 OA
ENDBRANCH  89  92
ENDBRANCH  62  85
ENDBRANCH  36  37
ENDBRANCH  28  31
ENDBRANCH  26  27
ENDBRANCH  25  26
ENDBRANCH   1  25
TORSDOF 17
