REMARK SMILES CCS(=O)(=O)/N=c1/[nH]c(C)c(C(=O)NCCCCNC(=O)c2ccc(-c3c4nc(c(-c5cccc(S(=O)(=O)[O-])c5F)c5ccc([nH]5)c(-c5cccc(S(=O)(=O)[O-])c5F)c5nc(c(-c6cccc(S(=O)(=O)[O-])c6F)c6ccc3[nH]6)C=C5)C=C4)cc2)s1
REMARK SMILES IDX 17 1 16 2 15 3 14 4 12 5 13 6 11 8 6 9 7 10 8 11 85 12 9 13
REMARK SMILES IDX 10 15 3 16 4 17 5 18 2 19 1 20 18 21 19 22 20 23 21 25 22 26
REMARK SMILES IDX 23 27 84 28 24 29 83 30 25 31 26 32 27 33 77 34 28 35 82 36
REMARK SMILES IDX 76 37 78 38 29 39 81 40 75 41 74 42 30 44 62 45 42 46 61 47
REMARK SMILES IDX 43 48 46 49 60 50 79 51 44 52 45 53 59 55 80 56 47 57 31 58
REMARK SMILES IDX 32 59 40 60 33 61 35 62 41 63 34 64 36 65 37 66 38 67 39 68
REMARK SMILES IDX 63 69 64 70 72 71 65 72 67 73 73 74 66 75 68 76 69 77 70 78
REMARK SMILES IDX 71 79 48 80 49 81 57 82 50 83 52 84 58 85 51 86 53 87 54 88
REMARK SMILES IDX 55 89 56 90
REMARK H PARENT 14 7 8 14 19 24 78 43 46 54
REMARK Flexibility Score: inf
ROOT
ATOM      1  C   UNL     1       8.725   8.781  -0.307  1.00  0.00     0.023 C 
ENDROOT
BRANCH   1   2
ATOM      2  C   UNL     1       8.056   7.440  -0.564  1.00  0.00     0.023 C 
BRANCH   2   3
ATOM      3  C   UNL     1       7.261   6.834   0.578  1.00  0.00     0.116 C 
BRANCH   3   4
ATOM      4  N   UNL     1       6.027   7.486   0.932  1.00  0.00    -0.351 N 
ATOM      5  C   UNL     1       4.846   6.946   1.360  1.00  0.00     0.263 C 
ATOM      6  O   UNL     1       3.971   7.739   1.714  1.00  0.00    -0.268 OA
ATOM      7  H   UNL     1       6.035   8.467   0.855  1.00  0.00     0.163 HD
BRANCH   5   8
ATOM      8  C   UNL     1       4.569   5.464   1.342  1.00  0.00     0.114 A 
ATOM      9  N   UNL     1       2.394   2.300   1.250  1.00  0.00    -0.135 NA
ATOM     10  C   UNL     1       3.185   3.313   1.246  1.00  0.00     0.199 A 
ATOM     11  N   UNL     1       4.532   3.178   1.405  1.00  0.00    -0.333 N 
ATOM     12  S   UNL     1       2.841   5.033   1.093  1.00  0.00    -0.091 S 
ATOM     13  C   UNL     1       5.290   4.330   1.527  1.00  0.00     0.037 A 
ATOM     14  H   UNL     1       4.954   2.289   1.432  1.00  0.00     0.169 HD
ATOM     15  C   UNL     1       6.719   4.114   1.910  1.00  0.00     0.066 C 
BRANCH   9  16
ATOM     16  S   UNL     1       0.797   2.464   1.151  1.00  0.00     0.255 S 
ATOM     17  O   UNL     1       0.418   2.980  -0.145  1.00  0.00    -0.205 OA
ATOM     18  O   UNL     1       0.295   3.056   2.377  1.00  0.00    -0.205 OA
BRANCH  16  19
ATOM     19  C   UNL     1       0.328   0.741   1.197  1.00  0.00     0.159 C 
ATOM     20  C   UNL     1       0.884  -0.051   0.029  1.00  0.00     0.023 C 
ENDBRANCH  16  19
ENDBRANCH   9  16
ENDBRANCH   5   8
ENDBRANCH   3   4
ENDBRANCH   2   3
ENDBRANCH   1   2
BRANCH   1  21
ATOM     21  C   UNL     1       9.533   8.899   0.980  1.00  0.00     0.116 C 
BRANCH  21  22
ATOM     22  N   UNL     1      10.601   7.912   1.108  1.00  0.00    -0.352 N 
ATOM     23  C   UNL     1      11.953   8.104   1.288  1.00  0.00     0.251 C 
ATOM     24  H   UNL     1      10.312   6.972   1.060  1.00  0.00     0.163 HD
ATOM     25  O   UNL     1      12.716   7.141   1.295  1.00  0.00    -0.269 OA
BRANCH  23  26
ATOM     26  C   UNL     1      12.483   9.477   1.428  1.00  0.00     0.039 A 
ATOM     27  C   UNL     1      13.557   9.877   0.629  1.00  0.00     0.014 A 
ATOM     28  C   UNL     1      11.871  10.387   2.292  1.00  0.00     0.014 A 
ATOM     29  C   UNL     1      13.948  11.218   0.623  1.00  0.00     0.010 A 
ATOM     30  C   UNL     1      12.192  11.737   2.204  1.00  0.00     0.010 A 
ATOM     31  C   UNL     1      13.232  12.170   1.369  1.00  0.00    -0.014 A 
BRANCH  31  32
ATOM     32  C   UNL     1      13.542  13.622   1.276  1.00  0.00     0.031 A 
ATOM     33  C   UNL     1      13.947  14.390   2.506  1.00  0.00     0.074 A 
ATOM     34  C   UNL     1      13.372  14.270   0.105  1.00  0.00     0.049 A 
ATOM     35  N   UNL     1      14.203  15.666   2.633  1.00  0.00    -0.248 NA
ATOM     36  C   UNL     1      14.048  13.633   3.765  1.00  0.00     0.031 C 
ATOM     37  C   UNL     1      12.900  13.661  -1.141  1.00  0.00     0.029 A 
ATOM     38  N   UNL     1      13.552  15.591  -0.224  1.00  0.00    -0.354 N 
ATOM     39  C   UNL     1      14.458  15.870   3.984  1.00  0.00     0.074 A 
ATOM     40  C   UNL     1      14.284  14.595   4.643  1.00  0.00     0.031 C 
ATOM     41  C   UNL     1      12.841  14.601  -2.098  1.00  0.00     0.029 A 
ATOM     42  C   UNL     1      13.232  15.886  -1.529  1.00  0.00     0.049 A 
ATOM     43  H   UNL     1      13.879  16.265   0.416  1.00  0.00     0.167 HD
ATOM     44  C   UNL     1      14.834  17.006   4.616  1.00  0.00     0.034 A 
ATOM     45  C   UNL     1      13.242  17.060  -2.192  1.00  0.00     0.034 A 
ATOM     46  C   UNL     1      15.043  18.264   3.954  1.00  0.00     0.049 A 
ATOM     47  C   UNL     1      13.690  18.303  -1.472  1.00  0.00     0.074 A 
ATOM     48  C   UNL     1      15.512  19.450   4.490  1.00  0.00     0.029 A 
ATOM     49  N   UNL     1      14.780  18.507   2.615  1.00  0.00    -0.354 N 
ATOM     50  N   UNL     1      14.087  18.440  -0.230  1.00  0.00    -0.248 NA
ATOM     51  C   UNL     1      13.723  19.548  -2.253  1.00  0.00     0.031 C 
ATOM     52  C   UNL     1      15.497  20.420   3.483  1.00  0.00     0.029 A 
ATOM     53  C   UNL     1      15.060  19.828   2.310  1.00  0.00     0.049 A 
ATOM     54  H   UNL     1      14.444  17.839   1.975  1.00  0.00     0.167 HD
ATOM     55  C   UNL     1      14.450  19.775  -0.090  1.00  0.00     0.074 A 
ATOM     56  C   UNL     1      14.248  20.399  -1.382  1.00  0.00     0.031 C 
ATOM     57  C   UNL     1      14.898  20.428   1.010  1.00  0.00     0.034 A 
BRANCH  44  58
ATOM     58  C   UNL     1      15.088  16.929   6.100  1.00  0.00     0.023 A 
ATOM     59  C   UNL     1      16.208  16.219   6.582  1.00  0.00     0.012 A 
ATOM     60  C   UNL     1      14.253  17.602   7.012  1.00  0.00     0.148 A 
ATOM     61  C   UNL     1      16.469  16.146   7.950  1.00  0.00     0.002 A 
ATOM     62  C   UNL     1      14.549  17.567   8.370  1.00  0.00     0.091 A 
ATOM     63  F   UNL     1      13.183  18.255   6.538  1.00  0.00    -0.205 F 
ATOM     64  C   UNL     1      15.646  16.829   8.841  1.00  0.00     0.022 A 
BRANCH  62  65
ATOM     65  S   UNL     1      13.602  18.480   9.593  1.00  0.00     0.127 S 
ATOM     66  O   UNL     1      12.953  17.398  10.331  1.00  0.00    -0.237 OA
ATOM     67  O   UNL     1      14.653  19.179  10.333  1.00  0.00    -0.237 OA
ATOM     68  O   UNL     1      12.705  19.348   8.843  1.00  0.00    -0.744 OA
ENDBRANCH  62  65
ENDBRANCH  44  58
BRANCH  45  69
ATOM     69  C   UNL     1      12.863  17.110  -3.634  1.00  0.00     0.023 A 
ATOM     70  C   UNL     1      13.847  17.389  -4.603  1.00  0.00     0.012 A 
ATOM     71  C   UNL     1      11.539  16.871  -4.051  1.00  0.00     0.148 A 
ATOM     72  C   UNL     1      13.513  17.466  -5.955  1.00  0.00     0.002 A 
ATOM     73  C   UNL     1      11.225  16.891  -5.404  1.00  0.00     0.091 A 
ATOM     74  F   UNL     1      10.615  16.616  -3.113  1.00  0.00    -0.205 F 
ATOM     75  C   UNL     1      12.205  17.209  -6.357  1.00  0.00     0.022 A 
BRANCH  73  76
ATOM     76  S   UNL     1       9.599  16.444  -6.024  1.00  0.00     0.127 S 
ATOM     77  O   UNL     1       9.112  17.722  -6.535  1.00  0.00    -0.237 OA
ATOM     78  O   UNL     1       9.932  15.455  -7.050  1.00  0.00    -0.237 OA
ATOM     79  O   UNL     1       8.877  15.903  -4.881  1.00  0.00    -0.744 OA
ENDBRANCH  73  76
ENDBRANCH  45  69
BRANCH  57  80
ATOM     80  C   UNL     1      15.241  21.888   0.867  1.00  0.00     0.023 A 
ATOM     81  C   UNL     1      14.217  22.840   0.695  1.00  0.00     0.012 A 
ATOM     82  C   UNL     1      16.577  22.322   0.976  1.00  0.00     0.148 A 
ATOM     83  C   UNL     1      14.521  24.198   0.597  1.00  0.00     0.002 A 
ATOM     84  C   UNL     1      16.867  23.680   0.932  1.00  0.00     0.091 A 
ATOM     85  F   UNL     1      17.539  21.400   1.124  1.00  0.00    -0.205 F 
ATOM     86  C   UNL     1      15.842  24.618   0.727  1.00  0.00     0.022 A 
BRANCH  84  87
ATOM     87  S   UNL     1      18.524  24.322   1.190  1.00  0.00     0.127 S 
ATOM     88  O   UNL     1      18.865  24.812  -0.144  1.00  0.00    -0.237 OA
ATOM     89  O   UNL     1      18.297  25.370   2.186  1.00  0.00    -0.237 OA
ATOM     90  O   UNL     1      19.323  23.200   1.664  1.00  0.00    -0.744 OA
ENDBRANCH  84  87
ENDBRANCH  57  80
ENDBRANCH  31  32
ENDBRANCH  23  26
ENDBRANCH  21  22
ENDBRANCH   1  21
TORSDOF 16
