REMARK SMILES Cc1cc(C(=O)N[C@@H]2C(=O)N3C(C(=O)NCCCCNC(=O)c4ccc(-c5c6nc(c(-c7cccc(S(=O)(=O)[O-])c7F)c7ccc([nH]7)c(-c7cccc(S(=O)(=O)[O-])c7F)c7nc(c(-c8cccc(S(=O)(=O)[O-])c8F)c8ccc5[nH]8)C=C7)C=C6)cc4)=C(CSc4nnc(C)s4)CS[C@H]23)n(C)n1
REMARK SMILES IDX 17 1 16 2 15 3 13 4 14 5 12 7 8 8 9 9 97 10 10 11 11 12
REMARK SMILES IDX 96 13 95 14 86 15 7 16 5 17 6 18 4 20 1 21 2 22 3 23 100 24
REMARK SMILES IDX 98 25 99 26 87 27 88 28 89 29 90 30 94 31 91 32 92 33 93 34
REMARK SMILES IDX 18 35 19 36 20 37 21 38 22 40 23 41 24 42 85 43 25 44 84 45
REMARK SMILES IDX 26 46 27 47 28 48 78 49 29 50 83 51 77 52 79 53 30 54 82 55
REMARK SMILES IDX 76 56 75 57 31 59 63 60 43 61 62 62 44 63 47 64 61 65 80 66
REMARK SMILES IDX 45 67 46 68 60 70 81 71 48 72 32 73 33 74 41 75 34 76 36 77
REMARK SMILES IDX 42 78 35 79 37 80 38 81 39 82 40 83 64 84 65 85 73 86 66 87
REMARK SMILES IDX 68 88 74 89 67 90 69 91 70 92 71 93 72 94 49 95 50 96 58 97
REMARK SMILES IDX 51 98 53 99 59 100 52 101 54 102 55 103 56 104 57 105
REMARK H PARENT 15 6 7 19 20 39 79 58 47 69
REMARK Flexibility Score: inf
ROOT
ATOM      1  C   UNL     1      -5.804  -0.553  -3.844  1.00  0.00     0.023 C 
ENDROOT
BRANCH   1   2
ATOM      2  C   UNL     1      -4.346  -0.618  -4.313  1.00  0.00     0.116 C 
BRANCH   2   3
ATOM      3  N   UNL     1      -3.440  -0.428  -3.200  1.00  0.00    -0.351 N 
ATOM      4  C   UNL     1      -2.654  -1.197  -2.411  1.00  0.00     0.268 C 
ATOM      5  O   UNL     1      -1.875  -0.528  -1.718  1.00  0.00    -0.268 OA
ATOM      6  H   UNL     1      -3.380   0.521  -2.948  1.00  0.00     0.163 HD
BRANCH   4   7
ATOM      7  C   UNL     1      -2.501  -2.730  -2.442  1.00  0.00     0.111 C 
ATOM      8  C   UNL     1      -0.090  -4.088  -0.385  1.00  0.00     0.206 C 
ATOM      9  C   UNL     1      -1.077  -2.889  -0.390  1.00  0.00     0.253 C 
ATOM     10  C   UNL     1      -0.874  -4.496  -1.663  1.00  0.00     0.181 C 
ATOM     11  O   UNL     1      -1.492  -2.139   0.474  1.00  0.00    -0.272 OA
ATOM     12  N   UNL     1      -1.401  -3.147  -1.697  1.00  0.00    -0.290 N 
ATOM     13  S   UNL     1      -2.246  -5.675  -1.448  1.00  0.00    -0.129 SA
ATOM     14  C   UNL     1      -2.925  -5.159  -3.025  1.00  0.00     0.106 C 
ATOM     15  C   UNL     1      -3.338  -3.702  -2.924  1.00  0.00    -0.020 C 
BRANCH   8  16
ATOM     16  N   UNL     1      -0.083  -4.975   0.812  1.00  0.00    -0.336 N 
ATOM     17  C   UNL     1       0.257  -6.310   0.922  1.00  0.00     0.270 C 
ATOM     18  O   UNL     1       0.220  -6.820   2.040  1.00  0.00    -0.268 OA
ATOM     19  H   UNL     1      -0.362  -4.545   1.652  1.00  0.00     0.164 HD
BRANCH  17  20
ATOM     20  C   UNL     1       0.561  -7.058  -0.279  1.00  0.00     0.126 A 
ATOM     21  C   UNL     1       0.677  -7.431  -3.894  1.00  0.00     0.069 C 
ATOM     22  C   UNL     1       0.723  -7.598  -2.422  1.00  0.00     0.060 A 
ATOM     23  C   UNL     1       1.189  -6.679  -1.456  1.00  0.00     0.059 A 
ATOM     24  N   UNL     1       0.180  -8.668  -1.841  1.00  0.00    -0.178 NA
ATOM     25  N   UNL     1       0.171  -8.357  -0.524  1.00  0.00    -0.263 N 
ATOM     26  C   UNL     1      -0.314  -9.360   0.394  1.00  0.00     0.174 C 
ENDBRANCH  17  20
ENDBRANCH   8  16
BRANCH  15  27
ATOM     27  C   UNL     1      -4.840  -3.594  -3.043  1.00  0.00     0.111 C 
BRANCH  27  28
ATOM     28  S   UNL     1      -5.426  -2.835  -1.526  1.00  0.00    -0.089 SA
BRANCH  28  29
ATOM     29  C   UNL     1      -6.913  -3.618  -1.162  1.00  0.00     0.174 A 
ATOM     30  N   UNL     1      -6.985  -4.889  -0.833  1.00  0.00    -0.132 NA
ATOM     31  S   UNL     1      -8.244  -2.681  -0.631  1.00  0.00    -0.091 S 
ATOM     32  N   UNL     1      -7.887  -5.062   0.207  1.00  0.00    -0.143 NA
ATOM     33  C   UNL     1      -8.446  -3.916   0.545  1.00  0.00     0.115 A 
ATOM     34  C   UNL     1      -9.048  -3.592   1.857  1.00  0.00     0.081 C 
ENDBRANCH  28  29
ENDBRANCH  27  28
ENDBRANCH  15  27
ENDBRANCH   4   7
ENDBRANCH   2   3
ENDBRANCH   1   2
BRANCH   1  35
ATOM     35  C   UNL     1      -6.590   0.692  -4.200  1.00  0.00     0.023 C 
BRANCH  35  36
ATOM     36  C   UNL     1      -6.746   0.933  -5.684  1.00  0.00     0.116 C 
BRANCH  36  37
ATOM     37  N   UNL     1      -7.419  -0.141  -6.408  1.00  0.00    -0.352 N 
ATOM     38  C   UNL     1      -8.299  -0.004  -7.462  1.00  0.00     0.251 C 
ATOM     39  H   UNL     1      -7.224  -1.059  -6.113  1.00  0.00     0.163 HD
ATOM     40  O   UNL     1      -8.843  -0.979  -7.966  1.00  0.00    -0.269 OA
BRANCH  38  41
ATOM     41  C   UNL     1      -8.604   1.366  -7.922  1.00  0.00     0.039 A 
ATOM     42  C   UNL     1      -9.925   1.814  -7.889  1.00  0.00     0.014 A 
ATOM     43  C   UNL     1      -7.553   2.249  -8.178  1.00  0.00     0.014 A 
ATOM     44  C   UNL     1     -10.181   3.180  -8.020  1.00  0.00     0.010 A 
ATOM     45  C   UNL     1      -7.803   3.613  -8.175  1.00  0.00     0.010 A 
ATOM     46  C   UNL     1      -9.119   4.096  -8.106  1.00  0.00    -0.014 A 
BRANCH  46  47
ATOM     47  C   UNL     1      -9.351   5.564  -8.129  1.00  0.00     0.031 A 
ATOM     48  C   UNL     1      -8.841   6.378  -9.289  1.00  0.00     0.074 A 
ATOM     49  C   UNL     1      -9.927   6.176  -7.074  1.00  0.00     0.049 A 
ATOM     50  N   UNL     1      -8.875   7.673  -9.466  1.00  0.00    -0.248 NA
ATOM     51  C   UNL     1      -8.163   5.646 -10.374  1.00  0.00     0.031 C 
ATOM     52  C   UNL     1     -10.374   5.515  -5.845  1.00  0.00     0.029 A 
ATOM     53  N   UNL     1     -10.214   7.502  -6.856  1.00  0.00    -0.354 N 
ATOM     54  C   UNL     1      -8.188   7.910 -10.650  1.00  0.00     0.074 A 
ATOM     55  C   UNL     1      -7.700   6.635 -11.122  1.00  0.00     0.031 C 
ATOM     56  C   UNL     1     -10.895   6.433  -5.014  1.00  0.00     0.029 A 
ATOM     57  C   UNL     1     -10.791   7.750  -5.631  1.00  0.00     0.049 A 
ATOM     58  H   UNL     1     -10.024   8.208  -7.514  1.00  0.00     0.167 HD
ATOM     59  C   UNL     1      -8.015   9.077 -11.312  1.00  0.00     0.034 A 
ATOM     60  C   UNL     1     -11.190   8.910  -5.070  1.00  0.00     0.034 A 
ATOM     61  C   UNL     1      -8.556  10.332 -10.874  1.00  0.00     0.049 A 
ATOM     62  C   UNL     1     -11.040  10.187  -5.854  1.00  0.00     0.074 A 
ATOM     63  C   UNL     1      -8.525  11.554 -11.520  1.00  0.00     0.029 A 
ATOM     64  N   UNL     1      -9.224  10.527  -9.675  1.00  0.00    -0.354 N 
ATOM     65  N   UNL     1     -10.535  10.365  -7.051  1.00  0.00    -0.248 NA
ATOM     66  C   UNL     1     -11.550  11.416  -5.229  1.00  0.00     0.031 C 
ATOM     67  C   UNL     1      -9.155  12.495 -10.700  1.00  0.00     0.029 A 
ATOM     68  C   UNL     1      -9.605  11.851  -9.558  1.00  0.00     0.049 A 
ATOM     69  H   UNL     1      -9.400   9.826  -9.006  1.00  0.00     0.167 HD
ATOM     70  C   UNL     1     -10.701  11.715  -7.338  1.00  0.00     0.074 A 
ATOM     71  C   UNL     1     -11.371  12.305  -6.197  1.00  0.00     0.031 C 
ATOM     72  C   UNL     1     -10.323  12.408  -8.441  1.00  0.00     0.034 A 
BRANCH  59  73
ATOM     73  C   UNL     1      -7.258   9.034 -12.614  1.00  0.00     0.023 A 
ATOM     74  C   UNL     1      -7.837   8.409 -13.738  1.00  0.00     0.012 A 
ATOM     75  C   UNL     1      -5.997   9.647 -12.738  1.00  0.00     0.148 A 
ATOM     76  C   UNL     1      -7.156   8.358 -14.953  1.00  0.00     0.002 A 
ATOM     77  C   UNL     1      -5.346   9.637 -13.966  1.00  0.00     0.091 A 
ATOM     78  F   UNL     1      -5.451  10.216 -11.653  1.00  0.00    -0.205 F 
ATOM     79  C   UNL     1      -5.917   8.982 -15.070  1.00  0.00     0.022 A 
BRANCH  77  80
ATOM     80  S   UNL     1      -3.786  10.482 -14.243  1.00  0.00     0.127 S 
ATOM     81  O   UNL     1      -2.868   9.356 -14.412  1.00  0.00    -0.237 OA
ATOM     82  O   UNL     1      -4.058  11.235 -15.468  1.00  0.00    -0.237 OA
ATOM     83  O   UNL     1      -3.557  11.302 -13.063  1.00  0.00    -0.744 OA
ENDBRANCH  77  80
ENDBRANCH  59  73
BRANCH  60  84
ATOM     84  C   UNL     1     -11.837   8.910  -3.726  1.00  0.00     0.023 A 
ATOM     85  C   UNL     1     -13.211   9.204  -3.618  1.00  0.00     0.012 A 
ATOM     86  C   UNL     1     -11.109   8.603  -2.560  1.00  0.00     0.148 A 
ATOM     87  C   UNL     1     -13.840   9.229  -2.373  1.00  0.00     0.002 A 
ATOM     88  C   UNL     1     -11.754   8.573  -1.329  1.00  0.00     0.091 A 
ATOM     89  F   UNL     1      -9.802   8.335  -2.681  1.00  0.00    -0.205 F 
ATOM     90  C   UNL     1     -13.115   8.904  -1.230  1.00  0.00     0.022 A 
BRANCH  88  91
ATOM     91  S   UNL     1     -10.933   8.037   0.176  1.00  0.00     0.127 S 
ATOM     92  O   UNL     1     -10.836   9.287   0.925  1.00  0.00    -0.237 OA
ATOM     93  O   UNL     1     -11.890   7.069   0.713  1.00  0.00    -0.237 OA
ATOM     94  O   UNL     1      -9.669   7.455  -0.253  1.00  0.00    -0.744 OA
ENDBRANCH  88  91
ENDBRANCH  60  84
BRANCH  72  95
ATOM     95  C   UNL     1     -10.663  13.873  -8.500  1.00  0.00     0.023 A 
ATOM     96  C   UNL     1      -9.964  14.792  -7.694  1.00  0.00     0.012 A 
ATOM     97  C   UNL     1     -11.617  14.346  -9.422  1.00  0.00     0.148 A 
ATOM     98  C   UNL     1     -10.232  16.157  -7.782  1.00  0.00     0.002 A 
ATOM     99  C   UNL     1     -11.842  15.711  -9.543  1.00  0.00     0.091 A 
ATOM    100  F   UNL     1     -12.283  13.452 -10.168  1.00  0.00    -0.205 F 
ATOM    101  C   UNL     1     -11.160  16.617  -8.714  1.00  0.00     0.022 A 
BRANCH  99 102
ATOM    102  S   UNL     1     -12.941  16.400 -10.785  1.00  0.00     0.127 S 
ATOM    103  O   UNL     1     -14.066  16.854  -9.969  1.00  0.00    -0.237 OA
ATOM    104  O   UNL     1     -12.128  17.475 -11.355  1.00  0.00    -0.237 OA
ATOM    105  O   UNL     1     -13.237  15.312 -11.707  1.00  0.00    -0.744 OA
ENDBRANCH  99 102
ENDBRANCH  72  95
ENDBRANCH  46  47
ENDBRANCH  38  41
ENDBRANCH  36  37
ENDBRANCH  35  36
ENDBRANCH   1  35
TORSDOF 19
