REMARK SMILES O=C(NCCCCNC(=O)c1ccccc1C[NH2+]C1CCCC1)c1ccc(-c2c3nc(c(-c4cccc(S(=O)(=O)[O-])c4F)c4ccc([nH]4)c(-c4cccc(S(=O)(=O)[O-])c4F)c4nc(c(-c5cccc(S(=O)(=O)[O-])c5F)c5ccc2[nH]5)C=C4)C=C3)cc1
REMARK SMILES IDX 5 1 4 2 3 3 1 4 2 5 24 7 25 8 86 9 26 10 85 11 27 12 28 13
REMARK SMILES IDX 29 14 79 15 30 16 84 17 78 18 80 19 31 20 83 21 77 22 76 23
REMARK SMILES IDX 32 25 64 26 44 27 63 28 45 29 48 30 62 31 81 32 46 33 47 34
REMARK SMILES IDX 61 36 82 37 49 38 33 39 34 40 42 41 35 42 37 43 43 44 36 45
REMARK SMILES IDX 38 46 39 47 40 48 41 49 65 50 66 51 74 52 67 53 69 54 75 55
REMARK SMILES IDX 68 56 70 57 71 58 72 59 73 60 50 61 51 62 59 63 52 64 54 65
REMARK SMILES IDX 60 66 53 67 55 68 56 69 57 70 58 71 6 72 7 73 8 74 9 75
REMARK SMILES IDX 10 77 11 78 12 79 16 80 13 81 15 82 14 83 17 84 18 85 19 88
REMARK SMILES IDX 20 89 23 90 21 91 22 92
REMARK H PARENT 3 6 80 24 48 35 8 76 18 86 18 87
REMARK Flexibility Score: inf
ROOT
ATOM      1  C   UNL     1       4.990   0.717  -2.642  1.00  0.00     0.023 C 
ENDROOT
BRANCH   1   2
ATOM      2  C   UNL     1       4.682   0.955  -1.167  1.00  0.00     0.116 C 
BRANCH   2   3
ATOM      3  N   UNL     1       3.259   0.916  -0.866  1.00  0.00    -0.352 N 
ATOM      4  O   UNL     1       1.322   0.073  -0.082  1.00  0.00    -0.269 OA
ATOM      5  C   UNL     1       2.549   0.022  -0.096  1.00  0.00     0.251 C 
ATOM      6  H   UNL     1       2.724   1.636  -1.273  1.00  0.00     0.163 HD
BRANCH   5   7
ATOM      7  C   UNL     1       3.263  -1.016   0.683  1.00  0.00     0.039 A 
ATOM      8  C   UNL     1       4.398  -0.690   1.426  1.00  0.00     0.014 A 
ATOM      9  C   UNL     1       2.802  -2.336   0.661  1.00  0.00     0.014 A 
ATOM     10  C   UNL     1       5.170  -1.701   1.986  1.00  0.00     0.010 A 
ATOM     11  C   UNL     1       3.527  -3.341   1.315  1.00  0.00     0.010 A 
ATOM     12  C   UNL     1       4.742  -3.040   1.946  1.00  0.00    -0.014 A 
BRANCH  12  13
ATOM     13  C   UNL     1       5.563  -4.072   2.636  1.00  0.00     0.031 A 
ATOM     14  C   UNL     1       6.215  -5.204   1.887  1.00  0.00     0.074 A 
ATOM     15  C   UNL     1       5.760  -3.946   3.964  1.00  0.00     0.049 A 
ATOM     16  N   UNL     1       7.040  -6.116   2.337  1.00  0.00    -0.248 NA
ATOM     17  C   UNL     1       5.900  -5.342   0.456  1.00  0.00     0.031 C 
ATOM     18  C   UNL     1       5.131  -2.929   4.811  1.00  0.00     0.029 A 
ATOM     19  N   UNL     1       6.551  -4.655   4.831  1.00  0.00    -0.354 N 
ATOM     20  C   UNL     1       7.320  -6.950   1.261  1.00  0.00     0.074 A 
ATOM     21  C   UNL     1       6.565  -6.445   0.134  1.00  0.00     0.031 C 
ATOM     22  C   UNL     1       5.597  -3.047   6.062  1.00  0.00     0.029 A 
ATOM     23  C   UNL     1       6.519  -4.175   6.120  1.00  0.00     0.049 A 
ATOM     24  H   UNL     1       7.090  -5.432   4.558  1.00  0.00     0.167 HD
ATOM     25  C   UNL     1       8.146  -8.024   1.211  1.00  0.00     0.034 A 
ATOM     26  C   UNL     1       7.159  -4.591   7.229  1.00  0.00     0.034 A 
ATOM     27  C   UNL     1       8.925  -8.501   2.325  1.00  0.00     0.049 A 
ATOM     28  C   UNL     1       8.114  -5.744   7.127  1.00  0.00     0.074 A 
ATOM     29  C   UNL     1       9.822  -9.556   2.358  1.00  0.00     0.029 A 
ATOM     30  N   UNL     1       8.907  -7.955   3.599  1.00  0.00    -0.354 N 
ATOM     31  N   UNL     1       8.456  -6.438   6.069  1.00  0.00    -0.248 NA
ATOM     32  C   UNL     1       8.793  -6.155   8.363  1.00  0.00     0.031 C 
ATOM     33  C   UNL     1      10.342  -9.651   3.654  1.00  0.00     0.029 A 
ATOM     34  C   UNL     1       9.776  -8.649   4.426  1.00  0.00     0.049 A 
ATOM     35  H   UNL     1       8.357  -7.187   3.876  1.00  0.00     0.167 HD
ATOM     36  C   UNL     1       9.393  -7.363   6.509  1.00  0.00     0.074 A 
ATOM     37  C   UNL     1       9.600  -7.108   7.920  1.00  0.00     0.031 C 
ATOM     38  C   UNL     1      10.001  -8.357   5.817  1.00  0.00     0.034 A 
BRANCH  25  39
ATOM     39  C   UNL     1       8.308  -8.731  -0.110  1.00  0.00     0.023 A 
ATOM     40  C   UNL     1       9.103  -8.140  -1.113  1.00  0.00     0.012 A 
ATOM     41  C   UNL     1       7.763 -10.013  -0.327  1.00  0.00     0.148 A 
ATOM     42  C   UNL     1       9.340  -8.804  -2.316  1.00  0.00     0.002 A 
ATOM     43  C   UNL     1       8.032 -10.683  -1.516  1.00  0.00     0.091 A 
ATOM     44  F   UNL     1       6.995 -10.551   0.631  1.00  0.00    -0.205 F 
ATOM     45  C   UNL     1       8.815 -10.078  -2.513  1.00  0.00     0.022 A 
BRANCH  43  46
ATOM     46  S   UNL     1       7.460 -12.356  -1.841  1.00  0.00     0.127 S 
ATOM     47  O   UNL     1       6.442 -12.126  -2.864  1.00  0.00    -0.237 OA
ATOM     48  O   UNL     1       8.676 -13.009  -2.327  1.00  0.00    -0.237 OA
ATOM     49  O   UNL     1       6.965 -12.865  -0.570  1.00  0.00    -0.744 OA
ENDBRANCH  43  46
ENDBRANCH  25  39
BRANCH  26  50
ATOM     50  C   UNL     1       6.948  -3.870   8.515  1.00  0.00     0.023 A 
ATOM     51  C   UNL     1       7.994  -3.107   9.067  1.00  0.00     0.012 A 
ATOM     52  C   UNL     1       5.698  -3.889   9.163  1.00  0.00     0.148 A 
ATOM     53  C   UNL     1       7.805  -2.394  10.252  1.00  0.00     0.002 A 
ATOM     54  C   UNL     1       5.497  -3.124  10.306  1.00  0.00     0.091 A 
ATOM     55  F   UNL     1       4.717  -4.639   8.640  1.00  0.00    -0.205 F 
ATOM     56  C   UNL     1       6.553  -2.390  10.863  1.00  0.00     0.022 A 
BRANCH  54  57
ATOM     57  S   UNL     1       3.863  -2.949  11.032  1.00  0.00     0.127 S 
ATOM     58  O   UNL     1       3.881  -3.977  12.068  1.00  0.00    -0.237 OA
ATOM     59  O   UNL     1       3.885  -1.573  11.530  1.00  0.00    -0.237 OA
ATOM     60  O   UNL     1       2.939  -3.162   9.926  1.00  0.00    -0.744 OA
ENDBRANCH  54  57
ENDBRANCH  26  50
BRANCH  38  61
ATOM     61  C   UNL     1      10.942  -9.247   6.584  1.00  0.00     0.023 A 
ATOM     62  C   UNL     1      10.413 -10.196   7.482  1.00  0.00     0.012 A 
ATOM     63  C   UNL     1      12.335  -9.174   6.395  1.00  0.00     0.148 A 
ATOM     64  C   UNL     1      11.258 -11.034   8.208  1.00  0.00     0.002 A 
ATOM     65  C   UNL     1      13.169 -10.040   7.093  1.00  0.00     0.091 A 
ATOM     66  F   UNL     1      12.822  -8.249   5.556  1.00  0.00    -0.205 F 
ATOM     67  C   UNL     1      12.634 -10.963   8.007  1.00  0.00     0.022 A 
BRANCH  65  68
ATOM     68  S   UNL     1      14.946 -10.065   6.830  1.00  0.00     0.127 S 
ATOM     69  O   UNL     1      15.426  -9.274   7.962  1.00  0.00    -0.237 OA
ATOM     70  O   UNL     1      15.259 -11.492   6.908  1.00  0.00    -0.237 OA
ATOM     71  O   UNL     1      15.155  -9.478   5.513  1.00  0.00    -0.744 OA
ENDBRANCH  65  68
ENDBRANCH  38  61
ENDBRANCH  12  13
ENDBRANCH   5   7
ENDBRANCH   2   3
ENDBRANCH   1   2
BRANCH   1  72
ATOM     72  C   UNL     1       4.527   1.813  -3.602  1.00  0.00     0.023 C 
BRANCH  72  73
ATOM     73  C   UNL     1       4.918   3.233  -3.210  1.00  0.00     0.116 C 
BRANCH  73  74
ATOM     74  N   UNL     1       6.346   3.412  -3.010  1.00  0.00    -0.352 N 
ATOM     75  C   UNL     1       7.111   4.527  -3.243  1.00  0.00     0.251 C 
ATOM     76  H   UNL     1       6.829   2.628  -2.661  1.00  0.00     0.163 HD
ATOM     77  O   UNL     1       8.315   4.519  -3.006  1.00  0.00    -0.269 OA
BRANCH  75  78
ATOM     78  C   UNL     1       6.494   5.741  -3.819  1.00  0.00     0.048 A 
ATOM     79  C   UNL     1       6.926   6.095  -5.105  1.00  0.00     0.014 A 
ATOM     80  C   UNL     1       5.545   6.523  -3.130  1.00  0.00     0.019 A 
ATOM     81  C   UNL     1       6.375   7.202  -5.744  1.00  0.00     0.001 A 
ATOM     82  C   UNL     1       4.997   7.630  -3.799  1.00  0.00     0.010 A 
ATOM     83  C   UNL     1       5.407   7.964  -5.094  1.00  0.00     0.001 A 
BRANCH  80  84
ATOM     84  C   UNL     1       5.028   6.123  -1.767  1.00  0.00     0.298 C 
BRANCH  84  85
ATOM     85  N   UNL     1       4.884   7.218  -0.811  1.00  0.00    -0.340 N 
ATOM     86  H   UNL     1       4.244   7.909  -1.204  1.00  0.00     0.346 HD
ATOM     87  H   UNL     1       5.814   7.605  -0.651  1.00  0.00     0.346 HD
BRANCH  85  88
ATOM     88  C   UNL     1       4.361   6.786   0.494  1.00  0.00     0.182 C 
ATOM     89  C   UNL     1       2.939   7.297   0.722  1.00  0.00     0.065 C 
ATOM     90  C   UNL     1       4.206   5.288   0.809  1.00  0.00     0.065 C 
ATOM     91  C   UNL     1       2.486   6.560   1.980  1.00  0.00     0.006 C 
ATOM     92  C   UNL     1       3.253   5.239   1.999  1.00  0.00     0.006 C 
ENDBRANCH  85  88
ENDBRANCH  84  85
ENDBRANCH  80  84
ENDBRANCH  75  78
ENDBRANCH  73  74
ENDBRANCH  72  73
ENDBRANCH   1  72
TORSDOF 17
