REMARK SMILES CCCC1(CCC)SC[C@@H]2C(=O)N(Cc3ccc(C(=O)NCCCCNC(=O)c4ccc(-c5c6nc(c(-c7cccc(S(=O)(=O)[O-])c7F)c7ccc([nH]7)c(-c7cccc(S(=O)(=O)[O-])c7F)c7nc(c(-c8cccc(S(=O)(=O)[O-])c8F)c8ccc5[nH]8)C=C7)C=C6)cc4)cc3)CC(=O)N21
REMARK SMILES IDX 23 1 22 2 21 3 19 4 20 5 18 7 15 8 16 9 93 10 17 11 92 12
REMARK SMILES IDX 14 13 13 14 4 15 8 16 97 17 9 18 10 19 95 20 11 21 94 22
REMARK SMILES IDX 96 23 12 24 3 25 2 26 1 27 5 28 6 29 7 30 24 31 25 32 26 33
REMARK SMILES IDX 27 34 28 36 29 37 30 38 91 39 31 40 90 41 32 42 33 43 34 44
REMARK SMILES IDX 84 45 35 46 89 47 83 48 85 49 36 50 88 51 82 52 81 53 37 55
REMARK SMILES IDX 69 56 49 57 68 58 50 59 53 60 67 61 86 62 51 63 52 64 66 66
REMARK SMILES IDX 87 67 54 68 38 69 39 70 47 71 40 72 42 73 48 74 41 75 43 76
REMARK SMILES IDX 44 77 45 78 46 79 70 80 71 81 79 82 72 83 74 84 80 85 73 86
REMARK SMILES IDX 75 87 76 88 77 89 78 90 55 91 56 92 64 93 57 94 59 95 65 96
REMARK SMILES IDX 58 97 60 98 61 99 62 100 63 101
REMARK H PARENT 21 6 26 35 85 54 53 65
REMARK Flexibility Score: inf
ROOT
ATOM      1  C   UNL     1       1.749  -4.046 -10.102  1.00  0.00     0.023 C 
ENDROOT
BRANCH   1   2
ATOM      2  C   UNL     1       0.358  -4.040  -9.463  1.00  0.00     0.116 C 
BRANCH   2   3
ATOM      3  N   UNL     1      -0.141  -5.387  -9.237  1.00  0.00    -0.352 N 
ATOM      4  C   UNL     1      -0.271  -6.096  -8.066  1.00  0.00     0.251 C 
ATOM      5  O   UNL     1      -0.866  -7.170  -8.059  1.00  0.00    -0.269 OA
ATOM      6  H   UNL     1      -0.431  -5.865 -10.048  1.00  0.00     0.163 HD
BRANCH   4   7
ATOM      7  C   UNL     1       0.245  -5.552  -6.789  1.00  0.00     0.039 A 
ATOM      8  C   UNL     1       1.082  -4.381  -4.380  1.00  0.00    -0.029 A 
ATOM      9  C   UNL     1      -0.148  -5.048  -4.448  1.00  0.00     0.006 A 
ATOM     10  C   UNL     1       1.918  -4.382  -5.505  1.00  0.00     0.006 A 
ATOM     11  C   UNL     1      -0.562  -5.634  -5.649  1.00  0.00     0.014 A 
ATOM     12  C   UNL     1       1.513  -4.983  -6.692  1.00  0.00     0.014 A 
BRANCH   8  13
ATOM     13  C   UNL     1       1.525  -3.651  -3.141  1.00  0.00     0.155 C 
BRANCH  13  14
ATOM     14  N   UNL     1       1.027  -2.284  -3.044  1.00  0.00    -0.327 N 
ATOM     15  C   UNL     1       0.165   1.786  -1.924  1.00  0.00     0.090 C 
ATOM     16  S   UNL     1       1.135   2.684  -3.320  1.00  0.00    -0.131 SA
ATOM     17  N   UNL     1       0.240   0.376  -2.361  1.00  0.00    -0.314 N 
ATOM     18  C   UNL     1       1.420   1.188  -4.290  1.00  0.00     0.107 C 
ATOM     19  C   UNL     1       1.389   0.111  -3.227  1.00  0.00     0.186 C 
ATOM     20  C   UNL     1      -0.419  -0.676  -1.750  1.00  0.00     0.244 C 
ATOM     21  C   UNL     1       1.563  -1.279  -3.837  1.00  0.00     0.247 C 
ATOM     22  C   UNL     1      -0.257  -2.049  -2.409  1.00  0.00     0.220 C 
ATOM     23  O   UNL     1      -1.226  -0.546  -0.834  1.00  0.00    -0.273 OA
ATOM     24  O   UNL     1       2.357  -1.475  -4.754  1.00  0.00    -0.272 OA
BRANCH  15  25
ATOM     25  C   UNL     1       1.013   2.109  -0.657  1.00  0.00     0.040 C 
BRANCH  25  26
ATOM     26  C   UNL     1       0.841   1.234   0.593  1.00  0.00    -0.000 C 
ATOM     27  C   UNL     1       1.784   0.036   0.643  1.00  0.00     0.004 C 
ENDBRANCH  25  26
ENDBRANCH  15  25
BRANCH  15  28
ATOM     28  C   UNL     1      -1.220   2.490  -2.054  1.00  0.00     0.040 C 
BRANCH  28  29
ATOM     29  C   UNL     1      -2.362   2.248  -1.065  1.00  0.00    -0.000 C 
ATOM     30  C   UNL     1      -2.237   2.961   0.270  1.00  0.00     0.004 C 
ENDBRANCH  28  29
ENDBRANCH  15  28
ENDBRANCH  13  14
ENDBRANCH   8  13
ENDBRANCH   4   7
ENDBRANCH   2   3
ENDBRANCH   1   2
BRANCH   1  31
ATOM     31  C   UNL     1       1.767  -4.430 -11.582  1.00  0.00     0.023 C 
BRANCH  31  32
ATOM     32  C   UNL     1       1.065  -3.447 -12.508  1.00  0.00     0.116 C 
BRANCH  32  33
ATOM     33  N   UNL     1       1.660  -2.116 -12.494  1.00  0.00    -0.352 N 
ATOM     34  C   UNL     1       1.790  -1.241 -13.547  1.00  0.00     0.251 C 
ATOM     35  H   UNL     1       2.011  -1.806 -11.628  1.00  0.00     0.163 HD
ATOM     36  O   UNL     1       2.404  -0.186 -13.417  1.00  0.00    -0.269 OA
BRANCH  34  37
ATOM     37  C   UNL     1       1.209  -1.615 -14.852  1.00  0.00     0.039 A 
ATOM     38  C   UNL     1       2.028  -1.625 -15.985  1.00  0.00     0.014 A 
ATOM     39  C   UNL     1      -0.120  -2.036 -14.930  1.00  0.00     0.014 A 
ATOM     40  C   UNL     1       1.532  -2.134 -17.186  1.00  0.00     0.010 A 
ATOM     41  C   UNL     1      -0.589  -2.604 -16.108  1.00  0.00     0.010 A 
ATOM     42  C   UNL     1       0.233  -2.664 -17.245  1.00  0.00    -0.014 A 
BRANCH  42  43
ATOM     43  C   UNL     1      -0.302  -3.303 -18.473  1.00  0.00     0.031 A 
ATOM     44  C   UNL     1      -1.502  -2.708 -19.155  1.00  0.00     0.074 A 
ATOM     45  C   UNL     1       0.202  -4.482 -18.889  1.00  0.00     0.049 A 
ATOM     46  N   UNL     1      -2.220  -3.192 -20.134  1.00  0.00    -0.248 NA
ATOM     47  C   UNL     1      -1.979  -1.411 -18.643  1.00  0.00     0.031 C 
ATOM     48  C   UNL     1       1.319  -5.194 -18.266  1.00  0.00     0.029 A 
ATOM     49  N   UNL     1      -0.190  -5.311 -19.911  1.00  0.00    -0.354 N 
ATOM     50  C   UNL     1      -3.260  -2.290 -20.321  1.00  0.00     0.074 A 
ATOM     51  C   UNL     1      -3.093  -1.240 -19.341  1.00  0.00     0.031 C 
ATOM     52  C   UNL     1       1.515  -6.356 -18.910  1.00  0.00     0.029 A 
ATOM     53  C   UNL     1       0.519  -6.489 -19.968  1.00  0.00     0.049 A 
ATOM     54  H   UNL     1      -0.911  -5.085 -20.542  1.00  0.00     0.167 HD
ATOM     55  C   UNL     1      -4.249  -2.320 -21.244  1.00  0.00     0.034 A 
ATOM     56  C   UNL     1       0.373  -7.560 -20.773  1.00  0.00     0.034 A 
ATOM     57  C   UNL     1      -4.372  -3.332 -22.255  1.00  0.00     0.049 A 
ATOM     58  C   UNL     1      -0.703  -7.542 -21.826  1.00  0.00     0.074 A 
ATOM     59  C   UNL     1      -5.281  -3.401 -23.296  1.00  0.00     0.029 A 
ATOM     60  N   UNL     1      -3.561  -4.451 -22.355  1.00  0.00    -0.354 N 
ATOM     61  N   UNL     1      -1.584  -6.607 -22.086  1.00  0.00    -0.248 NA
ATOM     62  C   UNL     1      -0.785  -8.709 -22.717  1.00  0.00     0.031 C 
ATOM     63  C   UNL     1      -5.025  -4.569 -24.021  1.00  0.00     0.029 A 
ATOM     64  C   UNL     1      -3.947  -5.218 -23.440  1.00  0.00     0.049 A 
ATOM     65  H   UNL     1      -2.819  -4.668 -21.745  1.00  0.00     0.167 HD
ATOM     66  C   UNL     1      -2.297  -7.053 -23.194  1.00  0.00     0.074 A 
ATOM     67  C   UNL     1      -1.738  -8.337 -23.563  1.00  0.00     0.031 C 
ATOM     68  C   UNL     1      -3.331  -6.458 -23.837  1.00  0.00     0.034 A 
BRANCH  55  69
ATOM     69  C   UNL     1      -5.242  -1.189 -21.242  1.00  0.00     0.023 A 
ATOM     70  C   UNL     1      -4.841   0.085 -21.695  1.00  0.00     0.012 A 
ATOM     71  C   UNL     1      -6.578  -1.394 -20.848  1.00  0.00     0.148 A 
ATOM     72  C   UNL     1      -5.745   1.145 -21.726  1.00  0.00     0.002 A 
ATOM     73  C   UNL     1      -7.485  -0.343 -20.921  1.00  0.00     0.091 A 
ATOM     74  F   UNL     1      -6.934  -2.605 -20.397  1.00  0.00    -0.205 F 
ATOM     75  C   UNL     1      -7.068   0.929 -21.349  1.00  0.00     0.022 A 
BRANCH  73  76
ATOM     76  S   UNL     1      -9.227  -0.542 -20.531  1.00  0.00     0.127 S 
ATOM     77  O   UNL     1      -9.319   0.135 -19.238  1.00  0.00    -0.237 OA
ATOM     78  O   UNL     1      -9.875   0.166 -21.636  1.00  0.00    -0.237 OA
ATOM     79  O   UNL     1      -9.469  -1.977 -20.507  1.00  0.00    -0.744 OA
ENDBRANCH  73  76
ENDBRANCH  55  69
BRANCH  56  80
ATOM     80  C   UNL     1       1.315  -8.710 -20.660  1.00  0.00     0.023 A 
ATOM     81  C   UNL     1       2.266  -8.919 -21.677  1.00  0.00     0.012 A 
ATOM     82  C   UNL     1       1.301  -9.571 -19.546  1.00  0.00     0.148 A 
ATOM     83  C   UNL     1       3.168  -9.981 -21.602  1.00  0.00     0.002 A 
ATOM     84  C   UNL     1       2.237 -10.597 -19.452  1.00  0.00     0.091 A 
ATOM     85  F   UNL     1       0.380  -9.365 -18.594  1.00  0.00    -0.205 F 
ATOM     86  C   UNL     1       3.160 -10.813 -20.486  1.00  0.00     0.022 A 
BRANCH  84  87
ATOM     87  S   UNL     1       2.383 -11.633 -17.992  1.00  0.00     0.127 S 
ATOM     88  O   UNL     1       1.820 -12.896 -18.464  1.00  0.00    -0.237 OA
ATOM     89  O   UNL     1       3.830 -11.648 -17.773  1.00  0.00    -0.237 OA
ATOM     90  O   UNL     1       1.628 -10.948 -16.951  1.00  0.00    -0.744 OA
ENDBRANCH  84  87
ENDBRANCH  56  80
BRANCH  68  91
ATOM     91  C   UNL     1      -3.907  -7.152 -25.042  1.00  0.00     0.023 A 
ATOM     92  C   UNL     1      -4.748  -8.267 -24.869  1.00  0.00     0.012 A 
ATOM     93  C   UNL     1      -3.707  -6.625 -26.333  1.00  0.00     0.148 A 
ATOM     94  C   UNL     1      -5.372  -8.859 -25.967  1.00  0.00     0.002 A 
ATOM     95  C   UNL     1      -4.366  -7.192 -27.417  1.00  0.00     0.091 A 
ATOM     96  F   UNL     1      -2.887  -5.573 -26.474  1.00  0.00    -0.205 F 
ATOM     97  C   UNL     1      -5.193  -8.313 -27.237  1.00  0.00     0.022 A 
BRANCH  95  98
ATOM     98  S   UNL     1      -4.273  -6.500 -29.072  1.00  0.00     0.127 S 
ATOM     99  O   UNL     1      -3.468  -7.502 -29.769  1.00  0.00    -0.237 OA
ATOM    100  O   UNL     1      -5.680  -6.461 -29.472  1.00  0.00    -0.237 OA
ATOM    101  O   UNL     1      -3.650  -5.191 -28.926  1.00  0.00    -0.744 OA
ENDBRANCH  95  98
ENDBRANCH  68  91
ENDBRANCH  42  43
ENDBRANCH  34  37
ENDBRANCH  32  33
ENDBRANCH  31  32
ENDBRANCH   1  31
TORSDOF 20
