REMARK SMILES O=C(NCCCCNC(=O)C1(Cc2nccs2)CC1)c1ccc(-c2c3nc(c(-c4cccc(S(=O)(=O)[O-])c4F)c4ccc([nH]4)c(-c4cccc(S(=O)(=O)[O-])c4F)c4nc(c(-c5cccc(S(=O)(=O)[O-])c5F)c5ccc2[nH]5)C=C4)C=C3)cc1
REMARK SMILES IDX 5 1 4 2 3 3 1 4 2 5 20 7 21 8 82 9 22 10 81 11 23 12 24 13
REMARK SMILES IDX 25 14 75 15 26 16 80 17 74 18 76 19 27 20 79 21 73 22 72 23
REMARK SMILES IDX 28 25 60 26 40 27 59 28 41 29 44 30 58 31 77 32 42 33 43 34
REMARK SMILES IDX 57 36 78 37 45 38 29 39 30 40 38 41 31 42 33 43 39 44 32 45
REMARK SMILES IDX 34 46 35 47 36 48 37 49 61 50 62 51 70 52 63 53 65 54 71 55
REMARK SMILES IDX 64 56 66 57 67 58 68 59 69 60 46 61 47 62 55 63 48 64 50 65
REMARK SMILES IDX 56 66 49 67 51 68 52 69 53 70 54 71 6 72 7 73 8 74 9 75
REMARK SMILES IDX 10 77 11 78 18 79 19 80 12 81 13 82 14 83 17 84 15 85 16 86
REMARK H PARENT 3 6 76 24 44 35 8 76
REMARK Flexibility Score: inf
ROOT
ATOM      1  C   UNL     1       4.655   0.484  -2.594  1.00  0.00     0.023 C 
ENDROOT
BRANCH   1   2
ATOM      2  C   UNL     1       4.355   0.488  -1.106  1.00  0.00     0.116 C 
BRANCH   2   3
ATOM      3  N   UNL     1       2.929   0.538  -0.809  1.00  0.00    -0.352 N 
ATOM      4  O   UNL     1       1.011  -0.068   0.217  1.00  0.00    -0.269 OA
ATOM      5  C   UNL     1       2.236  -0.127   0.177  1.00  0.00     0.251 C 
ATOM      6  H   UNL     1       2.391   1.124  -1.389  1.00  0.00     0.163 HD
BRANCH   5   7
ATOM      7  C   UNL     1       2.989  -0.939   1.157  1.00  0.00     0.039 A 
ATOM      8  C   UNL     1       4.161  -0.434   1.720  1.00  0.00     0.014 A 
ATOM      9  C   UNL     1       2.554  -2.229   1.471  1.00  0.00     0.014 A 
ATOM     10  C   UNL     1       4.988  -1.276   2.445  1.00  0.00     0.010 A 
ATOM     11  C   UNL     1       3.336  -3.039   2.302  1.00  0.00     0.010 A 
ATOM     12  C   UNL     1       4.578  -2.581   2.767  1.00  0.00    -0.014 A 
BRANCH  12  13
ATOM     13  C   UNL     1       5.444  -3.385   3.667  1.00  0.00     0.031 A 
ATOM     14  C   UNL     1       6.078  -4.673   3.222  1.00  0.00     0.074 A 
ATOM     15  C   UNL     1       5.698  -2.889   4.895  1.00  0.00     0.049 A 
ATOM     16  N   UNL     1       6.926  -5.430   3.869  1.00  0.00    -0.248 NA
ATOM     17  C   UNL     1       5.711  -5.188   1.893  1.00  0.00     0.031 C 
ATOM     18  C   UNL     1       5.088  -1.677   5.450  1.00  0.00     0.029 A 
ATOM     19  N   UNL     1       6.543  -3.316   5.885  1.00  0.00    -0.354 N 
ATOM     20  C   UNL     1       7.172  -6.524   3.047  1.00  0.00     0.074 A 
ATOM     21  C   UNL     1       6.372  -6.338   1.855  1.00  0.00     0.031 C 
ATOM     22  C   UNL     1       5.619  -1.426   6.653  1.00  0.00     0.029 A 
ATOM     23  C   UNL     1       6.556  -2.491   6.985  1.00  0.00     0.049 A 
ATOM     24  H   UNL     1       7.087  -4.133   5.815  1.00  0.00     0.167 HD
ATOM     25  C   UNL     1       8.001  -7.574   3.263  1.00  0.00     0.034 A 
ATOM     26  C   UNL     1       7.238  -2.582   8.141  1.00  0.00     0.034 A 
ATOM     27  C   UNL     1       8.816  -7.731   4.440  1.00  0.00     0.049 A 
ATOM     28  C   UNL     1       8.191  -3.725   8.323  1.00  0.00     0.074 A 
ATOM     29  C   UNL     1       9.710  -8.744   4.740  1.00  0.00     0.029 A 
ATOM     30  N   UNL     1       8.841  -6.850   5.512  1.00  0.00    -0.354 N 
ATOM     31  N   UNL     1       8.484  -4.692   7.487  1.00  0.00    -0.248 NA
ATOM     32  C   UNL     1       8.926  -3.778   9.592  1.00  0.00     0.031 C 
ATOM     33  C   UNL     1      10.269  -8.480   5.996  1.00  0.00     0.029 A 
ATOM     34  C   UNL     1       9.736  -7.294   6.472  1.00  0.00     0.049 A 
ATOM     35  H   UNL     1       8.301  -6.029   5.580  1.00  0.00     0.167 HD
ATOM     36  C   UNL     1       9.441  -5.467   8.126  1.00  0.00     0.074 A 
ATOM     37  C   UNL     1       9.714  -4.827   9.398  1.00  0.00     0.031 C 
ATOM     38  C   UNL     1      10.018  -6.623   7.715  1.00  0.00     0.034 A 
BRANCH  25  39
ATOM     39  C   UNL     1       8.113  -8.620   2.182  1.00  0.00     0.023 A 
ATOM     40  C   UNL     1       8.834  -8.324   1.007  1.00  0.00     0.012 A 
ATOM     41  C   UNL     1       7.585  -9.915   2.358  1.00  0.00     0.148 A 
ATOM     42  C   UNL     1       9.010  -9.291   0.017  1.00  0.00     0.002 A 
ATOM     43  C   UNL     1       7.796 -10.885   1.384  1.00  0.00     0.091 A 
ATOM     44  F   UNL     1       6.886 -10.173   3.473  1.00  0.00    -0.205 F 
ATOM     45  C   UNL     1       8.502 -10.572   0.210  1.00  0.00     0.022 A 
BRANCH  43  46
ATOM     46  S   UNL     1       7.245 -12.586   1.567  1.00  0.00     0.127 S 
ATOM     47  O   UNL     1       6.173 -12.656   0.575  1.00  0.00    -0.237 OA
ATOM     48  O   UNL     1       8.450 -13.339   1.216  1.00  0.00    -0.237 OA
ATOM     49  O   UNL     1       6.824 -12.725   2.954  1.00  0.00    -0.744 OA
ENDBRANCH  43  46
ENDBRANCH  25  39
BRANCH  26  50
ATOM     50  C   UNL     1       7.056  -1.538   9.187  1.00  0.00     0.023 A 
ATOM     51  C   UNL     1       8.110  -0.655   9.488  1.00  0.00     0.012 A 
ATOM     52  C   UNL     1       5.818  -1.375   9.838  1.00  0.00     0.148 A 
ATOM     53  C   UNL     1       7.940   0.356  10.435  1.00  0.00     0.002 A 
ATOM     54  C   UNL     1       5.634  -0.324  10.728  1.00  0.00     0.091 A 
ATOM     55  F   UNL     1       4.830  -2.238   9.557  1.00  0.00    -0.205 F 
ATOM     56  C   UNL     1       6.699   0.532  11.043  1.00  0.00     0.022 A 
BRANCH  54  57
ATOM     57  S   UNL     1       4.016   0.058  11.408  1.00  0.00     0.127 S 
ATOM     58  O   UNL     1       4.091  -0.558  12.729  1.00  0.00    -0.237 OA
ATOM     59  O   UNL     1       4.016   1.522  11.408  1.00  0.00    -0.237 OA
ATOM     60  O   UNL     1       3.064  -0.532  10.475  1.00  0.00    -0.744 OA
ENDBRANCH  54  57
ENDBRANCH  26  50
BRANCH  38  61
ATOM     61  C   UNL     1      11.001  -7.263   8.658  1.00  0.00     0.023 A 
ATOM     62  C   UNL     1      10.528  -7.893   9.827  1.00  0.00     0.012 A 
ATOM     63  C   UNL     1      12.380  -7.269   8.377  1.00  0.00     0.148 A 
ATOM     64  C   UNL     1      11.417  -8.482  10.724  1.00  0.00     0.002 A 
ATOM     65  C   UNL     1      13.256  -7.897   9.254  1.00  0.00     0.091 A 
ATOM     66  F   UNL     1      12.812  -6.644   7.272  1.00  0.00    -0.205 F 
ATOM     67  C   UNL     1      12.779  -8.492  10.433  1.00  0.00     0.022 A 
BRANCH  65  68
ATOM     68  S   UNL     1      15.014  -8.029   8.913  1.00  0.00     0.127 S 
ATOM     69  O   UNL     1      15.566  -6.990   9.780  1.00  0.00    -0.237 OA
ATOM     70  O   UNL     1      15.314  -9.398   9.335  1.00  0.00    -0.237 OA
ATOM     71  O   UNL     1      15.158  -7.799   7.482  1.00  0.00    -0.744 OA
ENDBRANCH  65  68
ENDBRANCH  38  61
ENDBRANCH  12  13
ENDBRANCH   5   7
ENDBRANCH   2   3
ENDBRANCH   1   2
BRANCH   1  72
ATOM     72  C   UNL     1       4.168   1.726  -3.336  1.00  0.00     0.023 C 
BRANCH  72  73
ATOM     73  C   UNL     1       4.836   3.042  -2.932  1.00  0.00     0.116 C 
BRANCH  73  74
ATOM     74  N   UNL     1       6.278   3.027  -3.056  1.00  0.00    -0.356 N 
ATOM     75  C   UNL     1       7.090   3.459  -4.071  1.00  0.00     0.226 C 
ATOM     76  H   UNL     1       6.753   2.642  -2.285  1.00  0.00     0.163 HD
ATOM     77  O   UNL     1       8.309   3.445  -3.910  1.00  0.00    -0.274 OA
BRANCH  75  78
ATOM     78  C   UNL     1       6.498   4.040  -5.332  1.00  0.00     0.056 C 
ATOM     79  C   UNL     1       6.207   5.541  -5.302  1.00  0.00     0.018 C 
ATOM     80  C   UNL     1       7.368   5.041  -6.099  1.00  0.00     0.018 C 
BRANCH  78  81
ATOM     81  C   UNL     1       5.599   3.170  -6.208  1.00  0.00     0.084 C 
BRANCH  81  82
ATOM     82  C   UNL     1       5.982   1.723  -6.371  1.00  0.00     0.094 A 
ATOM     83  N   UNL     1       6.956   1.116  -5.730  1.00  0.00    -0.250 NA
ATOM     84  S   UNL     1       5.027   0.698  -7.380  1.00  0.00    -0.127 S 
ATOM     85  C   UNL     1       6.939  -0.235  -6.001  1.00  0.00     0.123 A 
ATOM     86  C   UNL     1       5.954  -0.650  -6.868  1.00  0.00     0.087 A 
ENDBRANCH  81  82
ENDBRANCH  78  81
ENDBRANCH  75  78
ENDBRANCH  73  74
ENDBRANCH  72  73
ENDBRANCH   1  72
TORSDOF 16
