REMARK SMILES Cc1ccc(C#N)cc1Nc1cc(C)c(N)c(C(=O)NCCCCNC(=O)c2ccc(-c3c4nc(c(-c5cccc(S(=O)(=O)[O-])c5F)c5ccc([nH]5)c(-c5cccc(S(=O)(=O)[O-])c5F)c5nc(c(-c6cccc(S(=O)(=O)[O-])c6F)c6ccc3[nH]6)C=C5)C=C4)cc2)c1
REMARK SMILES IDX 22 1 21 2 20 3 18 4 19 5 17 7 11 8 12 9 91 10 13 11 14 12
REMARK SMILES IDX 15 13 10 14 9 16 1 17 2 18 3 19 4 20 8 21 5 22 6 23 7 24
REMARK SMILES IDX 16 25 23 28 24 29 25 30 26 31 27 33 28 34 29 35 90 36 30 37
REMARK SMILES IDX 89 38 31 39 32 40 33 41 83 42 34 43 88 44 82 45 84 46 35 47
REMARK SMILES IDX 87 48 81 49 80 50 36 52 68 53 48 54 67 55 49 56 52 57 66 58
REMARK SMILES IDX 85 59 50 60 51 61 65 63 86 64 53 65 37 66 38 67 46 68 39 69
REMARK SMILES IDX 41 70 47 71 40 72 42 73 43 74 44 75 45 76 69 77 70 78 78 79
REMARK SMILES IDX 71 80 73 81 79 82 72 83 74 84 75 85 76 86 77 87 54 88 55 89
REMARK SMILES IDX 63 90 56 91 58 92 64 93 57 94 59 95 60 96 61 97 62 98
REMARK H PARENT 20 6 10 15 16 26 16 27 25 32 84 51 52 62
REMARK Flexibility Score: inf
ROOT
ATOM      1  C   UNL     1      -3.555   4.548  -1.169  1.00  0.00     0.023 C 
ENDROOT
BRANCH   1   2
ATOM      2  C   UNL     1      -2.801   4.767  -2.483  1.00  0.00     0.116 C 
BRANCH   2   3
ATOM      3  N   UNL     1      -2.379   6.150  -2.588  1.00  0.00    -0.352 N 
ATOM      4  C   UNL     1      -1.231   6.829  -2.262  1.00  0.00     0.253 C 
ATOM      5  O   UNL     1      -1.271   8.049  -2.451  1.00  0.00    -0.269 OA
ATOM      6  H   UNL     1      -3.069   6.732  -2.980  1.00  0.00     0.163 HD
BRANCH   4   7
ATOM      7  C   UNL     1       0.040   6.182  -1.773  1.00  0.00     0.065 A 
ATOM      8  C   UNL     1       1.241   4.195  -1.010  1.00  0.00     0.040 A 
ATOM      9  C   UNL     1       2.439   4.894  -1.083  1.00  0.00     0.031 A 
ATOM     10  C   UNL     1       0.055   4.878  -1.270  1.00  0.00     0.042 A 
ATOM     11  C   UNL     1       2.468   6.249  -1.464  1.00  0.00    -0.025 A 
ATOM     12  C   UNL     1       3.813   6.927  -1.438  1.00  0.00     0.047 C 
ATOM     13  C   UNL     1       1.273   6.892  -1.860  1.00  0.00     0.047 A 
BRANCH   8  14
ATOM     14  N   UNL     1       1.226   2.805  -0.798  1.00  0.00    -0.355 N 
ATOM     15  H   UNL     1       1.547   2.497   0.081  1.00  0.00     0.167 HD
BRANCH  14  16
ATOM     16  C   UNL     1       0.803   1.794  -1.697  1.00  0.00     0.043 A 
ATOM     17  C   UNL     1       0.979   0.043   0.146  1.00  0.00     0.046 C 
ATOM     18  C   UNL     1       0.655   0.459  -1.263  1.00  0.00    -0.027 A 
ATOM     19  C   UNL     1       0.237  -0.532  -2.171  1.00  0.00     0.007 A 
ATOM     20  C   UNL     1      -0.049  -0.215  -3.498  1.00  0.00     0.020 A 
ATOM     21  C   UNL     1       0.480   2.097  -3.034  1.00  0.00     0.045 A 
ATOM     22  C   UNL     1       0.076   1.102  -3.934  1.00  0.00     0.054 A 
BRANCH  22  23
ATOM     23  C   UNL     1      -0.175   1.429  -5.309  1.00  0.00     0.099 C 
ATOM     24  N   UNL     1      -0.357   1.682  -6.424  1.00  0.00    -0.192 NA
ENDBRANCH  22  23
ENDBRANCH  14  16
ENDBRANCH   8  14
BRANCH  13  25
ATOM     25  N   UNL     1       1.300   8.223  -2.270  1.00  0.00    -0.398 N 
ATOM     26  H   UNL     1       2.157   8.703  -2.327  1.00  0.00     0.156 HD
ATOM     27  H   UNL     1       0.461   8.683  -2.504  1.00  0.00     0.156 HD
ENDBRANCH  13  25
ENDBRANCH   4   7
ENDBRANCH   2   3
ENDBRANCH   1   2
BRANCH   1  28
ATOM     28  C   UNL     1      -5.000   5.048  -1.217  1.00  0.00     0.023 C 
BRANCH  28  29
ATOM     29  C   UNL     1      -5.854   4.384  -2.288  1.00  0.00     0.116 C 
BRANCH  29  30
ATOM     30  N   UNL     1      -5.921   2.933  -2.163  1.00  0.00    -0.352 N 
ATOM     31  C   UNL     1      -7.010   2.118  -2.383  1.00  0.00     0.251 C 
ATOM     32  H   UNL     1      -5.090   2.482  -1.888  1.00  0.00     0.163 HD
ATOM     33  O   UNL     1      -6.962   0.921  -2.129  1.00  0.00    -0.269 OA
BRANCH  31  34
ATOM     34  C   UNL     1      -8.248   2.749  -2.882  1.00  0.00     0.039 A 
ATOM     35  C   UNL     1      -8.179   3.621  -3.969  1.00  0.00     0.014 A 
ATOM     36  C   UNL     1      -9.433   2.597  -2.162  1.00  0.00     0.014 A 
ATOM     37  C   UNL     1      -9.225   4.502  -4.195  1.00  0.00     0.010 A 
ATOM     38  C   UNL     1     -10.527   3.406  -2.472  1.00  0.00     0.010 A 
ATOM     39  C   UNL     1     -10.411   4.411  -3.447  1.00  0.00    -0.014 A 
BRANCH  39  40
ATOM     40  C   UNL     1     -11.509   5.378  -3.703  1.00  0.00     0.031 A 
ATOM     41  C   UNL     1     -12.006   6.301  -2.619  1.00  0.00     0.074 A 
ATOM     42  C   UNL     1     -12.040   5.447  -4.940  1.00  0.00     0.049 A 
ATOM     43  N   UNL     1     -12.959   7.196  -2.682  1.00  0.00    -0.248 NA
ATOM     44  C   UNL     1     -11.358   6.218  -1.298  1.00  0.00     0.031 C 
ATOM     45  C   UNL     1     -11.642   4.608  -6.075  1.00  0.00     0.029 A 
ATOM     46  N   UNL     1     -13.016   6.259  -5.456  1.00  0.00    -0.354 N 
ATOM     47  C   UNL     1     -13.058   7.744  -1.409  1.00  0.00     0.074 A 
ATOM     48  C   UNL     1     -12.067   7.086  -0.587  1.00  0.00     0.031 C 
ATOM     49  C   UNL     1     -12.338   4.975  -7.160  1.00  0.00     0.029 A 
ATOM     50  C   UNL     1     -13.281   6.021  -6.784  1.00  0.00     0.049 A 
ATOM     51  H   UNL     1     -13.482   6.947  -4.928  1.00  0.00     0.167 HD
ATOM     52  C   UNL     1     -13.891   8.716  -0.970  1.00  0.00     0.034 A 
ATOM     53  C   UNL     1     -14.199   6.558  -7.609  1.00  0.00     0.034 A 
ATOM     54  C   UNL     1     -14.845   9.400  -1.800  1.00  0.00     0.049 A 
ATOM     55  C   UNL     1     -15.123   7.616  -7.088  1.00  0.00     0.074 A 
ATOM     56  C   UNL     1     -15.692  10.437  -1.448  1.00  0.00     0.029 A 
ATOM     57  N   UNL     1     -15.085   9.119  -3.134  1.00  0.00    -0.354 N 
ATOM     58  N   UNL     1     -15.153   8.162  -5.898  1.00  0.00    -0.248 NA
ATOM     59  C   UNL     1     -16.129   8.142  -8.021  1.00  0.00     0.031 C 
ATOM     60  C   UNL     1     -16.472  10.758  -2.560  1.00  0.00     0.029 A 
ATOM     61  C   UNL     1     -16.081   9.950  -3.615  1.00  0.00     0.049 A 
ATOM     62  H   UNL     1     -14.618   8.431  -3.661  1.00  0.00     0.167 HD
ATOM     63  C   UNL     1     -16.163   9.114  -5.944  1.00  0.00     0.074 A 
ATOM     64  C   UNL     1     -16.715   9.077  -7.283  1.00  0.00     0.031 C 
ATOM     65  C   UNL     1     -16.595   9.936  -4.959  1.00  0.00     0.034 A 
BRANCH  52  66
ATOM     66  C   UNL     1     -13.811   9.142   0.471  1.00  0.00     0.023 A 
ATOM     67  C   UNL     1     -12.782  10.009   0.884  1.00  0.00     0.012 A 
ATOM     68  C   UNL     1     -14.842   8.806   1.371  1.00  0.00     0.148 A 
ATOM     69  C   UNL     1     -12.781  10.540   2.174  1.00  0.00     0.002 A 
ATOM     70  C   UNL     1     -14.849   9.359   2.646  1.00  0.00     0.091 A 
ATOM     71  F   UNL     1     -15.808   7.976   0.952  1.00  0.00    -0.205 F 
ATOM     72  C   UNL     1     -13.820  10.226   3.048  1.00  0.00     0.022 A 
BRANCH  70  73
ATOM     73  S   UNL     1     -16.161   9.053   3.834  1.00  0.00     0.127 S 
ATOM     74  O   UNL     1     -15.431   8.381   4.909  1.00  0.00    -0.237 OA
ATOM     75  O   UNL     1     -16.607  10.408   4.154  1.00  0.00    -0.237 OA
ATOM     76  O   UNL     1     -17.144   8.226   3.149  1.00  0.00    -0.744 OA
ENDBRANCH  70  73
ENDBRANCH  52  66
BRANCH  53  77
ATOM     77  C   UNL     1     -14.253   6.107  -9.024  1.00  0.00     0.023 A 
ATOM     78  C   UNL     1     -13.761   6.951 -10.036  1.00  0.00     0.012 A 
ATOM     79  C   UNL     1     -14.713   4.818  -9.357  1.00  0.00     0.148 A 
ATOM     80  C   UNL     1     -13.730   6.520 -11.361  1.00  0.00     0.002 A 
ATOM     81  C   UNL     1     -14.648   4.382 -10.674  1.00  0.00     0.091 A 
ATOM     82  F   UNL     1     -15.167   4.034  -8.370  1.00  0.00    -0.205 F 
ATOM     83  C   UNL     1     -14.162   5.234 -11.679  1.00  0.00     0.022 A 
BRANCH  81  84
ATOM     84  S   UNL     1     -15.109   2.719 -11.169  1.00  0.00     0.127 S 
ATOM     85  O   UNL     1     -16.227   2.979 -12.073  1.00  0.00    -0.237 OA
ATOM     86  O   UNL     1     -13.885   2.252 -11.820  1.00  0.00    -0.237 OA
ATOM     87  O   UNL     1     -15.451   2.017  -9.940  1.00  0.00    -0.744 OA
ENDBRANCH  81  84
ENDBRANCH  53  77
BRANCH  65  88
ATOM     88  C   UNL     1     -17.704  10.900  -5.272  1.00  0.00     0.023 A 
ATOM     89  C   UNL     1     -19.033  10.440  -5.327  1.00  0.00     0.012 A 
ATOM     90  C   UNL     1     -17.437  12.280  -5.371  1.00  0.00     0.148 A 
ATOM     91  C   UNL     1     -20.084  11.343  -5.476  1.00  0.00     0.002 A 
ATOM     92  C   UNL     1     -18.491  13.176  -5.487  1.00  0.00     0.091 A 
ATOM     93  F   UNL     1     -16.161  12.688  -5.316  1.00  0.00    -0.205 F 
ATOM     94  C   UNL     1     -19.815  12.709  -5.542  1.00  0.00     0.022 A 
BRANCH  92  95
ATOM     95  S   UNL     1     -18.251  14.955  -5.524  1.00  0.00     0.127 S 
ATOM     96  O   UNL     1     -18.733  15.291  -6.863  1.00  0.00    -0.237 OA
ATOM     97  O   UNL     1     -19.115  15.405  -4.433  1.00  0.00    -0.237 OA
ATOM     98  O   UNL     1     -16.828  15.178  -5.309  1.00  0.00    -0.744 OA
ENDBRANCH  92  95
ENDBRANCH  65  88
ENDBRANCH  39  40
ENDBRANCH  31  34
ENDBRANCH  29  30
ENDBRANCH  28  29
ENDBRANCH   1  28
TORSDOF 18
