REMARK SMILES O=C(NCCCCNC(=O)[C@@H](c1ccccc1)[C@H](C(=O)c1ccccc1)c1ccccc1)c1ccc(-c2c3nc(c(-c4cccc(S(=O)(=O)[O-])c4F)c4ccc([nH]4)c(-c4cccc(S(=O)(=O)[O-])c4F)c4nc(c(-c5cccc(S(=O)(=O)[O-])c5F)c5ccc2[nH]5)C=C4)C=C3)cc1
REMARK SMILES IDX 5 1 4 2 3 3 1 4 2 5 33 7 34 8 95 9 35 10 94 11 36 12 37 13
REMARK SMILES IDX 38 14 88 15 39 16 93 17 87 18 89 19 40 20 92 21 86 22 85 23
REMARK SMILES IDX 41 25 73 26 53 27 72 28 54 29 57 30 71 31 90 32 55 33 56 34
REMARK SMILES IDX 70 36 91 37 58 38 42 39 43 40 51 41 44 42 46 43 52 44 45 45
REMARK SMILES IDX 47 46 48 47 49 48 50 49 74 50 75 51 83 52 76 53 78 54 84 55
REMARK SMILES IDX 77 56 79 57 80 58 81 59 82 60 59 61 60 62 68 63 61 64 63 65
REMARK SMILES IDX 69 66 62 67 64 68 65 69 66 70 67 71 6 72 7 73 8 74 9 75
REMARK SMILES IDX 10 77 11 78 12 79 13 80 17 81 14 82 16 83 15 84 18 85 27 86
REMARK SMILES IDX 28 87 32 88 29 89 31 90 30 91 19 92 20 93 21 94 22 95 26 96
REMARK SMILES IDX 23 97 25 98 24 99
REMARK H PARENT 3 6 89 24 57 35 8 76
REMARK Flexibility Score: inf
ROOT
ATOM      1  C   UNL     1       4.256   4.812   1.401  1.00  0.00     0.023 C 
ENDROOT
BRANCH   1   2
ATOM      2  C   UNL     1       2.792   4.490   1.173  1.00  0.00     0.116 C 
BRANCH   2   3
ATOM      3  N   UNL     1       2.535   3.058   1.087  1.00  0.00    -0.352 N 
ATOM      4  O   UNL     1       1.700   1.069   1.747  1.00  0.00    -0.269 OA
ATOM      5  C   UNL     1       1.682   2.281   1.846  1.00  0.00     0.251 C 
ATOM      6  H   UNL     1       3.040   2.577   0.392  1.00  0.00     0.163 HD
BRANCH   5   7
ATOM      7  C   UNL     1       0.777   2.962   2.800  1.00  0.00     0.039 A 
ATOM      8  C   UNL     1       0.092   4.108   2.399  1.00  0.00     0.014 A 
ATOM      9  C   UNL     1       0.673   2.497   4.113  1.00  0.00     0.014 A 
ATOM     10  C   UNL     1      -0.518   4.903   3.354  1.00  0.00     0.010 A 
ATOM     11  C   UNL     1      -0.060   3.236   5.048  1.00  0.00     0.010 A 
ATOM     12  C   UNL     1      -0.625   4.468   4.687  1.00  0.00    -0.014 A 
BRANCH  12  13
ATOM     13  C   UNL     1      -1.412   5.302   5.631  1.00  0.00     0.031 A 
ATOM     14  C   UNL     1      -0.798   5.919   6.856  1.00  0.00     0.074 A 
ATOM     15  C   UNL     1      -2.700   5.550   5.317  1.00  0.00     0.049 A 
ATOM     16  N   UNL     1      -1.343   6.747   7.711  1.00  0.00    -0.248 NA
ATOM     17  C   UNL     1       0.593   5.561   7.178  1.00  0.00     0.031 C 
ATOM     18  C   UNL     1      -3.413   4.953   4.183  1.00  0.00     0.029 A 
ATOM     19  N   UNL     1      -3.626   6.381   5.888  1.00  0.00    -0.354 N 
ATOM     20  C   UNL     1      -0.383   6.978   8.690  1.00  0.00     0.074 A 
ATOM     21  C   UNL     1       0.781   6.198   8.327  1.00  0.00     0.031 C 
ATOM     22  C   UNL     1      -4.636   5.489   4.098  1.00  0.00     0.029 A 
ATOM     23  C   UNL     1      -4.822   6.414   5.209  1.00  0.00     0.049 A 
ATOM     24  H   UNL     1      -3.453   6.904   6.704  1.00  0.00     0.167 HD
ATOM     25  C   UNL     1      -0.463   7.780   9.779  1.00  0.00     0.034 A 
ATOM     26  C   UNL     1      -5.950   7.106   5.452  1.00  0.00     0.034 A 
ATOM     27  C   UNL     1      -1.612   8.585  10.107  1.00  0.00     0.049 A 
ATOM     28  C   UNL     1      -5.978   8.042   6.622  1.00  0.00     0.074 A 
ATOM     29  C   UNL     1      -1.780   9.452  11.174  1.00  0.00     0.029 A 
ATOM     30  N   UNL     1      -2.786   8.630   9.370  1.00  0.00    -0.354 N 
ATOM     31  N   UNL     1      -5.023   8.318   7.476  1.00  0.00    -0.248 NA
ATOM     32  C   UNL     1      -7.227   8.778   6.851  1.00  0.00     0.031 C 
ATOM     33  C   UNL     1      -3.056  10.019  11.082  1.00  0.00     0.029 A 
ATOM     34  C   UNL     1      -3.680   9.513   9.953  1.00  0.00     0.049 A 
ATOM     35  H   UNL     1      -2.958   8.111   8.552  1.00  0.00     0.167 HD
ATOM     36  C   UNL     1      -5.555   9.257   8.347  1.00  0.00     0.074 A 
ATOM     37  C   UNL     1      -6.899   9.542   7.883  1.00  0.00     0.031 C 
ATOM     38  C   UNL     1      -4.998   9.807   9.454  1.00  0.00     0.034 A 
BRANCH  25  39
ATOM     39  C   UNL     1       0.745   7.876  10.676  1.00  0.00     0.023 A 
ATOM     40  C   UNL     1       1.853   8.640  10.260  1.00  0.00     0.012 A 
ATOM     41  C   UNL     1       0.752   7.290  11.958  1.00  0.00     0.148 A 
ATOM     42  C   UNL     1       2.958   8.806  11.096  1.00  0.00     0.002 A 
ATOM     43  C   UNL     1       1.843   7.488  12.800  1.00  0.00     0.091 A 
ATOM     44  F   UNL     1      -0.302   6.550  12.329  1.00  0.00    -0.205 F 
ATOM     45  C   UNL     1       2.948   8.239  12.368  1.00  0.00     0.022 A 
BRANCH  43  46
ATOM     46  S   UNL     1       1.898   6.858  14.482  1.00  0.00     0.127 S 
ATOM     47  O   UNL     1       2.884   5.784  14.362  1.00  0.00    -0.237 OA
ATOM     48  O   UNL     1       2.358   8.025  15.235  1.00  0.00    -0.237 OA
ATOM     49  O   UNL     1       0.542   6.430  14.795  1.00  0.00    -0.744 OA
ENDBRANCH  43  46
ENDBRANCH  25  39
BRANCH  26  50
ATOM     50  C   UNL     1      -7.113   6.957   4.534  1.00  0.00     0.023 A 
ATOM     51  C   UNL     1      -7.490   8.030   3.705  1.00  0.00     0.012 A 
ATOM     52  C   UNL     1      -7.796   5.731   4.421  1.00  0.00     0.148 A 
ATOM     53  C   UNL     1      -8.538   7.888   2.793  1.00  0.00     0.002 A 
ATOM     54  C   UNL     1      -8.790   5.575   3.463  1.00  0.00     0.091 A 
ATOM     55  F   UNL     1      -7.442   4.724   5.233  1.00  0.00    -0.205 F 
ATOM     56  C   UNL     1      -9.176   6.657   2.659  1.00  0.00     0.022 A 
BRANCH  54  57
ATOM     57  S   UNL     1      -9.511   3.964   3.128  1.00  0.00     0.127 S 
ATOM     58  O   UNL     1     -10.706   3.987   3.965  1.00  0.00    -0.237 OA
ATOM     59  O   UNL     1      -9.766   4.026   1.687  1.00  0.00    -0.237 OA
ATOM     60  O   UNL     1      -8.475   3.009   3.502  1.00  0.00    -0.744 OA
ENDBRANCH  54  57
ENDBRANCH  26  50
BRANCH  38  61
ATOM     61  C   UNL     1      -5.855  10.760  10.241  1.00  0.00     0.023 A 
ATOM     62  C   UNL     1      -6.908  10.249  11.026  1.00  0.00     0.012 A 
ATOM     63  C   UNL     1      -5.606  12.145  10.230  1.00  0.00     0.148 A 
ATOM     64  C   UNL     1      -7.724  11.106  11.762  1.00  0.00     0.002 A 
ATOM     65  C   UNL     1      -6.399  12.990  10.999  1.00  0.00     0.091 A 
ATOM     66  F   UNL     1      -4.617  12.614   9.457  1.00  0.00    -0.205 F 
ATOM     67  C   UNL     1      -7.464  12.475  11.756  1.00  0.00     0.022 A 
BRANCH  65  68
ATOM     68  S   UNL     1      -6.078  14.754  11.104  1.00  0.00     0.127 S 
ATOM     69  O   UNL     1      -7.048  15.292  10.152  1.00  0.00    -0.237 OA
ATOM     70  O   UNL     1      -6.373  15.046  12.507  1.00  0.00    -0.237 OA
ATOM     71  O   UNL     1      -4.676  14.918  10.742  1.00  0.00    -0.744 OA
ENDBRANCH  65  68
ENDBRANCH  38  61
ENDBRANCH  12  13
ENDBRANCH   5   7
ENDBRANCH   2   3
ENDBRANCH   1   2
BRANCH   1  72
ATOM     72  C   UNL     1       5.170   4.329   0.291  1.00  0.00     0.023 C 
BRANCH  72  73
ATOM     73  C   UNL     1       4.834   4.846  -1.105  1.00  0.00     0.116 C 
BRANCH  73  74
ATOM     74  N   UNL     1       4.794   6.290  -1.244  1.00  0.00    -0.356 N 
ATOM     75  C   UNL     1       5.580   7.129  -1.992  1.00  0.00     0.228 C 
ATOM     76  H   UNL     1       4.092   6.738  -0.719  1.00  0.00     0.163 HD
ATOM     77  O   UNL     1       5.371   8.341  -1.893  1.00  0.00    -0.274 OA
BRANCH  75  78
ATOM     78  C   UNL     1       6.713   6.591  -2.902  1.00  0.00     0.124 C 
BRANCH  78  79
ATOM     79  C   UNL     1       7.876   6.010  -2.071  1.00  0.00    -0.035 A 
ATOM     80  C   UNL     1       9.025   5.489  -2.675  1.00  0.00     0.004 A 
ATOM     81  C   UNL     1       7.911   6.100  -0.667  1.00  0.00     0.004 A 
ATOM     82  C   UNL     1      10.033   4.868  -1.927  1.00  0.00     0.000 A 
ATOM     83  C   UNL     1       8.920   5.499   0.093  1.00  0.00     0.000 A 
ATOM     84  C   UNL     1       9.962   4.842  -0.540  1.00  0.00     0.000 A 
ENDBRANCH  78  79
BRANCH  78  85
ATOM     85  C   UNL     1       6.024   5.788  -4.085  1.00  0.00     0.108 C 
BRANCH  85  86
ATOM     86  C   UNL     1       5.086   6.658  -4.960  1.00  0.00    -0.036 A 
ATOM     87  C   UNL     1       5.299   8.028  -5.188  1.00  0.00     0.004 A 
ATOM     88  C   UNL     1       3.976   6.057  -5.585  1.00  0.00     0.004 A 
ATOM     89  C   UNL     1       4.417   8.777  -5.972  1.00  0.00     0.000 A 
ATOM     90  C   UNL     1       3.103   6.806  -6.381  1.00  0.00     0.000 A 
ATOM     91  C   UNL     1       3.319   8.168  -6.568  1.00  0.00     0.000 A 
ENDBRANCH  85  86
BRANCH  85  92
ATOM     92  C   UNL     1       6.987   5.005  -5.001  1.00  0.00     0.171 C 
ATOM     93  O   UNL     1       7.456   5.500  -6.028  1.00  0.00    -0.293 OA
BRANCH  92  94
ATOM     94  C   UNL     1       7.464   3.626  -4.618  1.00  0.00     0.018 A 
ATOM     95  C   UNL     1       8.675   3.186  -5.179  1.00  0.00     0.012 A 
ATOM     96  C   UNL     1       6.849   2.829  -3.649  1.00  0.00     0.012 A 
ATOM     97  C   UNL     1       9.312   2.041  -4.697  1.00  0.00     0.001 A 
ATOM     98  C   UNL     1       7.496   1.692  -3.153  1.00  0.00     0.001 A 
ATOM     99  C   UNL     1       8.736   1.311  -3.662  1.00  0.00     0.000 A 
ENDBRANCH  92  94
ENDBRANCH  85  92
ENDBRANCH  78  85
ENDBRANCH  75  78
ENDBRANCH  73  74
ENDBRANCH  72  73
ENDBRANCH   1  72
TORSDOF 19
