REMARK SMILES [NH3+][C@H](c1ccc(C(=O)NCCCCNC(=O)c2ccc(-c3c4nc(c(-c5cccc(S(=O)(=O)[O-])c5F)c5ccc([nH]5)c(-c5cccc(S(=O)(=O)[O-])c5F)c5nc(c(-c6cccc(S(=O)(=O)[O-])c6F)c6ccc3[nH]6)C=C5)C=C4)cc2)cc1Cl)C(F)(F)F
REMARK SMILES IDX 12 1 11 2 10 3 9 4 7 5 8 6 6 8 3 9 4 10 81 11 5 12 80 13
REMARK SMILES IDX 82 14 2 15 1 16 83 20 84 21 85 22 86 23 13 24 14 25 15 26
REMARK SMILES IDX 16 28 17 29 18 30 79 31 19 32 78 33 20 34 21 35 22 36 72 37
REMARK SMILES IDX 23 38 77 39 71 40 73 41 24 42 76 43 70 44 69 45 25 47 57 48
REMARK SMILES IDX 37 49 56 50 38 51 41 52 55 53 74 54 39 55 40 56 54 58 75 59
REMARK SMILES IDX 42 60 26 61 27 62 35 63 28 64 30 65 36 66 29 67 31 68 32 69
REMARK SMILES IDX 33 70 34 71 58 72 59 73 67 74 60 75 62 76 68 77 61 78 63 79
REMARK SMILES IDX 64 80 65 81 66 82 43 83 44 84 52 85 45 86 47 87 53 88 46 89
REMARK SMILES IDX 48 90 49 91 50 92 51 93
REMARK H PARENT 9 7 1 17 1 18 1 19 14 27 73 46 41 57
REMARK Flexibility Score: inf
ROOT
ATOM      1  C   UNL     1       2.007   2.359  -6.723  1.00  0.00     0.023 C 
ENDROOT
BRANCH   1   2
ATOM      2  C   UNL     1       1.459   2.094  -5.319  1.00  0.00     0.023 C 
BRANCH   2   3
ATOM      3  C   UNL     1       0.843   0.705  -5.128  1.00  0.00     0.116 C 
BRANCH   3   4
ATOM      4  N   UNL     1       1.873  -0.289  -4.896  1.00  0.00    -0.352 N 
ATOM      5  C   UNL     1       2.377  -0.838  -3.745  1.00  0.00     0.251 C 
ATOM      6  O   UNL     1       3.230  -1.720  -3.850  1.00  0.00    -0.269 OA
ATOM      7  H   UNL     1       2.288  -0.635  -5.719  1.00  0.00     0.163 HD
BRANCH   5   8
ATOM      8  C   UNL     1       1.917  -0.456  -2.380  1.00  0.00     0.041 A 
ATOM      9  C   UNL     1       1.082   0.096   0.285  1.00  0.00     0.037 A 
ATOM     10  C   UNL     1       1.628  -1.153  -0.065  1.00  0.00     0.012 A 
ATOM     11  C   UNL     1       0.991   1.069  -0.723  1.00  0.00     0.051 A 
ATOM     12  C   UNL     1       2.034  -1.424  -1.376  1.00  0.00     0.014 A 
ATOM     13  C   UNL     1       1.432   0.802  -2.026  1.00  0.00     0.034 A 
ATOM     14  Cl  UNL     1       0.350   2.651  -0.441  1.00  0.00    -0.084 Cl
BRANCH   9  15
ATOM     15  C   UNL     1       0.597   0.288   1.719  1.00  0.00     0.320 C 
BRANCH  15  16
ATOM     16  N   UNL     1       1.174   1.514   2.336  1.00  0.00    -0.344 N 
ATOM     17  H   UNL     1       0.828   1.609   3.290  1.00  0.00     0.345 HD
ATOM     18  H   UNL     1       0.898   2.331   1.791  1.00  0.00     0.345 HD
ATOM     19  H   UNL     1       2.191   1.441   2.348  1.00  0.00     0.345 HD
ENDBRANCH  15  16
BRANCH  15  20
ATOM     20  C   UNL     1      -0.951   0.099   1.828  1.00  0.00     0.445 C 
ATOM     21  F   UNL     1      -1.334  -1.097   1.317  1.00  0.00    -0.165 F 
ATOM     22  F   UNL     1      -1.353   0.115   3.123  1.00  0.00    -0.165 F 
ATOM     23  F   UNL     1      -1.643   1.061   1.180  1.00  0.00    -0.165 F 
ENDBRANCH  15  20
ENDBRANCH   9  15
ENDBRANCH   5   8
ENDBRANCH   3   4
ENDBRANCH   2   3
ENDBRANCH   1   2
BRANCH   1  24
ATOM     24  C   UNL     1       0.962   2.356  -7.832  1.00  0.00     0.116 C 
BRANCH  24  25
ATOM     25  N   UNL     1      -0.111   3.314  -7.615  1.00  0.00    -0.352 N 
ATOM     26  C   UNL     1      -0.878   3.962  -8.556  1.00  0.00     0.251 C 
ATOM     27  H   UNL     1      -0.315   3.526  -6.676  1.00  0.00     0.163 HD
ATOM     28  O   UNL     1      -1.679   4.821  -8.213  1.00  0.00    -0.269 OA
BRANCH  26  29
ATOM     29  C   UNL     1      -0.691   3.637  -9.986  1.00  0.00     0.039 A 
ATOM     30  C   UNL     1      -0.524   4.683 -10.898  1.00  0.00     0.014 A 
ATOM     31  C   UNL     1      -0.653   2.309 -10.419  1.00  0.00     0.014 A 
ATOM     32  C   UNL     1      -0.264   4.394 -12.239  1.00  0.00     0.010 A 
ATOM     33  C   UNL     1      -0.324   2.024 -11.739  1.00  0.00     0.010 A 
ATOM     34  C   UNL     1      -0.137   3.062 -12.664  1.00  0.00    -0.014 A 
BRANCH  34  35
ATOM     35  C   UNL     1       0.178   2.728 -14.075  1.00  0.00     0.031 A 
ATOM     36  C   UNL     1      -0.819   1.969 -14.907  1.00  0.00     0.074 A 
ATOM     37  C   UNL     1       1.393   3.025 -14.577  1.00  0.00     0.049 A 
ATOM     38  N   UNL     1      -0.706   1.528 -16.132  1.00  0.00    -0.248 NA
ATOM     39  C   UNL     1      -2.102   1.632 -14.265  1.00  0.00     0.031 C 
ATOM     40  C   UNL     1       2.476   3.681 -13.841  1.00  0.00     0.029 A 
ATOM     41  N   UNL     1       1.931   2.787 -15.816  1.00  0.00    -0.354 N 
ATOM     42  C   UNL     1      -1.878   0.829 -16.394  1.00  0.00     0.074 A 
ATOM     43  C   UNL     1      -2.676   0.874 -15.188  1.00  0.00     0.031 C 
ATOM     44  C   UNL     1       3.547   3.795 -14.644  1.00  0.00     0.029 A 
ATOM     45  C   UNL     1       3.236   3.204 -15.941  1.00  0.00     0.049 A 
ATOM     46  H   UNL     1       1.430   2.358 -16.547  1.00  0.00     0.167 HD
ATOM     47  C   UNL     1      -2.272   0.234 -17.544  1.00  0.00     0.034 A 
ATOM     48  C   UNL     1       4.084   3.120 -16.986  1.00  0.00     0.034 A 
ATOM     49  C   UNL     1      -1.503   0.247 -18.758  1.00  0.00     0.049 A 
ATOM     50  C   UNL     1       3.594   2.518 -18.276  1.00  0.00     0.074 A 
ATOM     51  C   UNL     1      -1.853  -0.241 -20.004  1.00  0.00     0.029 A 
ATOM     52  N   UNL     1      -0.230   0.781 -18.880  1.00  0.00    -0.354 N 
ATOM     53  N   UNL     1       2.417   2.010 -18.555  1.00  0.00    -0.248 NA
ATOM     54  C   UNL     1       4.532   2.515 -19.407  1.00  0.00     0.031 C 
ATOM     55  C   UNL     1      -0.786  -0.009 -20.879  1.00  0.00     0.029 A 
ATOM     56  C   UNL     1       0.222   0.636 -20.180  1.00  0.00     0.049 A 
ATOM     57  H   UNL     1       0.279   1.202 -18.149  1.00  0.00     0.167 HD
ATOM     58  C   UNL     1       2.461   1.663 -19.900  1.00  0.00     0.074 A 
ATOM     59  C   UNL     1       3.774   2.036 -20.385  1.00  0.00     0.031 C 
ATOM     60  C   UNL     1       1.507   1.072 -20.662  1.00  0.00     0.034 A 
BRANCH  47  61
ATOM     61  C   UNL     1      -3.627  -0.422 -17.561  1.00  0.00     0.023 A 
ATOM     62  C   UNL     1      -4.785   0.384 -17.551  1.00  0.00     0.012 A 
ATOM     63  C   UNL     1      -3.760  -1.821 -17.637  1.00  0.00     0.148 A 
ATOM     64  C   UNL     1      -6.053  -0.193 -17.578  1.00  0.00     0.002 A 
ATOM     65  C   UNL     1      -5.028  -2.388 -17.708  1.00  0.00     0.091 A 
ATOM     66  F   UNL     1      -2.650  -2.572 -17.622  1.00  0.00    -0.205 F 
ATOM     67  C   UNL     1      -6.175  -1.577 -17.667  1.00  0.00     0.022 A 
BRANCH  65  68
ATOM     68  S   UNL     1      -5.289  -4.155 -17.900  1.00  0.00     0.127 S 
ATOM     69  O   UNL     1      -5.761  -4.530 -16.569  1.00  0.00    -0.237 OA
ATOM     70  O   UNL     1      -6.311  -4.205 -18.946  1.00  0.00    -0.237 OA
ATOM     71  O   UNL     1      -3.999  -4.709 -18.288  1.00  0.00    -0.744 OA
ENDBRANCH  65  68
ENDBRANCH  47  61
BRANCH  48  72
ATOM     72  C   UNL     1       5.452   3.700 -16.882  1.00  0.00     0.023 A 
ATOM     73  C   UNL     1       5.754   4.878 -17.594  1.00  0.00     0.012 A 
ATOM     74  C   UNL     1       6.441   3.120 -16.066  1.00  0.00     0.148 A 
ATOM     75  C   UNL     1       7.024   5.449 -17.521  1.00  0.00     0.002 A 
ATOM     76  C   UNL     1       7.689   3.723 -15.956  1.00  0.00     0.091 A 
ATOM     77  F   UNL     1       6.139   1.992 -15.406  1.00  0.00    -0.205 F 
ATOM     78  C   UNL     1       7.989   4.878 -16.695  1.00  0.00     0.022 A 
BRANCH  76  79
ATOM     79  S   UNL     1       8.946   3.129 -14.818  1.00  0.00     0.127 S 
ATOM     80  O   UNL     1       9.901   2.500 -15.726  1.00  0.00    -0.237 OA
ATOM     81  O   UNL     1       9.409   4.372 -14.199  1.00  0.00    -0.237 OA
ATOM     82  O   UNL     1       8.250   2.232 -13.904  1.00  0.00    -0.744 OA
ENDBRANCH  76  79
ENDBRANCH  48  72
BRANCH  60  83
ATOM     83  C   UNL     1       1.824   0.823 -22.112  1.00  0.00     0.023 A 
ATOM     84  C   UNL     1       2.708  -0.216 -22.463  1.00  0.00     0.012 A 
ATOM     85  C   UNL     1       1.182   1.560 -23.126  1.00  0.00     0.148 A 
ATOM     86  C   UNL     1       2.968  -0.500 -23.803  1.00  0.00     0.002 A 
ATOM     87  C   UNL     1       1.411   1.241 -24.459  1.00  0.00     0.091 A 
ATOM     88  F   UNL     1       0.361   2.558 -22.770  1.00  0.00    -0.205 F 
ATOM     89  C   UNL     1       2.311   0.218 -24.800  1.00  0.00     0.022 A 
BRANCH  87  90
ATOM     90  S   UNL     1       0.535   2.052 -25.802  1.00  0.00     0.127 S 
ATOM     91  O   UNL     1       1.560   2.951 -26.327  1.00  0.00    -0.237 OA
ATOM     92  O   UNL     1       0.200   0.930 -26.680  1.00  0.00    -0.237 OA
ATOM     93  O   UNL     1      -0.618   2.700 -25.190  1.00  0.00    -0.744 OA
ENDBRANCH  87  90
ENDBRANCH  60  83
ENDBRANCH  34  35
ENDBRANCH  26  29
ENDBRANCH  24  25
ENDBRANCH   1  24
TORSDOF 17
