REMARK SMILES CC1=C(C)C[C@H](C(=O)N[C@@H](C)CCc2ccccc2)[C@@H](C(=O)NCCCCNC(=O)c2ccc(-c3c4nc(c(-c5cccc(S(=O)(=O)[O-])c5F)c5ccc([nH]5)c(-c5cccc(S(=O)(=O)[O-])c5F)c5nc(c(-c6cccc(S(=O)(=O)[O-])c6F)c6ccc3[nH]6)C=C5)C=C4)cc2)C1
REMARK SMILES IDX 24 1 23 2 21 3 22 4 20 6 1 7 2 8 3 9 94 10 4 11 5 12 6 13
REMARK SMILES IDX 7 14 8 15 9 16 10 18 11 19 12 20 13 21 14 22 15 23 19 24
REMARK SMILES IDX 16 25 18 26 17 27 25 28 26 29 27 30 28 31 29 32 30 34 31 35
REMARK SMILES IDX 32 36 93 37 33 38 92 39 34 40 35 41 36 42 86 43 37 44 91 45
REMARK SMILES IDX 85 46 87 47 38 48 90 49 84 50 83 51 39 53 71 54 51 55 70 56
REMARK SMILES IDX 52 57 55 58 69 59 88 60 53 61 54 62 68 64 89 65 56 66 40 67
REMARK SMILES IDX 41 68 49 69 42 70 44 71 50 72 43 73 45 74 46 75 47 76 48 77
REMARK SMILES IDX 72 78 73 79 81 80 74 81 76 82 82 83 75 84 77 85 78 86 79 87
REMARK SMILES IDX 80 88 57 89 58 90 66 91 59 92 61 93 67 94 60 95 62 96 63 97
REMARK SMILES IDX 64 98 65 99
REMARK H PARENT 23 5 9 17 28 33 87 52 55 63
REMARK Flexibility Score: inf
ROOT
ATOM      1  C   UNL     1       0.646   3.445   3.393  1.00  0.00     0.116 C 
ENDROOT
BRANCH   1   2
ATOM      2  N   UNL     1       0.963   2.704   4.598  1.00  0.00    -0.356 N 
ATOM      3  C   UNL     1       0.831   1.363   4.838  1.00  0.00     0.224 C 
ATOM      4  O   UNL     1       1.289   0.923   5.893  1.00  0.00    -0.275 OA
ATOM      5  H   UNL     1       1.321   3.237   5.344  1.00  0.00     0.163 HD
BRANCH   3   6
ATOM      6  C   UNL     1       0.191   0.454   3.777  1.00  0.00     0.095 C 
ATOM      7  C   UNL     1       1.825  -1.127   0.607  1.00  0.00     0.039 C 
ATOM      8  C   UNL     1       1.182  -1.148   1.969  1.00  0.00    -0.074 C 
ATOM      9  C   UNL     1       0.639  -2.237   2.548  1.00  0.00    -0.074 C 
ATOM     10  C   UNL     1       1.264   0.167   2.713  1.00  0.00     0.045 C 
ATOM     11  C   UNL     1       0.661  -3.632   1.974  1.00  0.00     0.039 C 
ATOM     12  C   UNL     1       0.024  -2.164   3.925  1.00  0.00     0.045 C 
ATOM     13  C   UNL     1      -0.446  -0.793   4.424  1.00  0.00     0.095 C 
BRANCH  13  14
ATOM     14  C   UNL     1      -1.976  -0.697   4.473  1.00  0.00     0.224 C 
ATOM     15  O   UNL     1      -2.566  -0.765   5.557  1.00  0.00    -0.275 OA
ATOM     16  N   UNL     1      -2.767  -0.541   3.378  1.00  0.00    -0.353 N 
ATOM     17  H   UNL     1      -3.700  -0.305   3.587  1.00  0.00     0.163 HD
BRANCH  16  18
ATOM     18  C   UNL     1      -2.489  -0.658   1.951  1.00  0.00     0.079 C 
ATOM     19  C   UNL     1      -2.859  -2.073   1.497  1.00  0.00     0.031 C 
BRANCH  18  20
ATOM     20  C   UNL     1      -3.308   0.358   1.126  1.00  0.00     0.029 C 
BRANCH  20  21
ATOM     21  C   UNL     1      -2.961   1.837   1.353  1.00  0.00     0.037 C 
BRANCH  21  22
ATOM     22  C   UNL     1      -1.783   2.437   0.614  1.00  0.00    -0.048 A 
ATOM     23  C   UNL     1      -0.794   1.690  -0.033  1.00  0.00     0.004 A 
ATOM     24  C   UNL     1      -1.643   3.836   0.628  1.00  0.00     0.004 A 
ATOM     25  C   UNL     1       0.328   2.316  -0.591  1.00  0.00     0.000 A 
ATOM     26  C   UNL     1      -0.531   4.462   0.057  1.00  0.00     0.000 A 
ATOM     27  C   UNL     1       0.470   3.698  -0.531  1.00  0.00     0.000 A 
ENDBRANCH  21  22
ENDBRANCH  20  21
ENDBRANCH  18  20
ENDBRANCH  16  18
ENDBRANCH  13  14
ENDBRANCH   3   6
ENDBRANCH   1   2
BRANCH   1  28
ATOM     28  C   UNL     1       0.178   4.874   3.659  1.00  0.00     0.023 C 
BRANCH  28  29
ATOM     29  C   UNL     1       1.243   5.857   4.139  1.00  0.00     0.023 C 
BRANCH  29  30
ATOM     30  C   UNL     1       2.507   5.957   3.291  1.00  0.00     0.116 C 
BRANCH  30  31
ATOM     31  N   UNL     1       2.280   6.414   1.925  1.00  0.00    -0.352 N 
ATOM     32  C   UNL     1       2.814   7.489   1.247  1.00  0.00     0.251 C 
ATOM     33  H   UNL     1       1.645   5.870   1.406  1.00  0.00     0.163 HD
ATOM     34  O   UNL     1       2.429   7.737   0.105  1.00  0.00    -0.269 OA
BRANCH  32  35
ATOM     35  C   UNL     1       3.813   8.370   1.899  1.00  0.00     0.039 A 
ATOM     36  C   UNL     1       3.665   9.758   1.806  1.00  0.00     0.014 A 
ATOM     37  C   UNL     1       4.873   7.837   2.634  1.00  0.00     0.014 A 
ATOM     38  C   UNL     1       4.504  10.600   2.544  1.00  0.00     0.010 A 
ATOM     39  C   UNL     1       5.645   8.670   3.441  1.00  0.00     0.010 A 
ATOM     40  C   UNL     1       5.462  10.061   3.419  1.00  0.00    -0.014 A 
BRANCH  40  41
ATOM     41  C   UNL     1       6.249  10.918   4.351  1.00  0.00     0.031 A 
ATOM     42  C   UNL     1       7.755  10.923   4.298  1.00  0.00     0.074 A 
ATOM     43  C   UNL     1       5.613  11.598   5.330  1.00  0.00     0.049 A 
ATOM     44  N   UNL     1       8.607  11.521   5.090  1.00  0.00    -0.248 NA
ATOM     45  C   UNL     1       8.391  10.125   3.235  1.00  0.00     0.031 C 
ATOM     46  C   UNL     1       4.165  11.608   5.554  1.00  0.00     0.029 A 
ATOM     47  N   UNL     1       6.105  12.386   6.343  1.00  0.00    -0.354 N 
ATOM     48  C   UNL     1       9.870  11.135   4.657  1.00  0.00     0.074 A 
ATOM     49  C   UNL     1       9.675  10.232   3.545  1.00  0.00     0.031 C 
ATOM     50  C   UNL     1       3.887  12.363   6.629  1.00  0.00     0.029 A 
ATOM     51  C   UNL     1       5.134  12.866   7.194  1.00  0.00     0.049 A 
ATOM     52  H   UNL     1       7.062  12.588   6.451  1.00  0.00     0.167 HD
ATOM     53  C   UNL     1      11.082  11.517   5.123  1.00  0.00     0.034 A 
ATOM     54  C   UNL     1       5.235  13.617   8.310  1.00  0.00     0.034 A 
ATOM     55  C   UNL     1      11.277  12.467   6.185  1.00  0.00     0.049 A 
ATOM     56  C   UNL     1       6.596  14.074   8.765  1.00  0.00     0.074 A 
ATOM     57  C   UNL     1      12.465  13.004   6.649  1.00  0.00     0.029 A 
ATOM     58  N   UNL     1      10.263  13.017   6.951  1.00  0.00    -0.354 N 
ATOM     59  N   UNL     1       7.767  13.841   8.226  1.00  0.00    -0.248 NA
ATOM     60  C   UNL     1       6.646  14.930   9.961  1.00  0.00     0.031 C 
ATOM     61  C   UNL     1      12.171  13.864   7.711  1.00  0.00     0.029 A 
ATOM     62  C   UNL     1      10.798  13.881   7.891  1.00  0.00     0.049 A 
ATOM     63  H   UNL     1       9.304  12.823   6.843  1.00  0.00     0.167 HD
ATOM     64  C   UNL     1       8.685  14.554   8.989  1.00  0.00     0.074 A 
ATOM     65  C   UNL     1       7.932  15.244  10.015  1.00  0.00     0.031 C 
ATOM     66  C   UNL     1      10.033  14.618   8.862  1.00  0.00     0.034 A 
BRANCH  53  67
ATOM     67  C   UNL     1      12.310  10.960   4.450  1.00  0.00     0.023 A 
ATOM     68  C   UNL     1      12.663  11.412   3.163  1.00  0.00     0.012 A 
ATOM     69  C   UNL     1      13.162  10.065   5.127  1.00  0.00     0.148 A 
ATOM     70  C   UNL     1      13.831  10.965   2.549  1.00  0.00     0.002 A 
ATOM     71  C   UNL     1      14.348   9.658   4.526  1.00  0.00     0.091 A 
ATOM     72  F   UNL     1      12.800   9.634   6.344  1.00  0.00    -0.205 F 
ATOM     73  C   UNL     1      14.678  10.099   3.234  1.00  0.00     0.022 A 
BRANCH  71  74
ATOM     74  S   UNL     1      15.549   8.609   5.354  1.00  0.00     0.127 S 
ATOM     75  O   UNL     1      15.468   7.384   4.559  1.00  0.00    -0.237 OA
ATOM     76  O   UNL     1      16.788   9.367   5.181  1.00  0.00    -0.237 OA
ATOM     77  O   UNL     1      15.095   8.486   6.733  1.00  0.00    -0.744 OA
ENDBRANCH  71  74
ENDBRANCH  53  67
BRANCH  54  78
ATOM     78  C   UNL     1       4.010  14.044   9.048  1.00  0.00     0.023 A 
ATOM     79  C   UNL     1       3.643  15.405   9.044  1.00  0.00     0.012 A 
ATOM     80  C   UNL     1       3.215  13.123   9.757  1.00  0.00     0.148 A 
ATOM     81  C   UNL     1       2.535  15.847   9.767  1.00  0.00     0.002 A 
ATOM     82  C   UNL     1       2.078  13.563  10.428  1.00  0.00     0.091 A 
ATOM     83  F   UNL     1       3.585  11.835   9.765  1.00  0.00    -0.205 F 
ATOM     84  C   UNL     1       1.748  14.926  10.452  1.00  0.00     0.022 A 
BRANCH  82  85
ATOM     85  S   UNL     1       0.938  12.425  11.224  1.00  0.00     0.127 S 
ATOM     86  O   UNL     1       1.268  12.608  12.635  1.00  0.00    -0.237 OA
ATOM     87  O   UNL     1      -0.362  12.962  10.820  1.00  0.00    -0.237 OA
ATOM     88  O   UNL     1       1.243  11.117  10.660  1.00  0.00    -0.744 OA
ENDBRANCH  82  85
ENDBRANCH  54  78
BRANCH  66  89
ATOM     89  C   UNL     1      10.789  15.502   9.819  1.00  0.00     0.023 A 
ATOM     90  C   UNL     1      10.943  15.113  11.164  1.00  0.00     0.012 A 
ATOM     91  C   UNL     1      11.414  16.680   9.364  1.00  0.00     0.148 A 
ATOM     92  C   UNL     1      11.681  15.898  12.048  1.00  0.00     0.002 A 
ATOM     93  C   UNL     1      12.189  17.431  10.238  1.00  0.00     0.091 A 
ATOM     94  F   UNL     1      11.239  17.044   8.084  1.00  0.00    -0.205 F 
ATOM     95  C   UNL     1      12.313  17.049  11.584  1.00  0.00     0.022 A 
BRANCH  93  96
ATOM     96  S   UNL     1      13.120  18.871   9.703  1.00  0.00     0.127 S 
ATOM     97  O   UNL     1      12.344  19.963  10.288  1.00  0.00    -0.237 OA
ATOM     98  O   UNL     1      14.425  18.647  10.327  1.00  0.00    -0.237 OA
ATOM     99  O   UNL     1      13.133  18.822   8.247  1.00  0.00    -0.744 OA
ENDBRANCH  93  96
ENDBRANCH  66  89
ENDBRANCH  40  41
ENDBRANCH  32  35
ENDBRANCH  30  31
ENDBRANCH  29  30
ENDBRANCH  28  29
ENDBRANCH   1  28
TORSDOF 19
