REMARK SMILES C[C@H]1CCC[C@H](C)N1C(=O)[C@H]1[C@@H](C(=O)NCCCCNC(=O)c2ccc(-c3c4nc(c(-c5cccc(S(=O)(=O)[O-])c5F)c5ccc([nH]5)c(-c5cccc(S(=O)(=O)[O-])c5F)c5nc(c(-c6cccc(S(=O)(=O)[O-])c6F)c6ccc3[nH]6)C=C5)C=C4)cc2)[C@H]2CC[C@@H]1O2
REMARK SMILES IDX 18 1 17 2 16 3 15 4 13 5 14 6 12 8 11 9 89 10 86 11 88 12
REMARK SMILES IDX 90 13 87 14 9 15 1 16 2 17 3 18 8 19 4 20 6 21 5 22 7 23
REMARK SMILES IDX 10 24 19 25 20 26 21 27 22 29 23 30 24 31 85 32 25 33 84 34
REMARK SMILES IDX 26 35 27 36 28 37 78 38 29 39 83 40 77 41 79 42 30 43 82 44
REMARK SMILES IDX 76 45 75 46 31 48 63 49 43 50 62 51 44 52 47 53 61 54 80 55
REMARK SMILES IDX 45 56 46 57 60 59 81 60 48 61 32 62 33 63 41 64 34 65 36 66
REMARK SMILES IDX 42 67 35 68 37 69 38 70 39 71 40 72 64 73 65 74 73 75 66 76
REMARK SMILES IDX 68 77 74 78 67 79 69 80 70 81 71 82 72 83 49 84 50 85 58 86
REMARK SMILES IDX 51 87 53 88 59 89 52 90 54 91 55 92 56 93 57 94
REMARK H PARENT 15 7 20 28 79 47 47 58
REMARK Flexibility Score: inf
ROOT
ATOM      1  C   UNL     1       1.728   3.860  -1.520  1.00  0.00     0.023 C 
ENDROOT
BRANCH   1   2
ATOM      2  C   UNL     1       1.237   2.707  -0.658  1.00  0.00     0.023 C 
BRANCH   2   3
ATOM      3  C   UNL     1       2.090   2.381   0.569  1.00  0.00     0.116 C 
BRANCH   3   4
ATOM      4  N   UNL     1       2.013   3.375   1.640  1.00  0.00    -0.356 N 
ATOM      5  C   UNL     1       1.899   3.202   3.004  1.00  0.00     0.226 C 
ATOM      6  O   UNL     1       2.062   4.167   3.745  1.00  0.00    -0.275 OA
ATOM      7  H   UNL     1       2.048   4.313   1.341  1.00  0.00     0.163 HD
BRANCH   5   8
ATOM      8  C   UNL     1       1.565   1.830   3.535  1.00  0.00     0.122 C 
ATOM      9  C   UNL     1       0.124   1.488   3.941  1.00  0.00     0.122 C 
ATOM     10  C   UNL     1       0.400   0.470   5.090  1.00  0.00     0.132 C 
ATOM     11  C   UNL     1       2.373   1.327   4.731  1.00  0.00     0.132 C 
ATOM     12  C   UNL     1       0.726   1.044   6.452  1.00  0.00     0.035 C 
ATOM     13  O   UNL     1       1.758  -0.002   4.768  1.00  0.00    -0.373 OA
ATOM     14  C   UNL     1       2.013   1.809   6.144  1.00  0.00     0.035 C 
BRANCH   9  15
ATOM     15  C   UNL     1      -0.808   2.669   4.258  1.00  0.00     0.229 C 
ATOM     16  C   UNL     1      -1.497   1.735   1.302  1.00  0.00     0.031 C 
ATOM     17  C   UNL     1      -1.460   3.192   1.783  1.00  0.00     0.082 C 
ATOM     18  C   UNL     1      -2.635   3.868   1.033  1.00  0.00     0.025 C 
ATOM     19  N   UNL     1      -1.474   3.404   3.259  1.00  0.00    -0.337 N 
ATOM     20  C   UNL     1      -2.935   5.282   1.476  1.00  0.00     0.004 C 
ATOM     21  C   UNL     1      -1.943   4.747   3.720  1.00  0.00     0.082 C 
ATOM     22  C   UNL     1      -3.172   5.263   2.970  1.00  0.00     0.025 C 
ATOM     23  C   UNL     1      -0.799   5.773   3.674  1.00  0.00     0.031 C 
ATOM     24  O   UNL     1      -0.979   2.982   5.441  1.00  0.00    -0.274 OA
ENDBRANCH   9  15
ENDBRANCH   5   8
ENDBRANCH   3   4
ENDBRANCH   2   3
ENDBRANCH   1   2
BRANCH   1  25
ATOM     25  C   UNL     1       3.099   3.645  -2.141  1.00  0.00     0.116 C 
BRANCH  25  26
ATOM     26  N   UNL     1       3.178   2.433  -2.950  1.00  0.00    -0.352 N 
ATOM     27  C   UNL     1       3.655   2.278  -4.235  1.00  0.00     0.251 C 
ATOM     28  H   UNL     1       2.845   1.613  -2.519  1.00  0.00     0.163 HD
ATOM     29  O   UNL     1       3.531   1.219  -4.821  1.00  0.00    -0.269 OA
BRANCH  27  30
ATOM     30  C   UNL     1       4.289   3.440  -4.894  1.00  0.00     0.039 A 
ATOM     31  C   UNL     1       3.843   3.829  -6.158  1.00  0.00     0.014 A 
ATOM     32  C   UNL     1       5.255   4.187  -4.215  1.00  0.00     0.014 A 
ATOM     33  C   UNL     1       4.299   5.031  -6.701  1.00  0.00     0.010 A 
ATOM     34  C   UNL     1       5.637   5.423  -4.718  1.00  0.00     0.010 A 
ATOM     35  C   UNL     1       5.157   5.862  -5.960  1.00  0.00    -0.014 A 
BRANCH  35  36
ATOM     36  C   UNL     1       5.528   7.216  -6.439  1.00  0.00     0.031 A 
ATOM     37  C   UNL     1       6.970   7.559  -6.692  1.00  0.00     0.074 A 
ATOM     38  C   UNL     1       4.577   8.168  -6.532  1.00  0.00     0.049 A 
ATOM     39  N   UNL     1       7.494   8.705  -7.039  1.00  0.00    -0.248 NA
ATOM     40  C   UNL     1       7.956   6.483  -6.499  1.00  0.00     0.031 C 
ATOM     41  C   UNL     1       3.158   7.981  -6.217  1.00  0.00     0.029 A 
ATOM     42  N   UNL     1       4.664   9.491  -6.888  1.00  0.00    -0.354 N 
ATOM     43  C   UNL     1       8.867   8.500  -7.070  1.00  0.00     0.074 A 
ATOM     44  C   UNL     1       9.100   7.130  -6.670  1.00  0.00     0.031 C 
ATOM     45  C   UNL     1       2.509   9.142  -6.398  1.00  0.00     0.029 A 
ATOM     46  C   UNL     1       3.466  10.163  -6.812  1.00  0.00     0.049 A 
ATOM     47  H   UNL     1       5.504   9.918  -7.170  1.00  0.00     0.167 HD
ATOM     48  C   UNL     1       9.845   9.364  -7.431  1.00  0.00     0.034 A 
ATOM     49  C   UNL     1       3.172  11.458  -7.042  1.00  0.00     0.034 A 
ATOM     50  C   UNL     1       9.602  10.709  -7.874  1.00  0.00     0.049 A 
ATOM     51  C   UNL     1       4.271  12.384  -7.486  1.00  0.00     0.074 A 
ATOM     52  C   UNL     1      10.511  11.630  -8.364  1.00  0.00     0.029 A 
ATOM     53  N   UNL     1       8.364  11.331  -7.872  1.00  0.00    -0.354 N 
ATOM     54  N   UNL     1       5.540  12.122  -7.684  1.00  0.00    -0.248 NA
ATOM     55  C   UNL     1       3.893  13.776  -7.769  1.00  0.00     0.031 C 
ATOM     56  C   UNL     1       9.825  12.817  -8.637  1.00  0.00     0.029 A 
ATOM     57  C   UNL     1       8.485  12.629  -8.337  1.00  0.00     0.049 A 
ATOM     58  H   UNL     1       7.522  10.912  -7.582  1.00  0.00     0.167 HD
ATOM     59  C   UNL     1       6.107  13.306  -8.139  1.00  0.00     0.074 A 
ATOM     60  C   UNL     1       5.037  14.279  -8.215  1.00  0.00     0.031 C 
ATOM     61  C   UNL     1       7.401  13.571  -8.448  1.00  0.00     0.034 A 
BRANCH  48  62
ATOM     62  C   UNL     1      11.262   8.857  -7.423  1.00  0.00     0.023 A 
ATOM     63  C   UNL     1      11.672   7.930  -8.404  1.00  0.00     0.012 A 
ATOM     64  C   UNL     1      12.201   9.334  -6.489  1.00  0.00     0.148 A 
ATOM     65  C   UNL     1      12.985   7.460  -8.435  1.00  0.00     0.002 A 
ATOM     66  C   UNL     1      13.518   8.895  -6.553  1.00  0.00     0.091 A 
ATOM     67  F   UNL     1      11.787  10.196  -5.549  1.00  0.00    -0.205 F 
ATOM     68  C   UNL     1      13.909   7.951  -7.517  1.00  0.00     0.022 A 
BRANCH  66  69
ATOM     69  S   UNL     1      14.803   9.521  -5.465  1.00  0.00     0.127 S 
ATOM     70  O   UNL     1      15.056   8.363  -4.610  1.00  0.00    -0.237 OA
ATOM     71  O   UNL     1      15.880   9.830  -6.407  1.00  0.00    -0.237 OA
ATOM     72  O   UNL     1      14.232  10.681  -4.795  1.00  0.00    -0.744 OA
ENDBRANCH  66  69
ENDBRANCH  48  62
BRANCH  49  73
ATOM     73  C   UNL     1       1.766  11.936  -6.920  1.00  0.00     0.023 A 
ATOM     74  C   UNL     1       1.055  12.291  -8.083  1.00  0.00     0.012 A 
ATOM     75  C   UNL     1       1.119  12.010  -5.671  1.00  0.00     0.148 A 
ATOM     76  C   UNL     1      -0.264  12.740  -8.002  1.00  0.00     0.002 A 
ATOM     77  C   UNL     1      -0.213  12.404  -5.604  1.00  0.00     0.091 A 
ATOM     78  F   UNL     1       1.815  11.681  -4.574  1.00  0.00    -0.205 F 
ATOM     79  C   UNL     1      -0.901  12.787  -6.765  1.00  0.00     0.022 A 
BRANCH  77  80
ATOM     80  S   UNL     1      -1.151  12.358  -4.072  1.00  0.00     0.127 S 
ATOM     81  O   UNL     1      -1.281  13.777  -3.756  1.00  0.00    -0.237 OA
ATOM     82  O   UNL     1      -2.391  11.704  -4.495  1.00  0.00    -0.237 OA
ATOM     83  O   UNL     1      -0.348  11.570  -3.146  1.00  0.00    -0.744 OA
ENDBRANCH  77  80
ENDBRANCH  49  73
BRANCH  61  84
ATOM     84  C   UNL     1       7.734  14.965  -8.909  1.00  0.00     0.023 A 
ATOM     85  C   UNL     1       7.741  16.023  -7.978  1.00  0.00     0.012 A 
ATOM     86  C   UNL     1       8.110  15.214 -10.244  1.00  0.00     0.148 A 
ATOM     87  C   UNL     1       8.088  17.313  -8.375  1.00  0.00     0.002 A 
ATOM     88  C   UNL     1       8.501  16.493 -10.621  1.00  0.00     0.091 A 
ATOM     89  F   UNL     1       8.079  14.198 -11.117  1.00  0.00    -0.205 F 
ATOM     90  C   UNL     1       8.479  17.546  -9.691  1.00  0.00     0.022 A 
BRANCH  88  91
ATOM     91  S   UNL     1       9.110  16.867 -12.269  1.00  0.00     0.127 S 
ATOM     92  O   UNL     1       7.996  17.630 -12.832  1.00  0.00    -0.237 OA
ATOM     93  O   UNL     1      10.309  17.657 -11.985  1.00  0.00    -0.237 OA
ATOM     94  O   UNL     1       9.370  15.581 -12.902  1.00  0.00    -0.744 OA
ENDBRANCH  88  91
ENDBRANCH  61  84
ENDBRANCH  35  36
ENDBRANCH  27  30
ENDBRANCH  25  26
ENDBRANCH   1  25
TORSDOF 15
