REMARK SMILES O=C(NCCCCNC(=O)[C@H]1C[N@H+](Cc2ccc(Cl)c(Cl)c2)CC12CCCCC2)c1ccc(-c2c3nc(c(-c4cccc(S(=O)(=O)[O-])c4F)c4ccc([nH]4)c(-c4cccc(S(=O)(=O)[O-])c4F)c4nc(c(-c5cccc(S(=O)(=O)[O-])c5F)c5ccc2[nH]5)C=C4)C=C3)cc1
REMARK SMILES IDX 5 1 4 2 3 3 1 4 2 5 30 7 31 8 92 9 32 10 91 11 33 12 34 13
REMARK SMILES IDX 35 14 85 15 36 16 90 17 84 18 86 19 37 20 89 21 83 22 82 23
REMARK SMILES IDX 38 25 70 26 50 27 69 28 51 29 54 30 68 31 87 32 52 33 53 34
REMARK SMILES IDX 67 36 88 37 55 38 39 39 40 40 48 41 41 42 43 43 49 44 42 45
REMARK SMILES IDX 44 46 45 47 46 48 47 49 71 50 72 51 80 52 73 53 75 54 81 55
REMARK SMILES IDX 74 56 76 57 77 58 78 59 79 60 56 61 57 62 65 63 58 64 60 65
REMARK SMILES IDX 66 66 59 67 61 68 62 69 63 70 64 71 6 72 7 73 8 74 9 75
REMARK SMILES IDX 10 77 11 78 12 79 24 80 13 81 23 82 25 83 29 84 26 86 28 87
REMARK SMILES IDX 27 88 14 89 15 90 16 91 22 92 17 93 20 94 18 95 21 96 19 97
REMARK H PARENT 3 6 86 24 54 35 8 76 13 85
REMARK Flexibility Score: inf
ROOT
ATOM      1  C   UNL     1       4.738   0.184  -2.709  1.00  0.00     0.023 C 
ENDROOT
BRANCH   1   2
ATOM      2  C   UNL     1       4.425   0.304  -1.233  1.00  0.00     0.116 C 
BRANCH   2   3
ATOM      3  N   UNL     1       3.006   0.479  -0.956  1.00  0.00    -0.352 N 
ATOM      4  O   UNL     1       1.066   0.060   0.133  1.00  0.00    -0.269 OA
ATOM      5  C   UNL     1       2.284  -0.072   0.079  1.00  0.00     0.251 C 
ATOM      6  H   UNL     1       2.507   1.056  -1.578  1.00  0.00     0.163 HD
BRANCH   5   7
ATOM      7  C   UNL     1       3.014  -0.861   1.091  1.00  0.00     0.039 A 
ATOM      8  C   UNL     1       4.189  -0.346   1.642  1.00  0.00     0.014 A 
ATOM      9  C   UNL     1       2.586  -2.151   1.407  1.00  0.00     0.014 A 
ATOM     10  C   UNL     1       5.025  -1.182   2.363  1.00  0.00     0.010 A 
ATOM     11  C   UNL     1       3.378  -2.955   2.233  1.00  0.00     0.010 A 
ATOM     12  C   UNL     1       4.622  -2.489   2.687  1.00  0.00    -0.014 A 
BRANCH  12  13
ATOM     13  C   UNL     1       5.495  -3.290   3.581  1.00  0.00     0.031 A 
ATOM     14  C   UNL     1       6.134  -4.574   3.133  1.00  0.00     0.074 A 
ATOM     15  C   UNL     1       5.745  -2.796   4.811  1.00  0.00     0.049 A 
ATOM     16  N   UNL     1       6.987  -5.328   3.779  1.00  0.00    -0.248 NA
ATOM     17  C   UNL     1       5.770  -5.088   1.804  1.00  0.00     0.031 C 
ATOM     18  C   UNL     1       5.127  -1.588   5.367  1.00  0.00     0.029 A 
ATOM     19  N   UNL     1       6.591  -3.221   5.800  1.00  0.00    -0.354 N 
ATOM     20  C   UNL     1       7.234  -6.421   2.957  1.00  0.00     0.074 A 
ATOM     21  C   UNL     1       6.436  -6.236   1.764  1.00  0.00     0.031 C 
ATOM     22  C   UNL     1       5.657  -1.336   6.571  1.00  0.00     0.029 A 
ATOM     23  C   UNL     1       6.604  -2.394   6.899  1.00  0.00     0.049 A 
ATOM     24  H   UNL     1       7.136  -4.038   5.731  1.00  0.00     0.167 HD
ATOM     25  C   UNL     1       8.065  -7.470   3.173  1.00  0.00     0.034 A 
ATOM     26  C   UNL     1       7.297  -2.476   8.049  1.00  0.00     0.034 A 
ATOM     27  C   UNL     1       8.883  -7.623   4.348  1.00  0.00     0.049 A 
ATOM     28  C   UNL     1       8.260  -3.611   8.226  1.00  0.00     0.074 A 
ATOM     29  C   UNL     1       9.779  -8.635   4.649  1.00  0.00     0.029 A 
ATOM     30  N   UNL     1       8.913  -6.737   5.416  1.00  0.00    -0.354 N 
ATOM     31  N   UNL     1       8.555  -4.576   7.389  1.00  0.00    -0.248 NA
ATOM     32  C   UNL     1       9.004  -3.656   9.490  1.00  0.00     0.031 C 
ATOM     33  C   UNL     1      10.348  -8.362   5.898  1.00  0.00     0.029 A 
ATOM     34  C   UNL     1       9.813  -7.175   6.373  1.00  0.00     0.049 A 
ATOM     35  H   UNL     1       8.372  -5.917   5.483  1.00  0.00     0.167 HD
ATOM     36  C   UNL     1       9.519  -5.346   8.024  1.00  0.00     0.074 A 
ATOM     37  C   UNL     1       9.795  -4.702   9.294  1.00  0.00     0.031 C 
ATOM     38  C   UNL     1      10.099  -6.499   7.612  1.00  0.00     0.034 A 
BRANCH  25  39
ATOM     39  C   UNL     1       8.178  -8.515   2.093  1.00  0.00     0.023 A 
ATOM     40  C   UNL     1       8.921  -8.225   0.930  1.00  0.00     0.012 A 
ATOM     41  C   UNL     1       7.631  -9.803   2.259  1.00  0.00     0.148 A 
ATOM     42  C   UNL     1       9.101  -9.192  -0.059  1.00  0.00     0.002 A 
ATOM     43  C   UNL     1       7.844 -10.773   1.285  1.00  0.00     0.091 A 
ATOM     44  F   UNL     1       6.911 -10.054   3.361  1.00  0.00    -0.205 F 
ATOM     45  C   UNL     1       8.573 -10.467   0.123  1.00  0.00     0.022 A 
BRANCH  43  46
ATOM     46  S   UNL     1       7.264 -12.466   1.456  1.00  0.00     0.127 S 
ATOM     47  O   UNL     1       6.176 -12.505   0.481  1.00  0.00    -0.237 OA
ATOM     48  O   UNL     1       8.448 -13.238   1.079  1.00  0.00    -0.237 OA
ATOM     49  O   UNL     1       6.863 -12.612   2.848  1.00  0.00    -0.744 OA
ENDBRANCH  43  46
ENDBRANCH  25  39
BRANCH  26  50
ATOM     50  C   UNL     1       7.125  -1.421   9.085  1.00  0.00     0.023 A 
ATOM     51  C   UNL     1       8.177  -0.523   9.347  1.00  0.00     0.012 A 
ATOM     52  C   UNL     1       5.897  -1.252   9.753  1.00  0.00     0.148 A 
ATOM     53  C   UNL     1       8.012   0.511  10.270  1.00  0.00     0.002 A 
ATOM     54  C   UNL     1       5.718  -0.180  10.618  1.00  0.00     0.091 A 
ATOM     55  F   UNL     1       4.911  -2.128   9.509  1.00  0.00    -0.205 F 
ATOM     56  C   UNL     1       6.779   0.694  10.892  1.00  0.00     0.022 A 
BRANCH  54  57
ATOM     57  S   UNL     1       4.103   0.203  11.304  1.00  0.00     0.127 S 
ATOM     58  O   UNL     1       4.163  -0.456  12.605  1.00  0.00    -0.237 OA
ATOM     59  O   UNL     1       4.120   1.666  11.352  1.00  0.00    -0.237 OA
ATOM     60  O   UNL     1       3.151  -0.344  10.345  1.00  0.00    -0.744 OA
ENDBRANCH  54  57
ENDBRANCH  26  50
BRANCH  38  61
ATOM     61  C   UNL     1      11.079  -7.140   8.556  1.00  0.00     0.023 A 
ATOM     62  C   UNL     1      10.598  -7.795   9.708  1.00  0.00     0.012 A 
ATOM     63  C   UNL     1      12.461  -7.125   8.293  1.00  0.00     0.148 A 
ATOM     64  C   UNL     1      11.482  -8.393  10.604  1.00  0.00     0.002 A 
ATOM     65  C   UNL     1      13.333  -7.760   9.170  1.00  0.00     0.091 A 
ATOM     66  F   UNL     1      12.902  -6.475   7.206  1.00  0.00    -0.205 F 
ATOM     67  C   UNL     1      12.848  -8.384  10.330  1.00  0.00     0.022 A 
BRANCH  65  68
ATOM     68  S   UNL     1      15.097  -7.859   8.847  1.00  0.00     0.127 S 
ATOM     69  O   UNL     1      15.616  -6.780   9.684  1.00  0.00    -0.237 OA
ATOM     70  O   UNL     1      15.430  -9.207   9.313  1.00  0.00    -0.237 OA
ATOM     71  O   UNL     1      15.243  -7.672   7.409  1.00  0.00    -0.744 OA
ENDBRANCH  65  68
ENDBRANCH  38  61
ENDBRANCH  12  13
ENDBRANCH   5   7
ENDBRANCH   2   3
ENDBRANCH   1   2
BRANCH   1  72
ATOM     72  C   UNL     1       4.334   1.394  -3.536  1.00  0.00     0.023 C 
BRANCH  72  73
ATOM     73  C   UNL     1       4.965   2.718  -3.110  1.00  0.00     0.116 C 
BRANCH  73  74
ATOM     74  N   UNL     1       6.400   2.725  -3.316  1.00  0.00    -0.356 N 
ATOM     75  C   UNL     1       7.140   3.266  -4.326  1.00  0.00     0.229 C 
ATOM     76  H   UNL     1       6.922   2.268  -2.618  1.00  0.00     0.163 HD
ATOM     77  O   UNL     1       8.363   3.133  -4.272  1.00  0.00    -0.275 OA
BRANCH  75  78
ATOM     78  C   UNL     1       6.446   4.006  -5.465  1.00  0.00     0.145 C 
ATOM     79  C   UNL     1       7.390   5.059  -6.048  1.00  0.00     0.276 C 
ATOM     80  C   UNL     1       5.971   3.177  -6.699  1.00  0.00     0.037 C 
ATOM     81  N   UNL     1       6.884   5.343  -7.385  1.00  0.00    -0.330 N 
ATOM     82  C   UNL     1       6.392   4.069  -7.909  1.00  0.00     0.270 C 
ATOM     83  C   UNL     1       6.641   1.780  -6.767  1.00  0.00     0.014 C 
ATOM     84  C   UNL     1       4.432   3.012  -6.701  1.00  0.00     0.014 C 
ATOM     85  H   UNL     1       7.635   5.682  -7.986  1.00  0.00     0.348 HD
ATOM     86  C   UNL     1       6.075   0.869  -7.857  1.00  0.00     0.001 C 
ATOM     87  C   UNL     1       3.892   2.099  -7.796  1.00  0.00     0.001 C 
ATOM     88  C   UNL     1       4.561   0.735  -7.756  1.00  0.00     0.000 C 
BRANCH  81  89
ATOM     89  C   UNL     1       6.050   6.537  -7.551  1.00  0.00     0.299 C 
BRANCH  89  90
ATOM     90  C   UNL     1       4.678   6.557  -6.907  1.00  0.00     0.008 A 
ATOM     91  C   UNL     1       4.521   6.812  -5.537  1.00  0.00     0.011 A 
ATOM     92  C   UNL     1       3.530   6.285  -7.671  1.00  0.00     0.031 A 
ATOM     93  C   UNL     1       3.272   6.680  -4.923  1.00  0.00     0.022 A 
ATOM     94  C   UNL     1       2.274   6.163  -7.062  1.00  0.00     0.060 A 
ATOM     95  C   UNL     1       2.150   6.335  -5.680  1.00  0.00     0.059 A 
ATOM     96  Cl  UNL     1       0.934   5.731  -8.064  1.00  0.00    -0.083 Cl
ATOM     97  Cl  UNL     1       0.656   6.106  -4.845  1.00  0.00    -0.083 Cl
ENDBRANCH  89  90
ENDBRANCH  81  89
ENDBRANCH  75  78
ENDBRANCH  73  74
ENDBRANCH  72  73
ENDBRANCH   1  72
TORSDOF 16
