REMARK SMILES O=C(NCCCCNC(=O)c1ccc(-c2c3nc(c(-c4cccc(S(=O)(=O)[O-])c4F)c4ccc([nH]4)c(-c4cccc(S(=O)(=O)[O-])c4F)c4nc(c(-c5cccc(S(=O)(=O)[O-])c5F)c5ccc2[nH]5)C=C4)C=C3)cc1)c1ccc(-c2ccc(=O)[nH]c2)cc1
REMARK SMILES IDX 6 1 5 2 4 3 3 4 1 5 2 6 74 8 75 9 86 10 76 11 85 12 77 13
REMARK SMILES IDX 78 14 79 15 84 16 80 17 83 18 81 19 82 21 7 22 8 23 9 24
REMARK SMILES IDX 10 26 11 27 12 28 73 29 13 30 72 31 14 32 15 33 16 34 66 35
REMARK SMILES IDX 17 36 71 37 65 38 67 39 18 40 70 41 64 42 63 43 19 45 51 46
REMARK SMILES IDX 31 47 50 48 32 49 35 50 49 51 68 52 33 53 34 54 48 56 69 57
REMARK SMILES IDX 36 58 20 59 21 60 29 61 22 62 24 63 30 64 23 65 25 66 26 67
REMARK SMILES IDX 27 68 28 69 52 70 53 71 61 72 54 73 56 74 62 75 55 76 57 77
REMARK SMILES IDX 58 78 59 79 60 80 37 81 38 82 46 83 39 84 41 85 47 86 40 87
REMARK SMILES IDX 42 88 43 89 44 90 45 91
REMARK H PARENT 3 7 83 20 8 25 67 44 35 55
REMARK Flexibility Score: inf
ROOT
ATOM      1  C   UNL     1       4.479   1.894   3.195  1.00  0.00     0.023 C 
ENDROOT
BRANCH   1   2
ATOM      2  C   UNL     1       4.943   1.638   1.763  1.00  0.00     0.023 C 
BRANCH   2   3
ATOM      3  C   UNL     1       4.581   0.269   1.197  1.00  0.00     0.116 C 
BRANCH   3   4
ATOM      4  N   UNL     1       3.145   0.070   1.080  1.00  0.00    -0.352 N 
ATOM      5  O   UNL     1       1.168  -0.177   0.005  1.00  0.00    -0.269 OA
ATOM      6  C   UNL     1       2.393  -0.164  -0.045  1.00  0.00     0.251 C 
ATOM      7  H   UNL     1       2.642   0.108   1.925  1.00  0.00     0.163 HD
BRANCH   6   8
ATOM      8  C   UNL     1       3.068  -0.379  -1.339  1.00  0.00     0.039 A 
ATOM      9  C   UNL     1       4.055  -1.359  -1.477  1.00  0.00     0.014 A 
ATOM     10  C   UNL     1       2.706   0.417  -2.428  1.00  0.00     0.014 A 
ATOM     11  C   UNL     1       4.747  -1.477  -2.681  1.00  0.00     0.009 A 
ATOM     12  C   UNL     1       3.385   0.280  -3.640  1.00  0.00     0.009 A 
ATOM     13  C   UNL     1       4.424  -0.655  -3.772  1.00  0.00    -0.017 A 
BRANCH  13  14
ATOM     14  C   UNL     1       5.181  -0.755  -5.037  1.00  0.00    -0.002 A 
ATOM     15  C   UNL     1       5.816   0.392  -5.675  1.00  0.00     0.016 A 
ATOM     16  C   UNL     1       5.302  -1.956  -5.631  1.00  0.00     0.094 A 
ATOM     17  C   UNL     1       6.504   0.266  -6.819  1.00  0.00     0.072 A 
ATOM     18  N   UNL     1       6.009  -2.102  -6.800  1.00  0.00    -0.328 N 
ATOM     19  C   UNL     1       6.631  -1.068  -7.455  1.00  0.00     0.247 A 
ATOM     20  H   UNL     1       6.073  -3.002  -7.192  1.00  0.00     0.169 HD
ATOM     21  O   UNL     1       7.255  -1.221  -8.499  1.00  0.00    -0.270 OA
ENDBRANCH  13  14
ENDBRANCH   6   8
ENDBRANCH   3   4
ENDBRANCH   2   3
ENDBRANCH   1   2
BRANCH   1  22
ATOM     22  C   UNL     1       4.882   0.836   4.215  1.00  0.00     0.116 C 
BRANCH  22  23
ATOM     23  N   UNL     1       6.322   0.641   4.303  1.00  0.00    -0.352 N 
ATOM     24  C   UNL     1       7.131   0.616   5.415  1.00  0.00     0.251 C 
ATOM     25  H   UNL     1       6.783   0.509   3.443  1.00  0.00     0.163 HD
ATOM     26  O   UNL     1       8.350   0.555   5.283  1.00  0.00    -0.269 OA
BRANCH  24  27
ATOM     27  C   UNL     1       6.532   0.695   6.766  1.00  0.00     0.039 A 
ATOM     28  C   UNL     1       7.086   1.574   7.700  1.00  0.00     0.014 A 
ATOM     29  C   UNL     1       5.417  -0.076   7.104  1.00  0.00     0.014 A 
ATOM     30  C   UNL     1       6.474   1.736   8.947  1.00  0.00     0.010 A 
ATOM     31  C   UNL     1       4.763   0.147   8.313  1.00  0.00     0.010 A 
ATOM     32  C   UNL     1       5.285   1.053   9.249  1.00  0.00    -0.014 A 
BRANCH  32  33
ATOM     33  C   UNL     1       4.562   1.285  10.527  1.00  0.00     0.031 A 
ATOM     34  C   UNL     1       4.364   0.157  11.504  1.00  0.00     0.074 A 
ATOM     35  C   UNL     1       4.004   2.488  10.768  1.00  0.00     0.049 A 
ATOM     36  N   UNL     1       3.722   0.156  12.644  1.00  0.00    -0.248 NA
ATOM     37  C   UNL     1       4.938  -1.149  11.140  1.00  0.00     0.031 C 
ATOM     38  C   UNL     1       4.055   3.642   9.867  1.00  0.00     0.029 A 
ATOM     39  N   UNL     1       3.263   2.935  11.835  1.00  0.00    -0.354 N 
ATOM     40  C   UNL     1       3.780  -1.151  13.113  1.00  0.00     0.074 A 
ATOM     41  C   UNL     1       4.489  -1.924  12.116  1.00  0.00     0.031 C 
ATOM     42  C   UNL     1       3.389   4.666  10.424  1.00  0.00     0.029 A 
ATOM     43  C   UNL     1       2.837   4.237  11.705  1.00  0.00     0.049 A 
ATOM     44  H   UNL     1       3.057   2.377  12.619  1.00  0.00     0.167 HD
ATOM     45  C   UNL     1       3.315  -1.658  14.279  1.00  0.00     0.034 A 
ATOM     46  C   UNL     1       2.084   4.998  12.524  1.00  0.00     0.034 A 
ATOM     47  C   UNL     1       2.649  -0.878  15.288  1.00  0.00     0.049 A 
ATOM     48  C   UNL     1       1.607   4.419  13.828  1.00  0.00     0.074 A 
ATOM     49  C   UNL     1       2.226  -1.276  16.544  1.00  0.00     0.029 A 
ATOM     50  N   UNL     1       2.300   0.456  15.153  1.00  0.00    -0.354 N 
ATOM     51  N   UNL     1       1.819   3.227  14.330  1.00  0.00    -0.248 NA
ATOM     52  C   UNL     1       0.815   5.303  14.696  1.00  0.00     0.031 C 
ATOM     53  C   UNL     1       1.596  -0.188  17.158  1.00  0.00     0.029 A 
ATOM     54  C   UNL     1       1.653   0.895  16.296  1.00  0.00     0.049 A 
ATOM     55  H   UNL     1       2.484   1.011  14.361  1.00  0.00     0.167 HD
ATOM     56  C   UNL     1       1.224   3.230  15.586  1.00  0.00     0.074 A 
ATOM     57  C   UNL     1       0.659   4.551  15.776  1.00  0.00     0.031 C 
ATOM     58  C   UNL     1       1.142   2.227  16.496  1.00  0.00     0.034 A 
BRANCH  45  59
ATOM     59  C   UNL     1       3.557  -3.122  14.548  1.00  0.00     0.023 A 
ATOM     60  C   UNL     1       4.867  -3.575  14.810  1.00  0.00     0.012 A 
ATOM     61  C   UNL     1       2.490  -4.041  14.584  1.00  0.00     0.148 A 
ATOM     62  C   UNL     1       5.117  -4.924  15.059  1.00  0.00     0.002 A 
ATOM     63  C   UNL     1       2.741  -5.376  14.879  1.00  0.00     0.091 A 
ATOM     64  F   UNL     1       1.254  -3.599  14.312  1.00  0.00    -0.205 F 
ATOM     65  C   UNL     1       4.054  -5.822  15.103  1.00  0.00     0.022 A 
BRANCH  63  66
ATOM     66  S   UNL     1       1.430  -6.594  15.040  1.00  0.00     0.127 S 
ATOM     67  O   UNL     1       1.595  -7.368  13.810  1.00  0.00    -0.237 OA
ATOM     68  O   UNL     1       1.813  -7.302  16.262  1.00  0.00    -0.237 OA
ATOM     69  O   UNL     1       0.191  -5.835  15.143  1.00  0.00    -0.744 OA
ENDBRANCH  63  66
ENDBRANCH  45  59
BRANCH  46  70
ATOM     70  C   UNL     1       1.806   6.420  12.174  1.00  0.00     0.023 A 
ATOM     71  C   UNL     1       2.418   7.444  12.924  1.00  0.00     0.012 A 
ATOM     72  C   UNL     1       0.965   6.767  11.099  1.00  0.00     0.148 A 
ATOM     73  C   UNL     1       2.174   8.785  12.632  1.00  0.00     0.002 A 
ATOM     74  C   UNL     1       0.768   8.105  10.779  1.00  0.00     0.091 A 
ATOM     75  F   UNL     1       0.384   5.779  10.404  1.00  0.00    -0.205 F 
ATOM     76  C   UNL     1       1.357   9.116  11.555  1.00  0.00     0.022 A 
BRANCH  74  77
ATOM     77  S   UNL     1      -0.164   8.626   9.334  1.00  0.00     0.127 S 
ATOM     78  O   UNL     1      -1.350   9.224   9.942  1.00  0.00    -0.237 OA
ATOM     79  O   UNL     1       0.756   9.578   8.710  1.00  0.00    -0.237 OA
ATOM     80  O   UNL     1      -0.393   7.416   8.557  1.00  0.00    -0.744 OA
ENDBRANCH  74  77
ENDBRANCH  46  70
BRANCH  58  81
ATOM     81  C   UNL     1       0.451   2.523  17.802  1.00  0.00     0.023 A 
ATOM     82  C   UNL     1      -0.949   2.677  17.838  1.00  0.00     0.012 A 
ATOM     83  C   UNL     1       1.184   2.579  19.005  1.00  0.00     0.148 A 
ATOM     84  C   UNL     1      -1.605   2.917  19.045  1.00  0.00     0.002 A 
ATOM     85  C   UNL     1       0.518   2.767  20.210  1.00  0.00     0.091 A 
ATOM     86  F   UNL     1       2.517   2.449  18.948  1.00  0.00    -0.205 F 
ATOM     87  C   UNL     1      -0.874   2.950  20.231  1.00  0.00     0.022 A 
BRANCH  85  88
ATOM     88  S   UNL     1       1.364   2.724  21.794  1.00  0.00     0.127 S 
ATOM     89  O   UNL     1       1.351   4.135  22.178  1.00  0.00    -0.237 OA
ATOM     90  O   UNL     1       0.487   1.866  22.592  1.00  0.00    -0.237 OA
ATOM     91  O   UNL     1       2.681   2.160  21.529  1.00  0.00    -0.744 OA
ENDBRANCH  85  88
ENDBRANCH  58  81
ENDBRANCH  32  33
ENDBRANCH  24  27
ENDBRANCH  22  23
ENDBRANCH   1  22
TORSDOF 15
