REMARK SMILES O=C(CCCCCC(F)(F)c1ccccc1)NCCCCNC(=O)c1ccc(-c2c3nc(c(-c4cccc(S(=O)(=O)[O-])c4F)c4ccc([nH]4)c(-c4cccc(S(=O)(=O)[O-])c4F)c4nc(c(-c5cccc(S(=O)(=O)[O-])c5F)c5ccc2[nH]5)C=C4)C=C3)cc1
REMARK SMILES IDX 18 1 17 2 1 3 2 4 3 6 4 7 5 8 6 9 7 10 8 11 9 12 10 13 11 14
REMARK SMILES IDX 12 15 16 16 13 17 15 18 14 19 19 20 20 21 21 22 22 23 23 24
REMARK SMILES IDX 24 26 25 27 26 28 87 29 27 30 86 31 28 32 29 33 30 34 80 35
REMARK SMILES IDX 31 36 85 37 79 38 81 39 32 40 84 41 78 42 77 43 33 45 65 46
REMARK SMILES IDX 45 47 64 48 46 49 49 50 63 51 82 52 47 53 48 54 62 56 83 57
REMARK SMILES IDX 50 58 34 59 35 60 43 61 36 62 38 63 44 64 37 65 39 66 40 67
REMARK SMILES IDX 41 68 42 69 66 70 67 71 75 72 68 73 70 74 76 75 69 76 71 77
REMARK SMILES IDX 72 78 73 79 74 80 51 81 52 82 60 83 53 84 55 85 61 86 54 87
REMARK SMILES IDX 56 88 57 89 58 90 59 91
REMARK H PARENT 17 5 22 25 81 44 49 55
REMARK Flexibility Score: inf
ROOT
ATOM      1  C   UNL     1       1.817   1.454   2.046  1.00  0.00     0.116 C 
ENDROOT
BRANCH   1   2
ATOM      2  N   UNL     1       2.378   0.401   1.232  1.00  0.00    -0.356 N 
ATOM      3  O   UNL     1       0.641   0.267  -0.270  1.00  0.00    -0.275 OA
ATOM      4  C   UNL     1       1.772  -0.052   0.086  1.00  0.00     0.219 C 
ATOM      5  H   UNL     1       3.229  -0.008   1.510  1.00  0.00     0.163 HD
BRANCH   4   6
ATOM      6  C   UNL     1       2.672  -0.936  -0.750  1.00  0.00     0.100 C 
BRANCH   6   7
ATOM      7  C   UNL     1       3.554  -0.089  -1.665  1.00  0.00     0.010 C 
BRANCH   7   8
ATOM      8  C   UNL     1       4.690   0.676  -0.968  1.00  0.00     0.001 C 
BRANCH   8   9
ATOM      9  C   UNL     1       5.858  -0.170  -0.446  1.00  0.00     0.007 C 
BRANCH   9  10
ATOM     10  C   UNL     1       6.605  -1.047  -1.464  1.00  0.00     0.082 C 
BRANCH  10  11
ATOM     11  C   UNL     1       7.538  -0.326  -2.457  1.00  0.00     0.273 C 
ATOM     12  F   UNL     1       8.533   0.264  -1.730  1.00  0.00    -0.201 F 
ATOM     13  F   UNL     1       8.160  -1.302  -3.188  1.00  0.00    -0.201 F 
BRANCH  11  14
ATOM     14  C   UNL     1       6.824   0.651  -3.368  1.00  0.00     0.021 A 
ATOM     15  C   UNL     1       7.072   2.029  -3.266  1.00  0.00     0.010 A 
ATOM     16  C   UNL     1       5.839   0.204  -4.263  1.00  0.00     0.010 A 
ATOM     17  C   UNL     1       6.282   2.942  -3.968  1.00  0.00     0.001 A 
ATOM     18  C   UNL     1       5.043   1.119  -4.953  1.00  0.00     0.001 A 
ATOM     19  C   UNL     1       5.253   2.487  -4.791  1.00  0.00     0.000 A 
ENDBRANCH  11  14
ENDBRANCH  10  11
ENDBRANCH   9  10
ENDBRANCH   8   9
ENDBRANCH   7   8
ENDBRANCH   6   7
ENDBRANCH   4   6
ENDBRANCH   1   2
BRANCH   1  20
ATOM     20  C   UNL     1       2.315   1.377   3.486  1.00  0.00     0.023 C 
BRANCH  20  21
ATOM     21  C   UNL     1       3.828   1.565   3.661  1.00  0.00     0.023 C 
BRANCH  21  22
ATOM     22  C   UNL     1       4.377   2.917   3.214  1.00  0.00     0.116 C 
BRANCH  22  23
ATOM     23  N   UNL     1       3.823   4.020   3.985  1.00  0.00    -0.352 N 
ATOM     24  C   UNL     1       4.452   4.935   4.792  1.00  0.00     0.251 C 
ATOM     25  H   UNL     1       2.847   4.126   3.917  1.00  0.00     0.163 HD
ATOM     26  O   UNL     1       3.775   5.666   5.517  1.00  0.00    -0.269 OA
BRANCH  24  27
ATOM     27  C   UNL     1       5.928   5.044   4.813  1.00  0.00     0.039 A 
ATOM     28  C   UNL     1       6.576   5.207   6.041  1.00  0.00     0.014 A 
ATOM     29  C   UNL     1       6.674   5.017   3.632  1.00  0.00     0.014 A 
ATOM     30  C   UNL     1       7.971   5.280   6.089  1.00  0.00     0.010 A 
ATOM     31  C   UNL     1       8.068   5.015   3.688  1.00  0.00     0.010 A 
ATOM     32  C   UNL     1       8.733   5.149   4.917  1.00  0.00    -0.014 A 
BRANCH  32  33
ATOM     33  C   UNL     1      10.220   5.129   4.960  1.00  0.00     0.031 A 
ATOM     34  C   UNL     1      11.023   6.190   4.255  1.00  0.00     0.074 A 
ATOM     35  C   UNL     1      10.853   4.104   5.567  1.00  0.00     0.049 A 
ATOM     36  N   UNL     1      12.322   6.303   4.141  1.00  0.00    -0.248 NA
ATOM     37  C   UNL     1      10.270   7.252   3.567  1.00  0.00     0.031 C 
ATOM     38  C   UNL     1      10.194   2.975   6.226  1.00  0.00     0.029 A 
ATOM     39  N   UNL     1      12.192   3.831   5.705  1.00  0.00    -0.354 N 
ATOM     40  C   UNL     1      12.541   7.418   3.341  1.00  0.00     0.074 A 
ATOM     41  C   UNL     1      11.240   7.933   2.974  1.00  0.00     0.031 C 
ATOM     42  C   UNL     1      11.128   2.136   6.703  1.00  0.00     0.029 A 
ATOM     43  C   UNL     1      12.450   2.645   6.353  1.00  0.00     0.049 A 
ATOM     44  H   UNL     1      12.901   4.428   5.371  1.00  0.00     0.167 HD
ATOM     45  C   UNL     1      13.716   7.977   2.965  1.00  0.00     0.034 A 
ATOM     46  C   UNL     1      13.618   2.029   6.626  1.00  0.00     0.034 A 
ATOM     47  C   UNL     1      15.009   7.486   3.362  1.00  0.00     0.049 A 
ATOM     48  C   UNL     1      14.908   2.687   6.218  1.00  0.00     0.074 A 
ATOM     49  C   UNL     1      16.252   8.039   3.110  1.00  0.00     0.029 A 
ATOM     50  N   UNL     1      15.228   6.322   4.081  1.00  0.00    -0.354 N 
ATOM     51  N   UNL     1      15.094   3.828   5.601  1.00  0.00    -0.248 NA
ATOM     52  C   UNL     1      16.152   1.989   6.575  1.00  0.00     0.031 C 
ATOM     53  C   UNL     1      17.226   7.190   3.645  1.00  0.00     0.029 A 
ATOM     54  C   UNL     1      16.587   6.129   4.266  1.00  0.00     0.049 A 
ATOM     55  H   UNL     1      14.522   5.721   4.411  1.00  0.00     0.167 HD
ATOM     56  C   UNL     1      16.472   4.004   5.532  1.00  0.00     0.074 A 
ATOM     57  C   UNL     1      17.072   2.861   6.188  1.00  0.00     0.031 C 
ATOM     58  C   UNL     1      17.175   5.016   4.966  1.00  0.00     0.034 A 
BRANCH  45  59
ATOM     59  C   UNL     1      13.663   9.215   2.105  1.00  0.00     0.023 A 
ATOM     60  C   UNL     1      13.220  10.434   2.659  1.00  0.00     0.012 A 
ATOM     61  C   UNL     1      14.117   9.188   0.771  1.00  0.00     0.148 A 
ATOM     62  C   UNL     1      13.195  11.597   1.891  1.00  0.00     0.002 A 
ATOM     63  C   UNL     1      14.135  10.361   0.026  1.00  0.00     0.091 A 
ATOM     64  F   UNL     1      14.518   8.018   0.256  1.00  0.00    -0.205 F 
ATOM     65  C   UNL     1      13.662  11.563   0.580  1.00  0.00     0.022 A 
BRANCH  63  66
ATOM     66  S   UNL     1      14.793  10.441  -1.643  1.00  0.00     0.127 S 
ATOM     67  O   UNL     1      13.580  10.662  -2.428  1.00  0.00    -0.237 OA
ATOM     68  O   UNL     1      15.687  11.598  -1.565  1.00  0.00    -0.237 OA
ATOM     69  O   UNL     1      15.463   9.169  -1.873  1.00  0.00    -0.744 OA
ENDBRANCH  63  66
ENDBRANCH  45  59
BRANCH  46  70
ATOM     70  C   UNL     1      13.625   0.739   7.375  1.00  0.00     0.023 A 
ATOM     71  C   UNL     1      14.131   0.706   8.689  1.00  0.00     0.012 A 
ATOM     72  C   UNL     1      13.124  -0.445   6.802  1.00  0.00     0.148 A 
ATOM     73  C   UNL     1      14.173  -0.491   9.406  1.00  0.00     0.002 A 
ATOM     74  C   UNL     1      13.114  -1.622   7.542  1.00  0.00     0.091 A 
ATOM     75  F   UNL     1      12.655  -0.395   5.547  1.00  0.00    -0.205 F 
ATOM     76  C   UNL     1      13.657  -1.652   8.836  1.00  0.00     0.022 A 
BRANCH  74  77
ATOM     77  S   UNL     1      12.351  -3.132   6.941  1.00  0.00     0.127 S 
ATOM     78  O   UNL     1      13.513  -3.990   6.726  1.00  0.00    -0.237 OA
ATOM     79  O   UNL     1      11.505  -3.513   8.073  1.00  0.00    -0.237 OA
ATOM     80  O   UNL     1      11.614  -2.753   5.744  1.00  0.00    -0.744 OA
ENDBRANCH  74  77
ENDBRANCH  46  70
BRANCH  58  81
ATOM     81  C   UNL     1      18.678   4.968   5.067  1.00  0.00     0.023 A 
ATOM     82  C   UNL     1      19.407   4.024   4.316  1.00  0.00     0.012 A 
ATOM     83  C   UNL     1      19.372   5.908   5.855  1.00  0.00     0.148 A 
ATOM     84  C   UNL     1      20.801   3.995   4.375  1.00  0.00     0.002 A 
ATOM     85  C   UNL     1      20.762   5.907   5.867  1.00  0.00     0.091 A 
ATOM     86  F   UNL     1      18.661   6.786   6.576  1.00  0.00    -0.205 F 
ATOM     87  C   UNL     1      21.477   4.943   5.139  1.00  0.00     0.022 A 
BRANCH  85  88
ATOM     88  S   UNL     1      21.719   7.151   6.742  1.00  0.00     0.127 S 
ATOM     89  O   UNL     1      22.281   6.372   7.844  1.00  0.00    -0.237 OA
ATOM     90  O   UNL     1      22.690   7.563   5.728  1.00  0.00    -0.237 OA
ATOM     91  O   UNL     1      20.773   8.188   7.130  1.00  0.00    -0.744 OA
ENDBRANCH  85  88
ENDBRANCH  58  81
ENDBRANCH  32  33
ENDBRANCH  24  27
ENDBRANCH  22  23
ENDBRANCH  21  22
ENDBRANCH  20  21
ENDBRANCH   1  20
TORSDOF 20
