REMARK SMILES COc1ccc(OC)c(S(=O)(=O)Nc2ccc(N3CCC(C)CC3)c(C(=O)NCCCCNC(=O)c3ccc(-c4c5nc(c(-c6cccc(S(=O)(=O)[O-])c6F)c6ccc([nH]6)c(-c6cccc(S(=O)(=O)[O-])c6F)c6nc(c(-c7cccc(S(=O)(=O)[O-])c7F)c7ccc4[nH]7)C=C6)C=C5)cc3)c2)c1
REMARK SMILES IDX 30 1 29 2 28 3 26 4 27 5 25 7 14 8 15 9 99 10 16 11 17 12
REMARK SMILES IDX 13 13 10 15 11 16 12 17 9 18 3 19 4 20 100 21 5 22 6 23 2 24
REMARK SMILES IDX 1 25 7 26 8 27 18 28 19 29 24 30 20 31 23 32 21 33 22 34
REMARK SMILES IDX 31 35 32 36 33 37 34 38 35 40 36 41 37 42 98 43 38 44 97 45
REMARK SMILES IDX 39 46 40 47 41 48 91 49 42 50 96 51 90 52 92 53 43 54 95 55
REMARK SMILES IDX 89 56 88 57 44 59 76 60 56 61 75 62 57 63 60 64 74 65 93 66
REMARK SMILES IDX 58 67 59 68 73 70 94 71 61 72 45 73 46 74 54 75 47 76 49 77
REMARK SMILES IDX 55 78 48 79 50 80 51 81 52 82 53 83 77 84 78 85 86 86 79 87
REMARK SMILES IDX 81 88 87 89 80 90 82 91 83 92 84 93 85 94 62 95 63 96 71 97
REMARK SMILES IDX 64 98 66 99 72 100 65 101 67 102 68 103 69 104 70 105
REMARK H PARENT 28 6 13 14 33 39 92 58 60 69
REMARK Flexibility Score: inf
ROOT
ATOM      1  C   UNL     1       3.225  -0.195  -5.318  1.00  0.00     0.023 C 
ENDROOT
BRANCH   1   2
ATOM      2  C   UNL     1       2.170  -0.288  -4.211  1.00  0.00     0.116 C 
BRANCH   2   3
ATOM      3  N   UNL     1       2.135  -1.625  -3.656  1.00  0.00    -0.352 N 
ATOM      4  C   UNL     1       2.744  -2.219  -2.575  1.00  0.00     0.253 C 
ATOM      5  O   UNL     1       2.681  -3.446  -2.560  1.00  0.00    -0.269 OA
ATOM      6  H   UNL     1       1.551  -2.239  -4.158  1.00  0.00     0.163 HD
BRANCH   4   7
ATOM      7  C   UNL     1       3.466  -1.457  -1.494  1.00  0.00     0.065 A 
ATOM      8  C   UNL     1       4.775   0.530  -0.923  1.00  0.00     0.050 A 
ATOM      9  C   UNL     1       4.785   0.150   0.408  1.00  0.00     0.029 A 
ATOM     10  C   UNL     1       4.246  -0.342  -1.871  1.00  0.00     0.042 A 
ATOM     11  C   UNL     1       4.102  -0.996   0.799  1.00  0.00     0.029 A 
ATOM     12  C   UNL     1       3.352  -1.779  -0.108  1.00  0.00     0.050 A 
BRANCH   8  13
ATOM     13  N   UNL     1       5.259   1.834  -1.212  1.00  0.00    -0.279 N 
ATOM     14  H   UNL     1       5.934   2.208  -0.600  1.00  0.00     0.180 HD
BRANCH  13  15
ATOM     15  S   UNL     1       4.781   2.793  -2.503  1.00  0.00     0.265 S 
ATOM     16  O   UNL     1       5.177   2.099  -3.712  1.00  0.00    -0.201 OA
ATOM     17  O   UNL     1       5.294   4.107  -2.182  1.00  0.00    -0.201 OA
BRANCH  15  18
ATOM     18  C   UNL     1       3.006   2.929  -2.496  1.00  0.00     0.133 A 
ATOM     19  C   UNL     1       0.829   2.380  -1.582  1.00  0.00     0.120 A 
ATOM     20  C   UNL     1       0.222   2.866  -2.741  1.00  0.00     0.050 A 
ATOM     21  C   UNL     1       2.220   2.443  -1.440  1.00  0.00     0.072 A 
ATOM     22  C   UNL     1       0.994   3.409  -3.765  1.00  0.00     0.052 A 
ATOM     23  C   UNL     1       2.382   3.454  -3.634  1.00  0.00     0.139 A 
BRANCH  19  24
ATOM     24  O   UNL     1      -0.042   1.866  -0.660  1.00  0.00    -0.497 OA
ATOM     25  C   UNL     1       0.492   0.914   0.252  1.00  0.00     0.278 C 
ENDBRANCH  19  24
BRANCH  23  26
ATOM     26  O   UNL     1       3.084   3.967  -4.687  1.00  0.00    -0.495 OA
ATOM     27  C   UNL     1       3.409   5.344  -4.470  1.00  0.00     0.278 C 
ENDBRANCH  23  26
ENDBRANCH  15  18
ENDBRANCH  13  15
ENDBRANCH   8  13
BRANCH  12  28
ATOM     28  N   UNL     1       2.489  -2.718   0.442  1.00  0.00    -0.371 N 
ATOM     29  C   UNL     1       2.597  -4.147   0.139  1.00  0.00     0.117 C 
ATOM     30  C   UNL     1       1.752  -2.424   1.673  1.00  0.00     0.117 C 
ATOM     31  C   UNL     1       1.183  -4.692  -0.089  1.00  0.00     0.025 C 
ATOM     32  C   UNL     1       0.327  -2.956   1.548  1.00  0.00     0.025 C 
ATOM     33  C   UNL     1       0.295  -4.438   1.144  1.00  0.00    -0.011 C 
ATOM     34  C   UNL     1      -1.145  -4.877   0.885  1.00  0.00     0.008 C 
ENDBRANCH  12  28
ENDBRANCH   4   7
ENDBRANCH   2   3
ENDBRANCH   1   2
BRANCH   1  35
ATOM     35  C   UNL     1       2.806  -0.840  -6.641  1.00  0.00     0.023 C 
BRANCH  35  36
ATOM     36  C   UNL     1       1.645  -0.144  -7.338  1.00  0.00     0.116 C 
BRANCH  36  37
ATOM     37  N   UNL     1       1.932   1.239  -7.695  1.00  0.00    -0.352 N 
ATOM     38  C   UNL     1       1.436   1.945  -8.766  1.00  0.00     0.251 C 
ATOM     39  H   UNL     1       2.552   1.723  -7.103  1.00  0.00     0.163 HD
ATOM     40  O   UNL     1       1.828   3.078  -9.019  1.00  0.00    -0.269 OA
BRANCH  38  41
ATOM     41  C   UNL     1       0.435   1.291  -9.631  1.00  0.00     0.039 A 
ATOM     42  C   UNL     1       0.694   1.165 -10.998  1.00  0.00     0.014 A 
ATOM     43  C   UNL     1      -0.721   0.742  -9.068  1.00  0.00     0.014 A 
ATOM     44  C   UNL     1      -0.182   0.428 -11.797  1.00  0.00     0.010 A 
ATOM     45  C   UNL     1      -1.559  -0.038  -9.854  1.00  0.00     0.010 A 
ATOM     46  C   UNL     1      -1.297  -0.203 -11.224  1.00  0.00    -0.014 A 
BRANCH  46  47
ATOM     47  C   UNL     1      -2.218  -1.044 -12.026  1.00  0.00     0.031 A 
ATOM     48  C   UNL     1      -3.646  -0.614 -12.206  1.00  0.00     0.074 A 
ATOM     49  C   UNL     1      -1.804  -2.242 -12.481  1.00  0.00     0.049 A 
ATOM     50  N   UNL     1      -4.642  -1.265 -12.744  1.00  0.00    -0.248 NA
ATOM     51  C   UNL     1      -4.010   0.712 -11.677  1.00  0.00     0.031 C 
ATOM     52  C   UNL     1      -0.462  -2.800 -12.303  1.00  0.00     0.029 A 
ATOM     53  N   UNL     1      -2.484  -3.225 -13.155  1.00  0.00    -0.354 N 
ATOM     54  C   UNL     1      -5.758  -0.455 -12.575  1.00  0.00     0.074 A 
ATOM     55  C   UNL     1      -5.322   0.728 -11.867  1.00  0.00     0.031 C 
ATOM     56  C   UNL     1      -0.419  -4.027 -12.846  1.00  0.00     0.029 A 
ATOM     57  C   UNL     1      -1.734  -4.354 -13.390  1.00  0.00     0.049 A 
ATOM     58  H   UNL     1      -3.421  -3.132 -13.443  1.00  0.00     0.167 HD
ATOM     59  C   UNL     1      -7.027  -0.665 -12.997  1.00  0.00     0.034 A 
ATOM     60  C   UNL     1      -2.071  -5.521 -13.974  1.00  0.00     0.034 A 
ATOM     61  C   UNL     1      -7.439  -1.807 -13.764  1.00  0.00     0.049 A 
ATOM     62  C   UNL     1      -3.469  -5.693 -14.505  1.00  0.00     0.074 A 
ATOM     63  C   UNL     1      -8.679  -2.071 -14.317  1.00  0.00     0.029 A 
ATOM     64  N   UNL     1      -6.616  -2.872 -14.097  1.00  0.00    -0.354 N 
ATOM     65  N   UNL     1      -4.475  -4.853 -14.466  1.00  0.00    -0.248 NA
ATOM     66  C   UNL     1      -3.771  -6.958 -15.192  1.00  0.00     0.031 C 
ATOM     67  C   UNL     1      -8.604  -3.295 -14.991  1.00  0.00     0.029 A 
ATOM     68  C   UNL     1      -7.317  -3.791 -14.856  1.00  0.00     0.049 A 
ATOM     69  H   UNL     1      -5.672  -2.960 -13.832  1.00  0.00     0.167 HD
ATOM     70  C   UNL     1      -5.514  -5.468 -15.153  1.00  0.00     0.074 A 
ATOM     71  C   UNL     1      -5.012  -6.748 -15.611  1.00  0.00     0.031 C 
ATOM     72  C   UNL     1      -6.776  -5.023 -15.369  1.00  0.00     0.034 A 
BRANCH  59  73
ATOM     73  C   UNL     1      -8.043   0.404 -12.701  1.00  0.00     0.023 A 
ATOM     74  C   UNL     1      -8.012   1.605 -13.439  1.00  0.00     0.012 A 
ATOM     75  C   UNL     1      -9.049   0.211 -11.735  1.00  0.00     0.148 A 
ATOM     76  C   UNL     1      -8.947   2.610 -13.200  1.00  0.00     0.002 A 
ATOM     77  C   UNL     1     -10.001   1.203 -11.528  1.00  0.00     0.091 A 
ATOM     78  F   UNL     1      -9.045  -0.925 -11.023  1.00  0.00    -0.205 F 
ATOM     79  C   UNL     1      -9.947   2.405 -12.252  1.00  0.00     0.022 A 
BRANCH  77  80
ATOM     80  S   UNL     1     -11.364   0.998 -10.376  1.00  0.00     0.127 S 
ATOM     81  O   UNL     1     -10.902   1.777  -9.228  1.00  0.00    -0.237 OA
ATOM     82  O   UNL     1     -12.484   1.594 -11.105  1.00  0.00    -0.237 OA
ATOM     83  O   UNL     1     -11.484  -0.438 -10.159  1.00  0.00    -0.744 OA
ENDBRANCH  77  80
ENDBRANCH  59  73
BRANCH  60  84
ATOM     84  C   UNL     1      -1.041  -6.578 -14.170  1.00  0.00     0.023 A 
ATOM     85  C   UNL     1      -0.539  -6.809 -15.466  1.00  0.00     0.012 A 
ATOM     86  C   UNL     1      -0.527  -7.324 -13.092  1.00  0.00     0.148 A 
ATOM     87  C   UNL     1       0.438  -7.780 -15.689  1.00  0.00     0.002 A 
ATOM     88  C   UNL     1       0.480  -8.258 -13.315  1.00  0.00     0.091 A 
ATOM     89  F   UNL     1      -1.028  -7.104 -11.868  1.00  0.00    -0.205 F 
ATOM     90  C   UNL     1       0.955  -8.496 -14.614  1.00  0.00     0.022 A 
BRANCH  88  91
ATOM     91  S   UNL     1       1.284  -9.133 -11.967  1.00  0.00     0.127 S 
ATOM     92  O   UNL     1       0.636 -10.439 -12.028  1.00  0.00    -0.237 OA
ATOM     93  O   UNL     1       2.688  -9.121 -12.384  1.00  0.00    -0.237 OA
ATOM     94  O   UNL     1       1.011  -8.337 -10.777  1.00  0.00    -0.744 OA
ENDBRANCH  88  91
ENDBRANCH  60  84
BRANCH  72  95
ATOM     95  C   UNL     1      -7.702  -5.898 -16.168  1.00  0.00     0.023 A 
ATOM     96  C   UNL     1      -8.296  -7.018 -15.555  1.00  0.00     0.012 A 
ATOM     97  C   UNL     1      -8.064  -5.552 -17.484  1.00  0.00     0.148 A 
ATOM     98  C   UNL     1      -9.226  -7.792 -16.247  1.00  0.00     0.002 A 
ATOM     99  C   UNL     1      -9.021  -6.305 -18.154  1.00  0.00     0.091 A 
ATOM    100  F   UNL     1      -7.469  -4.494 -18.055  1.00  0.00    -0.205 F 
ATOM    101  C   UNL     1      -9.598  -7.428 -17.540  1.00  0.00     0.022 A 
BRANCH  99 102
ATOM    102  S   UNL     1      -9.621  -5.852 -19.786  1.00  0.00     0.127 S 
ATOM    103  O   UNL     1      -8.913  -6.803 -20.640  1.00  0.00    -0.237 OA
ATOM    104  O   UNL     1     -11.060  -6.091 -19.669  1.00  0.00    -0.237 OA
ATOM    105  O   UNL     1      -9.259  -4.452 -19.967  1.00  0.00    -0.744 OA
ENDBRANCH  99 102
ENDBRANCH  72  95
ENDBRANCH  46  47
ENDBRANCH  38  41
ENDBRANCH  36  37
ENDBRANCH  35  36
ENDBRANCH   1  35
TORSDOF 20
