REMARK SMILES CCc1ccc(C(=O)N[C@H](C(=O)NCCCCNC(=O)c2ccc(-c3c4nc(c(-c5cccc(S(=O)(=O)[O-])c5F)c5ccc([nH]5)c(-c5cccc(S(=O)(=O)[O-])c5F)c5nc(c(-c6cccc(S(=O)(=O)[O-])c6F)c6ccc3[nH]6)C=C5)C=C4)cc2)[C@H](C)CC)o1
REMARK SMILES IDX 15 1 14 2 13 3 11 4 12 5 10 7 9 8 7 9 8 10 6 12 3 13 4 14
REMARK SMILES IDX 88 15 5 16 2 17 1 18 84 19 85 20 86 21 87 22 16 23 17 24
REMARK SMILES IDX 18 25 19 26 20 28 21 29 22 30 83 31 23 32 82 33 24 34 25 35
REMARK SMILES IDX 26 36 76 37 27 38 81 39 75 40 77 41 28 42 80 43 74 44 73 45
REMARK SMILES IDX 29 47 61 48 41 49 60 50 42 51 45 52 59 53 78 54 43 55 44 56
REMARK SMILES IDX 58 58 79 59 46 60 30 61 31 62 39 63 32 64 34 65 40 66 33 67
REMARK SMILES IDX 35 68 36 69 37 70 38 71 62 72 63 73 71 74 64 75 66 76 72 77
REMARK SMILES IDX 65 78 67 79 68 80 69 81 70 82 47 83 48 84 56 85 49 86 51 87
REMARK SMILES IDX 57 88 50 89 52 90 53 91 54 92 55 93
REMARK H PARENT 13 6 9 11 18 27 77 46 45 57
REMARK Flexibility Score: inf
ROOT
ATOM      1  C   UNL     1       4.456   7.418   7.303  1.00  0.00     0.023 C 
ENDROOT
BRANCH   1   2
ATOM      2  C   UNL     1       4.572   6.984   5.840  1.00  0.00     0.116 C 
BRANCH   2   3
ATOM      3  N   UNL     1       5.460   5.850   5.715  1.00  0.00    -0.354 N 
ATOM      4  C   UNL     1       5.250   4.523   5.548  1.00  0.00     0.242 C 
ATOM      5  O   UNL     1       6.266   3.815   5.636  1.00  0.00    -0.273 OA
ATOM      6  H   UNL     1       6.413   6.093   5.760  1.00  0.00     0.163 HD
BRANCH   4   7
ATOM      7  C   UNL     1       3.880   3.870   5.154  1.00  0.00     0.174 C 
BRANCH   7   8
ATOM      8  N   UNL     1       4.183   2.430   5.248  1.00  0.00    -0.337 N 
ATOM      9  C   UNL     1       3.589   1.301   4.759  1.00  0.00     0.287 C 
ATOM     10  O   UNL     1       4.086   0.218   5.075  1.00  0.00    -0.266 OA
ATOM     11  H   UNL     1       4.990   2.241   5.779  1.00  0.00     0.164 HD
BRANCH   9  12
ATOM     12  C   UNL     1       2.401   1.413   3.951  1.00  0.00     0.191 A 
ATOM     13  C   UNL     1       0.346   0.837   3.397  1.00  0.00     0.104 A 
ATOM     14  C   UNL     1       0.683   1.901   2.588  1.00  0.00     0.046 A 
ATOM     15  O   UNL     1       1.390   0.527   4.209  1.00  0.00    -0.456 OA
ATOM     16  C   UNL     1       2.014   2.251   2.923  1.00  0.00     0.056 A 
BRANCH  13  17
ATOM     17  C   UNL     1      -0.871   0.007   3.579  1.00  0.00     0.072 C 
ATOM     18  C   UNL     1      -1.645  -0.187   2.286  1.00  0.00     0.012 C 
ENDBRANCH  13  17
ENDBRANCH   9  12
ENDBRANCH   7   8
BRANCH   7  19
ATOM     19  C   UNL     1       2.649   4.337   5.992  1.00  0.00     0.018 C 
ATOM     20  C   UNL     1       1.889   3.245   6.758  1.00  0.00     0.010 C 
BRANCH  19  21
ATOM     21  C   UNL     1       1.651   5.114   5.088  1.00  0.00     0.002 C 
ATOM     22  C   UNL     1       0.701   6.013   5.870  1.00  0.00     0.004 C 
ENDBRANCH  19  21
ENDBRANCH   7  19
ENDBRANCH   4   7
ENDBRANCH   2   3
ENDBRANCH   1   2
BRANCH   1  23
ATOM     23  C   UNL     1       5.153   8.744   7.608  1.00  0.00     0.023 C 
BRANCH  23  24
ATOM     24  C   UNL     1       4.653   9.938   6.803  1.00  0.00     0.116 C 
BRANCH  24  25
ATOM     25  N   UNL     1       3.216  10.162   6.899  1.00  0.00    -0.352 N 
ATOM     26  C   UNL     1       2.551  11.369   6.848  1.00  0.00     0.251 C 
ATOM     27  H   UNL     1       2.657   9.361   7.014  1.00  0.00     0.163 HD
ATOM     28  O   UNL     1       1.339  11.427   6.997  1.00  0.00    -0.269 OA
BRANCH  26  29
ATOM     29  C   UNL     1       3.353  12.595   6.659  1.00  0.00     0.039 A 
ATOM     30  C   UNL     1       3.302  13.590   7.636  1.00  0.00     0.014 A 
ATOM     31  C   UNL     1       4.246  12.687   5.589  1.00  0.00     0.014 A 
ATOM     32  C   UNL     1       4.216  14.644   7.585  1.00  0.00     0.010 A 
ATOM     33  C   UNL     1       5.204  13.694   5.585  1.00  0.00     0.010 A 
ATOM     34  C   UNL     1       5.205  14.677   6.587  1.00  0.00    -0.014 A 
BRANCH  34  35
ATOM     35  C   UNL     1       6.271  15.711   6.593  1.00  0.00     0.031 A 
ATOM     36  C   UNL     1       6.398  16.672   5.443  1.00  0.00     0.074 A 
ATOM     37  C   UNL     1       7.187  15.718   7.583  1.00  0.00     0.049 A 
ATOM     38  N   UNL     1       7.291  17.605   5.245  1.00  0.00    -0.248 NA
ATOM     39  C   UNL     1       5.412  16.546   4.355  1.00  0.00     0.031 C 
ATOM     40  C   UNL     1       7.236  14.771   8.700  1.00  0.00     0.029 A 
ATOM     41  N   UNL     1       8.268  16.536   7.798  1.00  0.00    -0.354 N 
ATOM     42  C   UNL     1       7.002  18.150   4.001  1.00  0.00     0.074 A 
ATOM     43  C   UNL     1       5.874  17.416   3.470  1.00  0.00     0.031 C 
ATOM     44  C   UNL     1       8.284  15.070   9.486  1.00  0.00     0.029 A 
ATOM     45  C   UNL     1       8.992  16.215   8.923  1.00  0.00     0.049 A 
ATOM     46  H   UNL     1       8.504  17.283   7.201  1.00  0.00     0.167 HD
ATOM     47  C   UNL     1       7.593  19.193   3.372  1.00  0.00     0.034 A 
ATOM     48  C   UNL     1      10.095  16.785   9.446  1.00  0.00     0.034 A 
ATOM     49  C   UNL     1       8.668  19.964   3.932  1.00  0.00     0.049 A 
ATOM     50  C   UNL     1      10.681  17.995   8.769  1.00  0.00     0.074 A 
ATOM     51  C   UNL     1       9.269  21.100   3.422  1.00  0.00     0.029 A 
ATOM     52  N   UNL     1       9.300  19.681   5.133  1.00  0.00    -0.354 N 
ATOM     53  N   UNL     1      10.280  18.605   7.680  1.00  0.00    -0.248 NA
ATOM     54  C   UNL     1      11.844  18.622   9.415  1.00  0.00     0.031 C 
ATOM     55  C   UNL     1      10.267  21.505   4.315  1.00  0.00     0.029 A 
ATOM     56  C   UNL     1      10.282  20.623   5.384  1.00  0.00     0.049 A 
ATOM     57  H   UNL     1       9.082  18.922   5.721  1.00  0.00     0.167 HD
ATOM     58  C   UNL     1      11.117  19.705   7.529  1.00  0.00     0.074 A 
ATOM     59  C   UNL     1      12.032  19.690   8.652  1.00  0.00     0.031 C 
ATOM     60  C   UNL     1      11.141  20.631   6.539  1.00  0.00     0.034 A 
BRANCH  47  61
ATOM     61  C   UNL     1       7.030  19.613   2.041  1.00  0.00     0.023 A 
ATOM     62  C   UNL     1       5.784  20.272   2.000  1.00  0.00     0.012 A 
ATOM     63  C   UNL     1       7.744  19.406   0.846  1.00  0.00     0.148 A 
ATOM     64  C   UNL     1       5.241  20.690   0.786  1.00  0.00     0.002 A 
ATOM     65  C   UNL     1       7.215  19.863  -0.356  1.00  0.00     0.091 A 
ATOM     66  F   UNL     1       8.915  18.756   0.903  1.00  0.00    -0.205 F 
ATOM     67  C   UNL     1       5.960  20.495  -0.389  1.00  0.00     0.022 A 
BRANCH  65  68
ATOM     68  S   UNL     1       8.095  19.723  -1.916  1.00  0.00     0.127 S 
ATOM     69  O   UNL     1       7.336  18.670  -2.590  1.00  0.00    -0.237 OA
ATOM     70  O   UNL     1       7.923  21.059  -2.489  1.00  0.00    -0.237 OA
ATOM     71  O   UNL     1       9.468  19.384  -1.571  1.00  0.00    -0.744 OA
ENDBRANCH  65  68
ENDBRANCH  47  61
BRANCH  48  72
ATOM     72  C   UNL     1      10.661  16.279  10.729  1.00  0.00     0.023 A 
ATOM     73  C   UNL     1      10.523  17.059  11.894  1.00  0.00     0.012 A 
ATOM     74  C   UNL     1      11.309  15.033  10.812  1.00  0.00     0.148 A 
ATOM     75  C   UNL     1      11.048  16.624  13.111  1.00  0.00     0.002 A 
ATOM     76  C   UNL     1      11.784  14.580  12.039  1.00  0.00     0.091 A 
ATOM     77  F   UNL     1      11.447  14.310   9.692  1.00  0.00    -0.205 F 
ATOM     78  C   UNL     1      11.669  15.381  13.186  1.00  0.00     0.022 A 
BRANCH  76  79
ATOM     79  S   UNL     1      12.477  12.935  12.243  1.00  0.00     0.127 S 
ATOM     80  O   UNL     1      13.910  13.214  12.272  1.00  0.00    -0.237 OA
ATOM     81  O   UNL     1      11.904  12.515  13.523  1.00  0.00    -0.237 OA
ATOM     82  O   UNL     1      11.995  12.172  11.099  1.00  0.00    -0.744 OA
ENDBRANCH  76  79
ENDBRANCH  48  72
BRANCH  60  83
ATOM     83  C   UNL     1      12.169  21.726   6.633  1.00  0.00     0.023 A 
ATOM     84  C   UNL     1      13.519  21.437   6.355  1.00  0.00     0.012 A 
ATOM     85  C   UNL     1      11.788  23.051   6.919  1.00  0.00     0.148 A 
ATOM     86  C   UNL     1      14.480  22.446   6.386  1.00  0.00     0.002 A 
ATOM     87  C   UNL     1      12.745  24.060   6.905  1.00  0.00     0.091 A 
ATOM     88  F   UNL     1      10.502  23.303   7.203  1.00  0.00    -0.205 F 
ATOM     89  C   UNL     1      14.092  23.758   6.649  1.00  0.00     0.022 A 
BRANCH  87  90
ATOM     90  S   UNL     1      12.312  25.787   7.141  1.00  0.00     0.127 S 
ATOM     91  O   UNL     1      12.706  26.007   8.532  1.00  0.00    -0.237 OA
ATOM     92  O   UNL     1      13.157  26.462   6.155  1.00  0.00    -0.237 OA
ATOM     93  O   UNL     1      10.884  25.877   6.868  1.00  0.00    -0.744 OA
ENDBRANCH  87  90
ENDBRANCH  60  83
ENDBRANCH  34  35
ENDBRANCH  26  29
ENDBRANCH  24  25
ENDBRANCH  23  24
ENDBRANCH   1  23
TORSDOF 19
