REMARK SMILES CN(CC(F)(F)F)C(=O)N1CC(n2cc(C(=O)NCCCCNC(=O)c3ccc(-c4c5nc(c(-c6cccc(S(=O)(=O)[O-])c6F)c6ccc([nH]6)c(-c6cccc(S(=O)(=O)[O-])c6F)c6nc(c(-c7cccc(S(=O)(=O)[O-])c7F)c7ccc4[nH]7)C=C6)C=C5)cc3)nn2)C1
REMARK SMILES IDX 20 1 19 2 18 3 16 4 17 5 15 7 13 8 14 9 90 10 89 11 12 12
REMARK SMILES IDX 8 13 9 14 10 15 11 16 91 17 2 18 1 19 3 20 4 21 5 22 6 23
REMARK SMILES IDX 7 24 21 25 22 26 23 27 24 28 25 30 26 31 27 32 88 33 28 34
REMARK SMILES IDX 87 35 29 36 30 37 31 38 81 39 32 40 86 41 80 42 82 43 33 44
REMARK SMILES IDX 85 45 79 46 78 47 34 49 66 50 46 51 65 52 47 53 50 54 64 55
REMARK SMILES IDX 83 56 48 57 49 58 63 60 84 61 51 62 35 63 36 64 44 65 37 66
REMARK SMILES IDX 39 67 45 68 38 69 40 70 41 71 42 72 43 73 67 74 68 75 76 76
REMARK SMILES IDX 69 77 71 78 77 79 70 80 72 81 73 82 74 83 75 84 52 85 53 86
REMARK SMILES IDX 61 87 54 88 56 89 62 90 55 91 57 92 58 93 59 94 60 95
REMARK H PARENT 18 6 23 29 82 48 50 59
REMARK Flexibility Score: inf
ROOT
ATOM      1  C   UNL     1      -5.043  -5.033   6.799  1.00  0.00     0.023 C 
ENDROOT
BRANCH   1   2
ATOM      2  C   UNL     1      -4.742  -3.663   7.420  1.00  0.00     0.116 C 
BRANCH   2   3
ATOM      3  N   UNL     1      -4.051  -3.788   8.689  1.00  0.00    -0.351 N 
ATOM      4  C   UNL     1      -2.725  -3.699   9.030  1.00  0.00     0.273 C 
ATOM      5  O   UNL     1      -2.450  -3.856  10.233  1.00  0.00    -0.267 OA
ATOM      6  H   UNL     1      -4.646  -3.973   9.451  1.00  0.00     0.163 HD
BRANCH   4   7
ATOM      7  C   UNL     1      -1.673  -3.452   8.051  1.00  0.00     0.170 A 
ATOM      8  N   UNL     1      -0.405  -3.192   6.304  1.00  0.00    -0.245 N 
ATOM      9  C   UNL     1      -1.624  -3.680   6.687  1.00  0.00     0.145 A 
ATOM     10  N   UNL     1       0.309  -2.776   7.353  1.00  0.00    -0.066 NA
ATOM     11  N   UNL     1      -0.444  -2.944   8.431  1.00  0.00    -0.125 NA
BRANCH   8  12
ATOM     12  C   UNL     1       0.041  -3.144   4.948  1.00  0.00     0.148 C 
ATOM     13  C   UNL     1       1.132  -1.515   2.370  1.00  0.00     0.320 C 
ATOM     14  O   UNL     1       2.018  -2.210   1.868  1.00  0.00    -0.248 OA
ATOM     15  N   UNL     1       0.750  -1.690   3.670  1.00  0.00    -0.320 N 
ATOM     16  C   UNL     1       1.410  -2.515   4.688  1.00  0.00     0.150 C 
ATOM     17  C   UNL     1      -0.582  -1.952   4.208  1.00  0.00     0.150 C 
BRANCH  13  18
ATOM     18  N   UNL     1       0.510  -0.504   1.657  1.00  0.00    -0.319 N 
ATOM     19  C   UNL     1       0.858  -0.370   0.252  1.00  0.00     0.149 C 
BRANCH  18  20
ATOM     20  C   UNL     1      -0.375   0.532   2.232  1.00  0.00     0.236 C 
BRANCH  20  21
ATOM     21  C   UNL     1      -1.851   0.425   1.846  1.00  0.00     0.406 C 
ATOM     22  F   UNL     1      -2.386  -0.767   2.185  1.00  0.00    -0.169 F 
ATOM     23  F   UNL     1      -2.574   1.384   2.466  1.00  0.00    -0.169 F 
ATOM     24  F   UNL     1      -2.025   0.585   0.514  1.00  0.00    -0.169 F 
ENDBRANCH  20  21
ENDBRANCH  18  20
ENDBRANCH  13  18
ENDBRANCH   8  12
ENDBRANCH   4   7
ENDBRANCH   2   3
ENDBRANCH   1   2
BRANCH   1  25
ATOM     25  C   UNL     1      -6.199  -5.813   7.450  1.00  0.00     0.023 C 
BRANCH  25  26
ATOM     26  C   UNL     1      -7.591  -5.233   7.211  1.00  0.00     0.116 C 
BRANCH  26  27
ATOM     27  N   UNL     1      -7.966  -5.203   5.792  1.00  0.00    -0.352 N 
ATOM     28  C   UNL     1      -8.976  -4.479   5.193  1.00  0.00     0.251 C 
ATOM     29  H   UNL     1      -7.429  -5.771   5.192  1.00  0.00     0.163 HD
ATOM     30  O   UNL     1      -9.418  -4.802   4.087  1.00  0.00    -0.269 OA
BRANCH  28  31
ATOM     31  C   UNL     1      -9.514  -3.305   5.894  1.00  0.00     0.039 A 
ATOM     32  C   UNL     1     -10.890  -3.080   6.016  1.00  0.00     0.014 A 
ATOM     33  C   UNL     1      -8.594  -2.459   6.503  1.00  0.00     0.014 A 
ATOM     34  C   UNL     1     -11.335  -2.049   6.844  1.00  0.00     0.010 A 
ATOM     35  C   UNL     1      -9.034  -1.555   7.434  1.00  0.00     0.010 A 
ATOM     36  C   UNL     1     -10.400  -1.301   7.570  1.00  0.00    -0.014 A 
BRANCH  36  37
ATOM     37  C   UNL     1     -10.814  -0.292   8.543  1.00  0.00     0.031 A 
ATOM     38  C   UNL     1     -11.661  -0.762   9.679  1.00  0.00     0.074 A 
ATOM     39  C   UNL     1     -10.216   0.920   8.581  1.00  0.00     0.049 A 
ATOM     40  N   UNL     1     -12.836  -0.342  10.025  1.00  0.00    -0.248 NA
ATOM     41  C   UNL     1     -11.171  -1.886  10.492  1.00  0.00     0.031 C 
ATOM     42  C   UNL     1      -9.116   1.405   7.732  1.00  0.00     0.029 A 
ATOM     43  N   UNL     1     -10.331   1.905   9.513  1.00  0.00    -0.354 N 
ATOM     44  C   UNL     1     -13.140  -0.996  11.222  1.00  0.00     0.074 A 
ATOM     45  C   UNL     1     -12.168  -2.047  11.364  1.00  0.00     0.031 C 
ATOM     46  C   UNL     1      -8.483   2.419   8.357  1.00  0.00     0.029 A 
ATOM     47  C   UNL     1      -9.251   2.781   9.531  1.00  0.00     0.049 A 
ATOM     48  H   UNL     1     -11.104   1.988  10.117  1.00  0.00     0.167 HD
ATOM     49  C   UNL     1     -14.027  -0.482  12.121  1.00  0.00     0.034 A 
ATOM     50  C   UNL     1      -8.976   3.712  10.471  1.00  0.00     0.034 A 
ATOM     51  C   UNL     1     -14.810   0.582  11.549  1.00  0.00     0.049 A 
ATOM     52  C   UNL     1     -10.240   3.995  11.183  1.00  0.00     0.074 A 
ATOM     53  C   UNL     1     -15.690   0.707  10.495  1.00  0.00     0.029 A 
ATOM     54  N   UNL     1     -14.457   1.862  11.899  1.00  0.00    -0.354 N 
ATOM     55  N   UNL     1     -11.282   4.535  10.613  1.00  0.00    -0.248 NA
ATOM     56  C   UNL     1     -10.495   3.317  12.441  1.00  0.00     0.031 C 
ATOM     57  C   UNL     1     -15.447   2.010   9.968  1.00  0.00     0.029 A 
ATOM     58  C   UNL     1     -14.465   2.615  10.757  1.00  0.00     0.049 A 
ATOM     59  H   UNL     1     -14.238   2.179  12.805  1.00  0.00     0.167 HD
ATOM     60  C   UNL     1     -12.365   3.888  11.190  1.00  0.00     0.074 A 
ATOM     61  C   UNL     1     -11.829   3.266  12.399  1.00  0.00     0.031 C 
ATOM     62  C   UNL     1     -13.515   3.673  10.483  1.00  0.00     0.034 A 
BRANCH  49  63
ATOM     63  C   UNL     1     -13.978  -0.676  13.624  1.00  0.00     0.023 A 
ATOM     64  C   UNL     1     -15.082  -0.210  14.378  1.00  0.00     0.012 A 
ATOM     65  C   UNL     1     -12.817  -1.025  14.350  1.00  0.00     0.148 A 
ATOM     66  C   UNL     1     -15.016  -0.048  15.767  1.00  0.00     0.002 A 
ATOM     67  C   UNL     1     -12.785  -0.943  15.739  1.00  0.00     0.091 A 
ATOM     68  F   UNL     1     -11.683  -1.308  13.703  1.00  0.00    -0.205 F 
ATOM     69  C   UNL     1     -13.868  -0.424  16.451  1.00  0.00     0.022 A 
BRANCH  67  70
ATOM     70  S   UNL     1     -11.345  -1.479  16.671  1.00  0.00     0.127 S 
ATOM     71  O   UNL     1     -10.695  -0.206  16.962  1.00  0.00    -0.237 OA
ATOM     72  O   UNL     1     -11.957  -2.142  17.823  1.00  0.00    -0.237 OA
ATOM     73  O   UNL     1     -10.632  -2.383  15.777  1.00  0.00    -0.744 OA
ENDBRANCH  67  70
ENDBRANCH  49  63
BRANCH  50  74
ATOM     74  C   UNL     1      -7.664   4.213  10.930  1.00  0.00     0.023 A 
ATOM     75  C   UNL     1      -7.571   5.476  11.542  1.00  0.00     0.012 A 
ATOM     76  C   UNL     1      -6.547   3.349  11.000  1.00  0.00     0.148 A 
ATOM     77  C   UNL     1      -6.412   5.857  12.229  1.00  0.00     0.002 A 
ATOM     78  C   UNL     1      -5.394   3.736  11.675  1.00  0.00     0.091 A 
ATOM     79  F   UNL     1      -6.651   2.118  10.481  1.00  0.00    -0.205 F 
ATOM     80  C   UNL     1      -5.328   4.986  12.302  1.00  0.00     0.022 A 
BRANCH  78  81
ATOM     81  S   UNL     1      -3.963   2.658  11.816  1.00  0.00     0.127 S 
ATOM     82  O   UNL     1      -2.867   3.565  11.471  1.00  0.00    -0.237 OA
ATOM     83  O   UNL     1      -4.019   2.271  13.223  1.00  0.00    -0.237 OA
ATOM     84  O   UNL     1      -4.181   1.588  10.851  1.00  0.00    -0.744 OA
ENDBRANCH  78  81
ENDBRANCH  50  74
BRANCH  62  85
ATOM     85  C   UNL     1     -13.672   4.369   9.150  1.00  0.00     0.023 A 
ATOM     86  C   UNL     1     -12.833   4.072   8.055  1.00  0.00     0.012 A 
ATOM     87  C   UNL     1     -14.799   5.178   8.935  1.00  0.00     0.148 A 
ATOM     88  C   UNL     1     -13.096   4.585   6.782  1.00  0.00     0.002 A 
ATOM     89  C   UNL     1     -15.085   5.651   7.659  1.00  0.00     0.091 A 
ATOM     90  F   UNL     1     -15.599   5.439   9.981  1.00  0.00    -0.205 F 
ATOM     91  C   UNL     1     -14.231   5.364   6.581  1.00  0.00     0.022 A 
BRANCH  89  92
ATOM     92  S   UNL     1     -16.596   6.548   7.296  1.00  0.00     0.127 S 
ATOM     93  O   UNL     1     -16.098   7.902   7.062  1.00  0.00    -0.237 OA
ATOM     94  O   UNL     1     -17.087   5.862   6.100  1.00  0.00    -0.237 OA
ATOM     95  O   UNL     1     -17.450   6.390   8.467  1.00  0.00    -0.744 OA
ENDBRANCH  89  92
ENDBRANCH  62  85
ENDBRANCH  36  37
ENDBRANCH  28  31
ENDBRANCH  26  27
ENDBRANCH  25  26
ENDBRANCH   1  25
TORSDOF 18
