REMARK SMILES CC(C)(NC(=O)[C@]1(C)CCCO1)C(C)(C)C(=O)NCCCCNC(=O)c1ccc(-c2c3nc(c(-c4cccc(S(=O)(=O)[O-])c4F)c4ccc([nH]4)c(-c4cccc(S(=O)(=O)[O-])c4F)c4nc(c(-c5cccc(S(=O)(=O)[O-])c5F)c5ccc2[nH]5)C=C4)C=C3)cc1
REMARK SMILES IDX 20 1 19 2 18 3 16 4 17 5 13 7 14 8 15 9 2 10 1 11 3 12 4 13
REMARK SMILES IDX 5 14 6 16 7 17 9 18 12 19 8 20 10 21 11 22 21 23 22 24 23 25
REMARK SMILES IDX 24 26 25 28 26 29 27 30 88 31 28 32 87 33 29 34 30 35 31 36
REMARK SMILES IDX 81 37 32 38 86 39 80 40 82 41 33 42 85 43 79 44 78 45 34 47
REMARK SMILES IDX 66 48 46 49 65 50 47 51 50 52 64 53 83 54 48 55 49 56 63 58
REMARK SMILES IDX 84 59 51 60 35 61 36 62 44 63 37 64 39 65 45 66 38 67 40 68
REMARK SMILES IDX 41 69 42 70 43 71 67 72 68 73 76 74 69 75 71 76 77 77 70 78
REMARK SMILES IDX 72 79 73 80 74 81 75 82 52 83 53 84 61 85 54 86 56 87 62 88
REMARK SMILES IDX 55 89 57 90 58 91 59 92 60 93
REMARK H PARENT 18 6 4 15 23 27 82 46 50 57
REMARK Flexibility Score: inf
ROOT
ATOM      1  C   UNL     1      -4.422  -5.726   3.579  1.00  0.00     0.023 C 
ENDROOT
BRANCH   1   2
ATOM      2  C   UNL     1      -3.682  -4.523   2.930  1.00  0.00     0.116 C 
BRANCH   2   3
ATOM      3  N   UNL     1      -2.210  -4.043   3.637  1.00  0.00    -0.356 N 
ATOM      4  C   UNL     1      -0.313  -4.356   3.167  1.00  0.00     0.228 C 
ATOM      5  O   UNL     1       0.692  -4.205   3.898  1.00  0.00    -0.274 OA
ATOM      6  H   UNL     1      -2.326  -3.496   4.447  1.00  0.00     0.163 HD
BRANCH   4   7
ATOM      7  C   UNL     1       0.147  -4.932   1.392  1.00  0.00     0.066 C 
ATOM      8  C   UNL     1      -0.575  -4.283   0.048  1.00  0.00     0.024 C 
ATOM      9  C   UNL     1      -0.042  -6.459   1.123  1.00  0.00     0.024 C 
BRANCH   7  10
ATOM     10  C   UNL     1       1.596  -4.434   1.328  1.00  0.00     0.048 C 
ATOM     11  C   UNL     1       2.247  -4.650  -0.066  1.00  0.00     0.035 C 
ATOM     12  C   UNL     1       2.568  -5.201   2.274  1.00  0.00     0.035 C 
BRANCH  10  13
ATOM     13  N   UNL     1       1.482  -2.970   1.601  1.00  0.00    -0.348 N 
ATOM     14  C   UNL     1       0.371  -2.195   1.946  1.00  0.00     0.252 C 
ATOM     15  H   UNL     1       2.327  -2.470   1.525  1.00  0.00     0.164 HD
ATOM     16  O   UNL     1       0.560  -0.969   1.929  1.00  0.00    -0.272 OA
BRANCH  14  17
ATOM     17  C   UNL     1      -1.180  -2.795   2.488  1.00  0.00     0.143 C 
ATOM     18  C   UNL     1      -0.908  -2.747   4.458  1.00  0.00     0.048 C 
ATOM     19  O   UNL     1      -1.701  -4.626   2.054  1.00  0.00    -0.365 OA
ATOM     20  C   UNL     1      -2.232  -1.772   2.022  1.00  0.00     0.053 C 
ATOM     21  C   UNL     1      -1.065  -4.607   5.159  1.00  0.00     0.032 C 
ATOM     22  C   UNL     1      -1.452  -5.800   3.614  1.00  0.00     0.162 C 
ENDBRANCH  14  17
ENDBRANCH  10  13
ENDBRANCH   7  10
ENDBRANCH   4   7
ENDBRANCH   2   3
ENDBRANCH   1   2
BRANCH   1  23
ATOM     23  C   UNL     1      -4.858  -5.476   5.009  1.00  0.00     0.023 C 
BRANCH  23  24
ATOM     24  C   UNL     1      -5.830  -4.319   5.074  1.00  0.00     0.116 C 
BRANCH  24  25
ATOM     25  N   UNL     1      -6.908  -4.491   4.095  1.00  0.00    -0.352 N 
ATOM     26  C   UNL     1      -8.249  -4.604   4.330  1.00  0.00     0.251 C 
ATOM     27  H   UNL     1      -6.631  -4.531   3.151  1.00  0.00     0.163 HD
ATOM     28  O   UNL     1      -9.005  -5.087   3.497  1.00  0.00    -0.269 OA
BRANCH  26  29
ATOM     29  C   UNL     1      -8.733  -4.104   5.619  1.00  0.00     0.039 A 
ATOM     30  C   UNL     1      -9.621  -4.868   6.367  1.00  0.00     0.014 A 
ATOM     31  C   UNL     1      -8.194  -2.910   6.109  1.00  0.00     0.014 A 
ATOM     32  C   UNL     1      -9.941  -4.439   7.649  1.00  0.00     0.010 A 
ATOM     33  C   UNL     1      -8.396  -2.573   7.429  1.00  0.00     0.010 A 
ATOM     34  C   UNL     1      -9.304  -3.310   8.196  1.00  0.00    -0.014 A 
BRANCH  34  35
ATOM     35  C   UNL     1      -9.601  -2.858   9.569  1.00  0.00     0.031 A 
ATOM     36  C   UNL     1     -10.156  -1.480   9.789  1.00  0.00     0.074 A 
ATOM     37  C   UNL     1      -9.316  -3.667  10.605  1.00  0.00     0.049 A 
ATOM     38  N   UNL     1     -10.468  -0.895  10.914  1.00  0.00    -0.248 NA
ATOM     39  C   UNL     1     -10.362  -0.633   8.599  1.00  0.00     0.031 C 
ATOM     40  C   UNL     1      -8.697  -4.992  10.503  1.00  0.00     0.029 A 
ATOM     41  N   UNL     1      -9.497  -3.486  11.950  1.00  0.00    -0.354 N 
ATOM     42  C   UNL     1     -10.869   0.389  10.572  1.00  0.00     0.074 A 
ATOM     43  C   UNL     1     -10.717   0.520   9.142  1.00  0.00     0.031 C 
ATOM     44  C   UNL     1      -8.575  -5.514  11.733  1.00  0.00     0.029 A 
ATOM     45  C   UNL     1      -9.056  -4.543  12.709  1.00  0.00     0.049 A 
ATOM     46  H   UNL     1      -9.903  -2.677  12.336  1.00  0.00     0.167 HD
ATOM     47  C   UNL     1     -11.347   1.363  11.375  1.00  0.00     0.034 A 
ATOM     48  C   UNL     1      -9.026  -4.700  14.046  1.00  0.00     0.034 A 
ATOM     49  C   UNL     1     -11.513   1.214  12.793  1.00  0.00     0.049 A 
ATOM     50  C   UNL     1      -9.575  -3.603  14.914  1.00  0.00     0.074 A 
ATOM     51  C   UNL     1     -12.067   2.109  13.689  1.00  0.00     0.029 A 
ATOM     52  N   UNL     1     -11.101   0.112  13.525  1.00  0.00    -0.354 N 
ATOM     53  N   UNL     1     -10.090  -2.450  14.560  1.00  0.00    -0.248 NA
ATOM     54  C   UNL     1      -9.570  -3.841  16.363  1.00  0.00     0.031 C 
ATOM     55  C   UNL     1     -11.931   1.575  14.973  1.00  0.00     0.029 A 
ATOM     56  C   UNL     1     -11.363   0.315  14.868  1.00  0.00     0.049 A 
ATOM     57  H   UNL     1     -10.685  -0.696  13.146  1.00  0.00     0.167 HD
ATOM     58  C   UNL     1     -10.507  -1.843  15.738  1.00  0.00     0.074 A 
ATOM     59  C   UNL     1     -10.203  -2.766  16.812  1.00  0.00     0.031 C 
ATOM     60  C   UNL     1     -11.085  -0.630  15.918  1.00  0.00     0.034 A 
BRANCH  47  61
ATOM     61  C   UNL     1     -11.732   2.672  10.740  1.00  0.00     0.023 A 
ATOM     62  C   UNL     1     -12.849   2.745   9.882  1.00  0.00     0.012 A 
ATOM     63  C   UNL     1     -11.014   3.844  11.043  1.00  0.00     0.148 A 
ATOM     64  C   UNL     1     -13.223   3.960   9.309  1.00  0.00     0.002 A 
ATOM     65  C   UNL     1     -11.427   5.059  10.514  1.00  0.00     0.091 A 
ATOM     66  F   UNL     1      -9.941   3.747  11.840  1.00  0.00    -0.205 F 
ATOM     67  C   UNL     1     -12.521   5.117   9.636  1.00  0.00     0.022 A 
BRANCH  65  68
ATOM     68  S   UNL     1     -10.642   6.615  10.942  1.00  0.00     0.127 S 
ATOM     69  O   UNL     1     -10.065   7.015   9.659  1.00  0.00    -0.237 OA
ATOM     70  O   UNL     1     -11.783   7.420  11.376  1.00  0.00    -0.237 OA
ATOM     71  O   UNL     1      -9.676   6.308  11.987  1.00  0.00    -0.744 OA
ENDBRANCH  65  68
ENDBRANCH  47  61
BRANCH  48  72
ATOM     72  C   UNL     1      -8.472  -5.947  14.640  1.00  0.00     0.023 A 
ATOM     73  C   UNL     1      -9.320  -6.838  15.325  1.00  0.00     0.012 A 
ATOM     74  C   UNL     1      -7.103  -6.252  14.523  1.00  0.00     0.148 A 
ATOM     75  C   UNL     1      -8.804  -7.987  15.925  1.00  0.00     0.002 A 
ATOM     76  C   UNL     1      -6.607  -7.428  15.068  1.00  0.00     0.091 A 
ATOM     77  F   UNL     1      -6.315  -5.388  13.866  1.00  0.00    -0.205 F 
ATOM     78  C   UNL     1      -7.450  -8.286  15.789  1.00  0.00     0.022 A 
BRANCH  76  79
ATOM     79  S   UNL     1      -4.907  -7.953  14.832  1.00  0.00     0.127 S 
ATOM     80  O   UNL     1      -4.380  -7.876  16.192  1.00  0.00    -0.237 OA
ATOM     81  O   UNL     1      -5.084  -9.310  14.314  1.00  0.00    -0.237 OA
ATOM     82  O   UNL     1      -4.330  -7.015  13.879  1.00  0.00    -0.744 OA
ENDBRANCH  76  79
ENDBRANCH  48  72
BRANCH  60  83
ATOM     83  C   UNL     1     -11.486  -0.250  17.319  1.00  0.00     0.023 A 
ATOM     84  C   UNL     1     -10.509   0.022  18.295  1.00  0.00     0.012 A 
ATOM     85  C   UNL     1     -12.850  -0.107  17.645  1.00  0.00     0.148 A 
ATOM     86  C   UNL     1     -10.884   0.385  19.588  1.00  0.00     0.002 A 
ATOM     87  C   UNL     1     -13.214   0.314  18.916  1.00  0.00     0.091 A 
ATOM     88  F   UNL     1     -13.765  -0.384  16.704  1.00  0.00    -0.205 F 
ATOM     89  C   UNL     1     -12.234   0.542  19.895  1.00  0.00     0.022 A 
BRANCH  87  90
ATOM     90  S   UNL     1     -14.920   0.640  19.369  1.00  0.00     0.127 S 
ATOM     91  O   UNL     1     -15.181  -0.430  20.331  1.00  0.00    -0.237 OA
ATOM     92  O   UNL     1     -14.831   1.978  19.954  1.00  0.00    -0.237 OA
ATOM     93  O   UNL     1     -15.690   0.567  18.135  1.00  0.00    -0.744 OA
ENDBRANCH  87  90
ENDBRANCH  60  83
ENDBRANCH  34  35
ENDBRANCH  26  29
ENDBRANCH  24  25
ENDBRANCH  23  24
ENDBRANCH   1  23
TORSDOF 17
