REMARK SMILES O=C(Cn1c2ccccc2c(=O)c2ccccc21)N[C@@H](Cc1ccccc1)C(=O)NCCCCNC(=O)c1ccc(-c2c3nc(c(-c4cccc(S(=O)(=O)[O-])c4F)c4ccc([nH]4)c(-c4cccc(S(=O)(=O)[O-])c4F)c4nc(c(-c5cccc(S(=O)(=O)[O-])c5F)c5ccc2[nH]5)C=C4)C=C3)cc1
REMARK SMILES IDX 32 1 31 2 30 3 28 4 29 5 20 7 19 8 1 9 2 10 3 12 4 13 5 14
REMARK SMILES IDX 18 15 6 16 10 17 13 18 17 19 7 20 9 21 11 22 14 23 16 24
REMARK SMILES IDX 8 25 12 26 15 27 21 28 22 29 23 30 27 31 24 32 26 33 25 34
REMARK SMILES IDX 33 35 34 36 35 37 36 38 37 40 38 41 39 42 100 43 40 44 99 45
REMARK SMILES IDX 41 46 42 47 43 48 93 49 44 50 98 51 92 52 94 53 45 54 97 55
REMARK SMILES IDX 91 56 90 57 46 59 78 60 58 61 77 62 59 63 62 64 76 65 95 66
REMARK SMILES IDX 60 67 61 68 75 70 96 71 63 72 47 73 48 74 56 75 49 76 51 77
REMARK SMILES IDX 57 78 50 79 52 80 53 81 54 82 55 83 79 84 80 85 88 86 81 87
REMARK SMILES IDX 83 88 89 89 82 90 84 91 85 92 86 93 87 94 64 95 65 96 73 97
REMARK SMILES IDX 66 98 68 99 74 100 67 101 69 102 70 103 71 104 72 105
REMARK H PARENT 30 6 19 11 35 39 94 58 62 69
REMARK Flexibility Score: inf
ROOT
ATOM      1  C   UNL     1       6.379  -2.621  -0.268  1.00  0.00     0.023 C 
ENDROOT
BRANCH   1   2
ATOM      2  C   UNL     1       5.450  -2.606  -1.470  1.00  0.00     0.116 C 
BRANCH   2   3
ATOM      3  N   UNL     1       4.213  -3.336  -1.272  1.00  0.00    -0.354 N 
ATOM      4  C   UNL     1       2.944  -3.002  -1.658  1.00  0.00     0.242 C 
ATOM      5  O   UNL     1       2.143  -3.922  -1.846  1.00  0.00    -0.273 OA
ATOM      6  H   UNL     1       4.299  -4.191  -0.792  1.00  0.00     0.163 HD
BRANCH   4   7
ATOM      7  C   UNL     1       2.531  -1.540  -1.931  1.00  0.00     0.175 C 
BRANCH   7   8
ATOM      8  N   UNL     1       3.076  -0.628  -0.916  1.00  0.00    -0.342 N 
ATOM      9  O   UNL     1       1.134   0.535  -0.597  1.00  0.00    -0.273 OA
ATOM     10  C   UNL     1       2.261   0.226  -0.211  1.00  0.00     0.240 C 
ATOM     11  H   UNL     1       4.044  -0.628  -0.737  1.00  0.00     0.164 HD
BRANCH  10  12
ATOM     12  C   UNL     1       2.851   0.820   1.071  1.00  0.00     0.222 C 
BRANCH  12  13
ATOM     13  N   UNL     1       3.660  -0.078   1.951  1.00  0.00    -0.331 N 
ATOM     14  C   UNL     1       4.681   0.555   2.724  1.00  0.00     0.053 A 
ATOM     15  C   UNL     1       3.324  -1.436   2.171  1.00  0.00     0.053 A 
ATOM     16  C   UNL     1       4.855   1.950   2.810  1.00  0.00     0.027 A 
ATOM     17  C   UNL     1       5.566  -0.225   3.493  1.00  0.00     0.046 A 
ATOM     18  C   UNL     1       4.222  -2.276   2.864  1.00  0.00     0.046 A 
ATOM     19  C   UNL     1       2.140  -2.046   1.730  1.00  0.00     0.027 A 
ATOM     20  C   UNL     1       5.862   2.525   3.601  1.00  0.00     0.002 A 
ATOM     21  C   UNL     1       6.574   0.344   4.289  1.00  0.00     0.014 A 
ATOM     22  C   UNL     1       5.426  -1.691   3.485  1.00  0.00     0.197 A 
ATOM     23  C   UNL     1       4.018  -3.659   2.993  1.00  0.00     0.014 A 
ATOM     24  C   UNL     1       1.933  -3.430   1.843  1.00  0.00     0.002 A 
ATOM     25  C   UNL     1       6.721   1.723   4.341  1.00  0.00     0.001 A 
ATOM     26  O   UNL     1       6.276  -2.404   4.006  1.00  0.00    -0.288 OA
ATOM     27  C   UNL     1       2.880  -4.241   2.455  1.00  0.00     0.001 A 
ENDBRANCH  12  13
ENDBRANCH  10  12
ENDBRANCH   7   8
BRANCH   7  28
ATOM     28  C   UNL     1       2.676  -1.090  -3.400  1.00  0.00     0.070 C 
BRANCH  28  29
ATOM     29  C   UNL     1       4.048  -1.182  -4.024  1.00  0.00    -0.045 A 
ATOM     30  C   UNL     1       4.956  -0.120  -3.918  1.00  0.00     0.004 A 
ATOM     31  C   UNL     1       4.451  -2.357  -4.679  1.00  0.00     0.004 A 
ATOM     32  C   UNL     1       6.258  -0.253  -4.405  1.00  0.00     0.000 A 
ATOM     33  C   UNL     1       5.752  -2.485  -5.169  1.00  0.00     0.000 A 
ATOM     34  C   UNL     1       6.660  -1.439  -5.019  1.00  0.00     0.000 A 
ENDBRANCH  28  29
ENDBRANCH   7  28
ENDBRANCH   4   7
ENDBRANCH   2   3
ENDBRANCH   1   2
BRANCH   1  35
ATOM     35  C   UNL     1       7.036  -3.966   0.014  1.00  0.00     0.023 C 
BRANCH  35  36
ATOM     36  C   UNL     1       7.709  -4.627  -1.184  1.00  0.00     0.116 C 
BRANCH  36  37
ATOM     37  N   UNL     1       8.620  -3.754  -1.918  1.00  0.00    -0.352 N 
ATOM     38  C   UNL     1       9.824  -4.081  -2.506  1.00  0.00     0.251 C 
ATOM     39  H   UNL     1       8.341  -2.814  -2.003  1.00  0.00     0.163 HD
ATOM     40  O   UNL     1      10.503  -3.231  -3.064  1.00  0.00    -0.269 OA
BRANCH  38  41
ATOM     41  C   UNL     1      10.287  -5.479  -2.399  1.00  0.00     0.039 A 
ATOM     42  C   UNL     1       9.441  -6.515  -2.798  1.00  0.00     0.014 A 
ATOM     43  C   UNL     1      11.501  -5.748  -1.764  1.00  0.00     0.014 A 
ATOM     44  C   UNL     1       9.721  -7.811  -2.385  1.00  0.00     0.010 A 
ATOM     45  C   UNL     1      11.818  -7.066  -1.426  1.00  0.00     0.010 A 
ATOM     46  C   UNL     1      10.899  -8.097  -1.671  1.00  0.00    -0.014 A 
BRANCH  46  47
ATOM     47  C   UNL     1      11.115  -9.480  -1.171  1.00  0.00     0.031 A 
ATOM     48  C   UNL     1      11.137  -9.780   0.306  1.00  0.00     0.074 A 
ATOM     49  C   UNL     1      11.207 -10.486  -2.062  1.00  0.00     0.049 A 
ATOM     50  N   UNL     1      11.203 -10.943   0.902  1.00  0.00    -0.248 NA
ATOM     51  C   UNL     1      11.081  -8.639   1.235  1.00  0.00     0.031 C 
ATOM     52  C   UNL     1      11.221 -10.318  -3.517  1.00  0.00     0.029 A 
ATOM     53  N   UNL     1      11.272 -11.843  -1.881  1.00  0.00    -0.354 N 
ATOM     54  C   UNL     1      11.239 -10.675   2.265  1.00  0.00     0.074 A 
ATOM     55  C   UNL     1      11.190  -9.237   2.414  1.00  0.00     0.031 C 
ATOM     56  C   UNL     1      11.222 -11.527  -4.097  1.00  0.00     0.029 A 
ATOM     57  C   UNL     1      11.253 -12.553  -3.059  1.00  0.00     0.049 A 
ATOM     58  H   UNL     1      11.326 -12.268  -0.995  1.00  0.00     0.167 HD
ATOM     59  C   UNL     1      11.284 -11.547   3.300  1.00  0.00     0.034 A 
ATOM     60  C   UNL     1      11.248 -13.880  -3.283  1.00  0.00     0.034 A 
ATOM     61  C   UNL     1      11.258 -12.977   3.158  1.00  0.00     0.049 A 
ATOM     62  C   UNL     1      11.261 -14.824  -2.117  1.00  0.00     0.074 A 
ATOM     63  C   UNL     1      11.230 -13.936   4.155  1.00  0.00     0.029 A 
ATOM     64  N   UNL     1      11.247 -13.653   1.950  1.00  0.00    -0.354 N 
ATOM     65  N   UNL     1      11.200 -14.548  -0.838  1.00  0.00    -0.248 NA
ATOM     66  C   UNL     1      11.334 -16.260  -2.423  1.00  0.00     0.031 C 
ATOM     67  C   UNL     1      11.203 -15.196   3.549  1.00  0.00     0.029 A 
ATOM     68  C   UNL     1      11.219 -15.018   2.175  1.00  0.00     0.049 A 
ATOM     69  H   UNL     1      11.258 -13.227   1.062  1.00  0.00     0.167 HD
ATOM     70  C   UNL     1      11.226 -15.773  -0.185  1.00  0.00     0.074 A 
ATOM     71  C   UNL     1      11.279 -16.796  -1.210  1.00  0.00     0.031 C 
ATOM     72  C   UNL     1      11.232 -16.024   1.146  1.00  0.00     0.034 A 
BRANCH  59  73
ATOM     73  C   UNL     1      11.302 -10.991   4.697  1.00  0.00     0.023 A 
ATOM     74  C   UNL     1      10.088 -10.597   5.293  1.00  0.00     0.012 A 
ATOM     75  C   UNL     1      12.490 -10.966   5.454  1.00  0.00     0.148 A 
ATOM     76  C   UNL     1      10.056 -10.180   6.623  1.00  0.00     0.002 A 
ATOM     77  C   UNL     1      12.446 -10.572   6.786  1.00  0.00     0.091 A 
ATOM     78  F   UNL     1      13.633 -11.334   4.858  1.00  0.00    -0.205 F 
ATOM     79  C   UNL     1      11.230 -10.177   7.371  1.00  0.00     0.022 A 
BRANCH  77  80
ATOM     80  S   UNL     1      13.890 -10.584   7.854  1.00  0.00     0.127 S 
ATOM     81  O   UNL     1      14.083  -9.155   8.104  1.00  0.00    -0.237 OA
ATOM     82  O   UNL     1      13.414 -11.345   9.009  1.00  0.00    -0.237 OA
ATOM     83  O   UNL     1      14.950 -11.228   7.093  1.00  0.00    -0.744 OA
ENDBRANCH  77  80
ENDBRANCH  59  73
BRANCH  60  84
ATOM     84  C   UNL     1      11.155 -14.377  -4.681  1.00  0.00     0.023 A 
ATOM     85  C   UNL     1       9.933 -14.905  -5.140  1.00  0.00     0.012 A 
ATOM     86  C   UNL     1      12.232 -14.242  -5.578  1.00  0.00     0.148 A 
ATOM     87  C   UNL     1       9.785 -15.291  -6.472  1.00  0.00     0.002 A 
ATOM     88  C   UNL     1      12.063 -14.586  -6.913  1.00  0.00     0.091 A 
ATOM     89  F   UNL     1      13.386 -13.748  -5.110  1.00  0.00    -0.205 F 
ATOM     90  C   UNL     1      10.844 -15.119  -7.360  1.00  0.00     0.022 A 
BRANCH  88  91
ATOM     91  S   UNL     1      13.327 -14.281  -8.152  1.00  0.00     0.127 S 
ATOM     92  O   UNL     1      13.748 -15.638  -8.489  1.00  0.00    -0.237 OA
ATOM     93  O   UNL     1      12.565 -13.594  -9.196  1.00  0.00    -0.237 OA
ATOM     94  O   UNL     1      14.330 -13.453  -7.497  1.00  0.00    -0.744 OA
ENDBRANCH  88  91
ENDBRANCH  60  84
BRANCH  72  95
ATOM     95  C   UNL     1      11.319 -17.456   1.589  1.00  0.00     0.023 A 
ATOM     96  C   UNL     1      12.578 -18.087   1.607  1.00  0.00     0.012 A 
ATOM     97  C   UNL     1      10.191 -18.133   2.092  1.00  0.00     0.148 A 
ATOM     98  C   UNL     1      12.714 -19.377   2.116  1.00  0.00     0.002 A 
ATOM     99  C   UNL     1      10.340 -19.408   2.624  1.00  0.00     0.091 A 
ATOM    100  F   UNL     1       9.004 -17.512   2.054  1.00  0.00    -0.205 F 
ATOM    101  C   UNL     1      11.599 -20.032   2.634  1.00  0.00     0.022 A 
BRANCH  99 102
ATOM    102  S   UNL     1       8.980 -20.309   3.377  1.00  0.00     0.127 S 
ATOM    103  O   UNL     1       8.783 -21.401   2.424  1.00  0.00    -0.237 OA
ATOM    104  O   UNL     1       9.550 -20.714   4.661  1.00  0.00    -0.237 OA
ATOM    105  O   UNL     1       7.875 -19.364   3.474  1.00  0.00    -0.744 OA
ENDBRANCH  99 102
ENDBRANCH  72  95
ENDBRANCH  46  47
ENDBRANCH  38  41
ENDBRANCH  36  37
ENDBRANCH  35  36
ENDBRANCH   1  35
TORSDOF 19
