REMARK SMILES Cc1ccc(/C=C/C(=O)NC[C@H]2CC[C@@H](C(=O)NCCCCNC(=O)c3ccc(-c4c5nc(c(-c6cccc(S(=O)(=O)[O-])c6F)c6ccc([nH]6)c(-c6cccc(S(=O)(=O)[O-])c6F)c6nc(c(-c7cccc(S(=O)(=O)[O-])c7F)c7ccc4[nH]7)C=C6)C=C5)cc3)CC2)s1
REMARK SMILES IDX 20 1 19 2 18 3 16 4 17 5 15 7 12 8 13 9 90 10 14 11 89 12
REMARK SMILES IDX 11 13 10 14 8 15 9 16 7 18 6 19 5 20 1 21 2 22 3 23 91 24
REMARK SMILES IDX 4 25 21 26 22 27 23 28 24 29 25 31 26 32 27 33 88 34 28 35
REMARK SMILES IDX 87 36 29 37 30 38 31 39 81 40 32 41 86 42 80 43 82 44 33 45
REMARK SMILES IDX 85 46 79 47 78 48 34 50 66 51 46 52 65 53 47 54 50 55 64 56
REMARK SMILES IDX 83 57 48 58 49 59 63 61 84 62 51 63 35 64 36 65 44 66 37 67
REMARK SMILES IDX 39 68 45 69 38 70 40 71 41 72 42 73 43 74 67 75 68 76 76 77
REMARK SMILES IDX 69 78 71 79 77 80 70 81 72 82 73 83 74 84 75 85 52 86 53 87
REMARK SMILES IDX 61 88 54 89 56 90 62 91 55 92 57 93 58 94 59 95 60 96
REMARK H PARENT 18 6 10 17 23 30 82 49 50 60
REMARK Flexibility Score: inf
ROOT
ATOM      1  C   UNL     1      -2.865   2.167   2.380  1.00  0.00     0.023 C 
ENDROOT
BRANCH   1   2
ATOM      2  C   UNL     1      -3.109   0.655   2.566  1.00  0.00     0.116 C 
BRANCH   2   3
ATOM      3  N   UNL     1      -3.348   0.193   3.936  1.00  0.00    -0.356 N 
ATOM      4  C   UNL     1      -4.066  -0.903   4.330  1.00  0.00     0.223 C 
ATOM      5  O   UNL     1      -3.477  -1.738   5.029  1.00  0.00    -0.275 OA
ATOM      6  H   UNL     1      -2.945   0.733   4.655  1.00  0.00     0.163 HD
BRANCH   4   7
ATOM      7  C   UNL     1      -5.568  -1.103   4.061  1.00  0.00     0.078 C 
ATOM      8  C   UNL     1      -6.871  -0.766   1.391  1.00  0.00     0.008 C 
ATOM      9  C   UNL     1      -5.903  -1.912   1.691  1.00  0.00     0.006 C 
ATOM     10  C   UNL     1      -6.673   0.455   2.313  1.00  0.00     0.006 C 
ATOM     11  C   UNL     1      -5.896  -2.290   3.157  1.00  0.00     0.014 C 
ATOM     12  C   UNL     1      -6.441   0.118   3.786  1.00  0.00     0.014 C 
BRANCH   8  13
ATOM     13  C   UNL     1      -6.841  -0.464  -0.125  1.00  0.00     0.119 C 
BRANCH  13  14
ATOM     14  N   UNL     1      -6.127   0.726  -0.499  1.00  0.00    -0.352 N 
ATOM     15  C   UNL     1      -4.829   1.032  -0.658  1.00  0.00     0.244 C 
ATOM     16  O   UNL     1      -4.586   2.241  -0.746  1.00  0.00    -0.270 OA
ATOM     17  H   UNL     1      -6.723   1.488  -0.680  1.00  0.00     0.163 HD
BRANCH  15  18
ATOM     18  C   UNL     1      -3.679   0.091  -0.544  1.00  0.00     0.072 C 
ATOM     19  C   UNL     1      -3.360  -1.193  -0.783  1.00  0.00     0.024 C 
BRANCH  19  20
ATOM     20  C   UNL     1      -2.009  -1.692  -0.552  1.00  0.00     0.027 A 
ATOM     21  C   UNL     1       1.820  -1.437   0.496  1.00  0.00     0.056 C 
ATOM     22  C   UNL     1       0.454  -1.841   0.032  1.00  0.00     0.002 A 
ATOM     23  C   UNL     1       0.033  -2.896  -0.744  1.00  0.00     0.016 A 
ATOM     24  S   UNL     1      -0.878  -0.922   0.504  1.00  0.00    -0.141 S 
ATOM     25  C   UNL     1      -1.375  -2.820  -1.059  1.00  0.00     0.020 A 
ENDBRANCH  19  20
ENDBRANCH  15  18
ENDBRANCH  13  14
ENDBRANCH   8  13
ENDBRANCH   4   7
ENDBRANCH   2   3
ENDBRANCH   1   2
BRANCH   1  26
ATOM     26  C   UNL     1      -1.640   2.793   1.618  1.00  0.00     0.023 C 
BRANCH  26  27
ATOM     27  C   UNL     1      -1.089   2.603   0.168  1.00  0.00     0.116 C 
BRANCH  27  28
ATOM     28  N   UNL     1      -1.968   2.697  -0.988  1.00  0.00    -0.352 N 
ATOM     29  C   UNL     1      -1.679   2.412  -2.323  1.00  0.00     0.251 C 
ATOM     30  H   UNL     1      -2.886   3.001  -0.804  1.00  0.00     0.163 HD
ATOM     31  O   UNL     1      -2.530   2.457  -3.192  1.00  0.00    -0.269 OA
BRANCH  29  32
ATOM     32  C   UNL     1      -0.295   2.051  -2.712  1.00  0.00     0.039 A 
ATOM     33  C   UNL     1       0.534   3.010  -3.287  1.00  0.00     0.014 A 
ATOM     34  C   UNL     1       0.176   0.753  -2.531  1.00  0.00     0.014 A 
ATOM     35  C   UNL     1       1.881   2.706  -3.522  1.00  0.00     0.010 A 
ATOM     36  C   UNL     1       1.537   0.472  -2.691  1.00  0.00     0.010 A 
ATOM     37  C   UNL     1       2.421   1.464  -3.131  1.00  0.00    -0.014 A 
BRANCH  37  38
ATOM     38  C   UNL     1       3.902   1.288  -3.026  1.00  0.00     0.031 A 
ATOM     39  C   UNL     1       4.654   0.210  -3.764  1.00  0.00     0.074 A 
ATOM     40  C   UNL     1       4.577   2.077  -2.160  1.00  0.00     0.049 A 
ATOM     41  N   UNL     1       5.946  -0.001  -3.810  1.00  0.00    -0.248 NA
ATOM     42  C   UNL     1       3.864  -0.776  -4.515  1.00  0.00     0.031 C 
ATOM     43  C   UNL     1       3.964   3.062  -1.263  1.00  0.00     0.029 A 
ATOM     44  N   UNL     1       5.920   2.182  -1.884  1.00  0.00    -0.354 N 
ATOM     45  C   UNL     1       6.125  -1.152  -4.570  1.00  0.00     0.074 A 
ATOM     46  C   UNL     1       4.802  -1.618  -4.930  1.00  0.00     0.031 C 
ATOM     47  C   UNL     1       4.924   3.703  -0.581  1.00  0.00     0.029 A 
ATOM     48  C   UNL     1       6.222   3.163  -0.965  1.00  0.00     0.049 A 
ATOM     49  H   UNL     1       6.602   1.609  -2.303  1.00  0.00     0.167 HD
ATOM     50  C   UNL     1       7.279  -1.746  -4.962  1.00  0.00     0.034 A 
ATOM     51  C   UNL     1       7.408   3.600  -0.497  1.00  0.00     0.034 A 
ATOM     52  C   UNL     1       8.595  -1.254  -4.646  1.00  0.00     0.049 A 
ATOM     53  C   UNL     1       8.675   2.990  -1.028  1.00  0.00     0.074 A 
ATOM     54  C   UNL     1       9.820  -1.718  -5.095  1.00  0.00     0.029 A 
ATOM     55  N   UNL     1       8.861  -0.190  -3.797  1.00  0.00    -0.354 N 
ATOM     56  N   UNL     1       8.821   2.041  -1.920  1.00  0.00    -0.248 NA
ATOM     57  C   UNL     1       9.942   3.539  -0.521  1.00  0.00     0.031 C 
ATOM     58  C   UNL     1      10.827  -0.945  -4.505  1.00  0.00     0.029 A 
ATOM     59  C   UNL     1      10.228   0.013  -3.704  1.00  0.00     0.049 A 
ATOM     60  H   UNL     1       8.178   0.343  -3.330  1.00  0.00     0.167 HD
ATOM     61  C   UNL     1      10.192   1.903  -2.107  1.00  0.00     0.074 A 
ATOM     62  C   UNL     1      10.832   2.883  -1.254  1.00  0.00     0.031 C 
ATOM     63  C   UNL     1      10.858   1.029  -2.900  1.00  0.00     0.034 A 
BRANCH  50  64
ATOM     64  C   UNL     1       7.176  -2.963  -5.849  1.00  0.00     0.023 A 
ATOM     65  C   UNL     1       6.758  -2.805  -7.187  1.00  0.00     0.012 A 
ATOM     66  C   UNL     1       7.550  -4.242  -5.391  1.00  0.00     0.148 A 
ATOM     67  C   UNL     1       6.673  -3.904  -8.042  1.00  0.00     0.002 A 
ATOM     68  C   UNL     1       7.502  -5.326  -6.261  1.00  0.00     0.091 A 
ATOM     69  F   UNL     1       7.935  -4.378  -4.114  1.00  0.00    -0.205 F 
ATOM     70  C   UNL     1       7.052  -5.161  -7.582  1.00  0.00     0.022 A 
BRANCH  68  71
ATOM     71  S   UNL     1       8.039  -6.975  -5.790  1.00  0.00     0.127 S 
ATOM     72  O   UNL     1       6.764  -7.683  -5.688  1.00  0.00    -0.237 OA
ATOM     73  O   UNL     1       8.865  -7.370  -6.931  1.00  0.00    -0.237 OA
ATOM     74  O   UNL     1       8.769  -6.816  -4.540  1.00  0.00    -0.744 OA
ENDBRANCH  68  71
ENDBRANCH  50  64
BRANCH  51  75
ATOM     75  C   UNL     1       7.457   4.748   0.455  1.00  0.00     0.023 A 
ATOM     76  C   UNL     1       7.949   5.990   0.008  1.00  0.00     0.012 A 
ATOM     77  C   UNL     1       7.001   4.628   1.782  1.00  0.00     0.148 A 
ATOM     78  C   UNL     1       8.023   7.082   0.875  1.00  0.00     0.002 A 
ATOM     79  C   UNL     1       7.027   5.734   2.624  1.00  0.00     0.091 A 
ATOM     80  F   UNL     1       6.544   3.437   2.191  1.00  0.00    -0.205 F 
ATOM     81  C   UNL     1       7.553   6.957   2.179  1.00  0.00     0.022 A 
BRANCH  79  82
ATOM     82  S   UNL     1       6.323   5.698   4.277  1.00  0.00     0.127 S 
ATOM     83  O   UNL     1       7.521   5.691   5.112  1.00  0.00    -0.237 OA
ATOM     84  O   UNL     1       5.555   6.943   4.308  1.00  0.00    -0.237 OA
ATOM     85  O   UNL     1       5.506   4.492   4.325  1.00  0.00    -0.744 OA
ENDBRANCH  79  82
ENDBRANCH  51  75
BRANCH  63  86
ATOM     86  C   UNL     1      12.362   1.102  -2.915  1.00  0.00     0.023 A 
ATOM     87  C   UNL     1      13.096   0.640  -1.805  1.00  0.00     0.012 A 
ATOM     88  C   UNL     1      13.050   1.553  -4.059  1.00  0.00     0.148 A 
ATOM     89  C   UNL     1      14.491   0.650  -1.823  1.00  0.00     0.002 A 
ATOM     90  C   UNL     1      14.439   1.516  -4.088  1.00  0.00     0.091 A 
ATOM     91  F   UNL     1      12.335   2.011  -5.097  1.00  0.00    -0.205 F 
ATOM     92  C   UNL     1      15.161   1.075  -2.967  1.00  0.00     0.022 A 
BRANCH  90  93
ATOM     93  S   UNL     1      15.382   1.951  -5.554  1.00  0.00     0.127 S 
ATOM     94  O   UNL     1      15.935   3.252  -5.178  1.00  0.00    -0.237 OA
ATOM     95  O   UNL     1      16.365   0.869  -5.626  1.00  0.00    -0.237 OA
ATOM     96  O   UNL     1      14.426   1.970  -6.653  1.00  0.00    -0.744 OA
ENDBRANCH  90  93
ENDBRANCH  63  86
ENDBRANCH  37  38
ENDBRANCH  29  32
ENDBRANCH  27  28
ENDBRANCH  26  27
ENDBRANCH   1  26
TORSDOF 18
