REMARK SMILES O=C1[NH+]=C(S)N(c2cccc(Br)c2)C(=O)/C1=C/c1ccc(-c2ccc(C(=O)NCCCCNC(=O)c3ccc(-c4c5nc(c(-c6cccc(S(=O)(=O)[O-])c6F)c6ccc([nH]6)c(-c6cccc(S(=O)(=O)[O-])c6F)c6nc(c(-c7cccc(S(=O)(=O)[O-])c7F)c7ccc4[nH]7)C=C6)C=C5)cc3)cc2)o1
REMARK SMILES IDX 30 1 29 2 28 3 26 4 27 5 25 7 22 8 23 9 100 10 24 11 99 12
REMARK SMILES IDX 21 13 18 14 19 15 101 16 20 17 17 18 1 19 2 20 3 21 16 22
REMARK SMILES IDX 4 23 14 25 6 26 15 27 5 28 7 30 8 31 13 32 9 33 11 34 10 35
REMARK SMILES IDX 12 36 31 37 32 38 33 39 34 40 35 42 36 43 37 44 98 45 38 46
REMARK SMILES IDX 97 47 39 48 40 49 41 50 91 51 42 52 96 53 90 54 92 55 43 56
REMARK SMILES IDX 95 57 89 58 88 59 44 61 76 62 56 63 75 64 57 65 60 66 74 67
REMARK SMILES IDX 93 68 58 69 59 70 73 72 94 73 61 74 45 75 46 76 54 77 47 78
REMARK SMILES IDX 49 79 55 80 48 81 50 82 51 83 52 84 53 85 77 86 78 87 86 88
REMARK SMILES IDX 79 89 81 90 87 91 80 92 82 93 83 94 84 95 85 96 62 97 63 98
REMARK SMILES IDX 71 99 64 100 66 101 72 102 65 103 67 104 68 105 69 106
REMARK SMILES IDX 70 107
REMARK H PARENT 28 6 3 24 5 29 33 41 92 60 60 71
REMARK Flexibility Score: inf
ROOT
ATOM      1  C   UNL     1      -6.559  -7.108   1.561  1.00  0.00     0.023 C 
ENDROOT
BRANCH   1   2
ATOM      2  C   UNL     1      -6.874  -5.630   1.806  1.00  0.00     0.116 C 
BRANCH   2   3
ATOM      3  N   UNL     1      -6.554  -5.264   3.173  1.00  0.00    -0.352 N 
ATOM      4  C   UNL     1      -5.448  -4.669   3.729  1.00  0.00     0.251 C 
ATOM      5  O   UNL     1      -5.457  -4.448   4.939  1.00  0.00    -0.269 OA
ATOM      6  H   UNL     1      -7.260  -5.482   3.823  1.00  0.00     0.163 HD
BRANCH   4   7
ATOM      7  C   UNL     1      -4.277  -4.222   2.923  1.00  0.00     0.039 A 
ATOM      8  C   UNL     1      -2.168  -3.135   1.414  1.00  0.00     0.017 A 
ATOM      9  C   UNL     1      -2.469  -2.605   2.670  1.00  0.00     0.013 A 
ATOM     10  C   UNL     1      -2.865  -4.253   0.955  1.00  0.00     0.013 A 
ATOM     11  C   UNL     1      -3.527  -3.141   3.415  1.00  0.00     0.014 A 
ATOM     12  C   UNL     1      -3.882  -4.814   1.723  1.00  0.00     0.014 A 
BRANCH   8  13
ATOM     13  C   UNL     1      -1.181  -2.537   0.545  1.00  0.00     0.134 A 
ATOM     14  C   UNL     1       0.895  -2.089  -0.048  1.00  0.00     0.128 A 
ATOM     15  C   UNL     1       0.061  -1.681  -1.083  1.00  0.00     0.051 A 
ATOM     16  O   UNL     1       0.113  -2.630   0.942  1.00  0.00    -0.457 OA
ATOM     17  C   UNL     1      -1.266  -1.952  -0.695  1.00  0.00     0.051 A 
BRANCH  14  18
ATOM     18  C   UNL     1       2.307  -2.041   0.028  1.00  0.00     0.071 C 
ATOM     19  O   UNL     1       1.236   0.651   0.382  1.00  0.00    -0.241 OA
ATOM     20  C   UNL     1       2.427   0.455   0.212  1.00  0.00     0.347 C 
ATOM     21  N   UNL     1       3.293   1.501   0.120  1.00  0.00    -0.200 N 
ATOM     22  C   UNL     1       3.020  -0.900   0.089  1.00  0.00     0.158 C 
ATOM     23  C   UNL     1       4.563   1.338   0.076  1.00  0.00     0.323 C 
ATOM     24  H   UNL     1       2.931   2.416   0.086  1.00  0.00     0.316 HD
ATOM     25  C   UNL     1       4.494  -1.058   0.053  1.00  0.00     0.354 C 
ATOM     26  N   UNL     1       5.222   0.123   0.082  1.00  0.00    -0.151 N 
ATOM     27  O   UNL     1       4.999  -2.181   0.003  1.00  0.00    -0.240 OA
BRANCH  23  28
ATOM     28  S   UNL     1       5.457   2.837  -0.102  1.00  0.00    -0.055 SA
ATOM     29  H   UNL     1       4.593   3.886  -0.078  1.00  0.00     0.116 HD
ENDBRANCH  23  28
BRANCH  26  30
ATOM     30  C   UNL     1       6.649   0.018   0.086  1.00  0.00     0.138 A 
ATOM     31  C   UNL     1       7.307  -0.681  -0.937  1.00  0.00     0.052 A 
ATOM     32  C   UNL     1       7.402   0.590   1.119  1.00  0.00     0.068 A 
ATOM     33  C   UNL     1       8.700  -0.769  -0.951  1.00  0.00     0.006 A 
ATOM     34  C   UNL     1       8.793   0.489   1.102  1.00  0.00     0.022 A 
ATOM     35  C   UNL     1       9.445  -0.179   0.068  1.00  0.00     0.016 A 
ATOM     36  Br  UNL     1       9.802   1.265   2.500  1.00  0.00    -0.051 Br
ENDBRANCH  26  30
ENDBRANCH  14  18
ENDBRANCH   8  13
ENDBRANCH   4   7
ENDBRANCH   2   3
ENDBRANCH   1   2
BRANCH   1  37
ATOM     37  C   UNL     1      -7.625  -8.065   2.095  1.00  0.00     0.023 C 
BRANCH  37  38
ATOM     38  C   UNL     1      -8.995  -7.908   1.449  1.00  0.00     0.116 C 
BRANCH  38  39
ATOM     39  N   UNL     1      -8.968  -8.087   0.004  1.00  0.00    -0.352 N 
ATOM     40  C   UNL     1      -9.927  -8.660  -0.796  1.00  0.00     0.251 C 
ATOM     41  H   UNL     1      -8.163  -7.757  -0.457  1.00  0.00     0.163 HD
ATOM     42  O   UNL     1      -9.707  -8.857  -1.987  1.00  0.00    -0.269 OA
BRANCH  40  43
ATOM     43  C   UNL     1     -11.211  -9.066  -0.190  1.00  0.00     0.039 A 
ATOM     44  C   UNL     1     -11.690 -10.356  -0.421  1.00  0.00     0.014 A 
ATOM     45  C   UNL     1     -11.904  -8.190   0.649  1.00  0.00     0.014 A 
ATOM     46  C   UNL     1     -12.841 -10.787   0.240  1.00  0.00     0.010 A 
ATOM     47  C   UNL     1     -12.999  -8.650   1.370  1.00  0.00     0.010 A 
ATOM     48  C   UNL     1     -13.486  -9.950   1.167  1.00  0.00    -0.014 A 
BRANCH  48  49
ATOM     49  C   UNL     1     -14.672 -10.415   1.929  1.00  0.00     0.031 A 
ATOM     50  C   UNL     1     -15.994  -9.712   1.766  1.00  0.00     0.074 A 
ATOM     51  C   UNL     1     -14.546 -11.426   2.811  1.00  0.00     0.049 A 
ATOM     52  N   UNL     1     -17.129  -9.942   2.373  1.00  0.00    -0.248 NA
ATOM     53  C   UNL     1     -16.042  -8.588   0.815  1.00  0.00     0.031 C 
ATOM     54  C   UNL     1     -13.302 -12.142   3.109  1.00  0.00     0.029 A 
ATOM     55  N   UNL     1     -15.470 -12.016   3.636  1.00  0.00    -0.354 N 
ATOM     56  C   UNL     1     -18.016  -8.983   1.897  1.00  0.00     0.074 A 
ATOM     57  C   UNL     1     -17.275  -8.136   0.989  1.00  0.00     0.031 C 
ATOM     58  C   UNL     1     -13.546 -13.083   4.035  1.00  0.00     0.029 A 
ATOM     59  C   UNL     1     -14.950 -13.015   4.426  1.00  0.00     0.049 A 
ATOM     60  H   UNL     1     -16.418 -11.749   3.660  1.00  0.00     0.167 HD
ATOM     61  C   UNL     1     -19.336  -8.842   2.160  1.00  0.00     0.034 A 
ATOM     62  C   UNL     1     -15.538 -13.783   5.364  1.00  0.00     0.034 A 
ATOM     63  C   UNL     1     -20.076  -9.702   3.042  1.00  0.00     0.049 A 
ATOM     64  C   UNL     1     -17.008 -13.601   5.637  1.00  0.00     0.074 A 
ATOM     65  C   UNL     1     -21.428  -9.676   3.336  1.00  0.00     0.029 A 
ATOM     66  N   UNL     1     -19.527 -10.741   3.778  1.00  0.00    -0.354 N 
ATOM     67  N   UNL     1     -17.858 -12.776   5.075  1.00  0.00    -0.248 NA
ATOM     68  C   UNL     1     -17.608 -14.482   6.649  1.00  0.00     0.031 C 
ATOM     69  C   UNL     1     -21.691 -10.682   4.271  1.00  0.00     0.029 A 
ATOM     70  C   UNL     1     -20.511 -11.361   4.527  1.00  0.00     0.049 A 
ATOM     71  H   UNL     1     -18.577 -10.999   3.768  1.00  0.00     0.167 HD
ATOM     72  C   UNL     1     -19.099 -13.074   5.627  1.00  0.00     0.074 A 
ATOM     73  C   UNL     1     -18.892 -14.167   6.554  1.00  0.00     0.031 C 
ATOM     74  C   UNL     1     -20.300 -12.488   5.398  1.00  0.00     0.034 A 
BRANCH  61  75
ATOM     75  C   UNL     1     -20.081  -7.747   1.438  1.00  0.00     0.023 A 
ATOM     76  C   UNL     1     -20.308  -7.862   0.051  1.00  0.00     0.012 A 
ATOM     77  C   UNL     1     -20.608  -6.643   2.135  1.00  0.00     0.148 A 
ATOM     78  C   UNL     1     -21.017  -6.878  -0.638  1.00  0.00     0.002 A 
ATOM     79  C   UNL     1     -21.355  -5.692   1.451  1.00  0.00     0.091 A 
ATOM     80  F   UNL     1     -20.367  -6.542   3.450  1.00  0.00    -0.205 F 
ATOM     81  C   UNL     1     -21.549  -5.801   0.063  1.00  0.00     0.022 A 
BRANCH  79  82
ATOM     82  S   UNL     1     -22.153  -4.307   2.270  1.00  0.00     0.127 S 
ATOM     83  O   UNL     1     -21.411  -3.172   1.722  1.00  0.00    -0.237 OA
ATOM     84  O   UNL     1     -23.531  -4.423   1.792  1.00  0.00    -0.237 OA
ATOM     85  O   UNL     1     -21.981  -4.529   3.699  1.00  0.00    -0.744 OA
ENDBRANCH  79  82
ENDBRANCH  61  75
BRANCH  62  86
ATOM     86  C   UNL     1     -14.760 -14.835   6.082  1.00  0.00     0.023 A 
ATOM     87  C   UNL     1     -15.070 -16.193   5.868  1.00  0.00     0.012 A 
ATOM     88  C   UNL     1     -13.734 -14.501   6.985  1.00  0.00     0.148 A 
ATOM     89  C   UNL     1     -14.410 -17.195   6.580  1.00  0.00     0.002 A 
ATOM     90  C   UNL     1     -13.040 -15.507   7.647  1.00  0.00     0.091 A 
ATOM     91  F   UNL     1     -13.457 -13.204   7.183  1.00  0.00    -0.205 F 
ATOM     92  C   UNL     1     -13.391 -16.854   7.463  1.00  0.00     0.022 A 
BRANCH  90  93
ATOM     93  S   UNL     1     -11.631 -15.168   8.709  1.00  0.00     0.127 S 
ATOM     94  O   UNL     1     -12.174 -15.468  10.031  1.00  0.00    -0.237 OA
ATOM     95  O   UNL     1     -10.643 -16.127   8.214  1.00  0.00    -0.237 OA
ATOM     96  O   UNL     1     -11.286 -13.773   8.467  1.00  0.00    -0.744 OA
ENDBRANCH  90  93
ENDBRANCH  62  86
BRANCH  74  97
ATOM     97  C   UNL     1     -21.502 -13.057   6.108  1.00  0.00     0.023 A 
ATOM     98  C   UNL     1     -21.656 -12.879   7.497  1.00  0.00     0.012 A 
ATOM     99  C   UNL     1     -22.512 -13.714   5.378  1.00  0.00     0.148 A 
ATOM    100  C   UNL     1     -22.777 -13.383   8.154  1.00  0.00     0.002 A 
ATOM    101  C   UNL     1     -23.652 -14.164   6.030  1.00  0.00     0.091 A 
ATOM    102  F   UNL     1     -22.339 -13.888   4.059  1.00  0.00    -0.205 F 
ATOM    103  C   UNL     1     -23.780 -14.014   7.421  1.00  0.00     0.022 A 
BRANCH 101 104
ATOM    104  S   UNL     1     -25.039 -14.896   5.155  1.00  0.00     0.127 S 
ATOM    105  O   UNL     1     -24.958 -16.292   5.582  1.00  0.00    -0.237 OA
ATOM    106  O   UNL     1     -26.175 -14.155   5.703  1.00  0.00    -0.237 OA
ATOM    107  O   UNL     1     -24.791 -14.662   3.739  1.00  0.00    -0.744 OA
ENDBRANCH 101 104
ENDBRANCH  74  97
ENDBRANCH  48  49
ENDBRANCH  40  43
ENDBRANCH  38  39
ENDBRANCH  37  38
ENDBRANCH   1  37
TORSDOF 18
