REMARK SMILES COc1ccccc1CCNC(=O)[C@@H]1[C@@H](C(=O)NCCCCNC(=O)c2ccc(-c3c4nc(c(-c5cccc(S(=O)(=O)[O-])c5F)c5ccc([nH]5)c(-c5cccc(S(=O)(=O)[O-])c5F)c5nc(c(-c6cccc(S(=O)(=O)[O-])c6F)c6ccc3[nH]6)C=C5)C=C4)cc2)[C@H]2C=C[C@@H]1CC2
REMARK SMILES IDX 19 1 18 2 16 3 17 4 15 6 14 7 92 8 89 9 91 10 93 11 90 12
REMARK SMILES IDX 94 13 12 14 11 15 13 17 10 18 9 19 8 20 3 21 4 22 5 23 7 24
REMARK SMILES IDX 6 25 2 26 1 27 20 28 21 29 22 30 23 31 24 32 25 34 26 35
REMARK SMILES IDX 27 36 88 37 28 38 87 39 29 40 30 41 31 42 81 43 32 44 86 45
REMARK SMILES IDX 80 46 82 47 33 48 85 49 79 50 78 51 34 53 66 54 46 55 65 56
REMARK SMILES IDX 47 57 50 58 64 59 83 60 48 61 49 62 63 64 84 65 51 66 35 67
REMARK SMILES IDX 36 68 44 69 37 70 39 71 45 72 38 73 40 74 41 75 42 76 43 77
REMARK SMILES IDX 67 78 68 79 76 80 69 81 71 82 77 83 70 84 72 85 73 86 74 87
REMARK SMILES IDX 75 88 52 89 53 90 61 91 54 92 56 93 62 94 55 95 57 96 58 97
REMARK SMILES IDX 59 98 60 99
REMARK H PARENT 18 5 11 16 23 33 82 52 50 63
REMARK Flexibility Score: inf
ROOT
ATOM      1  C   UNL     1       4.650   0.198  -1.089  1.00  0.00     0.116 C 
ENDROOT
BRANCH   1   2
ATOM      2  N   UNL     1       6.042  -0.141  -1.245  1.00  0.00    -0.356 N 
ATOM      3  C   UNL     1       6.883  -0.751  -0.374  1.00  0.00     0.224 C 
ATOM      4  O   UNL     1       7.586  -1.611  -0.917  1.00  0.00    -0.275 OA
ATOM      5  H   UNL     1       6.441   0.105  -2.111  1.00  0.00     0.163 HD
BRANCH   3   6
ATOM      6  C   UNL     1       6.958  -0.439   1.165  1.00  0.00     0.098 C 
ATOM      7  C   UNL     1       7.547   0.989   1.528  1.00  0.00     0.098 C 
ATOM      8  C   UNL     1       9.020   0.790   2.074  1.00  0.00     0.025 C 
ATOM      9  C   UNL     1       7.920  -1.532   1.789  1.00  0.00     0.025 C 
ATOM     10  C   UNL     1       9.799  -0.147   1.183  1.00  0.00    -0.027 C 
ATOM     11  C   UNL     1       8.963   0.044   3.447  1.00  0.00     0.009 C 
ATOM     12  C   UNL     1       9.290  -1.386   1.132  1.00  0.00    -0.027 C 
ATOM     13  C   UNL     1       8.127  -1.243   3.288  1.00  0.00     0.009 C 
BRANCH   7  14
ATOM     14  C   UNL     1       6.875   1.880   2.623  1.00  0.00     0.224 C 
ATOM     15  N   UNL     1       5.546   1.993   2.847  1.00  0.00    -0.355 N 
ATOM     16  H   UNL     1       5.282   2.228   3.765  1.00  0.00     0.163 HD
ATOM     17  O   UNL     1       7.555   2.611   3.356  1.00  0.00    -0.275 OA
BRANCH  15  18
ATOM     18  C   UNL     1       4.475   1.812   1.913  1.00  0.00     0.120 C 
BRANCH  18  19
ATOM     19  C   UNL     1       3.413   0.826   2.390  1.00  0.00     0.060 C 
BRANCH  19  20
ATOM     20  C   UNL     1       2.201   1.516   2.964  1.00  0.00    -0.004 A 
ATOM     21  C   UNL     1       1.040   1.701   2.199  1.00  0.00     0.122 A 
ATOM     22  C   UNL     1      -0.066   2.377   2.717  1.00  0.00     0.047 A 
ATOM     23  C   UNL     1      -0.028   2.855   4.027  1.00  0.00     0.004 A 
ATOM     24  C   UNL     1       2.227   2.009   4.275  1.00  0.00     0.007 A 
ATOM     25  C   UNL     1       1.117   2.672   4.803  1.00  0.00     0.001 A 
BRANCH  21  26
ATOM     26  O   UNL     1       1.017   1.286   0.895  1.00  0.00    -0.496 OA
ATOM     27  C   UNL     1       0.357   0.024   0.764  1.00  0.00     0.278 C 
ENDBRANCH  21  26
ENDBRANCH  19  20
ENDBRANCH  18  19
ENDBRANCH  15  18
ENDBRANCH   7  14
ENDBRANCH   3   6
ENDBRANCH   1   2
BRANCH   1  28
ATOM     28  C   UNL     1       4.405   1.679  -1.381  1.00  0.00     0.023 C 
BRANCH  28  29
ATOM     29  C   UNL     1       3.818   1.955  -2.759  1.00  0.00     0.023 C 
BRANCH  29  30
ATOM     30  C   UNL     1       2.375   1.485  -2.916  1.00  0.00     0.116 C 
BRANCH  30  31
ATOM     31  N   UNL     1       1.430   2.125  -2.003  1.00  0.00    -0.352 N 
ATOM     32  C   UNL     1       0.116   2.467  -2.245  1.00  0.00     0.251 C 
ATOM     33  H   UNL     1       1.774   2.338  -1.106  1.00  0.00     0.163 HD
ATOM     34  O   UNL     1      -0.555   3.061  -1.414  1.00  0.00    -0.269 OA
BRANCH  32  35
ATOM     35  C   UNL     1      -0.461   2.120  -3.558  1.00  0.00     0.039 A 
ATOM     36  C   UNL     1      -1.037   3.128  -4.331  1.00  0.00     0.014 A 
ATOM     37  C   UNL     1      -0.323   0.822  -4.055  1.00  0.00     0.014 A 
ATOM     38  C   UNL     1      -1.385   2.855  -5.653  1.00  0.00     0.010 A 
ATOM     39  C   UNL     1      -0.584   0.579  -5.395  1.00  0.00     0.010 A 
ATOM     40  C   UNL     1      -1.108   1.594  -6.209  1.00  0.00    -0.014 A 
BRANCH  40  41
ATOM     41  C   UNL     1      -1.318   1.322  -7.650  1.00  0.00     0.031 A 
ATOM     42  C   UNL     1      -2.283   0.254  -8.080  1.00  0.00     0.074 A 
ATOM     43  C   UNL     1      -0.555   1.959  -8.560  1.00  0.00     0.049 A 
ATOM     44  N   UNL     1      -2.553  -0.175  -9.284  1.00  0.00    -0.248 NA
ATOM     45  C   UNL     1      -3.012  -0.453  -7.013  1.00  0.00     0.031 C 
ATOM     46  C   UNL     1       0.486   2.944  -8.255  1.00  0.00     0.029 A 
ATOM     47  N   UNL     1      -0.521   1.858  -9.928  1.00  0.00    -0.354 N 
ATOM     48  C   UNL     1      -3.449  -1.223  -9.119  1.00  0.00     0.074 A 
ATOM     49  C   UNL     1      -3.643  -1.396  -7.696  1.00  0.00     0.031 C 
ATOM     50  C   UNL     1       1.038   3.374  -9.401  1.00  0.00     0.029 A 
ATOM     51  C   UNL     1       0.411   2.679 -10.520  1.00  0.00     0.049 A 
ATOM     52  H   UNL     1      -1.107   1.254 -10.438  1.00  0.00     0.167 HD
ATOM     53  C   UNL     1      -4.087  -1.950 -10.066  1.00  0.00     0.034 A 
ATOM     54  C   UNL     1       0.714   2.858 -11.820  1.00  0.00     0.034 A 
ATOM     55  C   UNL     1      -3.938  -1.728 -11.477  1.00  0.00     0.049 A 
ATOM     56  C   UNL     1      -0.056   2.086 -12.856  1.00  0.00     0.074 A 
ATOM     57  C   UNL     1      -4.609  -2.337 -12.522  1.00  0.00     0.029 A 
ATOM     58  N   UNL     1      -3.056  -0.818 -12.042  1.00  0.00    -0.354 N 
ATOM     59  N   UNL     1      -1.024   1.216 -12.685  1.00  0.00    -0.248 NA
ATOM     60  C   UNL     1       0.280   2.344 -14.263  1.00  0.00     0.031 C 
ATOM     61  C   UNL     1      -4.130  -1.796 -13.721  1.00  0.00     0.029 A 
ATOM     62  C   UNL     1      -3.165  -0.847 -13.421  1.00  0.00     0.049 A 
ATOM     63  H   UNL     1      -2.443  -0.237 -11.536  1.00  0.00     0.167 HD
ATOM     64  C   UNL     1      -1.437   0.852 -13.961  1.00  0.00     0.074 A 
ATOM     65  C   UNL     1      -0.625   1.608 -14.894  1.00  0.00     0.031 C 
ATOM     66  C   UNL     1      -2.389  -0.041 -14.329  1.00  0.00     0.034 A 
BRANCH  53  67
ATOM     67  C   UNL     1      -5.059  -2.997  -9.593  1.00  0.00     0.023 A 
ATOM     68  C   UNL     1      -6.283  -2.591  -9.020  1.00  0.00     0.012 A 
ATOM     69  C   UNL     1      -4.781  -4.370  -9.724  1.00  0.00     0.148 A 
ATOM     70  C   UNL     1      -7.195  -3.532  -8.547  1.00  0.00     0.002 A 
ATOM     71  C   UNL     1      -5.715  -5.304  -9.287  1.00  0.00     0.091 A 
ATOM     72  F   UNL     1      -3.602  -4.740 -10.243  1.00  0.00    -0.205 F 
ATOM     73  C   UNL     1      -6.915  -4.888  -8.688  1.00  0.00     0.022 A 
BRANCH  71  74
ATOM     74  S   UNL     1      -5.468  -7.072  -9.493  1.00  0.00     0.127 S 
ATOM     75  O   UNL     1      -5.032  -7.467  -8.155  1.00  0.00    -0.237 OA
ATOM     76  O   UNL     1      -6.807  -7.535  -9.859  1.00  0.00    -0.237 OA
ATOM     77  O   UNL     1      -4.475  -7.209 -10.550  1.00  0.00    -0.744 OA
ENDBRANCH  71  74
ENDBRANCH  53  67
BRANCH  54  78
ATOM     78  C   UNL     1       1.712   3.891 -12.216  1.00  0.00     0.023 A 
ATOM     79  C   UNL     1       1.257   5.077 -12.827  1.00  0.00     0.012 A 
ATOM     80  C   UNL     1       3.087   3.736 -11.959  1.00  0.00     0.148 A 
ATOM     81  C   UNL     1       2.155   6.077 -13.200  1.00  0.00     0.002 A 
ATOM     82  C   UNL     1       3.972   4.758 -12.289  1.00  0.00     0.091 A 
ATOM     83  F   UNL     1       3.503   2.597 -11.387  1.00  0.00    -0.205 F 
ATOM     84  C   UNL     1       3.510   5.923 -12.922  1.00  0.00     0.022 A 
BRANCH  82  85
ATOM     85  S   UNL     1       5.715   4.698 -11.857  1.00  0.00     0.127 S 
ATOM     86  O   UNL     1       6.337   4.452 -13.155  1.00  0.00    -0.237 OA
ATOM     87  O   UNL     1       5.939   6.037 -11.310  1.00  0.00    -0.237 OA
ATOM     88  O   UNL     1       5.837   3.626 -10.879  1.00  0.00    -0.744 OA
ENDBRANCH  82  85
ENDBRANCH  54  78
BRANCH  66  89
ATOM     89  C   UNL     1      -2.631  -0.231 -15.802  1.00  0.00     0.023 A 
ATOM     90  C   UNL     1      -1.704  -0.964 -16.568  1.00  0.00     0.012 A 
ATOM     91  C   UNL     1      -3.811   0.243 -16.405  1.00  0.00     0.148 A 
ATOM     92  C   UNL     1      -1.937  -1.201 -17.922  1.00  0.00     0.002 A 
ATOM     93  C   UNL     1      -4.058  -0.035 -17.745  1.00  0.00     0.091 A 
ATOM     94  F   UNL     1      -4.669   0.959 -15.663  1.00  0.00    -0.205 F 
ATOM     95  C   UNL     1      -3.118  -0.748 -18.506  1.00  0.00     0.022 A 
BRANCH  93  96
ATOM     96  S   UNL     1      -5.595   0.430 -18.549  1.00  0.00     0.127 S 
ATOM     97  O   UNL     1      -5.184   1.596 -19.329  1.00  0.00    -0.237 OA
ATOM     98  O   UNL     1      -5.904  -0.758 -19.346  1.00  0.00    -0.237 OA
ATOM     99  O   UNL     1      -6.541   0.694 -17.473  1.00  0.00    -0.744 OA
ENDBRANCH  93  96
ENDBRANCH  66  89
ENDBRANCH  40  41
ENDBRANCH  32  35
ENDBRANCH  30  31
ENDBRANCH  29  30
ENDBRANCH  28  29
ENDBRANCH   1  28
TORSDOF 19
