REMARK SMILES COc1ccccc1C(=O)N1[C@@H](C(=O)NCCCCNC(=O)c2ccc(-c3c4nc(c(-c5cccc(S(=O)(=O)[O-])c5F)c5ccc([nH]5)c(-c5cccc(S(=O)(=O)[O-])c5F)c5nc(c(-c6cccc(S(=O)(=O)[O-])c6F)c6ccc3[nH]6)C=C5)C=C4)cc2)COC12CC[NH+](Cc1ccccc1)CC2
REMARK SMILES IDX 17 1 16 2 15 3 13 4 14 5 12 7 11 8 88 9 86 10 87 11 89 12
REMARK SMILES IDX 100 13 90 14 99 15 91 16 9 18 10 19 8 20 3 21 4 22 5 23 7 24
REMARK SMILES IDX 6 25 2 26 1 27 92 28 93 29 94 30 98 31 95 32 97 33 96 34
REMARK SMILES IDX 18 35 19 36 20 37 21 38 22 40 23 41 24 42 85 43 25 44 84 45
REMARK SMILES IDX 26 46 27 47 28 48 78 49 29 50 83 51 77 52 79 53 30 54 82 55
REMARK SMILES IDX 76 56 75 57 31 59 63 60 43 61 62 62 44 63 47 64 61 65 80 66
REMARK SMILES IDX 45 67 46 68 60 70 81 71 48 72 32 73 33 74 41 75 34 76 36 77
REMARK SMILES IDX 42 78 35 79 37 80 38 81 39 82 40 83 64 84 65 85 73 86 66 87
REMARK SMILES IDX 68 88 74 89 67 90 69 91 70 92 71 93 72 94 49 95 50 96 58 97
REMARK SMILES IDX 51 98 53 99 59 100 52 101 54 102 55 103 56 104 57 105
REMARK H PARENT 15 6 91 17 20 39 79 58 47 69
REMARK Flexibility Score: inf
ROOT
ATOM      1  C   UNL     1      -1.410  -0.228  -3.349  1.00  0.00     0.023 C 
ENDROOT
BRANCH   1   2
ATOM      2  C   UNL     1      -0.370  -0.379  -2.250  1.00  0.00     0.116 C 
BRANCH   2   3
ATOM      3  N   UNL     1       0.283  -1.667  -2.196  1.00  0.00    -0.354 N 
ATOM      4  C   UNL     1       1.510  -1.986  -1.681  1.00  0.00     0.245 C 
ATOM      5  O   UNL     1       1.766  -3.192  -1.574  1.00  0.00    -0.273 OA
ATOM      6  H   UNL     1      -0.225  -2.417  -2.581  1.00  0.00     0.163 HD
BRANCH   4   7
ATOM      7  C   UNL     1       2.554  -0.932  -1.236  1.00  0.00     0.203 C 
ATOM      8  N   UNL     1       2.240  -0.202  -0.011  1.00  0.00    -0.295 N 
ATOM      9  C   UNL     1       2.167   1.238  -0.307  1.00  0.00     0.155 C 
ATOM     10  C   UNL     1       2.803   0.141  -2.263  1.00  0.00     0.198 C 
ATOM     11  O   UNL     1       2.104   1.296  -1.758  1.00  0.00    -0.352 OA
ATOM     12  C   UNL     1       0.939   1.936   0.287  1.00  0.00     0.120 C 
ATOM     13  C   UNL     1       3.432   2.037   0.032  1.00  0.00     0.120 C 
ATOM     14  C   UNL     1       0.849   3.411  -0.081  1.00  0.00     0.267 C 
ATOM     15  C   UNL     1       3.252   3.517  -0.365  1.00  0.00     0.267 C 
ATOM     16  N   UNL     1       2.068   4.162   0.195  1.00  0.00    -0.331 N 
ATOM     17  H   UNL     1       1.986   5.029  -0.336  1.00  0.00     0.348 HD
BRANCH   8  18
ATOM     18  C   UNL     1       2.675  -0.756   1.194  1.00  0.00     0.260 C 
ATOM     19  O   UNL     1       3.707  -1.433   1.225  1.00  0.00    -0.269 OA
BRANCH  18  20
ATOM     20  C   UNL     1       1.912  -0.632   2.478  1.00  0.00     0.082 A 
ATOM     21  C   UNL     1       0.529  -0.469   2.595  1.00  0.00     0.131 A 
ATOM     22  C   UNL     1      -0.092  -0.369   3.853  1.00  0.00     0.047 A 
ATOM     23  C   UNL     1       0.640  -0.586   5.015  1.00  0.00     0.004 A 
ATOM     24  C   UNL     1       2.627  -0.879   3.668  1.00  0.00     0.018 A 
ATOM     25  C   UNL     1       1.996  -0.880   4.920  1.00  0.00     0.001 A 
BRANCH  21  26
ATOM     26  O   UNL     1      -0.310  -0.487   1.513  1.00  0.00    -0.496 OA
ATOM     27  C   UNL     1      -0.712  -1.838   1.261  1.00  0.00     0.278 C 
ENDBRANCH  21  26
ENDBRANCH  18  20
ENDBRANCH   8  18
BRANCH  16  28
ATOM     28  C   UNL     1       2.181   4.760   1.531  1.00  0.00     0.299 C 
BRANCH  28  29
ATOM     29  C   UNL     1       2.842   3.943   2.619  1.00  0.00     0.006 A 
ATOM     30  C   UNL     1       2.082   3.285   3.591  1.00  0.00     0.009 A 
ATOM     31  C   UNL     1       4.242   3.815   2.662  1.00  0.00     0.009 A 
ATOM     32  C   UNL     1       2.707   2.481   4.545  1.00  0.00     0.001 A 
ATOM     33  C   UNL     1       4.857   2.954   3.569  1.00  0.00     0.001 A 
ATOM     34  C   UNL     1       4.086   2.282   4.510  1.00  0.00     0.000 A 
ENDBRANCH  28  29
ENDBRANCH  16  28
ENDBRANCH   4   7
ENDBRANCH   2   3
ENDBRANCH   1   2
BRANCH   1  35
ATOM     35  C   UNL     1      -2.801  -0.732  -2.999  1.00  0.00     0.023 C 
BRANCH  35  36
ATOM     36  C   UNL     1      -3.389  -0.196  -1.698  1.00  0.00     0.116 C 
BRANCH  36  37
ATOM     37  N   UNL     1      -3.462   1.260  -1.624  1.00  0.00    -0.352 N 
ATOM     38  C   UNL     1      -4.557   2.060  -1.383  1.00  0.00     0.251 C 
ATOM     39  H   UNL     1      -2.612   1.736  -1.765  1.00  0.00     0.163 HD
ATOM     40  O   UNL     1      -4.458   3.284  -1.410  1.00  0.00    -0.269 OA
BRANCH  38  41
ATOM     41  C   UNL     1      -5.867   1.423  -1.139  1.00  0.00     0.039 A 
ATOM     42  C   UNL     1      -6.950   1.769  -1.948  1.00  0.00     0.014 A 
ATOM     43  C   UNL     1      -5.988   0.411  -0.184  1.00  0.00     0.014 A 
ATOM     44  C   UNL     1      -8.128   1.022  -1.873  1.00  0.00     0.010 A 
ATOM     45  C   UNL     1      -7.125  -0.388  -0.178  1.00  0.00     0.010 A 
ATOM     46  C   UNL     1      -8.204  -0.099  -1.029  1.00  0.00    -0.014 A 
BRANCH  46  47
ATOM     47  C   UNL     1      -9.383  -1.004  -1.047  1.00  0.00     0.031 A 
ATOM     48  C   UNL     1     -10.201  -1.209   0.199  1.00  0.00     0.074 A 
ATOM     49  C   UNL     1      -9.654  -1.727  -2.153  1.00  0.00     0.049 A 
ATOM     50  N   UNL     1     -11.223  -2.001   0.392  1.00  0.00    -0.248 NA
ATOM     51  C   UNL     1      -9.796  -0.450   1.393  1.00  0.00     0.031 C 
ATOM     52  C   UNL     1      -8.881  -1.694  -3.397  1.00  0.00     0.029 A 
ATOM     53  N   UNL     1     -10.640  -2.650  -2.402  1.00  0.00    -0.354 N 
ATOM     54  C   UNL     1     -11.558  -1.867   1.733  1.00  0.00     0.074 A 
ATOM     55  C   UNL     1     -10.604  -0.949   2.317  1.00  0.00     0.031 C 
ATOM     56  C   UNL     1      -9.430  -2.546  -4.279  1.00  0.00     0.029 A 
ATOM     57  C   UNL     1     -10.573  -3.206  -3.659  1.00  0.00     0.049 A 
ATOM     58  H   UNL     1     -11.329  -2.891  -1.742  1.00  0.00     0.167 HD
ATOM     59  C   UNL     1     -12.586  -2.428   2.414  1.00  0.00     0.034 A 
ATOM     60  C   UNL     1     -11.346  -4.141  -4.246  1.00  0.00     0.034 A 
ATOM     61  C   UNL     1     -13.565  -3.297   1.821  1.00  0.00     0.049 A 
ATOM     62  C   UNL     1     -12.514  -4.710  -3.487  1.00  0.00     0.074 A 
ATOM     63  C   UNL     1     -14.704  -3.830   2.397  1.00  0.00     0.029 A 
ATOM     64  N   UNL     1     -13.518  -3.768   0.517  1.00  0.00    -0.354 N 
ATOM     65  N   UNL     1     -12.920  -4.435  -2.271  1.00  0.00    -0.248 NA
ATOM     66  C   UNL     1     -13.353  -5.690  -4.193  1.00  0.00     0.031 C 
ATOM     67  C   UNL     1     -15.336  -4.639   1.447  1.00  0.00     0.029 A 
ATOM     68  C   UNL     1     -14.602  -4.594   0.273  1.00  0.00     0.049 A 
ATOM     69  H   UNL     1     -12.818  -3.547  -0.138  1.00  0.00     0.167 HD
ATOM     70  C   UNL     1     -14.078  -5.180  -2.077  1.00  0.00     0.074 A 
ATOM     71  C   UNL     1     -14.320  -5.903  -3.309  1.00  0.00     0.031 C 
ATOM     72  C   UNL     1     -14.861  -5.268  -0.974  1.00  0.00     0.034 A 
BRANCH  59  73
ATOM     73  C   UNL     1     -12.735  -2.063   3.868  1.00  0.00     0.023 A 
ATOM     74  C   UNL     1     -13.146  -0.760   4.218  1.00  0.00     0.012 A 
ATOM     75  C   UNL     1     -12.501  -3.010   4.884  1.00  0.00     0.148 A 
ATOM     76  C   UNL     1     -13.280  -0.392   5.556  1.00  0.00     0.002 A 
ATOM     77  C   UNL     1     -12.682  -2.648   6.214  1.00  0.00     0.091 A 
ATOM     78  F   UNL     1     -12.086  -4.236   4.535  1.00  0.00    -0.205 F 
ATOM     79  C   UNL     1     -13.058  -1.337   6.552  1.00  0.00     0.022 A 
BRANCH  77  80
ATOM     80  S   UNL     1     -12.494  -3.818   7.564  1.00  0.00     0.127 S 
ATOM     81  O   UNL     1     -11.201  -3.423   8.119  1.00  0.00    -0.237 OA
ATOM     82  O   UNL     1     -13.644  -3.502   8.412  1.00  0.00    -0.237 OA
ATOM     83  O   UNL     1     -12.540  -5.139   6.953  1.00  0.00    -0.744 OA
ENDBRANCH  77  80
ENDBRANCH  59  73
BRANCH  60  84
ATOM     84  C   UNL     1     -11.090  -4.531  -5.662  1.00  0.00     0.023 A 
ATOM     85  C   UNL     1     -11.990  -4.114  -6.662  1.00  0.00     0.012 A 
ATOM     86  C   UNL     1      -9.949  -5.270  -6.029  1.00  0.00     0.148 A 
ATOM     87  C   UNL     1     -11.773  -4.447  -8.000  1.00  0.00     0.002 A 
ATOM     88  C   UNL     1      -9.710  -5.553  -7.370  1.00  0.00     0.091 A 
ATOM     89  F   UNL     1      -9.110  -5.665  -5.061  1.00  0.00    -0.205 F 
ATOM     90  C   UNL     1     -10.629  -5.156  -8.355  1.00  0.00     0.022 A 
BRANCH  88  91
ATOM     91  S   UNL     1      -8.201  -6.347  -7.936  1.00  0.00     0.127 S 
ATOM     92  O   UNL     1      -8.698  -7.642  -8.393  1.00  0.00    -0.237 OA
ATOM     93  O   UNL     1      -7.768  -5.442  -9.002  1.00  0.00    -0.237 OA
ATOM     94  O   UNL     1      -7.316  -6.380  -6.780  1.00  0.00    -0.744 OA
ENDBRANCH  88  91
ENDBRANCH  60  84
BRANCH  72  95
ATOM     95  C   UNL     1     -16.076  -6.155  -1.047  1.00  0.00     0.023 A 
ATOM     96  C   UNL     1     -15.921  -7.555  -1.032  1.00  0.00     0.012 A 
ATOM     97  C   UNL     1     -17.373  -5.603  -1.048  1.00  0.00     0.148 A 
ATOM     98  C   UNL     1     -17.037  -8.392  -1.047  1.00  0.00     0.002 A 
ATOM     99  C   UNL     1     -18.480  -6.443  -1.014  1.00  0.00     0.091 A 
ATOM    100  F   UNL     1     -17.500  -4.268  -1.082  1.00  0.00    -0.205 F 
ATOM    101  C   UNL     1     -18.314  -7.837  -1.025  1.00  0.00     0.022 A 
BRANCH  99 102
ATOM    102  S   UNL     1     -20.159  -5.815  -0.887  1.00  0.00     0.127 S 
ATOM    103  O   UNL     1     -20.666  -6.045  -2.239  1.00  0.00    -0.237 OA
ATOM    104  O   UNL     1     -20.739  -6.683   0.138  1.00  0.00    -0.237 OA
ATOM    105  O   UNL     1     -20.034  -4.418  -0.494  1.00  0.00    -0.744 OA
ENDBRANCH  99 102
ENDBRANCH  72  95
ENDBRANCH  46  47
ENDBRANCH  38  41
ENDBRANCH  36  37
ENDBRANCH  35  36
ENDBRANCH   1  35
TORSDOF 19
