REMARK SMILES O=C(NCCCCNC(=O)[C@H](CO)Nc1ccc(C(F)(F)F)cc1[N+](=O)[O-])c1ccc(-c2c3nc(c(-c4cccc(S(=O)(=O)[O-])c4F)c4ccc([nH]4)c(-c4cccc(S(=O)(=O)[O-])c4F)c4nc(c(-c5cccc(S(=O)(=O)[O-])c5F)c5ccc2[nH]5)C=C4)C=C3)cc1
REMARK SMILES IDX 5 1 4 2 3 3 1 4 2 5 28 7 29 8 90 9 30 10 89 11 31 12 32 13
REMARK SMILES IDX 33 14 83 15 34 16 88 17 82 18 84 19 35 20 87 21 81 22 80 23
REMARK SMILES IDX 36 25 68 26 48 27 67 28 49 29 52 30 66 31 85 32 50 33 51 34
REMARK SMILES IDX 65 36 86 37 53 38 37 39 38 40 46 41 39 42 41 43 47 44 40 45
REMARK SMILES IDX 42 46 43 47 44 48 45 49 69 50 70 51 78 52 71 53 73 54 79 55
REMARK SMILES IDX 72 56 74 57 75 58 76 59 77 60 54 61 55 62 63 63 56 64 58 65
REMARK SMILES IDX 64 66 57 67 59 68 60 69 61 70 62 71 6 72 7 73 8 74 9 75
REMARK SMILES IDX 10 77 11 78 14 79 15 81 16 82 24 83 17 84 23 85 18 86 25 87
REMARK SMILES IDX 26 88 27 89 19 90 20 91 21 92 22 93 12 94 13 95
REMARK H PARENT 3 6 84 24 52 35 8 76 14 80 13 96
REMARK Flexibility Score: inf
ROOT
ATOM      1  C   UNL     1       5.599  10.142  -4.098  1.00  0.00     0.023 C 
ENDROOT
BRANCH   1   2
ATOM      2  C   UNL     1       4.421  11.109  -4.128  1.00  0.00     0.116 C 
BRANCH   2   3
ATOM      3  N   UNL     1       4.618  12.324  -3.348  1.00  0.00    -0.352 N 
ATOM      4  O   UNL     1       4.352  14.518  -2.859  1.00  0.00    -0.269 OA
ATOM      5  C   UNL     1       4.046  13.559  -3.560  1.00  0.00     0.251 C 
ATOM      6  H   UNL     1       5.230  12.253  -2.580  1.00  0.00     0.163 HD
BRANCH   5   7
ATOM      7  C   UNL     1       3.100  13.713  -4.684  1.00  0.00     0.039 A 
ATOM      8  C   UNL     1       2.044  12.813  -4.838  1.00  0.00     0.014 A 
ATOM      9  C   UNL     1       3.328  14.710  -5.636  1.00  0.00     0.014 A 
ATOM     10  C   UNL     1       1.320  12.803  -6.022  1.00  0.00     0.010 A 
ATOM     11  C   UNL     1       2.540  14.752  -6.789  1.00  0.00     0.010 A 
ATOM     12  C   UNL     1       1.560  13.772  -7.011  1.00  0.00    -0.014 A 
BRANCH  12  13
ATOM     13  C   UNL     1       0.730  13.770  -8.242  1.00  0.00     0.031 A 
ATOM     14  C   UNL     1       1.334  13.513  -9.595  1.00  0.00     0.074 A 
ATOM     15  C   UNL     1      -0.593  13.989  -8.120  1.00  0.00     0.049 A 
ATOM     16  N   UNL     1       0.739  13.448 -10.759  1.00  0.00    -0.248 NA
ATOM     17  C   UNL     1       2.791  13.311  -9.658  1.00  0.00     0.031 C 
ATOM     18  C   UNL     1      -1.280  14.289  -6.861  1.00  0.00     0.029 A 
ATOM     19  N   UNL     1      -1.595  13.992  -9.055  1.00  0.00    -0.354 N 
ATOM     20  C   UNL     1       1.746  13.240 -11.694  1.00  0.00     0.074 A 
ATOM     21  C   UNL     1       2.994  13.192 -10.964  1.00  0.00     0.031 C 
ATOM     22  C   UNL     1      -2.593  14.419  -7.097  1.00  0.00     0.029 A 
ATOM     23  C   UNL     1      -2.835  14.263  -8.526  1.00  0.00     0.049 A 
ATOM     24  H   UNL     1      -1.442  13.818 -10.011  1.00  0.00     0.167 HD
ATOM     25  C   UNL     1       1.635  13.088 -13.036  1.00  0.00     0.034 A 
ATOM     26  C   UNL     1      -4.035  14.387  -9.124  1.00  0.00     0.034 A 
ATOM     27  C   UNL     1       0.384  13.093 -13.749  1.00  0.00     0.049 A 
ATOM     28  C   UNL     1      -4.130  14.177 -10.607  1.00  0.00     0.074 A 
ATOM     29  C   UNL     1       0.163  12.882 -15.100  1.00  0.00     0.029 A 
ATOM     30  N   UNL     1      -0.856  13.323 -13.174  1.00  0.00    -0.354 N 
ATOM     31  N   UNL     1      -3.182  13.858 -11.454  1.00  0.00    -0.248 NA
ATOM     32  C   UNL     1      -5.460  14.320 -11.213  1.00  0.00     0.031 C 
ATOM     33  C   UNL     1      -1.211  12.997 -15.342  1.00  0.00     0.029 A 
ATOM     34  C   UNL     1      -1.846  13.267 -14.140  1.00  0.00     0.049 A 
ATOM     35  H   UNL     1      -1.011  13.501 -12.218  1.00  0.00     0.167 HD
ATOM     36  C   UNL     1      -3.802  13.744 -12.691  1.00  0.00     0.074 A 
ATOM     37  C   UNL     1      -5.213  13.998 -12.476  1.00  0.00     0.031 C 
ATOM     38  C   UNL     1      -3.251  13.476 -13.900  1.00  0.00     0.034 A 
BRANCH  25  39
ATOM     39  C   UNL     1       2.896  12.855 -13.828  1.00  0.00     0.023 A 
ATOM     40  C   UNL     1       3.516  11.591 -13.786  1.00  0.00     0.012 A 
ATOM     41  C   UNL     1       3.419  13.853 -14.674  1.00  0.00     0.148 A 
ATOM     42  C   UNL     1       4.649  11.329 -14.557  1.00  0.00     0.002 A 
ATOM     43  C   UNL     1       4.528  13.574 -15.466  1.00  0.00     0.091 A 
ATOM     44  F   UNL     1       2.830  15.058 -14.684  1.00  0.00    -0.205 F 
ATOM     45  C   UNL     1       5.147  12.315 -15.404  1.00  0.00     0.022 A 
BRANCH  43  46
ATOM     46  S   UNL     1       5.197  14.757 -16.642  1.00  0.00     0.127 S 
ATOM     47  O   UNL     1       6.402  15.212 -15.948  1.00  0.00    -0.237 OA
ATOM     48  O   UNL     1       5.450  13.922 -17.816  1.00  0.00    -0.237 OA
ATOM     49  O   UNL     1       4.160  15.763 -16.828  1.00  0.00    -0.744 OA
ENDBRANCH  43  46
ENDBRANCH  25  39
BRANCH  26  50
ATOM     50  C   UNL     1      -5.238  14.672  -8.296  1.00  0.00     0.023 A 
ATOM     51  C   UNL     1      -6.204  13.665  -8.108  1.00  0.00     0.012 A 
ATOM     52  C   UNL     1      -5.391  15.905  -7.632  1.00  0.00     0.148 A 
ATOM     53  C   UNL     1      -7.308  13.887  -7.285  1.00  0.00     0.002 A 
ATOM     54  C   UNL     1      -6.461  16.096  -6.766  1.00  0.00     0.091 A 
ATOM     55  F   UNL     1      -4.472  16.859  -7.839  1.00  0.00    -0.205 F 
ATOM     56  C   UNL     1      -7.429  15.095  -6.602  1.00  0.00     0.022 A 
BRANCH  54  57
ATOM     57  S   UNL     1      -6.592  17.560  -5.733  1.00  0.00     0.127 S 
ATOM     58  O   UNL     1      -7.591  18.346  -6.451  1.00  0.00    -0.237 OA
ATOM     59  O   UNL     1      -7.047  17.000  -4.459  1.00  0.00    -0.237 OA
ATOM     60  O   UNL     1      -5.247  18.120  -5.687  1.00  0.00    -0.744 OA
ENDBRANCH  54  57
ENDBRANCH  26  50
BRANCH  38  61
ATOM     61  C   UNL     1      -4.177  13.434 -15.085  1.00  0.00     0.023 A 
ATOM     62  C   UNL     1      -4.681  14.640 -15.613  1.00  0.00     0.012 A 
ATOM     63  C   UNL     1      -4.500  12.215 -15.709  1.00  0.00     0.148 A 
ATOM     64  C   UNL     1      -5.516  14.629 -16.729  1.00  0.00     0.002 A 
ATOM     65  C   UNL     1      -5.299  12.216 -16.847  1.00  0.00     0.091 A 
ATOM     66  F   UNL     1      -4.030  11.077 -15.177  1.00  0.00    -0.205 F 
ATOM     67  C   UNL     1      -5.816  13.420 -17.352  1.00  0.00     0.022 A 
BRANCH  65  68
ATOM     68  S   UNL     1      -5.665  10.711 -17.758  1.00  0.00     0.127 S 
ATOM     69  O   UNL     1      -7.034  10.429 -17.332  1.00  0.00    -0.237 OA
ATOM     70  O   UNL     1      -5.537  11.148 -19.149  1.00  0.00    -0.237 OA
ATOM     71  O   UNL     1      -4.661   9.742 -17.340  1.00  0.00    -0.744 OA
ENDBRANCH  65  68
ENDBRANCH  38  61
ENDBRANCH  12  13
ENDBRANCH   5   7
ENDBRANCH   2   3
ENDBRANCH   1   2
BRANCH   1  72
ATOM     72  C   UNL     1       6.057   9.725  -2.703  1.00  0.00     0.023 C 
BRANCH  72  73
ATOM     73  C   UNL     1       4.985   9.062  -1.840  1.00  0.00     0.116 C 
BRANCH  73  74
ATOM     74  N   UNL     1       4.822   7.652  -2.127  1.00  0.00    -0.354 N 
ATOM     75  C   UNL     1       5.452   6.589  -1.530  1.00  0.00     0.244 C 
ATOM     76  H   UNL     1       4.179   7.428  -2.838  1.00  0.00     0.163 HD
ATOM     77  O   UNL     1       5.063   5.455  -1.815  1.00  0.00    -0.273 OA
BRANCH  75  78
ATOM     78  C   UNL     1       6.590   6.862  -0.507  1.00  0.00     0.195 C 
BRANCH  78  79
ATOM     79  N   UNL     1       6.001   7.114   0.828  1.00  0.00    -0.366 N 
ATOM     80  H   UNL     1       5.444   6.371   1.155  1.00  0.00     0.161 HD
BRANCH  79  81
ATOM     81  C   UNL     1       6.070   8.171   1.708  1.00  0.00     0.114 A 
ATOM     82  C   UNL     1       5.244   8.060   2.847  1.00  0.00     0.033 A 
ATOM     83  C   UNL     1       6.814   9.362   1.635  1.00  0.00     0.292 A 
ATOM     84  C   UNL     1       5.113   9.078   3.803  1.00  0.00     0.016 A 
ATOM     85  C   UNL     1       6.664  10.415   2.567  1.00  0.00     0.101 A 
ATOM     86  C   UNL     1       5.794  10.286   3.653  1.00  0.00     0.062 A 
BRANCH  83  87
ATOM     87  N   UNL     1       7.835   9.584   0.632  1.00  0.00     0.064 N 
ATOM     88  O   UNL     1       7.730  10.607  -0.059  1.00  0.00    -0.258 OA
ATOM     89  O   UNL     1       8.765   8.769   0.569  1.00  0.00    -0.258 OA
ENDBRANCH  83  87
BRANCH  86  90
ATOM     90  C   UNL     1       5.639  11.399   4.661  1.00  0.00     0.416 C 
ATOM     91  F   UNL     1       4.438  11.377   5.301  1.00  0.00    -0.166 F 
ATOM     92  F   UNL     1       6.586  11.339   5.636  1.00  0.00    -0.166 F 
ATOM     93  F   UNL     1       5.748  12.636   4.106  1.00  0.00    -0.166 F 
ENDBRANCH  86  90
ENDBRANCH  79  81
ENDBRANCH  78  79
BRANCH  78  94
ATOM     94  C   UNL     1       7.537   5.635  -0.413  1.00  0.00     0.191 C 
BRANCH  94  95
ATOM     95  O   UNL     1       7.538   5.048   0.897  1.00  0.00    -0.394 OA
ATOM     96  H   UNL     1       7.853   5.699   1.544  1.00  0.00     0.210 HD
ENDBRANCH  94  95
ENDBRANCH  78  94
ENDBRANCH  75  78
ENDBRANCH  73  74
ENDBRANCH  72  73
ENDBRANCH   1  72
TORSDOF 20
