REMARK SMILES CS(=O)(=O)c1ccc(-n2nc(C(F)(F)F)cc2-c2ccc(CC(=O)NCCCCNC(=O)c3ccc(-c4c5nc(c(-c6cccc(S(=O)(=O)[O-])c6F)c6ccc([nH]6)c(-c6cccc(S(=O)(=O)[O-])c6F)c6nc(c(-c7cccc(S(=O)(=O)[O-])c7F)c7ccc4[nH]7)C=C6)C=C5)cc3)cc2)cc1
REMARK SMILES IDX 27 1 26 2 25 3 23 4 24 5 22 7 21 8 18 9 19 10 97 11 20 12
REMARK SMILES IDX 96 13 17 14 9 15 10 16 11 17 16 18 8 19 5 20 6 21 99 22 7 23
REMARK SMILES IDX 98 24 2 25 1 26 3 27 4 28 12 29 13 30 14 31 15 32 28 33
REMARK SMILES IDX 29 34 30 35 31 36 32 38 33 39 34 40 95 41 35 42 94 43 36 44
REMARK SMILES IDX 37 45 38 46 88 47 39 48 93 49 87 50 89 51 40 52 92 53 86 54
REMARK SMILES IDX 85 55 41 57 73 58 53 59 72 60 54 61 57 62 71 63 90 64 55 65
REMARK SMILES IDX 56 66 70 68 91 69 58 70 42 71 43 72 51 73 44 74 46 75 52 76
REMARK SMILES IDX 45 77 47 78 48 79 49 80 50 81 74 82 75 83 83 84 76 85 78 86
REMARK SMILES IDX 84 87 77 88 79 89 80 90 81 91 82 92 59 93 60 94 68 95 61 96
REMARK SMILES IDX 63 97 69 98 62 99 64 100 65 101 66 102 67 103
REMARK H PARENT 25 6 30 37 89 56 57 67
REMARK Flexibility Score: inf
ROOT
ATOM      1  C   UNL     1       5.107   2.349   2.071  1.00  0.00     0.023 C 
ENDROOT
BRANCH   1   2
ATOM      2  C   UNL     1       6.632   2.205   2.121  1.00  0.00     0.116 C 
BRANCH   2   3
ATOM      3  N   UNL     1       7.183   1.945   0.805  1.00  0.00    -0.356 N 
ATOM      4  C   UNL     1       7.752   2.817  -0.080  1.00  0.00     0.224 C 
ATOM      5  O   UNL     1       7.970   2.434  -1.231  1.00  0.00    -0.275 OA
ATOM      6  H   UNL     1       7.142   1.007   0.507  1.00  0.00     0.163 HD
BRANCH   4   7
ATOM      7  C   UNL     1       8.081   4.236   0.353  1.00  0.00     0.135 C 
BRANCH   7   8
ATOM      8  C   UNL     1       6.858   5.111   0.498  1.00  0.00    -0.039 A 
ATOM      9  C   UNL     1       4.470   6.566   0.837  1.00  0.00     0.000 A 
ATOM     10  C   UNL     1       4.782   5.983  -0.400  1.00  0.00     0.010 A 
ATOM     11  C   UNL     1       5.396   6.471   1.881  1.00  0.00     0.010 A 
ATOM     12  C   UNL     1       5.964   5.261  -0.568  1.00  0.00     0.005 A 
ATOM     13  C   UNL     1       6.584   5.757   1.710  1.00  0.00     0.005 A 
BRANCH   9  14
ATOM     14  C   UNL     1       3.219   7.304   1.020  1.00  0.00     0.075 A 
ATOM     15  N   UNL     1       1.961   6.898   0.587  1.00  0.00    -0.233 N 
ATOM     16  N   UNL     1       1.060   7.913   0.627  1.00  0.00    -0.163 NA
ATOM     17  C   UNL     1       1.674   8.891   1.319  1.00  0.00     0.167 A 
ATOM     18  C   UNL     1       3.029   8.561   1.558  1.00  0.00     0.064 A 
BRANCH  15  19
ATOM     19  C   UNL     1       1.532   5.600   0.209  1.00  0.00     0.065 A 
ATOM     20  C   UNL     1       0.712   3.045  -0.558  1.00  0.00     0.067 A 
ATOM     21  C   UNL     1       1.493   3.213   0.582  1.00  0.00     0.022 A 
ATOM     22  C   UNL     1       0.287   4.161  -1.286  1.00  0.00     0.022 A 
ATOM     23  C   UNL     1       1.947   4.484   0.942  1.00  0.00     0.030 A 
ATOM     24  C   UNL     1       0.661   5.445  -0.877  1.00  0.00     0.030 A 
BRANCH  20  25
ATOM     25  S   UNL     1       0.232   1.436  -1.149  1.00  0.00     0.175 S 
ATOM     26  C   UNL     1       0.962   0.218  -0.088  1.00  0.00     0.163 C 
ATOM     27  O   UNL     1       0.839   1.291  -2.458  1.00  0.00    -0.224 OA
ATOM     28  O   UNL     1      -1.206   1.358  -0.978  1.00  0.00    -0.224 OA
ENDBRANCH  20  25
ENDBRANCH  15  19
BRANCH  17  29
ATOM     29  C   UNL     1       0.981  10.156   1.743  1.00  0.00     0.435 C 
ATOM     30  F   UNL     1       0.261  10.731   0.745  1.00  0.00    -0.164 F 
ATOM     31  F   UNL     1       0.128   9.948   2.782  1.00  0.00    -0.164 F 
ATOM     32  F   UNL     1       1.869  11.099   2.167  1.00  0.00    -0.164 F 
ENDBRANCH  17  29
ENDBRANCH   9  14
ENDBRANCH   7   8
ENDBRANCH   4   7
ENDBRANCH   2   3
ENDBRANCH   1   2
BRANCH   1  33
ATOM     33  C   UNL     1       4.356   1.063   1.705  1.00  0.00     0.023 C 
BRANCH  33  34
ATOM     34  C   UNL     1       4.398  -0.034   2.753  1.00  0.00     0.116 C 
BRANCH  34  35
ATOM     35  N   UNL     1       3.742   0.355   4.004  1.00  0.00    -0.352 N 
ATOM     36  C   UNL     1       3.764  -0.325   5.213  1.00  0.00     0.251 C 
ATOM     37  H   UNL     1       3.227   1.194   3.984  1.00  0.00     0.163 HD
ATOM     38  O   UNL     1       2.918  -0.133   6.063  1.00  0.00    -0.269 OA
BRANCH  36  39
ATOM     39  C   UNL     1       4.859  -1.287   5.424  1.00  0.00     0.039 A 
ATOM     40  C   UNL     1       4.612  -2.588   5.868  1.00  0.00     0.014 A 
ATOM     41  C   UNL     1       6.135  -0.879   5.047  1.00  0.00     0.014 A 
ATOM     42  C   UNL     1       5.652  -3.514   5.823  1.00  0.00     0.010 A 
ATOM     43  C   UNL     1       7.105  -1.826   4.852  1.00  0.00     0.010 A 
ATOM     44  C   UNL     1       6.888  -3.134   5.281  1.00  0.00    -0.014 A 
BRANCH  44  45
ATOM     45  C   UNL     1       7.943  -4.114   5.049  1.00  0.00     0.031 A 
ATOM     46  C   UNL     1       7.571  -5.278   4.197  1.00  0.00     0.074 A 
ATOM     47  C   UNL     1       9.231  -3.869   5.372  1.00  0.00     0.049 A 
ATOM     48  N   UNL     1       7.486  -6.515   4.558  1.00  0.00    -0.248 NA
ATOM     49  C   UNL     1       7.131  -5.034   2.815  1.00  0.00     0.031 C 
ATOM     50  C   UNL     1       9.803  -2.632   5.924  1.00  0.00     0.029 A 
ATOM     51  N   UNL     1      10.335  -4.618   5.111  1.00  0.00    -0.354 N 
ATOM     52  C   UNL     1       7.215  -7.237   3.397  1.00  0.00     0.074 A 
ATOM     53  C   UNL     1       6.813  -6.268   2.411  1.00  0.00     0.031 C 
ATOM     54  C   UNL     1      11.131  -2.611   5.690  1.00  0.00     0.029 A 
ATOM     55  C   UNL     1      11.524  -3.897   5.150  1.00  0.00     0.049 A 
ATOM     56  H   UNL     1      10.296  -5.582   4.913  1.00  0.00     0.167 HD
ATOM     57  C   UNL     1       7.574  -8.547   3.274  1.00  0.00     0.034 A 
ATOM     58  C   UNL     1      12.738  -4.315   4.720  1.00  0.00     0.034 A 
ATOM     59  C   UNL     1       7.991  -9.095   4.540  1.00  0.00     0.049 A 
ATOM     60  C   UNL     1      12.702  -5.794   4.697  1.00  0.00     0.074 A 
ATOM     61  C   UNL     1       7.413  -9.249   5.784  1.00  0.00     0.029 A 
ATOM     62  N   UNL     1       9.345  -9.241   4.731  1.00  0.00    -0.354 N 
ATOM     63  N   UNL     1      12.597  -6.523   5.773  1.00  0.00    -0.248 NA
ATOM     64  C   UNL     1      12.353  -6.460   3.453  1.00  0.00     0.031 C 
ATOM     65  C   UNL     1       8.467  -8.990   6.708  1.00  0.00     0.029 A 
ATOM     66  C   UNL     1       9.636  -8.764   5.979  1.00  0.00     0.049 A 
ATOM     67  H   UNL     1       9.987  -9.618   4.087  1.00  0.00     0.167 HD
ATOM     68  C   UNL     1      11.732  -7.546   5.408  1.00  0.00     0.074 A 
ATOM     69  C   UNL     1      11.727  -7.532   3.946  1.00  0.00     0.031 C 
ATOM     70  C   UNL     1      10.877  -8.100   6.318  1.00  0.00     0.034 A 
BRANCH  57  71
ATOM     71  C   UNL     1       7.909  -9.268   1.986  1.00  0.00     0.023 A 
ATOM     72  C   UNL     1       8.090 -10.670   2.060  1.00  0.00     0.012 A 
ATOM     73  C   UNL     1       8.325  -8.634   0.795  1.00  0.00     0.148 A 
ATOM     74  C   UNL     1       8.711 -11.390   1.034  1.00  0.00     0.002 A 
ATOM     75  C   UNL     1       8.867  -9.367  -0.256  1.00  0.00     0.091 A 
ATOM     76  F   UNL     1       8.330  -7.301   0.714  1.00  0.00    -0.205 F 
ATOM     77  C   UNL     1       9.094 -10.739  -0.130  1.00  0.00     0.022 A 
BRANCH  75  78
ATOM     78  S   UNL     1       9.332  -8.585  -1.807  1.00  0.00     0.127 S 
ATOM     79  O   UNL     1      10.788  -8.585  -1.709  1.00  0.00    -0.237 OA
ATOM     80  O   UNL     1       8.775  -9.516  -2.789  1.00  0.00    -0.237 OA
ATOM     81  O   UNL     1       8.686  -7.279  -1.790  1.00  0.00    -0.744 OA
ENDBRANCH  75  78
ENDBRANCH  57  71
BRANCH  58  82
ATOM     82  C   UNL     1      13.853  -3.539   4.134  1.00  0.00     0.023 A 
ATOM     83  C   UNL     1      15.145  -4.099   4.102  1.00  0.00     0.012 A 
ATOM     84  C   UNL     1      13.606  -2.385   3.357  1.00  0.00     0.148 A 
ATOM     85  C   UNL     1      16.145  -3.558   3.287  1.00  0.00     0.002 A 
ATOM     86  C   UNL     1      14.606  -1.847   2.552  1.00  0.00     0.091 A 
ATOM     87  F   UNL     1      12.368  -1.874   3.329  1.00  0.00    -0.205 F 
ATOM     88  C   UNL     1      15.874  -2.439   2.504  1.00  0.00     0.022 A 
BRANCH  86  89
ATOM     89  S   UNL     1      14.310  -0.422   1.495  1.00  0.00     0.127 S 
ATOM     90  O   UNL     1      15.508   0.386   1.727  1.00  0.00    -0.237 OA
ATOM     91  O   UNL     1      14.232  -1.040   0.175  1.00  0.00    -0.237 OA
ATOM     92  O   UNL     1      13.079   0.185   1.987  1.00  0.00    -0.744 OA
ENDBRANCH  86  89
ENDBRANCH  58  82
BRANCH  70  93
ATOM     93  C   UNL     1      11.072  -7.769   7.777  1.00  0.00     0.023 A 
ATOM     94  C   UNL     1      10.955  -6.455   8.276  1.00  0.00     0.012 A 
ATOM     95  C   UNL     1      11.191  -8.831   8.690  1.00  0.00     0.148 A 
ATOM     96  C   UNL     1      10.980  -6.202   9.650  1.00  0.00     0.002 A 
ATOM     97  C   UNL     1      11.164  -8.581  10.057  1.00  0.00     0.091 A 
ATOM     98  F   UNL     1      11.296 -10.077   8.204  1.00  0.00    -0.205 F 
ATOM     99  C   UNL     1      11.070  -7.268  10.542  1.00  0.00     0.022 A 
BRANCH  97 100
ATOM    100  S   UNL     1      11.138  -9.921  11.249  1.00  0.00     0.127 S 
ATOM    101  O   UNL     1      12.515  -9.921  11.738  1.00  0.00    -0.237 OA
ATOM    102  O   UNL     1      10.144  -9.461  12.220  1.00  0.00    -0.237 OA
ATOM    103  O   UNL     1      10.733 -11.108  10.505  1.00  0.00    -0.744 OA
ENDBRANCH  97 100
ENDBRANCH  70  93
ENDBRANCH  44  45
ENDBRANCH  36  39
ENDBRANCH  34  35
ENDBRANCH  33  34
ENDBRANCH   1  33
TORSDOF 19
