REMARK SMILES Nc1nc(N2CCCCC2)nc2c1[C@H](C(=O)NCCCCNC(=O)c1ccc(-c3c4nc(c(-c5cccc(S(=O)(=O)[O-])c5F)c5ccc([nH]5)c(-c5cccc(S(=O)(=O)[O-])c5F)c5nc(c(-c6cccc(S(=O)(=O)[O-])c6F)c6ccc3[nH]6)C=C5)C=C4)cc1)CC(=O)N2
REMARK SMILES IDX 20 1 19 2 18 3 17 4 15 5 16 6 14 8 2 9 3 10 13 11 4 12 12 13
REMARK SMILES IDX 11 14 91 15 88 16 89 17 90 19 1 20 5 23 6 24 10 25 7 26 9 27
REMARK SMILES IDX 8 28 21 29 22 30 23 31 24 33 25 34 26 35 87 36 27 37 86 38
REMARK SMILES IDX 28 39 29 40 30 41 80 42 31 43 85 44 79 45 81 46 32 47 84 48
REMARK SMILES IDX 78 49 77 50 33 52 65 53 45 54 64 55 46 56 49 57 63 58 82 59
REMARK SMILES IDX 47 60 48 61 62 63 83 64 50 65 34 66 35 67 43 68 36 69 38 70
REMARK SMILES IDX 44 71 37 72 39 73 40 74 41 75 42 76 66 77 67 78 75 79 68 80
REMARK SMILES IDX 70 81 76 82 69 83 71 84 72 85 73 86 74 87 51 88 52 89 60 90
REMARK SMILES IDX 53 91 55 92 61 93 54 94 56 95 57 96 58 97 59 98
REMARK H PARENT 17 7 91 18 1 21 1 22 22 32 81 51 49 62
REMARK Flexibility Score: inf
ROOT
ATOM      1  C   UNL     1      -5.362   3.018  -2.352  1.00  0.00     0.023 C 
ENDROOT
BRANCH   1   2
ATOM      2  C   UNL     1      -4.275   2.239  -3.097  1.00  0.00     0.023 C 
BRANCH   2   3
ATOM      3  C   UNL     1      -2.850   2.516  -2.609  1.00  0.00     0.116 C 
BRANCH   3   4
ATOM      4  N   UNL     1      -2.648   1.948  -1.294  1.00  0.00    -0.356 N 
ATOM      5  C   UNL     1      -2.116   0.759  -0.906  1.00  0.00     0.228 C 
ATOM      6  O   UNL     1      -2.164   0.515   0.303  1.00  0.00    -0.274 OA
ATOM      7  H   UNL     1      -2.949   2.521  -0.552  1.00  0.00     0.163 HD
BRANCH   5   8
ATOM      8  C   UNL     1      -1.365  -0.157  -1.885  1.00  0.00     0.125 C 
ATOM      9  C   UNL     1       0.290  -1.293  -0.314  1.00  0.00     0.135 A 
ATOM     10  N   UNL     1       0.740  -2.361   0.349  1.00  0.00    -0.196 NA
ATOM     11  C   UNL     1      -0.793  -1.351  -1.159  1.00  0.00     0.050 A 
ATOM     12  C   UNL     1       0.090  -3.522   0.195  1.00  0.00     0.229 A 
ATOM     13  C   UNL     1      -1.421  -2.579  -1.206  1.00  0.00     0.144 A 
ATOM     14  N   UNL     1      -0.991  -3.675  -0.574  1.00  0.00    -0.195 NA
ATOM     15  N   UNL     1      -2.608  -2.712  -1.917  1.00  0.00    -0.310 N 
ATOM     16  C   UNL     1      -2.159  -0.643  -3.094  1.00  0.00     0.119 C 
ATOM     17  C   UNL     1      -3.107  -1.761  -2.751  1.00  0.00     0.226 C 
ATOM     18  H   UNL     1      -3.119  -3.547  -1.809  1.00  0.00     0.171 HD
ATOM     19  O   UNL     1      -4.204  -1.877  -3.291  1.00  0.00    -0.275 OA
BRANCH   9  20
ATOM     20  N   UNL     1       0.990  -0.116  -0.089  1.00  0.00    -0.383 N 
ATOM     21  H   UNL     1       1.761  -0.111   0.523  1.00  0.00     0.158 HD
ATOM     22  H   UNL     1       0.716   0.714  -0.542  1.00  0.00     0.158 HD
ENDBRANCH   9  20
BRANCH  12  23
ATOM     23  N   UNL     1       0.599  -4.604   0.853  1.00  0.00    -0.341 N 
ATOM     24  C   UNL     1       0.536  -4.610   2.299  1.00  0.00     0.119 C 
ATOM     25  C   UNL     1       0.799  -5.854   0.161  1.00  0.00     0.119 C 
ATOM     26  C   UNL     1       1.841  -5.190   2.838  1.00  0.00     0.022 C 
ATOM     27  C   UNL     1       2.132  -6.433   0.644  1.00  0.00     0.022 C 
ATOM     28  C   UNL     1       2.183  -6.527   2.173  1.00  0.00     0.004 C 
ENDBRANCH  12  23
ENDBRANCH   5   8
ENDBRANCH   3   4
ENDBRANCH   2   3
ENDBRANCH   1   2
BRANCH   1  29
ATOM     29  C   UNL     1      -5.256   4.534  -2.457  1.00  0.00     0.116 C 
BRANCH  29  30
ATOM     30  N   UNL     1      -5.275   5.006  -3.833  1.00  0.00    -0.352 N 
ATOM     31  C   UNL     1      -5.902   6.114  -4.352  1.00  0.00     0.251 C 
ATOM     32  H   UNL     1      -4.771   4.459  -4.478  1.00  0.00     0.163 HD
ATOM     33  O   UNL     1      -5.922   6.302  -5.559  1.00  0.00    -0.269 OA
BRANCH  31  34
ATOM     34  C   UNL     1      -6.575   7.057  -3.433  1.00  0.00     0.039 A 
ATOM     35  C   UNL     1      -7.886   7.447  -3.714  1.00  0.00     0.014 A 
ATOM     36  C   UNL     1      -5.920   7.536  -2.295  1.00  0.00     0.014 A 
ATOM     37  C   UNL     1      -8.562   8.281  -2.821  1.00  0.00     0.010 A 
ATOM     38  C   UNL     1      -6.615   8.316  -1.377  1.00  0.00     0.010 A 
ATOM     39  C   UNL     1      -7.939   8.703  -1.635  1.00  0.00    -0.014 A 
BRANCH  39  40
ATOM     40  C   UNL     1      -8.654   9.555  -0.654  1.00  0.00     0.031 A 
ATOM     41  C   UNL     1      -8.178  10.957  -0.391  1.00  0.00     0.074 A 
ATOM     42  C   UNL     1      -9.680   9.043   0.054  1.00  0.00     0.049 A 
ATOM     43  N   UNL     1      -8.636  11.834   0.464  1.00  0.00    -0.248 NA
ATOM     44  C   UNL     1      -7.022  11.431  -1.172  1.00  0.00     0.031 C 
ATOM     45  C   UNL     1     -10.183   7.673  -0.059  1.00  0.00     0.029 A 
ATOM     46  N   UNL     1     -10.465   9.605   1.029  1.00  0.00    -0.354 N 
ATOM     47  C   UNL     1      -7.811  12.945   0.347  1.00  0.00     0.074 A 
ATOM     48  C   UNL     1      -6.803  12.624  -0.638  1.00  0.00     0.031 C 
ATOM     49  C   UNL     1     -11.193   7.502   0.810  1.00  0.00     0.029 A 
ATOM     50  C   UNL     1     -11.393   8.739   1.560  1.00  0.00     0.049 A 
ATOM     51  H   UNL     1     -10.373  10.541   1.322  1.00  0.00     0.167 HD
ATOM     52  C   UNL     1      -7.906  14.138   0.978  1.00  0.00     0.034 A 
ATOM     53  C   UNL     1     -12.300   8.920   2.541  1.00  0.00     0.034 A 
ATOM     54  C   UNL     1      -8.946  14.474   1.911  1.00  0.00     0.049 A 
ATOM     55  C   UNL     1     -12.410  10.272   3.195  1.00  0.00     0.074 A 
ATOM     56  C   UNL     1      -9.182  15.689   2.528  1.00  0.00     0.029 A 
ATOM     57  N   UNL     1      -9.919  13.598   2.363  1.00  0.00    -0.354 N 
ATOM     58  N   UNL     1     -11.725  11.363   2.950  1.00  0.00    -0.248 NA
ATOM     59  C   UNL     1     -13.438  10.430   4.234  1.00  0.00     0.031 C 
ATOM     60  C   UNL     1     -10.290  15.543   3.368  1.00  0.00     0.029 A 
ATOM     61  C   UNL     1     -10.753  14.242   3.260  1.00  0.00     0.049 A 
ATOM     62  H   UNL     1     -10.005  12.657   2.087  1.00  0.00     0.167 HD
ATOM     63  C   UNL     1     -12.253  12.341   3.786  1.00  0.00     0.074 A 
ATOM     64  C   UNL     1     -13.335  11.722   4.522  1.00  0.00     0.031 C 
ATOM     65  C   UNL     1     -11.861  13.629   3.946  1.00  0.00     0.034 A 
BRANCH  52  66
ATOM     66  C   UNL     1      -6.905  15.207   0.630  1.00  0.00     0.023 A 
ATOM     67  C   UNL     1      -7.010  15.871  -0.609  1.00  0.00     0.012 A 
ATOM     68  C   UNL     1      -5.940  15.630   1.564  1.00  0.00     0.148 A 
ATOM     69  C   UNL     1      -6.159  16.929  -0.921  1.00  0.00     0.002 A 
ATOM     70  C   UNL     1      -5.123  16.714   1.262  1.00  0.00     0.091 A 
ATOM     71  F   UNL     1      -5.846  14.973   2.729  1.00  0.00    -0.205 F 
ATOM     72  C   UNL     1      -5.226  17.358   0.018  1.00  0.00     0.022 A 
BRANCH  70  73
ATOM     73  S   UNL     1      -3.943  17.400   2.431  1.00  0.00     0.127 S 
ATOM     74  O   UNL     1      -2.671  17.112   1.768  1.00  0.00    -0.237 OA
ATOM     75  O   UNL     1      -4.316  18.814   2.447  1.00  0.00    -0.237 OA
ATOM     76  O   UNL     1      -4.160  16.694   3.686  1.00  0.00    -0.744 OA
ENDBRANCH  70  73
ENDBRANCH  52  66
BRANCH  53  77
ATOM     77  C   UNL     1     -13.225   7.810   2.911  1.00  0.00     0.023 A 
ATOM     78  C   UNL     1     -14.592   7.915   2.586  1.00  0.00     0.012 A 
ATOM     79  C   UNL     1     -12.759   6.641   3.543  1.00  0.00     0.148 A 
ATOM     80  C   UNL     1     -15.481   6.889   2.907  1.00  0.00     0.002 A 
ATOM     81  C   UNL     1     -13.640   5.598   3.808  1.00  0.00     0.091 A 
ATOM     82  F   UNL     1     -11.459   6.565   3.861  1.00  0.00    -0.205 F 
ATOM     83  C   UNL     1     -15.004   5.726   3.506  1.00  0.00     0.022 A 
BRANCH  81  84
ATOM     84  S   UNL     1     -13.086   4.013   4.447  1.00  0.00     0.127 S 
ATOM     85  O   UNL     1     -13.557   4.065   5.828  1.00  0.00    -0.237 OA
ATOM     86  O   UNL     1     -13.802   3.071   3.586  1.00  0.00    -0.237 OA
ATOM     87  O   UNL     1     -11.640   4.005   4.268  1.00  0.00    -0.744 OA
ENDBRANCH  81  84
ENDBRANCH  53  77
BRANCH  65  88
ATOM     88  C   UNL     1     -12.599  14.474   4.951  1.00  0.00     0.023 A 
ATOM     89  C   UNL     1     -12.386  14.256   6.326  1.00  0.00     0.012 A 
ATOM     90  C   UNL     1     -13.404  15.555   4.538  1.00  0.00     0.148 A 
ATOM     91  C   UNL     1     -12.977  15.088   7.276  1.00  0.00     0.002 A 
ATOM     92  C   UNL     1     -13.949  16.410   5.489  1.00  0.00     0.091 A 
ATOM     93  F   UNL     1     -13.607  15.736   3.225  1.00  0.00    -0.205 F 
ATOM     94  C   UNL     1     -13.745  16.172   6.857  1.00  0.00     0.022 A 
BRANCH  92  95
ATOM     95  S   UNL     1     -14.862  17.892   5.041  1.00  0.00     0.127 S 
ATOM     96  O   UNL     1     -16.232  17.511   5.380  1.00  0.00    -0.237 OA
ATOM     97  O   UNL     1     -14.273  18.899   5.924  1.00  0.00    -0.237 OA
ATOM     98  O   UNL     1     -14.606  18.107   3.623  1.00  0.00    -0.744 OA
ENDBRANCH  92  95
ENDBRANCH  65  88
ENDBRANCH  39  40
ENDBRANCH  31  34
ENDBRANCH  29  30
ENDBRANCH   1  29
TORSDOF 16
