REMARK SMILES O=C(NCCCCNC(=O)[C@@H]1CN(c2nccc(N3CCC(O)CC3)n2)CC[NH2+]1)c1ccc(-c2c3nc(c(-c4cccc(S(=O)(=O)[O-])c4F)c4ccc([nH]4)c(-c4cccc(S(=O)(=O)[O-])c4F)c4nc(c(-c5cccc(S(=O)(=O)[O-])c5F)c5ccc2[nH]5)C=C4)C=C3)cc1
REMARK SMILES IDX 5 1 4 2 3 3 1 4 2 5 30 7 31 8 92 9 32 10 91 11 33 12 34 13
REMARK SMILES IDX 35 14 85 15 36 16 90 17 84 18 86 19 37 20 89 21 83 22 82 23
REMARK SMILES IDX 38 25 70 26 50 27 69 28 51 29 54 30 68 31 87 32 52 33 53 34
REMARK SMILES IDX 67 36 88 37 55 38 39 39 40 40 48 41 41 42 43 43 49 44 42 45
REMARK SMILES IDX 44 46 45 47 46 48 47 49 71 50 72 51 80 52 73 53 75 54 81 55
REMARK SMILES IDX 74 56 76 57 77 58 78 59 79 60 56 61 57 62 65 63 58 64 60 65
REMARK SMILES IDX 66 66 59 67 61 68 62 69 63 70 64 71 6 72 7 73 8 74 9 75
REMARK SMILES IDX 10 77 11 78 12 79 29 80 13 81 28 82 27 85 14 86 15 87 26 88
REMARK SMILES IDX 16 89 18 90 17 91 19 92 20 93 25 94 21 95 24 96 22 97 23 98
REMARK H PARENT 3 6 86 24 54 35 8 76 29 83 29 84 23 99
REMARK Flexibility Score: inf
ROOT
ATOM      1  C   UNL     1       4.983  -1.978   1.779  1.00  0.00     0.023 C 
ENDROOT
BRANCH   1   2
ATOM      2  C   UNL     1       4.674  -1.231   0.488  1.00  0.00     0.116 C 
BRANCH   2   3
ATOM      3  N   UNL     1       3.248  -1.139   0.217  1.00  0.00    -0.352 N 
ATOM      4  O   UNL     1       1.262  -0.116  -0.089  1.00  0.00    -0.269 OA
ATOM      5  C   UNL     1       2.485  -0.022  -0.030  1.00  0.00     0.251 C 
ATOM      6  H   UNL     1       2.761  -1.994   0.208  1.00  0.00     0.163 HD
BRANCH   5   7
ATOM      7  C   UNL     1       3.147   1.290  -0.189  1.00  0.00     0.039 A 
ATOM      8  C   UNL     1       4.278   1.418  -0.998  1.00  0.00     0.014 A 
ATOM      9  C   UNL     1       2.643   2.398   0.498  1.00  0.00     0.014 A 
ATOM     10  C   UNL     1       4.992   2.611  -1.000  1.00  0.00     0.010 A 
ATOM     11  C   UNL     1       3.316   3.621   0.426  1.00  0.00     0.010 A 
ATOM     12  C   UNL     1       4.516   3.728  -0.294  1.00  0.00    -0.014 A 
BRANCH  12  13
ATOM     13  C   UNL     1       5.255   5.012  -0.382  1.00  0.00     0.031 A 
ATOM     14  C   UNL     1       5.895   5.634   0.829  1.00  0.00     0.074 A 
ATOM     15  C   UNL     1       5.349   5.617  -1.582  1.00  0.00     0.049 A 
ATOM     16  N   UNL     1       6.600   6.734   0.910  1.00  0.00    -0.248 NA
ATOM     17  C   UNL     1       5.717   4.943   2.116  1.00  0.00     0.031 C 
ATOM     18  C   UNL     1       4.728   5.130  -2.817  1.00  0.00     0.029 A 
ATOM     19  N   UNL     1       5.997   6.763  -1.965  1.00  0.00    -0.354 N 
ATOM     20  C   UNL     1       6.917   6.890   2.254  1.00  0.00     0.074 A 
ATOM     21  C   UNL     1       6.322   5.774   2.957  1.00  0.00     0.031 C 
ATOM     22  C   UNL     1       5.046   5.955  -3.824  1.00  0.00     0.029 A 
ATOM     23  C   UNL     1       5.852   7.053  -3.301  1.00  0.00     0.049 A 
ATOM     24  H   UNL     1       6.515   7.323  -1.344  1.00  0.00     0.167 HD
ATOM     25  C   UNL     1       7.652   7.864   2.843  1.00  0.00     0.034 A 
ATOM     26  C   UNL     1       6.306   8.091  -4.027  1.00  0.00     0.034 A 
ATOM     27  C   UNL     1       8.278   8.947   2.131  1.00  0.00     0.049 A 
ATOM     28  C   UNL     1       7.147   9.136  -3.353  1.00  0.00     0.074 A 
ATOM     29  C   UNL     1       9.100   9.943   2.630  1.00  0.00     0.029 A 
ATOM     30  N   UNL     1       8.150   9.181   0.770  1.00  0.00    -0.354 N 
ATOM     31  N   UNL     1       7.547   9.190  -2.106  1.00  0.00    -0.248 NA
ATOM     32  C   UNL     1       7.621  10.247  -4.188  1.00  0.00     0.031 C 
ATOM     33  C   UNL     1       9.459  10.786   1.572  1.00  0.00     0.029 A 
ATOM     34  C   UNL     1       8.870  10.309   0.412  1.00  0.00     0.049 A 
ATOM     35  H   UNL     1       7.625   8.626   0.149  1.00  0.00     0.167 HD
ATOM     36  C   UNL     1       8.334  10.330  -2.009  1.00  0.00     0.074 A 
ATOM     37  C   UNL     1       8.380  10.919  -3.333  1.00  0.00     0.031 C 
ATOM     38  C   UNL     1       8.944  10.856  -0.918  1.00  0.00     0.034 A 
BRANCH  25  39
ATOM     39  C   UNL     1       7.866   7.782   4.332  1.00  0.00     0.023 A 
ATOM     40  C   UNL     1       8.780   6.841   4.848  1.00  0.00     0.012 A 
ATOM     41  C   UNL     1       7.230   8.681   5.211  1.00  0.00     0.148 A 
ATOM     42  C   UNL     1       9.040   6.780   6.217  1.00  0.00     0.002 A 
ATOM     43  C   UNL     1       7.522   8.638   6.570  1.00  0.00     0.091 A 
ATOM     44  F   UNL     1       6.348   9.554   4.705  1.00  0.00    -0.205 F 
ATOM     45  C   UNL     1       8.421   7.684   7.075  1.00  0.00     0.022 A 
BRANCH  43  46
ATOM     46  S   UNL     1       6.827   9.808   7.744  1.00  0.00     0.127 S 
ATOM     47  O   UNL     1       5.823   8.988   8.419  1.00  0.00    -0.237 OA
ATOM     48  O   UNL     1       7.987  10.150   8.568  1.00  0.00    -0.237 OA
ATOM     49  O   UNL     1       6.307  10.910   6.946  1.00  0.00    -0.744 OA
ENDBRANCH  43  46
ENDBRANCH  25  39
BRANCH  26  50
ATOM     50  C   UNL     1       6.015   8.149  -5.486  1.00  0.00     0.023 A 
ATOM     51  C   UNL     1       7.056   7.936  -6.409  1.00  0.00     0.012 A 
ATOM     52  C   UNL     1       4.703   8.344  -5.962  1.00  0.00     0.148 A 
ATOM     53  C   UNL     1       6.800   7.933  -7.780  1.00  0.00     0.002 A 
ATOM     54  C   UNL     1       4.445   8.281  -7.326  1.00  0.00     0.091 A 
ATOM     55  F   UNL     1       3.728   8.566  -5.069  1.00  0.00    -0.205 F 
ATOM     56  C   UNL     1       5.494   8.090  -8.238  1.00  0.00     0.022 A 
BRANCH  54  57
ATOM     57  S   UNL     1       2.772   8.322  -7.978  1.00  0.00     0.127 S 
ATOM     58  O   UNL     1       2.676   9.693  -8.472  1.00  0.00    -0.237 OA
ATOM     59  O   UNL     1       2.822   7.294  -9.019  1.00  0.00    -0.237 OA
ATOM     60  O   UNL     1       1.912   7.985  -6.852  1.00  0.00    -0.744 OA
ENDBRANCH  54  57
ENDBRANCH  26  50
BRANCH  38  61
ATOM     61  C   UNL     1       9.722  12.129  -1.110  1.00  0.00     0.023 A 
ATOM     62  C   UNL     1       9.029  13.345  -1.278  1.00  0.00     0.012 A 
ATOM     63  C   UNL     1      11.129  12.134  -1.064  1.00  0.00     0.148 A 
ATOM     64  C   UNL     1       9.726  14.543  -1.425  1.00  0.00     0.002 A 
ATOM     65  C   UNL     1      11.816  13.338  -1.169  1.00  0.00     0.091 A 
ATOM     66  F   UNL     1      11.770  10.964  -0.927  1.00  0.00    -0.205 F 
ATOM     67  C   UNL     1      11.118  14.541  -1.360  1.00  0.00     0.022 A 
BRANCH  65  68
ATOM     68  S   UNL     1      13.603  13.435  -1.010  1.00  0.00     0.127 S 
ATOM     69  O   UNL     1      14.020  13.582  -2.403  1.00  0.00    -0.237 OA
ATOM     70  O   UNL     1      13.781  14.634  -0.190  1.00  0.00    -0.237 OA
ATOM     71  O   UNL     1      14.011  12.197  -0.358  1.00  0.00    -0.744 OA
ENDBRANCH  65  68
ENDBRANCH  38  61
ENDBRANCH  12  13
ENDBRANCH   5   7
ENDBRANCH   2   3
ENDBRANCH   1   2
BRANCH   1  72
ATOM     72  C   UNL     1       4.479  -3.419   1.829  1.00  0.00     0.023 C 
BRANCH  72  73
ATOM     73  C   UNL     1       4.895  -4.283   0.643  1.00  0.00     0.116 C 
BRANCH  73  74
ATOM     74  N   UNL     1       6.336  -4.434   0.556  1.00  0.00    -0.351 N 
ATOM     75  C   UNL     1       7.048  -5.599   0.455  1.00  0.00     0.280 C 
ATOM     76  H   UNL     1       6.862  -3.602   0.572  1.00  0.00     0.163 HD
ATOM     77  O   UNL     1       8.270  -5.536   0.311  1.00  0.00    -0.268 OA
BRANCH  75  78
ATOM     78  C   UNL     1       6.283  -6.929   0.507  1.00  0.00     0.292 C 
ATOM     79  C   UNL     1       7.264  -8.097   0.730  1.00  0.00     0.195 C 
ATOM     80  N   UNL     1       5.487  -7.080  -0.760  1.00  0.00    -0.333 N 
ATOM     81  N   UNL     1       6.534  -9.358   0.648  1.00  0.00    -0.329 N 
ATOM     82  C   UNL     1       4.776  -8.375  -0.721  1.00  0.00     0.283 C 
ATOM     83  H   UNL     1       6.114  -7.056  -1.564  1.00  0.00     0.347 HD
ATOM     84  H   UNL     1       4.815  -6.316  -0.841  1.00  0.00     0.347 HD
ATOM     85  C   UNL     1       5.707  -9.597  -0.517  1.00  0.00     0.181 C 
BRANCH  81  86
ATOM     86  C   UNL     1       6.807 -10.350   1.540  1.00  0.00     0.227 A 
ATOM     87  N   UNL     1       7.054 -11.583   1.079  1.00  0.00    -0.221 NA
ATOM     88  N   UNL     1       6.775 -10.036   2.844  1.00  0.00    -0.196 NA
ATOM     89  C   UNL     1       7.371 -12.511   1.995  1.00  0.00     0.119 A 
ATOM     90  C   UNL     1       7.041 -10.995   3.742  1.00  0.00     0.134 A 
ATOM     91  C   UNL     1       7.394 -12.265   3.345  1.00  0.00     0.067 A 
BRANCH  90  92
ATOM     92  N   UNL     1       6.893 -10.703   5.081  1.00  0.00    -0.356 N 
ATOM     93  C   UNL     1       8.034 -10.759   5.976  1.00  0.00     0.121 C 
ATOM     94  C   UNL     1       5.637 -10.116   5.526  1.00  0.00     0.121 C 
ATOM     95  C   UNL     1       8.271  -9.391   6.611  1.00  0.00     0.053 C 
ATOM     96  C   UNL     1       5.860  -8.766   6.196  1.00  0.00     0.053 C 
ATOM     97  C   UNL     1       6.994  -8.811   7.217  1.00  0.00     0.118 C 
BRANCH  97  98
ATOM     98  O   UNL     1       6.610  -9.551   8.377  1.00  0.00    -0.393 OA
ATOM     99  H   UNL     1       6.420 -10.469   8.127  1.00  0.00     0.210 HD
ENDBRANCH  97  98
ENDBRANCH  90  92
ENDBRANCH  81  86
ENDBRANCH  75  78
ENDBRANCH  73  74
ENDBRANCH  72  73
ENDBRANCH   1  72
TORSDOF 17
