REMARK SMILES C[C@@H](CNC(=O)N(C)CC(C)(C)O)C(=O)NCCCCNC(=O)c1ccc(-c2c3nc(c(-c4cccc(S(=O)(=O)[O-])c4F)c4ccc([nH]4)c(-c4cccc(S(=O)(=O)[O-])c4F)c4nc(c(-c5cccc(S(=O)(=O)[O-])c5F)c5ccc2[nH]5)C=C4)C=C3)cc1
REMARK SMILES IDX 17 1 16 2 14 3 15 4 2 6 1 7 3 8 4 9 5 10 6 12 7 13 8 14 9 15
REMARK SMILES IDX 10 16 11 17 12 18 13 19 18 21 19 22 20 23 21 24 22 25 23 27
REMARK SMILES IDX 24 28 25 29 86 30 26 31 85 32 27 33 28 34 29 35 79 36 30 37
REMARK SMILES IDX 84 38 78 39 80 40 31 41 83 42 77 43 76 44 32 46 64 47 44 48
REMARK SMILES IDX 63 49 45 50 48 51 62 52 81 53 46 54 47 55 61 57 82 58 49 59
REMARK SMILES IDX 33 60 34 61 42 62 35 63 37 64 43 65 36 66 38 67 39 68 40 69
REMARK SMILES IDX 41 70 65 71 66 72 74 73 67 74 69 75 75 76 68 77 70 78 71 79
REMARK SMILES IDX 72 80 73 81 50 82 51 83 59 84 52 85 54 86 60 87 53 88 55 89
REMARK SMILES IDX 56 90 57 91 58 92
REMARK H PARENT 16 5 4 11 13 20 21 26 80 45 48 56
REMARK Flexibility Score: inf
ROOT
ATOM      1  C   UNL     1      -1.100  -1.593  -0.969  1.00  0.00     0.116 C 
ENDROOT
BRANCH   1   2
ATOM      2  N   UNL     1      -1.508  -0.206  -0.856  1.00  0.00    -0.356 N 
ATOM      3  C   UNL     1      -0.787   0.938  -1.019  1.00  0.00     0.224 C 
ATOM      4  O   UNL     1      -1.414   1.992  -1.172  1.00  0.00    -0.275 OA
ATOM      5  H   UNL     1      -2.455  -0.070  -0.625  1.00  0.00     0.163 HD
BRANCH   3   6
ATOM      6  C   UNL     1       0.740   0.977  -0.991  1.00  0.00     0.094 C 
ATOM      7  C   UNL     1       1.350   0.257   0.213  1.00  0.00     0.020 C 
BRANCH   6   8
ATOM      8  C   UNL     1       1.449   0.689  -2.326  1.00  0.00     0.130 C 
BRANCH   8   9
ATOM      9  N   UNL     1       1.083  -0.553  -2.973  1.00  0.00    -0.337 N 
ATOM     10  C   UNL     1       0.179  -0.959  -3.882  1.00  0.00     0.317 C 
ATOM     11  H   UNL     1       1.645  -1.300  -2.664  1.00  0.00     0.165 HD
ATOM     12  O   UNL     1       0.015  -2.184  -3.895  1.00  0.00    -0.249 OA
BRANCH  10  13
ATOM     13  N   UNL     1      -0.514  -0.127  -4.705  1.00  0.00    -0.325 N 
ATOM     14  C   UNL     1      -0.379   1.317  -4.806  1.00  0.00     0.148 C 
BRANCH  13  15
ATOM     15  C   UNL     1      -1.433  -0.743  -5.687  1.00  0.00     0.155 C 
BRANCH  15  16
ATOM     16  C   UNL     1      -0.785  -1.465  -6.911  1.00  0.00     0.077 C 
ATOM     17  C   UNL     1      -0.333  -2.898  -6.599  1.00  0.00     0.043 C 
ATOM     18  C   UNL     1      -1.811  -1.526  -8.053  1.00  0.00     0.043 C 
BRANCH  16  19
ATOM     19  O   UNL     1       0.333  -0.711  -7.403  1.00  0.00    -0.389 OA
ATOM     20  H   UNL     1       1.009  -0.647  -6.711  1.00  0.00     0.211 HD
ENDBRANCH  16  19
ENDBRANCH  15  16
ENDBRANCH  13  15
ENDBRANCH  10  13
ENDBRANCH   8   9
ENDBRANCH   6   8
ENDBRANCH   3   6
ENDBRANCH   1   2
BRANCH   1  21
ATOM     21  C   UNL     1      -1.608  -2.489   0.152  1.00  0.00     0.023 C 
BRANCH  21  22
ATOM     22  C   UNL     1      -3.092  -2.843   0.073  1.00  0.00     0.023 C 
BRANCH  22  23
ATOM     23  C   UNL     1      -3.579  -3.413  -1.259  1.00  0.00     0.116 C 
BRANCH  23  24
ATOM     24  N   UNL     1      -2.837  -4.583  -1.712  1.00  0.00    -0.352 N 
ATOM     25  C   UNL     1      -3.318  -5.778  -2.203  1.00  0.00     0.251 C 
ATOM     26  H   UNL     1      -1.857  -4.509  -1.659  1.00  0.00     0.163 HD
ATOM     27  O   UNL     1      -2.557  -6.700  -2.455  1.00  0.00    -0.269 OA
BRANCH  25  28
ATOM     28  C   UNL     1      -4.777  -5.945  -2.393  1.00  0.00     0.039 A 
ATOM     29  C   UNL     1      -5.406  -7.068  -1.851  1.00  0.00     0.014 A 
ATOM     30  C   UNL     1      -5.522  -4.972  -3.062  1.00  0.00     0.014 A 
ATOM     31  C   UNL     1      -6.800  -7.169  -1.901  1.00  0.00     0.010 A 
ATOM     32  C   UNL     1      -6.912  -5.038  -3.046  1.00  0.00     0.010 A 
ATOM     33  C   UNL     1      -7.567  -6.132  -2.458  1.00  0.00    -0.014 A 
BRANCH  33  34
ATOM     34  C   UNL     1      -9.052  -6.149  -2.403  1.00  0.00     0.031 A 
ATOM     35  C   UNL     1      -9.859  -6.167  -3.673  1.00  0.00     0.074 A 
ATOM     36  C   UNL     1      -9.675  -6.038  -1.212  1.00  0.00     0.049 A 
ATOM     37  N   UNL     1     -11.156  -6.107  -3.825  1.00  0.00    -0.248 NA
ATOM     38  C   UNL     1      -9.109  -6.229  -4.939  1.00  0.00     0.031 C 
ATOM     39  C   UNL     1      -9.006  -5.919   0.086  1.00  0.00     0.029 A 
ATOM     40  N   UNL     1     -11.011  -5.973  -0.901  1.00  0.00    -0.354 N 
ATOM     41  C   UNL     1     -11.377  -6.084  -5.197  1.00  0.00     0.074 A 
ATOM     42  C   UNL     1     -10.079  -6.104  -5.834  1.00  0.00     0.031 C 
ATOM     43  C   UNL     1      -9.933  -5.799   1.050  1.00  0.00     0.029 A 
ATOM     44  C   UNL     1     -11.259  -5.806   0.442  1.00  0.00     0.049 A 
ATOM     45  H   UNL     1     -11.724  -6.040  -1.576  1.00  0.00     0.167 HD
ATOM     46  C   UNL     1     -12.554  -6.078  -5.867  1.00  0.00     0.034 A 
ATOM     47  C   UNL     1     -12.423  -5.671   1.109  1.00  0.00     0.034 A 
ATOM     48  C   UNL     1     -13.844  -6.117  -5.233  1.00  0.00     0.049 A 
ATOM     49  C   UNL     1     -13.717  -5.731   0.342  1.00  0.00     0.074 A 
ATOM     50  C   UNL     1     -15.090  -6.217  -5.826  1.00  0.00     0.029 A 
ATOM     51  N   UNL     1     -14.055  -6.056  -3.865  1.00  0.00    -0.354 N 
ATOM     52  N   UNL     1     -13.906  -5.885  -0.946  1.00  0.00    -0.248 NA
ATOM     53  C   UNL     1     -14.959  -5.637   1.124  1.00  0.00     0.031 C 
ATOM     54  C   UNL     1     -16.057  -6.205  -4.815  1.00  0.00     0.029 A 
ATOM     55  C   UNL     1     -15.411  -6.112  -3.592  1.00  0.00     0.049 A 
ATOM     56  H   UNL     1     -13.345  -5.984  -3.187  1.00  0.00     0.167 HD
ATOM     57  C   UNL     1     -15.284  -5.942  -1.124  1.00  0.00     0.074 A 
ATOM     58  C   UNL     1     -15.881  -5.829   0.190  1.00  0.00     0.031 C 
ATOM     59  C   UNL     1     -15.991  -6.061  -2.275  1.00  0.00     0.034 A 
BRANCH  46  60
ATOM     60  C   UNL     1     -12.501  -6.099  -7.372  1.00  0.00     0.023 A 
ATOM     61  C   UNL     1     -12.111  -7.283  -8.033  1.00  0.00     0.012 A 
ATOM     62  C   UNL     1     -12.893  -4.981  -8.133  1.00  0.00     0.148 A 
ATOM     63  C   UNL     1     -12.079  -7.343  -9.425  1.00  0.00     0.002 A 
ATOM     64  C   UNL     1     -12.899  -5.062  -9.521  1.00  0.00     0.091 A 
ATOM     65  F   UNL     1     -13.240  -3.858  -7.488  1.00  0.00    -0.205 F 
ATOM     66  C   UNL     1     -12.483  -6.237 -10.168  1.00  0.00     0.022 A 
BRANCH  64  67
ATOM     67  S   UNL     1     -13.475  -3.719 -10.566  1.00  0.00     0.127 S 
ATOM     68  O   UNL     1     -12.219  -3.227 -11.132  1.00  0.00    -0.237 OA
ATOM     69  O   UNL     1     -14.339  -4.417 -11.518  1.00  0.00    -0.237 OA
ATOM     70  O   UNL     1     -14.169  -2.793  -9.683  1.00  0.00    -0.744 OA
ENDBRANCH  64  67
ENDBRANCH  46  60
BRANCH  47  71
ATOM     71  C   UNL     1     -12.420  -5.549   2.594  1.00  0.00     0.023 A 
ATOM     72  C   UNL     1     -12.883  -6.628   3.373  1.00  0.00     0.012 A 
ATOM     73  C   UNL     1     -11.943  -4.392   3.240  1.00  0.00     0.148 A 
ATOM     74  C   UNL     1     -12.900  -6.546   4.765  1.00  0.00     0.002 A 
ATOM     75  C   UNL     1     -11.912  -4.338   4.629  1.00  0.00     0.091 A 
ATOM     76  F   UNL     1     -11.520  -3.370   2.483  1.00  0.00    -0.205 F 
ATOM     77  C   UNL     1     -12.406  -5.407   5.394  1.00  0.00     0.022 A 
BRANCH  75  78
ATOM     78  S   UNL     1     -11.173  -2.964   5.520  1.00  0.00     0.127 S 
ATOM     79  O   UNL     1     -12.351  -2.266   6.026  1.00  0.00    -0.237 OA
ATOM     80  O   UNL     1     -10.380  -3.652   6.539  1.00  0.00    -0.237 OA
ATOM     81  O   UNL     1     -10.380  -2.243   4.533  1.00  0.00    -0.744 OA
ENDBRANCH  75  78
ENDBRANCH  47  71
BRANCH  59  82
ATOM     82  C   UNL     1     -17.492  -6.109  -2.173  1.00  0.00     0.023 A 
ATOM     83  C   UNL     1     -18.209  -4.931  -1.881  1.00  0.00     0.012 A 
ATOM     84  C   UNL     1     -18.196  -7.298  -2.447  1.00  0.00     0.148 A 
ATOM     85  C   UNL     1     -19.602  -4.944  -1.836  1.00  0.00     0.002 A 
ATOM     86  C   UNL     1     -19.586  -7.292  -2.445  1.00  0.00     0.091 A 
ATOM     87  F   UNL     1     -17.495  -8.413  -2.702  1.00  0.00    -0.205 F 
ATOM     88  C   UNL     1     -20.290  -6.119  -2.129  1.00  0.00     0.022 A 
BRANCH  86  89
ATOM     89  S   UNL     1     -20.552  -8.736  -2.903  1.00  0.00     0.127 S 
ATOM     90  O   UNL     1     -21.038  -9.195  -1.603  1.00  0.00    -0.237 OA
ATOM     91  O   UNL     1     -21.581  -8.161  -3.770  1.00  0.00    -0.237 OA
ATOM     92  O   UNL     1     -19.628  -9.635  -3.581  1.00  0.00    -0.744 OA
ENDBRANCH  86  89
ENDBRANCH  59  82
ENDBRANCH  33  34
ENDBRANCH  25  28
ENDBRANCH  23  24
ENDBRANCH  22  23
ENDBRANCH  21  22
ENDBRANCH   1  21
TORSDOF 20
