REMARK SMILES CC(C)c1nc(OCC(=O)NCCCCNC(=O)c2ccc(-c3c4nc(c(-c5cccc(S(=O)(=O)[O-])c5F)c5ccc([nH]5)c(-c5cccc(S(=O)(=O)[O-])c5F)c5nc(c(-c6cccc(S(=O)(=O)[O-])c6F)c6ccc3[nH]6)C=C5)C=C4)cc2)cc(-c2ccccn2)n1
REMARK SMILES IDX 13 1 12 2 11 3 9 4 10 5 8 7 7 8 6 9 4 10 5 11 90 12 83 13
REMARK SMILES IDX 82 14 2 15 1 16 3 17 84 18 85 19 89 20 86 21 88 22 87 23
REMARK SMILES IDX 14 24 15 25 16 26 17 27 18 29 19 30 20 31 81 32 21 33 80 34
REMARK SMILES IDX 22 35 23 36 24 37 74 38 25 39 79 40 73 41 75 42 26 43 78 44
REMARK SMILES IDX 72 45 71 46 27 48 59 49 39 50 58 51 40 52 43 53 57 54 76 55
REMARK SMILES IDX 41 56 42 57 56 59 77 60 44 61 28 62 29 63 37 64 30 65 32 66
REMARK SMILES IDX 38 67 31 68 33 69 34 70 35 71 36 72 60 73 61 74 69 75 62 76
REMARK SMILES IDX 64 77 70 78 63 79 65 80 66 81 67 82 68 83 45 84 46 85 54 86
REMARK SMILES IDX 47 87 49 88 55 89 48 90 50 91 51 92 52 93 53 94
REMARK H PARENT 11 6 16 28 75 47 43 58
REMARK Flexibility Score: inf
ROOT
ATOM      1  C   UNL     1      -3.087  -2.450   4.634  1.00  0.00     0.023 C 
ENDROOT
BRANCH   1   2
ATOM      2  C   UNL     1      -4.369  -2.962   3.980  1.00  0.00     0.116 C 
BRANCH   2   3
ATOM      3  N   UNL     1      -5.337  -1.904   3.766  1.00  0.00    -0.353 N 
ATOM      4  C   UNL     1      -5.721  -1.339   2.586  1.00  0.00     0.258 C 
ATOM      5  O   UNL     1      -6.558  -0.435   2.598  1.00  0.00    -0.271 OA
ATOM      6  H   UNL     1      -5.771  -1.548   4.574  1.00  0.00     0.163 HD
BRANCH   4   7
ATOM      7  C   UNL     1      -5.120  -1.846   1.269  1.00  0.00     0.331 C 
BRANCH   7   8
ATOM      8  O   UNL     1      -3.713  -1.753   1.137  1.00  0.00    -0.467 OA
BRANCH   8   9
ATOM      9  C   UNL     1      -3.150  -0.509   1.143  1.00  0.00     0.217 A 
ATOM     10  C   UNL     1      -1.149   0.617   1.240  1.00  0.00     0.135 A 
ATOM     11  N   UNL     1      -1.810  -0.555   1.217  1.00  0.00    -0.198 NA
ATOM     12  N   UNL     1      -1.748   1.818   1.227  1.00  0.00    -0.231 NA
ATOM     13  C   UNL     1      -3.096   1.832   1.165  1.00  0.00     0.096 A 
ATOM     14  C   UNL     1      -3.842   0.674   1.089  1.00  0.00     0.099 A 
BRANCH  10  15
ATOM     15  C   UNL     1       0.366   0.550   1.275  1.00  0.00     0.051 C 
ATOM     16  C   UNL     1       0.896  -0.081  -0.015  1.00  0.00     0.016 C 
ATOM     17  C   UNL     1       1.030   1.911   1.500  1.00  0.00     0.016 C 
ENDBRANCH  10  15
BRANCH  13  18
ATOM     18  C   UNL     1      -3.764   3.140   1.226  1.00  0.00     0.089 A 
ATOM     19  C   UNL     1      -4.617   3.461   2.285  1.00  0.00     0.030 A 
ATOM     20  N   UNL     1      -3.574   3.974   0.171  1.00  0.00    -0.255 NA
ATOM     21  C   UNL     1      -5.295   4.676   2.266  1.00  0.00     0.004 A 
ATOM     22  C   UNL     1      -4.237   5.151   0.187  1.00  0.00     0.112 A 
ATOM     23  C   UNL     1      -5.103   5.540   1.196  1.00  0.00     0.020 A 
ENDBRANCH  13  18
ENDBRANCH   8   9
ENDBRANCH   7   8
ENDBRANCH   4   7
ENDBRANCH   2   3
ENDBRANCH   1   2
BRANCH   1  24
ATOM     24  C   UNL     1      -3.264  -1.850   6.032  1.00  0.00     0.023 C 
BRANCH  24  25
ATOM     25  C   UNL     1      -3.994  -2.726   7.047  1.00  0.00     0.116 C 
BRANCH  25  26
ATOM     26  N   UNL     1      -3.365  -4.023   7.237  1.00  0.00    -0.352 N 
ATOM     27  C   UNL     1      -3.123  -4.719   8.395  1.00  0.00     0.251 C 
ATOM     28  H   UNL     1      -3.067  -4.469   6.411  1.00  0.00     0.163 HD
ATOM     29  O   UNL     1      -2.466  -5.759   8.343  1.00  0.00    -0.269 OA
BRANCH  27  30
ATOM     30  C   UNL     1      -3.616  -4.223   9.701  1.00  0.00     0.039 A 
ATOM     31  C   UNL     1      -2.772  -4.324  10.812  1.00  0.00     0.014 A 
ATOM     32  C   UNL     1      -4.898  -3.687   9.852  1.00  0.00     0.014 A 
ATOM     33  C   UNL     1      -3.194  -3.845  12.055  1.00  0.00     0.010 A 
ATOM     34  C   UNL     1      -5.288  -3.140  11.076  1.00  0.00     0.010 A 
ATOM     35  C   UNL     1      -4.446  -3.222  12.194  1.00  0.00    -0.014 A 
BRANCH  35  36
ATOM     36  C   UNL     1      -4.864  -2.644  13.500  1.00  0.00     0.031 A 
ATOM     37  C   UNL     1      -6.064  -3.179  14.235  1.00  0.00     0.074 A 
ATOM     38  C   UNL     1      -4.184  -1.595  14.006  1.00  0.00     0.049 A 
ATOM     39  N   UNL     1      -6.549  -2.815  15.395  1.00  0.00    -0.248 NA
ATOM     40  C   UNL     1      -6.836  -4.244  13.575  1.00  0.00     0.031 C 
ATOM     41  C   UNL     1      -3.059  -0.922  13.352  1.00  0.00     0.029 A 
ATOM     42  N   UNL     1      -4.347  -0.901  15.180  1.00  0.00    -0.354 N 
ATOM     43  C   UNL     1      -7.691  -3.582  15.591  1.00  0.00     0.074 A 
ATOM     44  C   UNL     1      -7.851  -4.405  14.412  1.00  0.00     0.031 C 
ATOM     45  C   UNL     1      -2.623   0.073  14.140  1.00  0.00     0.029 A 
ATOM     46  C   UNL     1      -3.447   0.127  15.343  1.00  0.00     0.049 A 
ATOM     47  H   UNL     1      -5.042  -1.119  15.842  1.00  0.00     0.167 HD
ATOM     48  C   UNL     1      -8.516  -3.624  16.666  1.00  0.00     0.034 A 
ATOM     49  C   UNL     1      -3.298   1.010  16.349  1.00  0.00     0.034 A 
ATOM     50  C   UNL     1      -8.336  -2.831  17.853  1.00  0.00     0.049 A 
ATOM     51  C   UNL     1      -4.193   0.906  17.554  1.00  0.00     0.074 A 
ATOM     52  C   UNL     1      -9.068  -2.862  19.028  1.00  0.00     0.029 A 
ATOM     53  N   UNL     1      -7.364  -1.856  18.016  1.00  0.00    -0.354 N 
ATOM     54  N   UNL     1      -5.164   0.058  17.791  1.00  0.00    -0.248 NA
ATOM     55  C   UNL     1      -3.942   1.853  18.650  1.00  0.00     0.031 C 
ATOM     56  C   UNL     1      -8.553  -1.888  19.891  1.00  0.00     0.029 A 
ATOM     57  C   UNL     1      -7.480  -1.274  19.267  1.00  0.00     0.049 A 
ATOM     58  H   UNL     1      -6.690  -1.614  17.341  1.00  0.00     0.167 HD
ATOM     59  C   UNL     1      -5.615   0.344  19.075  1.00  0.00     0.074 A 
ATOM     60  C   UNL     1      -4.792   1.427  19.574  1.00  0.00     0.031 C 
ATOM     61  C   UNL     1      -6.628  -0.228  19.773  1.00  0.00     0.034 A 
BRANCH  48  62
ATOM     62  C   UNL     1      -9.663  -4.603  16.631  1.00  0.00     0.023 A 
ATOM     63  C   UNL     1      -9.401  -5.986  16.718  1.00  0.00     0.012 A 
ATOM     64  C   UNL     1     -10.999  -4.158  16.575  1.00  0.00     0.148 A 
ATOM     65  C   UNL     1     -10.444  -6.911  16.712  1.00  0.00     0.002 A 
ATOM     66  C   UNL     1     -12.036  -5.083  16.617  1.00  0.00     0.091 A 
ATOM     67  F   UNL     1     -11.230  -2.841  16.474  1.00  0.00    -0.205 F 
ATOM     68  C   UNL     1     -11.760  -6.460  16.672  1.00  0.00     0.022 A 
BRANCH  66  69
ATOM     69  S   UNL     1     -13.766  -4.602  16.653  1.00  0.00     0.127 S 
ATOM     70  O   UNL     1     -14.217  -5.024  15.327  1.00  0.00    -0.237 OA
ATOM     71  O   UNL     1     -14.286  -5.407  17.758  1.00  0.00    -0.237 OA
ATOM     72  O   UNL     1     -13.779  -3.166  16.889  1.00  0.00    -0.744 OA
ENDBRANCH  66  69
ENDBRANCH  48  62
BRANCH  49  73
ATOM     73  C   UNL     1      -2.207   2.024  16.294  1.00  0.00     0.023 A 
ATOM     74  C   UNL     1      -1.110   1.913  17.171  1.00  0.00     0.012 A 
ATOM     75  C   UNL     1      -2.238   3.082  15.365  1.00  0.00     0.148 A 
ATOM     76  C   UNL     1      -0.083   2.856  17.150  1.00  0.00     0.002 A 
ATOM     77  C   UNL     1      -1.183   3.985  15.310  1.00  0.00     0.091 A 
ATOM     78  F   UNL     1      -3.295   3.177  14.546  1.00  0.00    -0.205 F 
ATOM     79  C   UNL     1      -0.114   3.885  16.213  1.00  0.00     0.022 A 
BRANCH  77  80
ATOM     80  S   UNL     1      -1.075   5.260  14.049  1.00  0.00     0.127 S 
ATOM     81  O   UNL     1      -1.304   6.473  14.831  1.00  0.00    -0.237 OA
ATOM     82  O   UNL     1       0.296   5.088  13.565  1.00  0.00    -0.237 OA
ATOM     83  O   UNL     1      -2.102   4.934  13.071  1.00  0.00    -0.744 OA
ENDBRANCH  77  80
ENDBRANCH  49  73
BRANCH  61  84
ATOM     84  C   UNL     1      -6.883   0.279  21.169  1.00  0.00     0.023 A 
ATOM     85  C   UNL     1      -7.424   1.566  21.364  1.00  0.00     0.012 A 
ATOM     86  C   UNL     1      -6.626  -0.538  22.288  1.00  0.00     0.148 A 
ATOM     87  C   UNL     1      -7.661   2.049  22.651  1.00  0.00     0.002 A 
ATOM     88  C   UNL     1      -6.915  -0.070  23.565  1.00  0.00     0.091 A 
ATOM     89  F   UNL     1      -6.094  -1.752  22.087  1.00  0.00    -0.205 F 
ATOM     90  C   UNL     1      -7.417   1.228  23.749  1.00  0.00     0.022 A 
BRANCH  88  91
ATOM     91  S   UNL     1      -6.724  -1.095  25.027  1.00  0.00     0.127 S 
ATOM     92  O   UNL     1      -5.508  -0.544  25.622  1.00  0.00    -0.237 OA
ATOM     93  O   UNL     1      -7.951  -0.808  25.772  1.00  0.00    -0.237 OA
ATOM     94  O   UNL     1      -6.622  -2.465  24.543  1.00  0.00    -0.744 OA
ENDBRANCH  88  91
ENDBRANCH  61  84
ENDBRANCH  35  36
ENDBRANCH  27  30
ENDBRANCH  25  26
ENDBRANCH  24  25
ENDBRANCH   1  24
TORSDOF 18
