REMARK SMILES O=C(NCCCCNC(=O)C1CC[NH+]([C@@H]2CC(=O)N(c3ccc(Oc4ccccc4)cc3)C2=O)CC1)c1ccc(-c2c3nc(c(-c4cccc(S(=O)(=O)[O-])c4F)c4ccc([nH]4)c(-c4cccc(S(=O)(=O)[O-])c4F)c4nc(c(-c5cccc(S(=O)(=O)[O-])c5F)c5ccc2[nH]5)C=C4)C=C3)cc1
REMARK SMILES IDX 6 1 5 2 4 3 3 4 1 5 2 6 37 8 38 9 99 10 39 11 98 12 40 13
REMARK SMILES IDX 41 14 42 15 92 16 43 17 97 18 91 19 93 20 44 21 96 22 90 23
REMARK SMILES IDX 89 24 45 26 77 27 57 28 76 29 58 30 61 31 75 32 94 33 59 34
REMARK SMILES IDX 60 35 74 37 95 38 62 39 46 40 47 41 55 42 48 43 50 44 56 45
REMARK SMILES IDX 49 46 51 47 52 48 53 49 54 50 78 51 79 52 87 53 80 54 82 55
REMARK SMILES IDX 88 56 81 57 83 58 84 59 85 60 86 61 63 62 64 63 72 64 65 65
REMARK SMILES IDX 67 66 73 67 66 68 68 69 69 70 70 71 71 72 7 73 8 74 9 75
REMARK SMILES IDX 10 77 11 78 12 79 36 80 13 81 35 82 14 83 15 85 16 86 33 87
REMARK SMILES IDX 17 88 19 89 34 90 18 91 20 92 21 93 32 94 22 95 31 96 23 97
REMARK SMILES IDX 24 98 25 99 26 100 30 101 27 102 29 103 28 104
REMARK H PARENT 3 7 93 25 61 36 8 76 14 84
REMARK Flexibility Score: inf
ROOT
ATOM      1  C   UNL     1       4.266  -3.611  -1.551  1.00  0.00     0.023 C 
ENDROOT
BRANCH   1   2
ATOM      2  C   UNL     1       4.790  -2.765  -0.390  1.00  0.00     0.023 C 
BRANCH   2   3
ATOM      3  C   UNL     1       4.525  -1.270  -0.501  1.00  0.00     0.116 C 
BRANCH   3   4
ATOM      4  N   UNL     1       3.116  -0.945  -0.657  1.00  0.00    -0.352 N 
ATOM      5  O   UNL     1       1.165   0.092  -0.206  1.00  0.00    -0.269 OA
ATOM      6  C   UNL     1       2.379   0.033  -0.029  1.00  0.00     0.251 C 
ATOM      7  H   UNL     1       2.621  -1.502  -1.301  1.00  0.00     0.163 HD
BRANCH   6   8
ATOM      8  C   UNL     1       3.054   0.975   0.888  1.00  0.00     0.039 A 
ATOM      9  C   UNL     1       4.258   1.581   0.523  1.00  0.00     0.014 A 
ATOM     10  C   UNL     1       2.500   1.215   2.148  1.00  0.00     0.014 A 
ATOM     11  C   UNL     1       4.991   2.281   1.474  1.00  0.00     0.010 A 
ATOM     12  C   UNL     1       3.199   1.993   3.075  1.00  0.00     0.010 A 
ATOM     13  C   UNL     1       4.475   2.488   2.765  1.00  0.00    -0.014 A 
BRANCH  13  14
ATOM     14  C   UNL     1       5.287   3.241   3.756  1.00  0.00     0.031 A 
ATOM     15  C   UNL     1       5.791   2.583   5.013  1.00  0.00     0.074 A 
ATOM     16  C   UNL     1       5.599   4.526   3.496  1.00  0.00     0.049 A 
ATOM     17  N   UNL     1       6.576   3.076   5.938  1.00  0.00    -0.248 NA
ATOM     18  C   UNL     1       5.356   1.202   5.277  1.00  0.00     0.031 C 
ATOM     19  C   UNL     1       5.128   5.286   2.336  1.00  0.00     0.029 A 
ATOM     20  N   UNL     1       6.391   5.414   4.176  1.00  0.00    -0.354 N 
ATOM     21  C   UNL     1       6.690   2.091   6.911  1.00  0.00     0.074 A 
ATOM     22  C   UNL     1       5.890   0.969   6.469  1.00  0.00     0.031 C 
ATOM     23  C   UNL     1       5.676   6.509   2.360  1.00  0.00     0.029 A 
ATOM     24  C   UNL     1       6.502   6.636   3.556  1.00  0.00     0.049 A 
ATOM     25  H   UNL     1       6.838   5.198   5.026  1.00  0.00     0.167 HD
ATOM     26  C   UNL     1       7.411   2.110   8.059  1.00  0.00     0.034 A 
ATOM     27  C   UNL     1       7.196   7.737   3.904  1.00  0.00     0.034 A 
ATOM     28  C   UNL     1       8.255   3.202   8.466  1.00  0.00     0.049 A 
ATOM     29  C   UNL     1       8.040   7.702   5.146  1.00  0.00     0.074 A 
ATOM     30  C   UNL     1       9.079   3.285   9.575  1.00  0.00     0.029 A 
ATOM     31  N   UNL     1       8.386   4.400   7.781  1.00  0.00    -0.354 N 
ATOM     32  N   UNL     1       8.240   6.710   5.979  1.00  0.00    -0.248 NA
ATOM     33  C   UNL     1       8.778   8.928   5.479  1.00  0.00     0.031 C 
ATOM     34  C   UNL     1       9.706   4.536   9.562  1.00  0.00     0.029 A 
ATOM     35  C   UNL     1       9.277   5.229   8.442  1.00  0.00     0.049 A 
ATOM     36  H   UNL     1       7.915   4.627   6.947  1.00  0.00     0.167 HD
ATOM     37  C   UNL     1       9.145   7.182   6.921  1.00  0.00     0.074 A 
ATOM     38  C   UNL     1       9.476   8.540   6.539  1.00  0.00     0.031 C 
ATOM     39  C   UNL     1       9.641   6.556   8.016  1.00  0.00     0.034 A 
BRANCH  26  40
ATOM     40  C   UNL     1       7.364   0.889   8.940  1.00  0.00     0.023 A 
ATOM     41  C   UNL     1       8.086  -0.263   8.568  1.00  0.00     0.012 A 
ATOM     42  C   UNL     1       6.670   0.903  10.166  1.00  0.00     0.148 A 
ATOM     43  C   UNL     1       8.100  -1.389   9.391  1.00  0.00     0.002 A 
ATOM     44  C   UNL     1       6.717  -0.211  10.997  1.00  0.00     0.091 A 
ATOM     45  F   UNL     1       5.967   1.997  10.492  1.00  0.00    -0.205 F 
ATOM     46  C   UNL     1       7.426  -1.360  10.608  1.00  0.00     0.022 A 
BRANCH  44  47
ATOM     47  S   UNL     1       5.936  -0.235  12.616  1.00  0.00     0.127 S 
ATOM     48  O   UNL     1       4.727  -1.012  12.349  1.00  0.00    -0.237 OA
ATOM     49  O   UNL     1       6.934  -0.924  13.435  1.00  0.00    -0.237 OA
ATOM     50  O   UNL     1       5.726   1.161  12.973  1.00  0.00    -0.744 OA
ENDBRANCH  44  47
ENDBRANCH  26  40
BRANCH  27  51
ATOM     51  C   UNL     1       7.181   8.928   3.011  1.00  0.00     0.023 A 
ATOM     52  C   UNL     1       8.341   9.258   2.284  1.00  0.00     0.012 A 
ATOM     53  C   UNL     1       6.014   9.694   2.829  1.00  0.00     0.148 A 
ATOM     54  C   UNL     1       8.343  10.342   1.406  1.00  0.00     0.002 A 
ATOM     55  C   UNL     1       6.007  10.736   1.909  1.00  0.00     0.091 A 
ATOM     56  F   UNL     1       4.925   9.378   3.545  1.00  0.00    -0.205 F 
ATOM     57  C   UNL     1       7.174  11.072   1.207  1.00  0.00     0.022 A 
BRANCH  55  58
ATOM     58  S   UNL     1       4.499  11.619   1.492  1.00  0.00     0.127 S 
ATOM     59  O   UNL     1       4.647  12.848   2.265  1.00  0.00    -0.237 OA
ATOM     60  O   UNL     1       4.627  11.783   0.043  1.00  0.00    -0.237 OA
ATOM     61  O   UNL     1       3.414  10.734   1.894  1.00  0.00    -0.744 OA
ENDBRANCH  55  58
ENDBRANCH  27  51
BRANCH  39  62
ATOM     62  C   UNL     1      10.611   7.323   8.872  1.00  0.00     0.023 A 
ATOM     63  C   UNL     1      10.134   8.348   9.713  1.00  0.00     0.012 A 
ATOM     64  C   UNL     1      11.979   6.993   8.891  1.00  0.00     0.148 A 
ATOM     65  C   UNL     1      11.009   9.053  10.537  1.00  0.00     0.002 A 
ATOM     66  C   UNL     1      12.840   7.673   9.746  1.00  0.00     0.091 A 
ATOM     67  F   UNL     1      12.420   6.032   8.066  1.00  0.00    -0.205 F 
ATOM     68  C   UNL     1      12.359   8.709  10.562  1.00  0.00     0.022 A 
BRANCH  66  69
ATOM     69  S   UNL     1      14.573   7.223   9.895  1.00  0.00     0.127 S 
ATOM     70  O   UNL     1      15.211   8.193   9.008  1.00  0.00    -0.237 OA
ATOM     71  O   UNL     1      14.836   7.435  11.319  1.00  0.00    -0.237 OA
ATOM     72  O   UNL     1      14.651   5.830   9.474  1.00  0.00    -0.744 OA
ENDBRANCH  66  69
ENDBRANCH  39  62
ENDBRANCH  13  14
ENDBRANCH   6   8
ENDBRANCH   3   4
ENDBRANCH   2   3
ENDBRANCH   1   2
BRANCH   1  73
ATOM     73  C   UNL     1       4.736  -3.170  -2.937  1.00  0.00     0.116 C 
BRANCH  73  74
ATOM     74  N   UNL     1       6.173  -3.293  -3.083  1.00  0.00    -0.356 N 
ATOM     75  C   UNL     1       6.902  -4.145  -3.856  1.00  0.00     0.223 C 
ATOM     76  H   UNL     1       6.703  -2.664  -2.542  1.00  0.00     0.163 HD
ATOM     77  O   UNL     1       8.126  -4.018  -3.844  1.00  0.00    -0.275 OA
BRANCH  75  78
ATOM     78  C   UNL     1       6.192  -5.205  -4.701  1.00  0.00     0.089 C 
ATOM     79  C   UNL     1       5.564  -6.309  -3.848  1.00  0.00     0.075 C 
ATOM     80  C   UNL     1       7.152  -5.851  -5.707  1.00  0.00     0.075 C 
ATOM     81  C   UNL     1       6.625  -7.181  -3.184  1.00  0.00     0.263 C 
ATOM     82  C   UNL     1       8.156  -6.801  -5.045  1.00  0.00     0.263 C 
ATOM     83  N   UNL     1       7.494  -7.799  -4.191  1.00  0.00    -0.324 N 
ATOM     84  H   UNL     1       6.906  -8.338  -4.827  1.00  0.00     0.348 HD
BRANCH  83  85
ATOM     85  C   UNL     1       8.427  -8.768  -3.568  1.00  0.00     0.284 C 
ATOM     86  C   UNL     1       9.458  -8.223  -2.596  1.00  0.00     0.176 C 
ATOM     87  C   UNL     1       9.246  -9.509  -4.612  1.00  0.00     0.292 C 
ATOM     88  C   UNL     1      10.779  -8.584  -3.198  1.00  0.00     0.240 C 
ATOM     89  N   UNL     1      10.585  -9.276  -4.372  1.00  0.00    -0.245 N 
ATOM     90  O   UNL     1       8.744 -10.221  -5.475  1.00  0.00    -0.267 OA
ATOM     91  O   UNL     1      11.830  -8.256  -2.663  1.00  0.00    -0.274 OA
BRANCH  89  92
ATOM     92  C   UNL     1      11.633  -9.727  -5.227  1.00  0.00     0.052 A 
ATOM     93  C   UNL     1      11.396  -9.992  -6.585  1.00  0.00     0.031 A 
ATOM     94  C   UNL     1      12.943  -9.899  -4.755  1.00  0.00     0.031 A 
ATOM     95  C   UNL     1      12.422 -10.424  -7.434  1.00  0.00     0.049 A 
ATOM     96  C   UNL     1      13.971 -10.336  -5.600  1.00  0.00     0.049 A 
ATOM     97  C   UNL     1      13.709 -10.616  -6.940  1.00  0.00     0.127 A 
BRANCH  97  98
ATOM     98  O   UNL     1      14.646 -11.035  -7.859  1.00  0.00    -0.457 OA
BRANCH  98  99
ATOM     99  C   UNL     1      15.802 -11.600  -7.381  1.00  0.00     0.127 A 
ATOM    100  C   UNL     1      17.005 -10.945  -7.640  1.00  0.00     0.047 A 
ATOM    101  C   UNL     1      15.789 -12.821  -6.702  1.00  0.00     0.047 A 
ATOM    102  C   UNL     1      18.201 -11.489  -7.173  1.00  0.00     0.004 A 
ATOM    103  C   UNL     1      16.986 -13.360  -6.232  1.00  0.00     0.004 A 
ATOM    104  C   UNL     1      18.190 -12.691  -6.464  1.00  0.00     0.000 A 
ENDBRANCH  98  99
ENDBRANCH  97  98
ENDBRANCH  89  92
ENDBRANCH  83  85
ENDBRANCH  75  78
ENDBRANCH  73  74
ENDBRANCH   1  73
TORSDOF 18
