REMARK SMILES COC(=O)c1ccc(NC(=O)[C@@H]2CC=CC[C@@H]2C(=O)NCCCCNC(=O)c2ccc(-c3c4nc(c(-c5cccc(S(=O)(=O)[O-])c5F)c5ccc([nH]5)c(-c5cccc(S(=O)(=O)[O-])c5F)c5nc(c(-c6cccc(S(=O)(=O)[O-])c6F)c6ccc3[nH]6)C=C5)C=C4)cc2)c(C)c1
REMARK SMILES IDX 22 1 21 2 20 3 18 4 19 5 17 7 12 8 13 9 14 10 16 11 15 12
REMARK SMILES IDX 10 13 9 14 11 16 8 17 5 18 6 19 93 20 7 21 91 22 92 23 3 24
REMARK SMILES IDX 4 25 2 26 1 27 23 28 24 29 25 30 26 31 27 33 28 34 29 35
REMARK SMILES IDX 90 36 30 37 89 38 31 39 32 40 33 41 83 42 34 43 88 44 82 45
REMARK SMILES IDX 84 46 35 47 87 48 81 49 80 50 36 52 68 53 48 54 67 55 49 56
REMARK SMILES IDX 52 57 66 58 85 59 50 60 51 61 65 63 86 64 53 65 37 66 38 67
REMARK SMILES IDX 46 68 39 69 41 70 47 71 40 72 42 73 43 74 44 75 45 76 69 77
REMARK SMILES IDX 70 78 78 79 71 80 73 81 79 82 72 83 74 84 75 85 76 86 77 87
REMARK SMILES IDX 54 88 55 89 63 90 56 91 58 92 64 93 57 94 59 95 60 96 61 97
REMARK SMILES IDX 62 98
REMARK H PARENT 20 6 9 15 25 32 84 51 52 62
REMARK Flexibility Score: inf
ROOT
ATOM      1  C   UNL     1       1.314  -1.073   5.740  1.00  0.00     0.023 C 
ENDROOT
BRANCH   1   2
ATOM      2  C   UNL     1       1.870   0.183   5.072  1.00  0.00     0.116 C 
BRANCH   2   3
ATOM      3  N   UNL     1       2.046   1.296   5.984  1.00  0.00    -0.356 N 
ATOM      4  C   UNL     1       3.072   2.180   6.135  1.00  0.00     0.224 C 
ATOM      5  O   UNL     1       2.925   3.032   7.009  1.00  0.00    -0.275 OA
ATOM      6  H   UNL     1       1.293   1.439   6.601  1.00  0.00     0.163 HD
BRANCH   4   7
ATOM      7  C   UNL     1       4.359   2.036   5.312  1.00  0.00     0.095 C 
ATOM      8  C   UNL     1       5.449   3.078   5.681  1.00  0.00     0.095 C 
ATOM      9  C   UNL     1       4.965   4.517   5.427  1.00  0.00     0.041 C 
ATOM     10  C   UNL     1       4.366   4.639   4.050  1.00  0.00    -0.030 C 
ATOM     11  C   UNL     1       4.102   2.163   3.794  1.00  0.00     0.041 C 
ATOM     12  C   UNL     1       4.014   3.580   3.306  1.00  0.00    -0.030 C 
BRANCH   8  13
ATOM     13  C   UNL     1       6.037   2.862   7.063  1.00  0.00     0.228 C 
ATOM     14  N   UNL     1       7.101   2.030   7.288  1.00  0.00    -0.326 N 
ATOM     15  H   UNL     1       7.293   1.917   8.248  1.00  0.00     0.169 HD
ATOM     16  O   UNL     1       5.630   3.477   8.053  1.00  0.00    -0.274 OA
BRANCH  14  17
ATOM     17  C   UNL     1       7.989   1.294   6.474  1.00  0.00     0.044 A 
ATOM     18  C   UNL     1       9.966   0.081   4.846  1.00  0.00     0.060 A 
ATOM     19  C   UNL     1       8.699   0.347   4.337  1.00  0.00     0.018 A 
ATOM     20  C   UNL     1      10.230   0.370   6.188  1.00  0.00     0.021 A 
ATOM     21  C   UNL     1       7.725   0.936   5.149  1.00  0.00     0.027 A 
ATOM     22  C   UNL     1       9.242   0.932   7.021  1.00  0.00    -0.027 A 
ATOM     23  C   UNL     1       9.595   1.165   8.468  1.00  0.00     0.046 C 
BRANCH  18  24
ATOM     24  C   UNL     1      10.989  -0.498   3.937  1.00  0.00     0.337 C 
ATOM     25  O   UNL     1      10.904  -0.452   2.713  1.00  0.00    -0.246 OA
BRANCH  24  26
ATOM     26  O   UNL     1      12.050  -1.024   4.591  1.00  0.00    -0.465 OA
ATOM     27  C   UNL     1      11.795  -2.312   5.157  1.00  0.00     0.282 C 
ENDBRANCH  24  26
ENDBRANCH  18  24
ENDBRANCH  14  17
ENDBRANCH   8  13
ENDBRANCH   4   7
ENDBRANCH   2   3
ENDBRANCH   1   2
BRANCH   1  28
ATOM     28  C   UNL     1       0.065  -0.888   6.593  1.00  0.00     0.023 C 
BRANCH  28  29
ATOM     29  C   UNL     1      -1.121  -0.284   5.870  1.00  0.00     0.116 C 
BRANCH  29  30
ATOM     30  N   UNL     1      -1.809  -1.215   5.001  1.00  0.00    -0.352 N 
ATOM     31  C   UNL     1      -3.087  -1.153   4.477  1.00  0.00     0.251 C 
ATOM     32  H   UNL     1      -1.289  -2.011   4.744  1.00  0.00     0.163 HD
ATOM     33  O   UNL     1      -3.564  -2.191   4.024  1.00  0.00    -0.269 OA
BRANCH  31  34
ATOM     34  C   UNL     1      -3.770   0.157   4.279  1.00  0.00     0.039 A 
ATOM     35  C   UNL     1      -4.595   0.276   3.151  1.00  0.00     0.014 A 
ATOM     36  C   UNL     1      -3.312   1.305   4.909  1.00  0.00     0.014 A 
ATOM     37  C   UNL     1      -4.672   1.492   2.485  1.00  0.00     0.010 A 
ATOM     38  C   UNL     1      -3.236   2.456   4.181  1.00  0.00     0.010 A 
ATOM     39  C   UNL     1      -3.868   2.520   2.941  1.00  0.00    -0.014 A 
BRANCH  39  40
ATOM     40  C   UNL     1      -3.690   3.801   2.308  1.00  0.00     0.031 A 
ATOM     41  C   UNL     1      -4.535   4.896   2.796  1.00  0.00     0.074 A 
ATOM     42  C   UNL     1      -2.533   3.981   1.638  1.00  0.00     0.049 A 
ATOM     43  N   UNL     1      -4.523   6.076   2.304  1.00  0.00    -0.248 NA
ATOM     44  C   UNL     1      -5.474   4.740   3.906  1.00  0.00     0.031 C 
ATOM     45  C   UNL     1      -1.799   5.213   1.395  1.00  0.00     0.029 A 
ATOM     46  N   UNL     1      -1.851   3.031   0.883  1.00  0.00    -0.354 N 
ATOM     47  C   UNL     1      -5.196   6.896   3.184  1.00  0.00     0.074 A 
ATOM     48  C   UNL     1      -5.852   6.006   4.106  1.00  0.00     0.031 C 
ATOM     49  C   UNL     1      -0.951   5.023   0.368  1.00  0.00     0.029 A 
ATOM     50  C   UNL     1      -1.253   3.714  -0.189  1.00  0.00     0.049 A 
ATOM     51  H   UNL     1      -1.798   2.065   1.066  1.00  0.00     0.167 HD
ATOM     52  C   UNL     1      -4.970   8.233   3.085  1.00  0.00     0.034 A 
ATOM     53  C   UNL     1      -1.727   3.493  -1.455  1.00  0.00     0.034 A 
ATOM     54  C   UNL     1      -4.107   8.496   1.922  1.00  0.00     0.049 A 
ATOM     55  C   UNL     1      -2.398   4.721  -2.052  1.00  0.00     0.074 A 
ATOM     56  C   UNL     1      -2.744   8.698   1.781  1.00  0.00     0.029 A 
ATOM     57  N   UNL     1      -4.599   8.213   0.655  1.00  0.00    -0.354 N 
ATOM     58  N   UNL     1      -2.776   5.761  -1.357  1.00  0.00    -0.248 NA
ATOM     59  C   UNL     1      -2.634   4.910  -3.479  1.00  0.00     0.031 C 
ATOM     60  C   UNL     1      -2.410   8.463   0.417  1.00  0.00     0.029 A 
ATOM     61  C   UNL     1      -3.571   8.148  -0.270  1.00  0.00     0.049 A 
ATOM     62  H   UNL     1      -5.550   8.076   0.442  1.00  0.00     0.167 HD
ATOM     63  C   UNL     1      -3.330   6.714  -2.173  1.00  0.00     0.074 A 
ATOM     64  C   UNL     1      -3.177   6.142  -3.502  1.00  0.00     0.031 C 
ATOM     65  C   UNL     1      -3.872   7.872  -1.671  1.00  0.00     0.034 A 
BRANCH  52  66
ATOM     66  C   UNL     1      -5.288   9.300   4.114  1.00  0.00     0.023 A 
ATOM     67  C   UNL     1      -4.635  10.543   3.942  1.00  0.00     0.012 A 
ATOM     68  C   UNL     1      -6.127   9.197   5.248  1.00  0.00     0.148 A 
ATOM     69  C   UNL     1      -4.749  11.595   4.854  1.00  0.00     0.002 A 
ATOM     70  C   UNL     1      -6.235  10.245   6.172  1.00  0.00     0.091 A 
ATOM     71  F   UNL     1      -6.862   8.103   5.442  1.00  0.00    -0.205 F 
ATOM     72  C   UNL     1      -5.540  11.442   5.978  1.00  0.00     0.022 A 
BRANCH  70  73
ATOM     73  S   UNL     1      -7.234  10.138   7.669  1.00  0.00     0.127 S 
ATOM     74  O   UNL     1      -6.246  10.404   8.716  1.00  0.00    -0.237 OA
ATOM     75  O   UNL     1      -8.210  11.209   7.473  1.00  0.00    -0.237 OA
ATOM     76  O   UNL     1      -7.793   8.792   7.700  1.00  0.00    -0.744 OA
ENDBRANCH  70  73
ENDBRANCH  52  66
BRANCH  53  77
ATOM     77  C   UNL     1      -2.116   2.050  -1.640  1.00  0.00     0.023 A 
ATOM     78  C   UNL     1      -1.081   1.107  -1.393  1.00  0.00     0.012 A 
ATOM     79  C   UNL     1      -3.451   1.616  -1.551  1.00  0.00     0.148 A 
ATOM     80  C   UNL     1      -1.365  -0.142  -0.836  1.00  0.00     0.002 A 
ATOM     81  C   UNL     1      -3.725   0.338  -1.050  1.00  0.00     0.091 A 
ATOM     82  F   UNL     1      -4.429   2.462  -1.897  1.00  0.00    -0.205 F 
ATOM     83  C   UNL     1      -2.687  -0.506  -0.619  1.00  0.00     0.022 A 
BRANCH  81  84
ATOM     84  S   UNL     1      -5.411  -0.265  -0.869  1.00  0.00     0.127 S 
ATOM     85  O   UNL     1      -5.626  -0.919  -2.157  1.00  0.00    -0.237 OA
ATOM     86  O   UNL     1      -5.314  -1.183   0.266  1.00  0.00    -0.237 OA
ATOM     87  O   UNL     1      -6.213   0.922  -0.609  1.00  0.00    -0.744 OA
ENDBRANCH  81  84
ENDBRANCH  53  77
BRANCH  65  88
ATOM     88  C   UNL     1      -4.747   8.880  -2.415  1.00  0.00     0.023 A 
ATOM     89  C   UNL     1      -5.271   8.637  -3.695  1.00  0.00     0.012 A 
ATOM     90  C   UNL     1      -5.199  10.072  -1.774  1.00  0.00     0.148 A 
ATOM     91  C   UNL     1      -6.160   9.524  -4.318  1.00  0.00     0.002 A 
ATOM     92  C   UNL     1      -6.183  10.877  -2.339  1.00  0.00     0.091 A 
ATOM     93  F   UNL     1      -4.654  10.470  -0.616  1.00  0.00    -0.205 F 
ATOM     94  C   UNL     1      -6.644  10.625  -3.628  1.00  0.00     0.022 A 
BRANCH  92  95
ATOM     95  S   UNL     1      -7.009  12.156  -1.379  1.00  0.00     0.127 S 
ATOM     96  O   UNL     1      -6.312  13.362  -1.823  1.00  0.00    -0.237 OA
ATOM     97  O   UNL     1      -8.393  12.046  -1.845  1.00  0.00    -0.237 OA
ATOM     98  O   UNL     1      -6.817  11.778   0.014  1.00  0.00    -0.744 OA
ENDBRANCH  92  95
ENDBRANCH  65  88
ENDBRANCH  39  40
ENDBRANCH  31  34
ENDBRANCH  29  30
ENDBRANCH  28  29
ENDBRANCH   1  28
TORSDOF 18
