REMARK SMILES COc1cc([C@@H]2CC(=O)Nc3c(C(=O)NCCCCNC(=O)c4ccc(-c5c6nc(c(-c7cccc(S(=O)(=O)[O-])c7F)c7ccc([nH]7)c(-c7cccc(S(=O)(=O)[O-])c7F)c7nc(c(-c8cccc(S(=O)(=O)[O-])c8F)c8ccc5[nH]8)C=C7)C=C6)cc4)cn(-c4ccccc4)c32)ccc1O
REMARK SMILES IDX 18 1 17 2 16 3 15 4 13 5 14 6 12 8 6 9 7 10 94 11 8 12 11 13
REMARK SMILES IDX 87 14 9 15 10 16 86 17 5 19 3 20 4 21 97 22 96 23 95 24 2 25
REMARK SMILES IDX 1 26 98 27 88 29 89 30 93 31 90 32 92 33 91 34 19 35 20 36
REMARK SMILES IDX 21 37 22 39 23 40 24 41 85 42 25 43 84 44 26 45 27 46 28 47
REMARK SMILES IDX 78 48 29 49 83 50 77 51 79 52 30 53 82 54 76 55 75 56 31 58
REMARK SMILES IDX 63 59 43 60 62 61 44 62 47 63 61 64 80 65 45 66 46 67 60 69
REMARK SMILES IDX 81 70 48 71 32 72 33 73 41 74 34 75 36 76 42 77 35 78 37 79
REMARK SMILES IDX 38 80 39 81 40 82 64 83 65 84 73 85 66 86 68 87 74 88 67 89
REMARK SMILES IDX 69 90 70 91 71 92 72 93 49 94 50 95 58 96 51 97 53 98 59 99
REMARK SMILES IDX 52 100 54 101 55 102 56 103 57 104
REMARK H PARENT 15 7 10 18 98 28 20 38 79 57 47 68
REMARK Flexibility Score: inf
ROOT
ATOM      1  C   UNL     1      -1.991  -8.584  -9.154  1.00  0.00     0.023 C 
ENDROOT
BRANCH   1   2
ATOM      2  C   UNL     1      -1.608  -7.512  -8.128  1.00  0.00     0.023 C 
BRANCH   2   3
ATOM      3  C   UNL     1      -0.232  -7.705  -7.471  1.00  0.00     0.116 C 
BRANCH   3   4
ATOM      4  N   UNL     1       0.807  -7.104  -8.269  1.00  0.00    -0.352 N 
ATOM      5  C   UNL     1       1.341  -5.847  -8.345  1.00  0.00     0.254 C 
ATOM      6  O   UNL     1       2.221  -5.712  -9.202  1.00  0.00    -0.269 OA
ATOM      7  H   UNL     1       1.224  -7.737  -8.897  1.00  0.00     0.163 HD
BRANCH   5   8
ATOM      8  C   UNL     1       0.960  -4.699  -7.504  1.00  0.00     0.081 A 
ATOM      9  C   UNL     1      -0.738  -2.319  -5.171  1.00  0.00     0.078 C 
ATOM     10  C   UNL     1      -2.176  -2.807  -5.359  1.00  0.00     0.115 C 
ATOM     11  C   UNL     1       0.171  -3.070  -6.103  1.00  0.00     0.055 A 
ATOM     12  C   UNL     1      -2.272  -4.306  -5.533  1.00  0.00     0.225 C 
ATOM     13  C   UNL     1      -0.103  -4.320  -6.627  1.00  0.00     0.076 A 
ATOM     14  N   UNL     1       1.331  -2.601  -6.673  1.00  0.00    -0.317 N 
ATOM     15  O   UNL     1      -3.265  -4.938  -5.175  1.00  0.00    -0.275 OA
ATOM     16  N   UNL     1      -1.276  -4.926  -6.241  1.00  0.00    -0.324 N 
ATOM     17  C   UNL     1       1.771  -3.559  -7.548  1.00  0.00     0.107 A 
ATOM     18  H   UNL     1      -1.409  -5.869  -6.490  1.00  0.00     0.170 HD
BRANCH   9  19
ATOM     19  C   UNL     1      -0.327  -2.399  -3.708  1.00  0.00    -0.034 A 
ATOM     20  C   UNL     1       0.187  -1.188  -1.636  1.00  0.00     0.160 A 
ATOM     21  C   UNL     1      -0.269  -1.209  -2.958  1.00  0.00     0.054 A 
ATOM     22  C   UNL     1       0.541  -2.398  -1.040  1.00  0.00     0.157 A 
ATOM     23  C   UNL     1       0.441  -3.598  -1.746  1.00  0.00     0.050 A 
ATOM     24  C   UNL     1       0.018  -3.600  -3.076  1.00  0.00     0.008 A 
BRANCH  20  25
ATOM     25  O   UNL     1       0.235   0.075  -1.114  1.00  0.00    -0.493 OA
ATOM     26  C   UNL     1       0.757   0.247   0.192  1.00  0.00     0.278 C 
ENDBRANCH  20  25
BRANCH  22  27
ATOM     27  O   UNL     1       1.018  -2.485   0.235  1.00  0.00    -0.504 OA
ATOM     28  H   UNL     1       1.106  -1.711   0.756  1.00  0.00     0.293 HD
ENDBRANCH  22  27
ENDBRANCH   9  19
BRANCH  14  29
ATOM     29  C   UNL     1       1.913  -1.324  -6.500  1.00  0.00     0.045 A 
ATOM     30  C   UNL     1       2.183  -0.848  -5.215  1.00  0.00     0.026 A 
ATOM     31  C   UNL     1       2.156  -0.519  -7.616  1.00  0.00     0.026 A 
ATOM     32  C   UNL     1       2.608   0.466  -5.033  1.00  0.00     0.002 A 
ATOM     33  C   UNL     1       2.579   0.799  -7.427  1.00  0.00     0.002 A 
ATOM     34  C   UNL     1       2.787   1.296  -6.138  1.00  0.00     0.000 A 
ENDBRANCH  14  29
ENDBRANCH   5   8
ENDBRANCH   3   4
ENDBRANCH   2   3
ENDBRANCH   1   2
BRANCH   1  35
ATOM     35  C   UNL     1      -2.347  -9.928  -8.527  1.00  0.00     0.116 C 
BRANCH  35  36
ATOM     36  N   UNL     1      -3.529  -9.850  -7.666  1.00  0.00    -0.352 N 
ATOM     37  C   UNL     1      -3.963 -10.784  -6.752  1.00  0.00     0.251 C 
ATOM     38  H   UNL     1      -4.075  -9.036  -7.751  1.00  0.00     0.163 HD
ATOM     39  O   UNL     1      -5.139 -10.817  -6.388  1.00  0.00    -0.269 OA
BRANCH  37  40
ATOM     40  C   UNL     1      -2.990 -11.743  -6.212  1.00  0.00     0.039 A 
ATOM     41  C   UNL     1      -3.280 -13.108  -6.169  1.00  0.00     0.014 A 
ATOM     42  C   UNL     1      -1.748 -11.253  -5.805  1.00  0.00     0.014 A 
ATOM     43  C   UNL     1      -2.275 -13.994  -5.795  1.00  0.00     0.010 A 
ATOM     44  C   UNL     1      -0.727 -12.135  -5.539  1.00  0.00     0.010 A 
ATOM     45  C   UNL     1      -0.991 -13.504  -5.506  1.00  0.00    -0.014 A 
BRANCH  45  46
ATOM     46  C   UNL     1       0.122 -14.434  -5.328  1.00  0.00     0.031 A 
ATOM     47  C   UNL     1       0.340 -15.360  -6.478  1.00  0.00     0.074 A 
ATOM     48  C   UNL     1       1.017 -14.326  -4.323  1.00  0.00     0.049 A 
ATOM     49  N   UNL     1       0.195 -16.644  -6.496  1.00  0.00    -0.248 NA
ATOM     50  C   UNL     1       0.611 -14.777  -7.803  1.00  0.00     0.031 C 
ATOM     51  C   UNL     1       1.106 -13.262  -3.315  1.00  0.00     0.029 A 
ATOM     52  N   UNL     1       2.139 -15.060  -4.082  1.00  0.00    -0.354 N 
ATOM     53  C   UNL     1       0.600 -17.054  -7.766  1.00  0.00     0.074 A 
ATOM     54  C   UNL     1       0.632 -15.866  -8.575  1.00  0.00     0.031 C 
ATOM     55  C   UNL     1       2.340 -13.267  -2.766  1.00  0.00     0.029 A 
ATOM     56  C   UNL     1       3.062 -14.426  -3.253  1.00  0.00     0.049 A 
ATOM     57  H   UNL     1       2.285 -15.958  -4.460  1.00  0.00     0.167 HD
ATOM     58  C   UNL     1       1.132 -18.292  -7.971  1.00  0.00     0.034 A 
ATOM     59  C   UNL     1       4.347 -14.794  -3.031  1.00  0.00     0.034 A 
ATOM     60  C   UNL     1       0.883 -19.156  -6.843  1.00  0.00     0.049 A 
ATOM     61  C   UNL     1       4.468 -16.218  -3.408  1.00  0.00     0.074 A 
ATOM     62  C   UNL     1      -0.238 -19.609  -6.177  1.00  0.00     0.029 A 
ATOM     63  N   UNL     1       1.941 -19.375  -5.995  1.00  0.00    -0.354 N 
ATOM     64  N   UNL     1       3.874 -17.183  -2.767  1.00  0.00    -0.248 NA
ATOM     65  C   UNL     1       4.906 -16.534  -4.757  1.00  0.00     0.031 C 
ATOM     66  C   UNL     1       0.137 -19.625  -4.801  1.00  0.00     0.029 A 
ATOM     67  C   UNL     1       1.481 -19.255  -4.714  1.00  0.00     0.049 A 
ATOM     68  H   UNL     1       2.866 -19.582  -6.262  1.00  0.00     0.167 HD
ATOM     69  C   UNL     1       3.435 -18.035  -3.771  1.00  0.00     0.074 A 
ATOM     70  C   UNL     1       4.205 -17.654  -4.954  1.00  0.00     0.031 C 
ATOM     71  C   UNL     1       2.285 -18.757  -3.622  1.00  0.00     0.034 A 
BRANCH  58  72
ATOM     72  C   UNL     1       2.220 -18.633  -8.975  1.00  0.00     0.023 A 
ATOM     73  C   UNL     1       2.593 -19.996  -9.076  1.00  0.00     0.012 A 
ATOM     74  C   UNL     1       3.083 -17.695  -9.585  1.00  0.00     0.148 A 
ATOM     75  C   UNL     1       3.798 -20.392  -9.666  1.00  0.00     0.002 A 
ATOM     76  C   UNL     1       4.242 -18.100 -10.239  1.00  0.00     0.091 A 
ATOM     77  F   UNL     1       2.869 -16.387  -9.435  1.00  0.00    -0.205 F 
ATOM     78  C   UNL     1       4.625 -19.443 -10.249  1.00  0.00     0.022 A 
BRANCH  76  79
ATOM     79  S   UNL     1       5.328 -16.920 -11.053  1.00  0.00     0.127 S 
ATOM     80  O   UNL     1       6.475 -16.908 -10.149  1.00  0.00    -0.237 OA
ATOM     81  O   UNL     1       5.560 -17.571 -12.343  1.00  0.00    -0.237 OA
ATOM     82  O   UNL     1       4.567 -15.680 -11.139  1.00  0.00    -0.744 OA
ENDBRANCH  76  79
ENDBRANCH  58  72
BRANCH  59  83
ATOM     83  C   UNL     1       5.541 -13.963  -2.752  1.00  0.00     0.023 A 
ATOM     84  C   UNL     1       6.685 -14.555  -2.178  1.00  0.00     0.012 A 
ATOM     85  C   UNL     1       5.670 -12.675  -3.316  1.00  0.00     0.148 A 
ATOM     86  C   UNL     1       7.924 -13.905  -2.203  1.00  0.00     0.002 A 
ATOM     87  C   UNL     1       6.903 -12.030  -3.334  1.00  0.00     0.091 A 
ATOM     88  F   UNL     1       4.607 -12.125  -3.918  1.00  0.00    -0.205 F 
ATOM     89  C   UNL     1       8.036 -12.648  -2.791  1.00  0.00     0.022 A 
BRANCH  87  90
ATOM     90  S   UNL     1       7.128 -10.421  -4.105  1.00  0.00     0.127 S 
ATOM     91  O   UNL     1       7.858  -9.688  -3.069  1.00  0.00    -0.237 OA
ATOM     92  O   UNL     1       7.916 -10.761  -5.287  1.00  0.00    -0.237 OA
ATOM     93  O   UNL     1       5.786  -9.913  -4.364  1.00  0.00    -0.744 OA
ENDBRANCH  87  90
ENDBRANCH  59  83
BRANCH  71  94
ATOM     94  C   UNL     1       1.672 -18.841  -2.248  1.00  0.00     0.023 A 
ATOM     95  C   UNL     1       1.195 -17.712  -1.550  1.00  0.00     0.012 A 
ATOM     96  C   UNL     1       1.430 -20.118  -1.717  1.00  0.00     0.148 A 
ATOM     97  C   UNL     1       0.516 -17.855  -0.336  1.00  0.00     0.002 A 
ATOM     98  C   UNL     1       0.714 -20.260  -0.537  1.00  0.00     0.091 A 
ATOM     99  F   UNL     1       1.890 -21.183  -2.393  1.00  0.00    -0.205 F 
ATOM    100  C   UNL     1       0.264 -19.131   0.164  1.00  0.00     0.022 A 
BRANCH  98 101
ATOM    101  S   UNL     1       0.255 -21.880   0.081  1.00  0.00     0.127 S 
ATOM    102  O   UNL     1       1.222 -22.081   1.157  1.00  0.00    -0.237 OA
ATOM    103  O   UNL     1      -1.123 -21.671   0.527  1.00  0.00    -0.237 OA
ATOM    104  O   UNL     1       0.378 -22.787  -1.054  1.00  0.00    -0.744 OA
ENDBRANCH  98 101
ENDBRANCH  71  94
ENDBRANCH  45  46
ENDBRANCH  37  40
ENDBRANCH  35  36
ENDBRANCH   1  35
TORSDOF 18
