REMARK SMILES Cc1cc(C)n(CC(=O)N[C@H]2C=C[C@@H](C(=O)NCCCCNC(=O)c3ccc(-c4c5nc(c(-c6cccc(S(=O)(=O)[O-])c6F)c6ccc([nH]6)c(-c6cccc(S(=O)(=O)[O-])c6F)c6nc(c(-c7cccc(S(=O)(=O)[O-])c7F)c7ccc4[nH]7)C=C6)C=C5)cc3)C2)n1
REMARK SMILES IDX 19 1 18 2 17 3 15 4 16 5 14 7 11 8 12 9 88 10 13 11 10 12
REMARK SMILES IDX 8 13 9 14 7 16 6 17 1 18 2 19 3 20 89 21 4 22 5 23 20 24
REMARK SMILES IDX 21 25 22 26 23 27 24 29 25 30 26 31 87 32 27 33 86 34 28 35
REMARK SMILES IDX 29 36 30 37 80 38 31 39 85 40 79 41 81 42 32 43 84 44 78 45
REMARK SMILES IDX 77 46 33 48 65 49 45 50 64 51 46 52 49 53 63 54 82 55 47 56
REMARK SMILES IDX 48 57 62 59 83 60 50 61 34 62 35 63 43 64 36 65 38 66 44 67
REMARK SMILES IDX 37 68 39 69 40 70 41 71 42 72 66 73 67 74 75 75 68 76 70 77
REMARK SMILES IDX 76 78 69 79 71 80 72 81 73 82 74 83 51 84 52 85 60 86 53 87
REMARK SMILES IDX 55 88 61 89 54 90 56 91 57 92 58 93 59 94
REMARK H PARENT 17 6 10 15 22 28 81 47 49 58
REMARK Flexibility Score: inf
ROOT
ATOM      1  C   UNL     1      -2.509   1.144  -0.527  1.00  0.00     0.023 C 
ENDROOT
BRANCH   1   2
ATOM      2  C   UNL     1      -1.247   0.324  -0.189  1.00  0.00     0.116 C 
BRANCH   2   3
ATOM      3  N   UNL     1      -0.467  -0.124  -1.351  1.00  0.00    -0.356 N 
ATOM      4  C   UNL     1       0.527   0.206  -2.196  1.00  0.00     0.227 C 
ATOM      5  O   UNL     1       0.902  -0.790  -2.850  1.00  0.00    -0.274 OA
ATOM      6  H   UNL     1      -0.802  -1.011  -1.613  1.00  0.00     0.163 HD
BRANCH   4   7
ATOM      7  C   UNL     1       1.250   1.537  -2.538  1.00  0.00     0.103 C 
ATOM      8  C   UNL     1       1.610   3.908  -2.905  1.00  0.00     0.106 C 
ATOM      9  C   UNL     1       2.588   3.374  -1.927  1.00  0.00    -0.006 C 
ATOM     10  C   UNL     1       0.505   2.816  -2.927  1.00  0.00     0.047 C 
ATOM     11  C   UNL     1       2.387   2.059  -1.713  1.00  0.00    -0.016 C 
BRANCH   8  12
ATOM     12  N   UNL     1       1.125   5.274  -2.740  1.00  0.00    -0.348 N 
ATOM     13  C   UNL     1       1.132   6.258  -1.801  1.00  0.00     0.242 C 
ATOM     14  O   UNL     1       0.554   7.306  -2.129  1.00  0.00    -0.273 OA
ATOM     15  H   UNL     1       0.652   5.573  -3.551  1.00  0.00     0.164 HD
BRANCH  13  16
ATOM     16  C   UNL     1       1.784   6.169  -0.443  1.00  0.00     0.244 C 
BRANCH  16  17
ATOM     17  N   UNL     1       1.155   5.204   0.430  1.00  0.00    -0.260 N 
ATOM     18  C   UNL     1       2.126   2.025   1.628  1.00  0.00     0.069 C 
ATOM     19  C   UNL     1       1.410   3.242   1.164  1.00  0.00     0.060 A 
ATOM     20  C   UNL     1       0.154   3.334   0.545  1.00  0.00     0.048 A 
ATOM     21  N   UNL     1       1.964   4.457   1.216  1.00  0.00    -0.178 NA
ATOM     22  C   UNL     1      -0.095   4.658   0.298  1.00  0.00     0.036 A 
ATOM     23  C   UNL     1      -1.321   5.324  -0.200  1.00  0.00     0.066 C 
ENDBRANCH  16  17
ENDBRANCH  13  16
ENDBRANCH   8  12
ENDBRANCH   4   7
ENDBRANCH   2   3
ENDBRANCH   1   2
BRANCH   1  24
ATOM     24  C   UNL     1      -3.542   1.274   0.625  1.00  0.00     0.023 C 
BRANCH  24  25
ATOM     25  C   UNL     1      -3.144   2.166   1.807  1.00  0.00     0.116 C 
BRANCH  25  26
ATOM     26  N   UNL     1      -3.851   3.451   1.849  1.00  0.00    -0.352 N 
ATOM     27  C   UNL     1      -3.892   4.378   2.885  1.00  0.00     0.251 C 
ATOM     28  H   UNL     1      -4.362   3.687   1.041  1.00  0.00     0.163 HD
ATOM     29  O   UNL     1      -4.695   5.292   2.874  1.00  0.00    -0.269 OA
BRANCH  27  30
ATOM     30  C   UNL     1      -2.950   4.220   4.017  1.00  0.00     0.039 A 
ATOM     31  C   UNL     1      -3.386   4.303   5.342  1.00  0.00     0.014 A 
ATOM     32  C   UNL     1      -1.623   3.929   3.734  1.00  0.00     0.014 A 
ATOM     33  C   UNL     1      -2.503   3.963   6.371  1.00  0.00     0.010 A 
ATOM     34  C   UNL     1      -0.784   3.492   4.734  1.00  0.00     0.010 A 
ATOM     35  C   UNL     1      -1.209   3.519   6.061  1.00  0.00    -0.014 A 
BRANCH  35  36
ATOM     36  C   UNL     1      -0.343   2.944   7.096  1.00  0.00     0.031 A 
ATOM     37  C   UNL     1      -0.875   1.744   7.816  1.00  0.00     0.074 A 
ATOM     38  C   UNL     1       0.974   3.229   7.192  1.00  0.00     0.049 A 
ATOM     39  N   UNL     1      -1.047   1.577   9.088  1.00  0.00    -0.248 NA
ATOM     40  C   UNL     1      -1.319   0.600   7.004  1.00  0.00     0.031 C 
ATOM     41  C   UNL     1       1.775   4.083   6.307  1.00  0.00     0.029 A 
ATOM     42  N   UNL     1       1.915   2.653   7.994  1.00  0.00    -0.354 N 
ATOM     43  C   UNL     1      -1.437   0.244   9.258  1.00  0.00     0.074 A 
ATOM     44  C   UNL     1      -1.737  -0.253   7.941  1.00  0.00     0.031 C 
ATOM     45  C   UNL     1       3.077   3.748   6.428  1.00  0.00     0.029 A 
ATOM     46  C   UNL     1       3.212   2.801   7.517  1.00  0.00     0.049 A 
ATOM     47  H   UNL     1       1.696   2.178   8.829  1.00  0.00     0.167 HD
ATOM     48  C   UNL     1      -1.292  -0.411  10.447  1.00  0.00     0.034 A 
ATOM     49  C   UNL     1       4.315   2.149   7.950  1.00  0.00     0.034 A 
ATOM     50  C   UNL     1      -1.018   0.505  11.526  1.00  0.00     0.049 A 
ATOM     51  C   UNL     1       4.016   1.615   9.297  1.00  0.00     0.074 A 
ATOM     52  C   UNL     1      -1.646   1.603  12.079  1.00  0.00     0.029 A 
ATOM     53  N   UNL     1       0.264   0.527  12.017  1.00  0.00    -0.354 N 
ATOM     54  N   UNL     1       3.818   2.358  10.350  1.00  0.00    -0.248 NA
ATOM     55  C   UNL     1       3.584   0.233   9.417  1.00  0.00     0.031 C 
ATOM     56  C   UNL     1      -0.585   2.478  12.460  1.00  0.00     0.029 A 
ATOM     57  C   UNL     1       0.619   1.841  12.146  1.00  0.00     0.049 A 
ATOM     58  H   UNL     1       0.822  -0.254  12.236  1.00  0.00     0.167 HD
ATOM     59  C   UNL     1       2.854   1.678  11.080  1.00  0.00     0.074 A 
ATOM     60  C   UNL     1       2.863   0.322  10.537  1.00  0.00     0.031 C 
ATOM     61  C   UNL     1       1.940   2.349  11.845  1.00  0.00     0.034 A 
BRANCH  48  62
ATOM     62  C   UNL     1      -1.064  -1.903  10.634  1.00  0.00     0.023 A 
ATOM     63  C   UNL     1      -1.039  -2.389  11.966  1.00  0.00     0.012 A 
ATOM     64  C   UNL     1      -0.607  -2.789   9.634  1.00  0.00     0.148 A 
ATOM     65  C   UNL     1      -0.510  -3.644  12.292  1.00  0.00     0.002 A 
ATOM     66  C   UNL     1      -0.163  -4.071   9.955  1.00  0.00     0.091 A 
ATOM     67  F   UNL     1      -0.468  -2.370   8.374  1.00  0.00    -0.205 F 
ATOM     68  C   UNL     1      -0.075  -4.490  11.283  1.00  0.00     0.022 A 
BRANCH  66  69
ATOM     69  S   UNL     1       0.336  -5.230   8.674  1.00  0.00     0.127 S 
ATOM     70  O   UNL     1       1.788  -5.089   8.699  1.00  0.00    -0.237 OA
ATOM     71  O   UNL     1      -0.173  -6.500   9.193  1.00  0.00    -0.237 OA
ATOM     72  O   UNL     1      -0.340  -4.771   7.465  1.00  0.00    -0.744 OA
ENDBRANCH  66  69
ENDBRANCH  48  62
BRANCH  49  73
ATOM     73  C   UNL     1       5.561   1.813   7.228  1.00  0.00     0.023 A 
ATOM     74  C   UNL     1       6.745   1.597   7.958  1.00  0.00     0.012 A 
ATOM     75  C   UNL     1       5.544   1.462   5.859  1.00  0.00     0.148 A 
ATOM     76  C   UNL     1       7.869   1.024   7.355  1.00  0.00     0.002 A 
ATOM     77  C   UNL     1       6.669   0.901   5.260  1.00  0.00     0.091 A 
ATOM     78  F   UNL     1       4.401   1.589   5.171  1.00  0.00    -0.205 F 
ATOM     79  C   UNL     1       7.831   0.672   6.008  1.00  0.00     0.022 A 
BRANCH  77  80
ATOM     80  S   UNL     1       6.686   0.403   3.531  1.00  0.00     0.127 S 
ATOM     81  O   UNL     1       7.986   0.900   3.079  1.00  0.00    -0.237 OA
ATOM     82  O   UNL     1       6.590  -1.051   3.634  1.00  0.00    -0.237 OA
ATOM     83  O   UNL     1       5.544   1.068   2.915  1.00  0.00    -0.744 OA
ENDBRANCH  77  80
ENDBRANCH  49  73
BRANCH  61  84
ATOM     84  C   UNL     1       2.161   3.818  12.115  1.00  0.00     0.023 A 
ATOM     85  C   UNL     1       2.225   4.764  11.070  1.00  0.00     0.012 A 
ATOM     86  C   UNL     1       2.111   4.281  13.441  1.00  0.00     0.148 A 
ATOM     87  C   UNL     1       2.266   6.133  11.340  1.00  0.00     0.002 A 
ATOM     88  C   UNL     1       2.103   5.647  13.705  1.00  0.00     0.091 A 
ATOM     89  F   UNL     1       2.042   3.377  14.431  1.00  0.00    -0.205 F 
ATOM     90  C   UNL     1       2.191   6.576  12.657  1.00  0.00     0.022 A 
BRANCH  88  91
ATOM     91  S   UNL     1       1.865   6.274  15.370  1.00  0.00     0.127 S 
ATOM     92  O   UNL     1       3.234   6.570  15.786  1.00  0.00    -0.237 OA
ATOM     93  O   UNL     1       1.025   7.454  15.153  1.00  0.00    -0.237 OA
ATOM     94  O   UNL     1       1.198   5.203  16.101  1.00  0.00    -0.744 OA
ENDBRANCH  88  91
ENDBRANCH  61  84
ENDBRANCH  35  36
ENDBRANCH  27  30
ENDBRANCH  25  26
ENDBRANCH  24  25
ENDBRANCH   1  24
TORSDOF 17
