REMARK SMILES CCOC(=O)c1cnc(S[C@H](CC)C(=O)NCCCCNC(=O)c2ccc(-c3c4nc(c(-c5cccc(S(=O)(=O)[O-])c5F)c5ccc([nH]5)c(-c5cccc(S(=O)(=O)[O-])c5F)c5nc(c(-c6cccc(S(=O)(=O)[O-])c6F)c6ccc3[nH]6)C=C5)C=C4)cc2)nc1N
REMARK SMILES IDX 17 1 16 2 14 3 15 4 11 6 10 7 9 8 6 9 7 10 88 11 8 12 87 13
REMARK SMILES IDX 4 14 5 15 3 16 2 17 1 18 89 19 12 22 13 23 18 24 19 25 20 26
REMARK SMILES IDX 21 27 22 28 23 30 24 31 25 32 86 33 26 34 85 35 27 36 28 37
REMARK SMILES IDX 29 38 79 39 30 40 84 41 78 42 80 43 31 44 83 45 77 46 76 47
REMARK SMILES IDX 32 49 64 50 44 51 63 52 45 53 48 54 62 55 81 56 46 57 47 58
REMARK SMILES IDX 61 60 82 61 49 62 33 63 34 64 42 65 35 66 37 67 43 68 36 69
REMARK SMILES IDX 38 70 39 71 40 72 41 73 65 74 66 75 74 76 67 77 69 78 75 79
REMARK SMILES IDX 68 80 70 81 71 82 72 83 73 84 50 85 51 86 59 87 52 88 54 89
REMARK SMILES IDX 60 90 53 91 55 92 56 93 57 94 58 95
REMARK H PARENT 16 5 89 20 89 21 21 29 80 48 48 59
REMARK Flexibility Score: inf
ROOT
ATOM      1  C   UNL     1       5.144  -3.587   3.883  1.00  0.00     0.116 C 
ENDROOT
BRANCH   1   2
ATOM      2  N   UNL     1       5.623  -4.048   5.176  1.00  0.00    -0.355 N 
ATOM      3  C   UNL     1       6.332  -5.171   5.512  1.00  0.00     0.233 C 
ATOM      4  O   UNL     1       6.661  -5.307   6.695  1.00  0.00    -0.274 OA
ATOM      5  H   UNL     1       5.403  -3.457   5.932  1.00  0.00     0.163 HD
BRANCH   3   6
ATOM      6  C   UNL     1       6.697  -6.247   4.468  1.00  0.00     0.143 C 
BRANCH   6   7
ATOM      7  S   UNL     1       7.978  -5.476   3.380  1.00  0.00    -0.073 SA
BRANCH   7   8
ATOM      8  C   UNL     1       8.558  -6.805   2.384  1.00  0.00     0.190 A 
ATOM      9  C   UNL     1       9.202  -8.737   0.620  1.00  0.00     0.120 A 
ATOM     10  C   UNL     1       8.647  -9.014   1.849  1.00  0.00     0.133 A 
ATOM     11  C   UNL     1       9.486  -7.412   0.363  1.00  0.00     0.142 A 
ATOM     12  N   UNL     1       8.349  -8.070   2.764  1.00  0.00    -0.230 NA
ATOM     13  N   UNL     1       9.148  -6.444   1.229  1.00  0.00    -0.205 NA
BRANCH   9  14
ATOM     14  C   UNL     1       9.336  -9.816  -0.350  1.00  0.00     0.343 C 
ATOM     15  O   UNL     1       8.459 -10.658  -0.519  1.00  0.00    -0.246 OA
BRANCH  14  16
ATOM     16  O   UNL     1      10.547  -9.780  -0.951  1.00  0.00    -0.462 OA
BRANCH  16  17
ATOM     17  C   UNL     1      10.755 -10.772  -1.969  1.00  0.00     0.230 C 
ATOM     18  C   UNL     1      10.997 -12.149  -1.375  1.00  0.00     0.049 C 
ENDBRANCH  16  17
ENDBRANCH  14  16
ENDBRANCH   9  14
BRANCH  11  19
ATOM     19  N   UNL     1      10.033  -6.958  -0.824  1.00  0.00    -0.383 N 
ATOM     20  H   UNL     1      10.310  -7.601  -1.516  1.00  0.00     0.158 HD
ATOM     21  H   UNL     1      10.145  -5.992  -0.976  1.00  0.00     0.158 HD
ENDBRANCH  11  19
ENDBRANCH   7   8
ENDBRANCH   6   7
BRANCH   6  22
ATOM     22  C   UNL     1       5.400  -6.805   3.848  1.00  0.00     0.021 C 
ATOM     23  C   UNL     1       5.449  -8.245   3.363  1.00  0.00     0.005 C 
ENDBRANCH   6  22
ENDBRANCH   3   6
ENDBRANCH   1   2
BRANCH   1  24
ATOM     24  C   UNL     1       3.626  -3.706   3.756  1.00  0.00     0.023 C 
BRANCH  24  25
ATOM     25  C   UNL     1       2.836  -2.631   4.505  1.00  0.00     0.023 C 
BRANCH  25  26
ATOM     26  C   UNL     1       3.158  -1.189   4.117  1.00  0.00     0.116 C 
BRANCH  26  27
ATOM     27  N   UNL     1       3.029  -0.930   2.692  1.00  0.00    -0.352 N 
ATOM     28  C   UNL     1       2.609   0.210   2.051  1.00  0.00     0.251 C 
ATOM     29  H   UNL     1       3.277  -1.678   2.103  1.00  0.00     0.163 HD
ATOM     30  O   UNL     1       2.470   0.201   0.831  1.00  0.00    -0.269 OA
BRANCH  28  31
ATOM     31  C   UNL     1       2.292   1.433   2.824  1.00  0.00     0.039 A 
ATOM     32  C   UNL     1       1.143   2.155   2.487  1.00  0.00     0.014 A 
ATOM     33  C   UNL     1       3.113   1.876   3.864  1.00  0.00     0.014 A 
ATOM     34  C   UNL     1       0.792   3.287   3.226  1.00  0.00     0.010 A 
ATOM     35  C   UNL     1       2.725   2.965   4.644  1.00  0.00     0.010 A 
ATOM     36  C   UNL     1       1.565   3.686   4.329  1.00  0.00    -0.014 A 
BRANCH  36  37
ATOM     37  C   UNL     1       1.150   4.841   5.166  1.00  0.00     0.031 A 
ATOM     38  C   UNL     1       1.998   6.082   5.243  1.00  0.00     0.074 A 
ATOM     39  C   UNL     1       0.032   4.746   5.912  1.00  0.00     0.049 A 
ATOM     40  N   UNL     1       1.769   7.195   5.892  1.00  0.00    -0.248 NA
ATOM     41  C   UNL     1       3.280   6.065   4.521  1.00  0.00     0.031 C 
ATOM     42  C   UNL     1      -0.818   3.557   6.013  1.00  0.00     0.029 A 
ATOM     43  N   UNL     1      -0.573   5.656   6.742  1.00  0.00    -0.354 N 
ATOM     44  C   UNL     1       2.885   7.995   5.684  1.00  0.00     0.074 A 
ATOM     45  C   UNL     1       3.809   7.227   4.877  1.00  0.00     0.031 C 
ATOM     46  C   UNL     1      -1.840   3.816   6.845  1.00  0.00     0.029 A 
ATOM     47  C   UNL     1      -1.715   5.182   7.344  1.00  0.00     0.049 A 
ATOM     48  H   UNL     1      -0.222   6.564   6.892  1.00  0.00     0.167 HD
ATOM     49  C   UNL     1       3.108   9.267   6.095  1.00  0.00     0.034 A 
ATOM     50  C   UNL     1      -2.573   5.783   8.190  1.00  0.00     0.034 A 
ATOM     51  C   UNL     1       2.166  10.047   6.851  1.00  0.00     0.049 A 
ATOM     52  C   UNL     1      -2.350   7.226   8.553  1.00  0.00     0.074 A 
ATOM     53  C   UNL     1       2.253  11.376   7.228  1.00  0.00     0.029 A 
ATOM     54  N   UNL     1       0.964   9.570   7.350  1.00  0.00    -0.354 N 
ATOM     55  N   UNL     1      -1.383   8.030   8.183  1.00  0.00    -0.248 NA
ATOM     56  C   UNL     1      -3.363   7.859   9.410  1.00  0.00     0.031 C 
ATOM     57  C   UNL     1       1.106  11.699   7.963  1.00  0.00     0.029 A 
ATOM     58  C   UNL     1       0.300  10.575   8.033  1.00  0.00     0.049 A 
ATOM     59  H   UNL     1       0.631   8.650   7.236  1.00  0.00     0.167 HD
ATOM     60  C   UNL     1      -1.685   9.269   8.736  1.00  0.00     0.074 A 
ATOM     61  C   UNL     1      -2.942   9.117   9.439  1.00  0.00     0.031 C 
ATOM     62  C   UNL     1      -0.976  10.424   8.685  1.00  0.00     0.034 A 
BRANCH  49  63
ATOM     63  C   UNL     1       4.396   9.923   5.670  1.00  0.00     0.023 A 
ATOM     64  C   UNL     1       4.561  10.309   4.323  1.00  0.00     0.012 A 
ATOM     65  C   UNL     1       5.412  10.214   6.601  1.00  0.00     0.148 A 
ATOM     66  C   UNL     1       5.729  10.945   3.903  1.00  0.00     0.002 A 
ATOM     67  C   UNL     1       6.556  10.885   6.182  1.00  0.00     0.091 A 
ATOM     68  F   UNL     1       5.248   9.820   7.872  1.00  0.00    -0.205 F 
ATOM     69  C   UNL     1       6.720  11.242   4.833  1.00  0.00     0.022 A 
BRANCH  67  70
ATOM     70  S   UNL     1       7.858  11.380   7.317  1.00  0.00     0.127 S 
ATOM     71  O   UNL     1       8.921  10.436   6.978  1.00  0.00    -0.237 OA
ATOM     72  O   UNL     1       8.117  12.761   6.908  1.00  0.00    -0.237 OA
ATOM     73  O   UNL     1       7.297  11.240   8.654  1.00  0.00    -0.744 OA
ENDBRANCH  67  70
ENDBRANCH  49  63
BRANCH  50  74
ATOM     74  C   UNL     1      -3.779   5.050   8.667  1.00  0.00     0.023 A 
ATOM     75  C   UNL     1      -5.047   5.416   8.175  1.00  0.00     0.012 A 
ATOM     76  C   UNL     1      -3.677   3.975   9.571  1.00  0.00     0.148 A 
ATOM     77  C   UNL     1      -6.196   4.746   8.598  1.00  0.00     0.002 A 
ATOM     78  C   UNL     1      -4.819   3.277   9.946  1.00  0.00     0.091 A 
ATOM     79  F   UNL     1      -2.464   3.651  10.040  1.00  0.00    -0.205 F 
ATOM     80  C   UNL     1      -6.081   3.671   9.474  1.00  0.00     0.022 A 
BRANCH  78  81
ATOM     81  S   UNL     1      -4.744   1.797  10.962  1.00  0.00     0.127 S 
ATOM     82  O   UNL     1      -5.202   2.297  12.255  1.00  0.00    -0.237 OA
ATOM     83  O   UNL     1      -5.683   0.907  10.277  1.00  0.00    -0.237 OA
ATOM     84  O   UNL     1      -3.356   1.357  10.901  1.00  0.00    -0.744 OA
ENDBRANCH  78  81
ENDBRANCH  50  74
BRANCH  62  85
ATOM     85  C   UNL     1      -1.549  11.621   9.396  1.00  0.00     0.023 A 
ATOM     86  C   UNL     1      -1.538  11.664  10.805  1.00  0.00     0.012 A 
ATOM     87  C   UNL     1      -2.051  12.723   8.676  1.00  0.00     0.148 A 
ATOM     88  C   UNL     1      -2.054  12.767  11.485  1.00  0.00     0.002 A 
ATOM     89  C   UNL     1      -2.522  13.838   9.361  1.00  0.00     0.091 A 
ATOM     90  F   UNL     1      -2.076  12.658   7.336  1.00  0.00    -0.205 F 
ATOM     91  C   UNL     1      -2.536  13.857  10.764  1.00  0.00     0.022 A 
BRANCH  89  92
ATOM     92  S   UNL     1      -3.073  15.315   8.500  1.00  0.00     0.127 S 
ATOM     93  O   UNL     1      -4.523  15.134   8.489  1.00  0.00    -0.237 OA
ATOM     94  O   UNL     1      -2.599  16.389   9.376  1.00  0.00    -0.237 OA
ATOM     95  O   UNL     1      -2.418  15.275   7.199  1.00  0.00    -0.744 OA
ENDBRANCH  89  92
ENDBRANCH  62  85
ENDBRANCH  36  37
ENDBRANCH  28  31
ENDBRANCH  26  27
ENDBRANCH  25  26
ENDBRANCH  24  25
ENDBRANCH   1  24
TORSDOF 21
