REMARK SMILES CC[C@@H](C)N(C)C(=O)N1[C@@H](C(=O)NCCCCNC(=O)c2ccc(-c3c4nc(c(-c5cccc(S(=O)(=O)[O-])c5F)c5ccc([nH]5)c(-c5cccc(S(=O)(=O)[O-])c5F)c5nc(c(-c6cccc(S(=O)(=O)[O-])c6F)c6ccc3[nH]6)C=C5)C=C4)cc2)CC[C@H]2CCCC[C@H]21
REMARK SMILES IDX 15 1 14 2 13 3 11 4 12 5 10 7 9 8 91 9 84 10 86 11 90 12
REMARK SMILES IDX 85 13 87 14 89 15 88 16 7 17 8 18 5 19 6 20 3 21 4 22 2 23
REMARK SMILES IDX 1 24 16 25 17 26 18 27 19 28 20 30 21 31 22 32 83 33 23 34
REMARK SMILES IDX 82 35 24 36 25 37 26 38 76 39 27 40 81 41 75 42 77 43 28 44
REMARK SMILES IDX 80 45 74 46 73 47 29 49 61 50 41 51 60 52 42 53 45 54 59 55
REMARK SMILES IDX 78 56 43 57 44 58 58 60 79 61 46 62 30 63 31 64 39 65 32 66
REMARK SMILES IDX 34 67 40 68 33 69 35 70 36 71 37 72 38 73 62 74 63 75 71 76
REMARK SMILES IDX 64 77 66 78 72 79 65 80 67 81 68 82 69 83 70 84 47 85 48 86
REMARK SMILES IDX 56 87 49 88 51 89 57 90 50 91 52 92 53 93 54 94 55 95
REMARK H PARENT 13 6 18 29 77 48 45 59
REMARK Flexibility Score: inf
ROOT
ATOM      1  C   UNL     1      -3.711  -5.510   4.962  1.00  0.00     0.023 C 
ENDROOT
BRANCH   1   2
ATOM      2  C   UNL     1      -2.744  -4.783   4.029  1.00  0.00     0.116 C 
BRANCH   2   3
ATOM      3  N   UNL     1      -1.369  -5.118   4.344  1.00  0.00    -0.354 N 
ATOM      4  C   UNL     1      -0.465  -5.829   3.613  1.00  0.00     0.242 C 
ATOM      5  O   UNL     1       0.594  -6.157   4.160  1.00  0.00    -0.273 OA
ATOM      6  H   UNL     1      -1.041  -4.784   5.210  1.00  0.00     0.163 HD
BRANCH   4   7
ATOM      7  C   UNL     1      -0.791  -6.335   2.188  1.00  0.00     0.176 C 
ATOM      8  N   UNL     1      -1.309  -5.281   1.289  1.00  0.00    -0.309 N 
ATOM      9  C   UNL     1      -1.923  -5.710   0.024  1.00  0.00     0.091 C 
ATOM     10  C   UNL     1      -1.742  -7.540   2.322  1.00  0.00     0.036 C 
ATOM     11  C   UNL     1      -2.937  -6.847   0.196  1.00  0.00     0.012 C 
ATOM     12  C   UNL     1      -2.563  -4.632  -0.862  1.00  0.00     0.025 C 
ATOM     13  C   UNL     1      -2.316  -8.003   0.989  1.00  0.00     0.008 C 
ATOM     14  C   UNL     1      -4.284  -6.402   0.782  1.00  0.00     0.006 C 
ATOM     15  C   UNL     1      -3.873  -4.057  -0.344  1.00  0.00     0.002 C 
ATOM     16  C   UNL     1      -4.758  -4.980   0.483  1.00  0.00     0.000 C 
BRANCH   8  17
ATOM     17  C   UNL     1      -0.860  -3.976   1.382  1.00  0.00     0.320 C 
ATOM     18  O   UNL     1      -1.696  -3.079   1.498  1.00  0.00    -0.248 OA
BRANCH  17  19
ATOM     19  N   UNL     1       0.494  -3.705   1.302  1.00  0.00    -0.325 N 
ATOM     20  C   UNL     1       1.536  -4.688   1.041  1.00  0.00     0.149 C 
BRANCH  19  21
ATOM     21  C   UNL     1       0.939  -2.288   1.343  1.00  0.00     0.083 C 
ATOM     22  C   UNL     1       0.542  -1.572   2.639  1.00  0.00     0.031 C 
BRANCH  21  23
ATOM     23  C   UNL     1       0.496  -1.548   0.061  1.00  0.00     0.021 C 
ATOM     24  C   UNL     1       1.040  -0.134  -0.064  1.00  0.00     0.006 C 
ENDBRANCH  21  23
ENDBRANCH  19  21
ENDBRANCH  17  19
ENDBRANCH   8  17
ENDBRANCH   4   7
ENDBRANCH   2   3
ENDBRANCH   1   2
BRANCH   1  25
ATOM     25  C   UNL     1      -3.653  -5.033   6.411  1.00  0.00     0.023 C 
BRANCH  25  26
ATOM     26  C   UNL     1      -3.913  -3.544   6.595  1.00  0.00     0.116 C 
BRANCH  26  27
ATOM     27  N   UNL     1      -5.216  -3.139   6.089  1.00  0.00    -0.352 N 
ATOM     28  C   UNL     1      -6.142  -2.313   6.672  1.00  0.00     0.251 C 
ATOM     29  H   UNL     1      -5.466  -3.507   5.211  1.00  0.00     0.163 HD
ATOM     30  O   UNL     1      -7.267  -2.210   6.186  1.00  0.00    -0.269 OA
BRANCH  28  31
ATOM     31  C   UNL     1      -5.788  -1.567   7.898  1.00  0.00     0.039 A 
ATOM     32  C   UNL     1      -6.715  -1.501   8.940  1.00  0.00     0.014 A 
ATOM     33  C   UNL     1      -4.547  -0.935   8.021  1.00  0.00     0.014 A 
ATOM     34  C   UNL     1      -6.382  -0.829  10.117  1.00  0.00     0.010 A 
ATOM     35  C   UNL     1      -4.183  -0.348   9.228  1.00  0.00     0.010 A 
ATOM     36  C   UNL     1      -5.106  -0.263  10.279  1.00  0.00    -0.014 A 
BRANCH  36  37
ATOM     37  C   UNL     1      -4.744   0.448  11.532  1.00  0.00     0.031 A 
ATOM     38  C   UNL     1      -4.398   1.915  11.498  1.00  0.00     0.074 A 
ATOM     39  C   UNL     1      -4.683  -0.233  12.694  1.00  0.00     0.049 A 
ATOM     40  N   UNL     1      -4.088   2.711  12.490  1.00  0.00    -0.248 NA
ATOM     41  C   UNL     1      -4.370   2.573  10.180  1.00  0.00     0.031 C 
ATOM     42  C   UNL     1      -4.911  -1.673  12.846  1.00  0.00     0.029 A 
ATOM     43  N   UNL     1      -4.399   0.192  13.967  1.00  0.00    -0.354 N 
ATOM     44  C   UNL     1      -3.791   3.941  11.915  1.00  0.00     0.074 A 
ATOM     45  C   UNL     1      -3.924   3.782  10.485  1.00  0.00     0.031 C 
ATOM     46  C   UNL     1      -4.783  -2.005  14.141  1.00  0.00     0.029 A 
ATOM     47  C   UNL     1      -4.437  -0.812  14.907  1.00  0.00     0.049 A 
ATOM     48  H   UNL     1      -4.189   1.128  14.188  1.00  0.00     0.167 HD
ATOM     49  C   UNL     1      -3.466   5.106  12.522  1.00  0.00     0.034 A 
ATOM     50  C   UNL     1      -4.221  -0.773  16.236  1.00  0.00     0.034 A 
ATOM     51  C   UNL     1      -3.386   5.275  13.947  1.00  0.00     0.049 A 
ATOM     52  C   UNL     1      -3.914   0.550  16.886  1.00  0.00     0.074 A 
ATOM     53  C   UNL     1      -3.170   6.439  14.664  1.00  0.00     0.029 A 
ATOM     54  N   UNL     1      -3.505   4.251  14.872  1.00  0.00    -0.354 N 
ATOM     55  N   UNL     1      -3.820   1.739  16.341  1.00  0.00    -0.248 NA
ATOM     56  C   UNL     1      -3.728   0.543  18.344  1.00  0.00     0.031 C 
ATOM     57  C   UNL     1      -3.119   6.111  16.022  1.00  0.00     0.029 A 
ATOM     58  C   UNL     1      -3.349   4.751  16.153  1.00  0.00     0.049 A 
ATOM     59  H   UNL     1      -3.675   3.307  14.652  1.00  0.00     0.167 HD
ATOM     60  C   UNL     1      -3.611   2.624  17.393  1.00  0.00     0.074 A 
ATOM     61  C   UNL     1      -3.620   1.837  18.608  1.00  0.00     0.031 C 
ATOM     62  C   UNL     1      -3.415   3.966  17.358  1.00  0.00     0.034 A 
BRANCH  49  63
ATOM     63  C   UNL     1      -3.207   6.309  11.652  1.00  0.00     0.023 A 
ATOM     64  C   UNL     1      -4.275   6.931  10.974  1.00  0.00     0.012 A 
ATOM     65  C   UNL     1      -1.917   6.871  11.572  1.00  0.00     0.148 A 
ATOM     66  C   UNL     1      -4.059   8.075  10.206  1.00  0.00     0.002 A 
ATOM     67  C   UNL     1      -1.719   8.039  10.846  1.00  0.00     0.091 A 
ATOM     68  F   UNL     1      -0.911   6.253  12.206  1.00  0.00    -0.205 F 
ATOM     69  C   UNL     1      -2.786   8.635  10.153  1.00  0.00     0.022 A 
BRANCH  67  70
ATOM     70  S   UNL     1      -0.138   8.888  10.786  1.00  0.00     0.127 S 
ATOM     71  O   UNL     1       0.235   8.719   9.382  1.00  0.00    -0.237 OA
ATOM     72  O   UNL     1      -0.511  10.254  11.157  1.00  0.00    -0.237 OA
ATOM     73  O   UNL     1       0.723   8.209  11.744  1.00  0.00    -0.744 OA
ENDBRANCH  67  70
ENDBRANCH  49  63
BRANCH  50  74
ATOM     74  C   UNL     1      -4.353  -2.007  17.064  1.00  0.00     0.023 A 
ATOM     75  C   UNL     1      -5.401  -2.104  18.001  1.00  0.00     0.012 A 
ATOM     76  C   UNL     1      -3.439  -3.071  16.947  1.00  0.00     0.148 A 
ATOM     77  C   UNL     1      -5.504  -3.212  18.844  1.00  0.00     0.002 A 
ATOM     78  C   UNL     1      -3.582  -4.198  17.748  1.00  0.00     0.091 A 
ATOM     79  F   UNL     1      -2.443  -2.958  16.057  1.00  0.00    -0.205 F 
ATOM     80  C   UNL     1      -4.599  -4.261  18.713  1.00  0.00     0.022 A 
BRANCH  78  81
ATOM     81  S   UNL     1      -2.539  -5.648  17.562  1.00  0.00     0.127 S 
ATOM     82  O   UNL     1      -1.713  -5.579  18.764  1.00  0.00    -0.237 OA
ATOM     83  O   UNL     1      -3.525  -6.730  17.552  1.00  0.00    -0.237 OA
ATOM     84  O   UNL     1      -1.838  -5.466  16.298  1.00  0.00    -0.744 OA
ENDBRANCH  78  81
ENDBRANCH  50  74
BRANCH  62  85
ATOM     85  C   UNL     1      -3.250   4.680  18.675  1.00  0.00     0.023 A 
ATOM     86  C   UNL     1      -2.091   4.476  19.451  1.00  0.00     0.012 A 
ATOM     87  C   UNL     1      -4.230   5.587  19.124  1.00  0.00     0.148 A 
ATOM     88  C   UNL     1      -1.938   5.120  20.679  1.00  0.00     0.002 A 
ATOM     89  C   UNL     1      -4.043   6.270  20.319  1.00  0.00     0.091 A 
ATOM     90  F   UNL     1      -5.334   5.757  18.381  1.00  0.00    -0.205 F 
ATOM     91  C   UNL     1      -2.907   6.024  21.107  1.00  0.00     0.022 A 
BRANCH  89  92
ATOM     92  S   UNL     1      -5.189   7.528  20.893  1.00  0.00     0.127 S 
ATOM     93  O   UNL     1      -5.884   6.829  21.972  1.00  0.00    -0.237 OA
ATOM     94  O   UNL     1      -4.286   8.591  21.337  1.00  0.00    -0.237 OA
ATOM     95  O   UNL     1      -6.008   7.878  19.740  1.00  0.00    -0.744 OA
ENDBRANCH  89  92
ENDBRANCH  62  85
ENDBRANCH  36  37
ENDBRANCH  28  31
ENDBRANCH  26  27
ENDBRANCH  25  26
ENDBRANCH   1  25
TORSDOF 18
