REMARK SMILES CC[C@]1(C(=O)NCCCCNC(=O)c2ccc(-c3c4nc(c(-c5cccc(S(=O)(=O)[O-])c5F)c5ccc([nH]5)c(-c5cccc(S(=O)(=O)[O-])c5F)c5nc(c(-c6cccc(S(=O)(=O)[O-])c6F)c6ccc3[nH]6)C=C5)C=C4)cc2)CCC[N@@H+]([C@@H]2CCC[C@H](S(C)(=O)=O)C2)C1
REMARK SMILES IDX 9 1 8 2 7 3 6 4 4 5 5 6 3 8 77 9 91 10 78 11 80 12 79 13
REMARK SMILES IDX 2 15 1 16 81 17 82 18 90 19 83 20 85 21 84 22 86 23 87 24
REMARK SMILES IDX 88 25 89 26 10 27 11 28 12 29 13 31 14 32 15 33 76 34 16 35
REMARK SMILES IDX 75 36 17 37 18 38 19 39 69 40 20 41 74 42 68 43 70 44 21 45
REMARK SMILES IDX 73 46 67 47 66 48 22 50 54 51 34 52 53 53 35 54 38 55 52 56
REMARK SMILES IDX 71 57 36 58 37 59 51 61 72 62 39 63 23 64 24 65 32 66 25 67
REMARK SMILES IDX 27 68 33 69 26 70 28 71 29 72 30 73 31 74 55 75 56 76 64 77
REMARK SMILES IDX 57 78 59 79 65 80 58 81 60 82 61 83 62 84 63 85 40 86 41 87
REMARK SMILES IDX 49 88 42 89 44 90 50 91 43 92 45 93 46 94 47 95 48 96
REMARK H PARENT 6 7 80 14 11 30 70 49 38 60
REMARK Flexibility Score: inf
ROOT
ATOM      1  C   UNL     1       0.636  -1.726  -7.066  1.00  0.00     0.023 C 
ENDROOT
BRANCH   1   2
ATOM      2  C   UNL     1       1.565  -1.525  -5.872  1.00  0.00     0.023 C 
BRANCH   2   3
ATOM      3  C   UNL     1       1.575  -0.107  -5.308  1.00  0.00     0.116 C 
BRANCH   3   4
ATOM      4  N   UNL     1       0.320   0.245  -4.665  1.00  0.00    -0.355 N 
ATOM      5  C   UNL     1      -0.003   0.557  -3.375  1.00  0.00     0.231 C 
ATOM      6  O   UNL     1      -1.175   0.897  -3.191  1.00  0.00    -0.274 OA
ATOM      7  H   UNL     1      -0.449   0.262  -5.279  1.00  0.00     0.163 HD
BRANCH   5   8
ATOM      8  C   UNL     1       1.040   0.536  -2.215  1.00  0.00     0.098 C 
ATOM      9  C   UNL     1       1.671  -0.874  -2.131  1.00  0.00     0.028 C 
ATOM     10  C   UNL     1       2.072   1.656  -2.549  1.00  0.00     0.279 C 
ATOM     11  C   UNL     1       3.075  -0.895  -1.538  1.00  0.00     0.063 C 
ATOM     12  N   UNL     1       3.402   1.540  -1.921  1.00  0.00    -0.332 N 
ATOM     13  C   UNL     1       3.967   0.197  -2.114  1.00  0.00     0.262 C 
ATOM     14  H   UNL     1       3.301   1.657  -0.913  1.00  0.00     0.348 HD
BRANCH   8  15
ATOM     15  C   UNL     1       0.287   0.899  -0.876  1.00  0.00     0.019 C 
ATOM     16  C   UNL     1       0.783   0.297   0.433  1.00  0.00     0.005 C 
ENDBRANCH   8  15
BRANCH  12  17
ATOM     17  C   UNL     1       4.303   2.638  -2.380  1.00  0.00     0.185 C 
ATOM     18  C   UNL     1       4.761   2.538  -3.854  1.00  0.00     0.065 C 
ATOM     19  C   UNL     1       5.506   2.779  -1.427  1.00  0.00     0.084 C 
ATOM     20  C   UNL     1       5.716   3.661  -4.239  1.00  0.00     0.007 C 
ATOM     21  C   UNL     1       6.519   3.851  -1.861  1.00  0.00     0.114 C 
ATOM     22  C   UNL     1       6.931   3.679  -3.323  1.00  0.00     0.020 C 
BRANCH  21  23
ATOM     23  S   UNL     1       7.950   3.781  -0.755  1.00  0.00     0.150 S 
ATOM     24  C   UNL     1       9.073   5.012  -1.372  1.00  0.00     0.158 C 
ATOM     25  O   UNL     1       7.521   4.229   0.555  1.00  0.00    -0.229 OA
ATOM     26  O   UNL     1       8.601   2.493  -0.918  1.00  0.00    -0.229 OA
ENDBRANCH  21  23
ENDBRANCH  12  17
ENDBRANCH   5   8
ENDBRANCH   3   4
ENDBRANCH   2   3
ENDBRANCH   1   2
BRANCH   1  27
ATOM     27  C   UNL     1       0.878  -0.779  -8.235  1.00  0.00     0.116 C 
BRANCH  27  28
ATOM     28  N   UNL     1       2.242  -0.838  -8.743  1.00  0.00    -0.352 N 
ATOM     29  C   UNL     1       2.672  -0.967 -10.042  1.00  0.00     0.251 C 
ATOM     30  H   UNL     1       2.952  -0.776  -8.064  1.00  0.00     0.163 HD
ATOM     31  O   UNL     1       3.864  -1.137 -10.283  1.00  0.00    -0.269 OA
BRANCH  29  32
ATOM     32  C   UNL     1       1.683  -0.929 -11.139  1.00  0.00     0.039 A 
ATOM     33  C   UNL     1       1.721  -1.920 -12.120  1.00  0.00     0.014 A 
ATOM     34  C   UNL     1       0.693   0.057 -11.166  1.00  0.00     0.014 A 
ATOM     35  C   UNL     1       0.720  -1.963 -13.093  1.00  0.00     0.010 A 
ATOM     36  C   UNL     1      -0.349  -0.040 -12.082  1.00  0.00     0.010 A 
ATOM     37  C   UNL     1      -0.345  -1.047 -13.059  1.00  0.00    -0.014 A 
BRANCH  37  38
ATOM     38  C   UNL     1      -1.470  -1.134 -14.026  1.00  0.00     0.031 A 
ATOM     39  C   UNL     1      -1.755   0.011 -14.960  1.00  0.00     0.074 A 
ATOM     40  C   UNL     1      -2.290  -2.205 -14.002  1.00  0.00     0.049 A 
ATOM     41  N   UNL     1      -2.720   0.139 -15.834  1.00  0.00    -0.248 NA
ATOM     42  C   UNL     1      -0.859   1.178 -14.887  1.00  0.00     0.031 C 
ATOM     43  C   UNL     1      -2.172  -3.342 -13.085  1.00  0.00     0.029 A 
ATOM     44  N   UNL     1      -3.404  -2.499 -14.749  1.00  0.00    -0.354 N 
ATOM     45  C   UNL     1      -2.576   1.411 -16.376  1.00  0.00     0.074 A 
ATOM     46  C   UNL     1      -1.445   2.026 -15.719  1.00  0.00     0.031 C 
ATOM     47  C   UNL     1      -3.170  -4.208 -13.325  1.00  0.00     0.029 A 
ATOM     48  C   UNL     1      -4.020  -3.675 -14.384  1.00  0.00     0.049 A 
ATOM     49  H   UNL     1      -3.731  -1.923 -15.477  1.00  0.00     0.167 HD
ATOM     50  C   UNL     1      -3.307   2.005 -17.348  1.00  0.00     0.034 A 
ATOM     51  C   UNL     1      -5.151  -4.251 -14.839  1.00  0.00     0.034 A 
ATOM     52  C   UNL     1      -4.400   1.372 -18.035  1.00  0.00     0.049 A 
ATOM     53  C   UNL     1      -5.913  -3.585 -15.954  1.00  0.00     0.074 A 
ATOM     54  C   UNL     1      -5.124   1.847 -19.114  1.00  0.00     0.029 A 
ATOM     55  N   UNL     1      -4.939   0.141 -17.700  1.00  0.00    -0.354 N 
ATOM     56  N   UNL     1      -5.648  -2.465 -16.581  1.00  0.00    -0.248 NA
ATOM     57  C   UNL     1      -7.110  -4.281 -16.450  1.00  0.00     0.031 C 
ATOM     58  C   UNL     1      -6.132   0.923 -19.403  1.00  0.00     0.029 A 
ATOM     59  C   UNL     1      -6.003  -0.150 -18.535  1.00  0.00     0.049 A 
ATOM     60  H   UNL     1      -4.614  -0.441 -16.975  1.00  0.00     0.167 HD
ATOM     61  C   UNL     1      -6.619  -2.343 -17.568  1.00  0.00     0.074 A 
ATOM     62  C   UNL     1      -7.464  -3.514 -17.472  1.00  0.00     0.031 C 
ATOM     63  C   UNL     1      -6.803  -1.345 -18.466  1.00  0.00     0.034 A 
BRANCH  50  64
ATOM     64  C   UNL     1      -2.936   3.405 -17.761  1.00  0.00     0.023 A 
ATOM     65  C   UNL     1      -1.756   3.632 -18.497  1.00  0.00     0.012 A 
ATOM     66  C   UNL     1      -3.808   4.480 -17.500  1.00  0.00     0.148 A 
ATOM     67  C   UNL     1      -1.437   4.914 -18.945  1.00  0.00     0.002 A 
ATOM     68  C   UNL     1      -3.507   5.744 -17.991  1.00  0.00     0.091 A 
ATOM     69  F   UNL     1      -4.915   4.245 -16.781  1.00  0.00    -0.205 F 
ATOM     70  C   UNL     1      -2.317   5.965 -18.704  1.00  0.00     0.022 A 
BRANCH  68  71
ATOM     71  S   UNL     1      -4.617   7.144 -17.810  1.00  0.00     0.127 S 
ATOM     72  O   UNL     1      -3.849   8.014 -16.919  1.00  0.00    -0.237 OA
ATOM     73  O   UNL     1      -4.727   7.626 -19.187  1.00  0.00    -0.237 OA
ATOM     74  O   UNL     1      -5.850   6.613 -17.248  1.00  0.00    -0.744 OA
ENDBRANCH  68  71
ENDBRANCH  50  64
BRANCH  51  75
ATOM     75  C   UNL     1      -5.619  -5.548 -14.270  1.00  0.00     0.023 A 
ATOM     76  C   UNL     1      -5.607  -6.707 -15.072  1.00  0.00     0.012 A 
ATOM     77  C   UNL     1      -6.086  -5.636 -12.945  1.00  0.00     0.148 A 
ATOM     78  C   UNL     1      -6.098  -7.917 -14.581  1.00  0.00     0.002 A 
ATOM     79  C   UNL     1      -6.516  -6.859 -12.442  1.00  0.00     0.091 A 
ATOM     80  F   UNL     1      -6.101  -4.522 -12.201  1.00  0.00    -0.205 F 
ATOM     81  C   UNL     1      -6.544  -7.995 -13.264  1.00  0.00     0.022 A 
BRANCH  79  82
ATOM     82  S   UNL     1      -6.981  -7.078 -10.722  1.00  0.00     0.127 S 
ATOM     83  O   UNL     1      -8.430  -7.236 -10.821  1.00  0.00    -0.237 OA
ATOM     84  O   UNL     1      -6.250  -8.294 -10.364  1.00  0.00    -0.237 OA
ATOM     85  O   UNL     1      -6.519  -5.879 -10.036  1.00  0.00    -0.744 OA
ENDBRANCH  79  82
ENDBRANCH  51  75
BRANCH  63  86
ATOM     86  C   UNL     1      -7.927  -1.490 -19.459  1.00  0.00     0.023 A 
ATOM     87  C   UNL     1      -9.265  -1.375 -19.036  1.00  0.00     0.012 A 
ATOM     88  C   UNL     1      -7.647  -1.667 -20.829  1.00  0.00     0.148 A 
ATOM     89  C   UNL     1     -10.309  -1.472 -19.955  1.00  0.00     0.002 A 
ATOM     90  C   UNL     1      -8.689  -1.706 -21.746  1.00  0.00     0.091 A 
ATOM     91  F   UNL     1      -6.367  -1.790 -21.209  1.00  0.00    -0.205 F 
ATOM     92  C   UNL     1     -10.021  -1.625 -21.310  1.00  0.00     0.022 A 
BRANCH  90  93
ATOM     93  S   UNL     1      -8.410  -1.796 -23.518  1.00  0.00     0.127 S 
ATOM     94  O   UNL     1      -8.862  -3.152 -23.823  1.00  0.00    -0.237 OA
ATOM     95  O   UNL     1      -9.281  -0.734 -24.022  1.00  0.00    -0.237 OA
ATOM     96  O   UNL     1      -6.987  -1.554 -23.715  1.00  0.00    -0.744 OA
ENDBRANCH  90  93
ENDBRANCH  63  86
ENDBRANCH  37  38
ENDBRANCH  29  32
ENDBRANCH  27  28
ENDBRANCH   1  27
TORSDOF 17
