REMARK SMILES NC(=O)N[C@@H](Cc1ccc2c(c1)CCCC2)C(=O)NCCCCNC(=O)c1ccc(-c2c3nc(c(-c4cccc(S(=O)(=O)[O-])c4F)c4ccc([nH]4)c(-c4cccc(S(=O)(=O)[O-])c4F)c4nc(c(-c5cccc(S(=O)(=O)[O-])c5F)c5ccc2[nH]5)C=C4)C=C3)cc1
REMARK SMILES IDX 22 1 21 2 20 3 19 4 17 5 18 6 5 8 4 9 1 10 2 11 3 14 6 16
REMARK SMILES IDX 7 17 8 18 12 19 9 20 11 21 10 22 13 23 16 24 14 25 15 26
REMARK SMILES IDX 23 27 24 28 25 29 26 31 27 32 28 33 89 34 29 35 88 36 30 37
REMARK SMILES IDX 31 38 32 39 82 40 33 41 87 42 81 43 83 44 34 45 86 46 80 47
REMARK SMILES IDX 79 48 35 50 67 51 47 52 66 53 48 54 51 55 65 56 84 57 49 58
REMARK SMILES IDX 50 59 64 61 85 62 52 63 36 64 37 65 45 66 38 67 40 68 46 69
REMARK SMILES IDX 39 70 41 71 42 72 43 73 44 74 68 75 69 76 77 77 70 78 72 79
REMARK SMILES IDX 78 80 71 81 73 82 74 83 75 84 76 85 53 86 54 87 62 88 55 89
REMARK SMILES IDX 57 90 63 91 56 92 58 93 59 94 60 95 61 96
REMARK H PARENT 19 7 1 12 1 13 4 15 24 30 83 49 51 60
REMARK Flexibility Score: inf
ROOT
ATOM      1  C   UNL     1      -0.051   6.958  -1.879  1.00  0.00     0.023 C 
ENDROOT
BRANCH   1   2
ATOM      2  C   UNL     1      -0.290   5.470  -2.149  1.00  0.00     0.023 C 
BRANCH   2   3
ATOM      3  C   UNL     1       0.949   4.667  -2.523  1.00  0.00     0.116 C 
BRANCH   3   4
ATOM      4  N   UNL     1       1.856   4.408  -1.418  1.00  0.00    -0.354 N 
ATOM      5  C   UNL     1       2.611   3.304  -1.137  1.00  0.00     0.242 C 
ATOM      6  O   UNL     1       3.598   3.471  -0.409  1.00  0.00    -0.273 OA
ATOM      7  H   UNL     1       1.940   5.144  -0.770  1.00  0.00     0.163 HD
BRANCH   5   8
ATOM      8  C   UNL     1       2.367   1.907  -1.764  1.00  0.00     0.177 C 
BRANCH   8   9
ATOM      9  N   UNL     1       0.956   1.513  -1.785  1.00  0.00    -0.326 N 
ATOM     10  N   UNL     1       0.912   0.144   0.080  1.00  0.00    -0.352 N 
ATOM     11  C   UNL     1       0.255   0.780  -0.901  1.00  0.00     0.312 C 
ATOM     12  H   UNL     1       0.415  -0.397   0.736  1.00  0.00     0.161 HD
ATOM     13  H   UNL     1       1.891   0.219   0.145  1.00  0.00     0.161 HD
ATOM     14  O   UNL     1      -0.966   0.670  -1.010  1.00  0.00    -0.249 OA
ATOM     15  H   UNL     1       0.444   1.833  -2.563  1.00  0.00     0.166 HD
ENDBRANCH   8   9
BRANCH   8  16
ATOM     16  C   UNL     1       3.098   1.639  -3.097  1.00  0.00     0.070 C 
BRANCH  16  17
ATOM     17  C   UNL     1       2.934   2.663  -4.189  1.00  0.00    -0.045 A 
ATOM     18  C   UNL     1       1.964   2.517  -5.185  1.00  0.00     0.004 A 
ATOM     19  C   UNL     1       3.732   3.816  -4.180  1.00  0.00     0.007 A 
ATOM     20  C   UNL     1       1.765   3.531  -6.125  1.00  0.00     0.004 A 
ATOM     21  C   UNL     1       3.518   4.854  -5.098  1.00  0.00    -0.045 A 
ATOM     22  C   UNL     1       2.515   4.715  -6.072  1.00  0.00    -0.045 A 
ATOM     23  C   UNL     1       4.269   6.149  -4.907  1.00  0.00     0.036 C 
ATOM     24  C   UNL     1       2.248   5.804  -7.082  1.00  0.00     0.036 C 
ATOM     25  C   UNL     1       4.176   7.095  -6.101  1.00  0.00     0.005 C 
ATOM     26  C   UNL     1       2.748   7.168  -6.623  1.00  0.00     0.005 C 
ENDBRANCH  16  17
ENDBRANCH   8  16
ENDBRANCH   5   8
ENDBRANCH   3   4
ENDBRANCH   2   3
ENDBRANCH   1   2
BRANCH   1  27
ATOM     27  C   UNL     1       0.583   7.768  -3.011  1.00  0.00     0.116 C 
BRANCH  27  28
ATOM     28  N   UNL     1      -0.193   7.796  -4.241  1.00  0.00    -0.352 N 
ATOM     29  C   UNL     1      -0.277   8.780  -5.202  1.00  0.00     0.251 C 
ATOM     30  H   UNL     1      -0.738   6.994  -4.412  1.00  0.00     0.163 HD
ATOM     31  O   UNL     1      -1.022   8.608  -6.166  1.00  0.00    -0.269 OA
BRANCH  29  32
ATOM     32  C   UNL     1       0.492  10.049  -5.088  1.00  0.00     0.039 A 
ATOM     33  C   UNL     1      -0.129  11.236  -5.496  1.00  0.00     0.014 A 
ATOM     34  C   UNL     1       1.804  10.097  -4.608  1.00  0.00     0.014 A 
ATOM     35  C   UNL     1       0.527  12.462  -5.342  1.00  0.00     0.010 A 
ATOM     36  C   UNL     1       2.442  11.320  -4.410  1.00  0.00     0.010 A 
ATOM     37  C   UNL     1       1.802  12.514  -4.758  1.00  0.00    -0.014 A 
BRANCH  37  38
ATOM     38  C   UNL     1       2.429  13.809  -4.402  1.00  0.00     0.031 A 
ATOM     39  C   UNL     1       3.675  14.288  -5.089  1.00  0.00     0.074 A 
ATOM     40  C   UNL     1       1.916  14.501  -3.366  1.00  0.00     0.049 A 
ATOM     41  N   UNL     1       4.332  15.405  -4.911  1.00  0.00    -0.248 NA
ATOM     42  C   UNL     1       4.278  13.389  -6.086  1.00  0.00     0.031 C 
ATOM     43  C   UNL     1       0.778  14.070  -2.548  1.00  0.00     0.029 A 
ATOM     44  N   UNL     1       2.296  15.692  -2.803  1.00  0.00    -0.354 N 
ATOM     45  C   UNL     1       5.429  15.343  -5.761  1.00  0.00     0.074 A 
ATOM     46  C   UNL     1       5.371  14.060  -6.428  1.00  0.00     0.031 C 
ATOM     47  C   UNL     1       0.553  14.983  -1.591  1.00  0.00     0.029 A 
ATOM     48  C   UNL     1       1.534  16.055  -1.717  1.00  0.00     0.049 A 
ATOM     49  H   UNL     1       3.043  16.235  -3.143  1.00  0.00     0.167 HD
ATOM     50  C   UNL     1       6.381  16.282  -5.981  1.00  0.00     0.034 A 
ATOM     51  C   UNL     1       1.615  17.133  -0.914  1.00  0.00     0.034 A 
ATOM     52  C   UNL     1       6.421  17.556  -5.312  1.00  0.00     0.049 A 
ATOM     53  C   UNL     1       2.648  18.182  -1.214  1.00  0.00     0.074 A 
ATOM     54  C   UNL     1       7.285  18.616  -5.527  1.00  0.00     0.029 A 
ATOM     55  N   UNL     1       5.574  17.936  -4.281  1.00  0.00    -0.354 N 
ATOM     56  N   UNL     1       3.558  18.197  -2.159  1.00  0.00    -0.248 NA
ATOM     57  C   UNL     1       2.636  19.386  -0.372  1.00  0.00     0.031 C 
ATOM     58  C   UNL     1       6.982  19.622  -4.604  1.00  0.00     0.029 A 
ATOM     59  C   UNL     1       5.902  19.207  -3.841  1.00  0.00     0.049 A 
ATOM     60  H   UNL     1       4.847  17.382  -3.916  1.00  0.00     0.167 HD
ATOM     61  C   UNL     1       4.198  19.425  -2.053  1.00  0.00     0.074 A 
ATOM     62  C   UNL     1       3.558  20.134  -0.962  1.00  0.00     0.031 C 
ATOM     63  C   UNL     1       5.226  19.919  -2.785  1.00  0.00     0.034 A 
BRANCH  50  64
ATOM     64  C   UNL     1       7.429  15.992  -7.027  1.00  0.00     0.023 A 
ATOM     65  C   UNL     1       7.061  15.962  -8.388  1.00  0.00     0.012 A 
ATOM     66  C   UNL     1       8.784  15.824  -6.677  1.00  0.00     0.148 A 
ATOM     67  C   UNL     1       8.015  15.735  -9.380  1.00  0.00     0.002 A 
ATOM     68  C   UNL     1       9.736  15.643  -7.674  1.00  0.00     0.091 A 
ATOM     69  F   UNL     1       9.116  15.839  -5.378  1.00  0.00    -0.205 F 
ATOM     70  C   UNL     1       9.352  15.587  -9.024  1.00  0.00     0.022 A 
BRANCH  68  71
ATOM     71  S   UNL     1      11.495  15.521  -7.329  1.00  0.00     0.127 S 
ATOM     72  O   UNL     1      11.763  14.121  -7.656  1.00  0.00    -0.237 OA
ATOM     73  O   UNL     1      12.061  16.486  -8.273  1.00  0.00    -0.237 OA
ATOM     74  O   UNL     1      11.656  15.876  -5.926  1.00  0.00    -0.744 OA
ENDBRANCH  68  71
ENDBRANCH  50  64
BRANCH  51  75
ATOM     75  C   UNL     1       0.633  17.310   0.192  1.00  0.00     0.023 A 
ATOM     76  C   UNL     1      -0.351  18.312   0.091  1.00  0.00     0.012 A 
ATOM     77  C   UNL     1       0.646  16.471   1.323  1.00  0.00     0.148 A 
ATOM     78  C   UNL     1      -1.282  18.501   1.113  1.00  0.00     0.002 A 
ATOM     79  C   UNL     1      -0.317  16.629   2.312  1.00  0.00     0.091 A 
ATOM     80  F   UNL     1       1.593  15.526   1.401  1.00  0.00    -0.205 F 
ATOM     81  C   UNL     1      -1.271  17.655   2.218  1.00  0.00     0.022 A 
BRANCH  79  82
ATOM     82  S   UNL     1      -0.461  15.503   3.704  1.00  0.00     0.127 S 
ATOM     83  O   UNL     1      -0.031  16.347   4.816  1.00  0.00    -0.237 OA
ATOM     84  O   UNL     1      -1.889  15.184   3.688  1.00  0.00    -0.237 OA
ATOM     85  O   UNL     1       0.408  14.377   3.391  1.00  0.00    -0.744 OA
ENDBRANCH  79  82
ENDBRANCH  51  75
BRANCH  63  86
ATOM     86  C   UNL     1       5.702  21.312  -2.467  1.00  0.00     0.023 A 
ATOM     87  C   UNL     1       6.407  21.564  -1.274  1.00  0.00     0.012 A 
ATOM     88  C   UNL     1       5.502  22.361  -3.387  1.00  0.00     0.148 A 
ATOM     89  C   UNL     1       6.873  22.846  -0.984  1.00  0.00     0.002 A 
ATOM     90  C   UNL     1       6.017  23.622  -3.117  1.00  0.00     0.091 A 
ATOM     91  F   UNL     1       4.811  22.106  -4.508  1.00  0.00    -0.205 F 
ATOM     92  C   UNL     1       6.689  23.871  -1.909  1.00  0.00     0.022 A 
BRANCH  90  93
ATOM     93  S   UNL     1       5.916  24.975  -4.294  1.00  0.00     0.127 S 
ATOM     94  O   UNL     1       4.934  25.851  -3.657  1.00  0.00    -0.237 OA
ATOM     95  O   UNL     1       7.285  25.490  -4.291  1.00  0.00    -0.237 OA
ATOM     96  O   UNL     1       5.497  24.380  -5.556  1.00  0.00    -0.744 OA
ENDBRANCH  90  93
ENDBRANCH  63  86
ENDBRANCH  37  38
ENDBRANCH  29  32
ENDBRANCH  27  28
ENDBRANCH   1  27
TORSDOF 17
