REMARK SMILES C[NH+]1CCN(c2nc3c(cc2F)c(=O)c(C(=O)NCCCCNC(=O)c2ccc(-c4c5nc(c(-c6cccc(S(=O)(=O)[O-])c6F)c6ccc([nH]6)c(-c6cccc(S(=O)(=O)[O-])c6F)c6nc(c(-c7cccc(S(=O)(=O)[O-])c7F)c7ccc4[nH]7)C=C6)C=C5)cc2)cn3-c2ccc(F)cc2F)CC1
REMARK SMILES IDX 21 1 20 2 19 3 18 4 16 5 17 6 15 8 6 9 7 10 11 11 8 12 10 13
REMARK SMILES IDX 12 14 9 15 90 16 13 17 89 18 14 19 5 20 1 21 2 22 3 23
REMARK SMILES IDX 100 24 4 26 99 27 91 28 92 29 97 30 93 31 96 32 98 33 94 34
REMARK SMILES IDX 95 35 22 36 23 37 24 38 25 40 26 41 27 42 88 43 28 44 87 45
REMARK SMILES IDX 29 46 30 47 31 48 81 49 32 50 86 51 80 52 82 53 33 54 85 55
REMARK SMILES IDX 79 56 78 57 34 59 66 60 46 61 65 62 47 63 50 64 64 65 83 66
REMARK SMILES IDX 48 67 49 68 63 70 84 71 51 72 35 73 36 74 44 75 37 76 39 77
REMARK SMILES IDX 45 78 38 79 40 80 41 81 42 82 43 83 67 84 68 85 76 86 69 87
REMARK SMILES IDX 71 88 77 89 70 90 72 91 73 92 74 93 75 94 52 95 53 96 61 97
REMARK SMILES IDX 54 98 56 99 62 100 55 101 57 102 58 103 59 104 60 105
REMARK H PARENT 18 7 2 25 23 39 82 58 50 69
REMARK Flexibility Score: inf
ROOT
ATOM      1  C   UNL     1      -9.363  -0.101   6.904  1.00  0.00     0.023 C 
ENDROOT
BRANCH   1   2
ATOM      2  C   UNL     1      -8.336  -0.230   5.784  1.00  0.00     0.023 C 
BRANCH   2   3
ATOM      3  C   UNL     1      -8.853  -0.898   4.508  1.00  0.00     0.116 C 
BRANCH   3   4
ATOM      4  N   UNL     1      -9.503   0.063   3.640  1.00  0.00    -0.352 N 
ATOM      5  C   UNL     1      -9.041   0.815   2.608  1.00  0.00     0.256 C 
ATOM      6  O   UNL     1      -9.868   1.538   2.042  1.00  0.00    -0.269 OA
ATOM      7  H   UNL     1     -10.459   0.196   3.835  1.00  0.00     0.163 HD
BRANCH   5   8
ATOM      8  C   UNL     1      -7.642   0.751   2.094  1.00  0.00     0.104 A 
ATOM      9  C   UNL     1      -2.874  -0.129   0.555  1.00  0.00     0.167 A 
ATOM     10  N   UNL     1      -3.928   0.535   0.018  1.00  0.00    -0.209 NA
ATOM     11  C   UNL     1      -2.968  -0.732   1.812  1.00  0.00     0.166 A 
ATOM     12  C   UNL     1      -5.101   0.607   0.700  1.00  0.00     0.151 A 
ATOM     13  C   UNL     1      -4.127  -0.607   2.550  1.00  0.00     0.059 A 
ATOM     14  F   UNL     1      -1.923  -1.376   2.355  1.00  0.00    -0.203 F 
ATOM     15  C   UNL     1      -5.200   0.082   1.987  1.00  0.00     0.069 A 
ATOM     16  N   UNL     1      -6.255   1.229   0.121  1.00  0.00    -0.297 N 
ATOM     17  C   UNL     1      -6.408   0.323   2.786  1.00  0.00     0.203 A 
ATOM     18  C   UNL     1      -7.449   1.203   0.840  1.00  0.00     0.111 A 
ATOM     19  O   UNL     1      -6.298   0.203   3.998  1.00  0.00    -0.288 OA
BRANCH   9  20
ATOM     20  N   UNL     1      -1.712  -0.150  -0.171  1.00  0.00    -0.343 N 
ATOM     21  C   UNL     1       2.511   0.138   0.137  1.00  0.00     0.332 C 
ATOM     22  N   UNL     1       1.162   0.016  -0.409  1.00  0.00    -0.334 N 
ATOM     23  C   UNL     1       0.341   1.203  -0.063  1.00  0.00     0.283 C 
ATOM     24  C   UNL     1       0.502  -1.204   0.116  1.00  0.00     0.283 C 
ATOM     25  H   UNL     1       1.240  -0.049  -1.425  1.00  0.00     0.347 HD
ATOM     26  C   UNL     1      -1.112   1.109  -0.599  1.00  0.00     0.179 C 
ATOM     27  C   UNL     1      -0.943  -1.366  -0.399  1.00  0.00     0.179 C 
ENDBRANCH   9  20
BRANCH  16  28
ATOM     28  C   UNL     1      -6.237   1.809  -1.185  1.00  0.00     0.083 A 
ATOM     29  C   UNL     1      -5.815   1.064  -2.300  1.00  0.00     0.033 A 
ATOM     30  C   UNL     1      -6.650   3.137  -1.398  1.00  0.00     0.150 A 
ATOM     31  C   UNL     1      -5.816   1.630  -3.576  1.00  0.00     0.041 A 
ATOM     32  C   UNL     1      -6.642   3.712  -2.664  1.00  0.00     0.080 A 
ATOM     33  F   UNL     1      -7.040   3.894  -0.361  1.00  0.00    -0.205 F 
ATOM     34  C   UNL     1      -6.225   2.949  -3.744  1.00  0.00     0.126 A 
ATOM     35  F   UNL     1      -6.214   3.490  -4.969  1.00  0.00    -0.207 F 
ENDBRANCH  16  28
ENDBRANCH   5   8
ENDBRANCH   3   4
ENDBRANCH   2   3
ENDBRANCH   1   2
BRANCH   1  36
ATOM     36  C   UNL     1      -9.839  -1.424   7.485  1.00  0.00     0.116 C 
BRANCH  36  37
ATOM     37  N   UNL     1      -8.761  -2.242   8.026  1.00  0.00    -0.352 N 
ATOM     38  C   UNL     1      -8.814  -3.077   9.117  1.00  0.00     0.251 C 
ATOM     39  H   UNL     1      -7.897  -2.191   7.558  1.00  0.00     0.163 HD
ATOM     40  O   UNL     1      -7.816  -3.663   9.520  1.00  0.00    -0.269 OA
BRANCH  38  41
ATOM     41  C   UNL     1     -10.104  -3.214   9.817  1.00  0.00     0.039 A 
ATOM     42  C   UNL     1     -10.187  -2.829  11.157  1.00  0.00     0.014 A 
ATOM     43  C   UNL     1     -11.240  -3.616   9.109  1.00  0.00     0.014 A 
ATOM     44  C   UNL     1     -11.434  -2.788  11.777  1.00  0.00     0.010 A 
ATOM     45  C   UNL     1     -12.487  -3.524   9.714  1.00  0.00     0.010 A 
ATOM     46  C   UNL     1     -12.592  -3.111  11.051  1.00  0.00    -0.014 A 
BRANCH  46  47
ATOM     47  C   UNL     1     -13.930  -3.041  11.680  1.00  0.00     0.031 A 
ATOM     48  C   UNL     1     -14.683  -4.310  11.956  1.00  0.00     0.074 A 
ATOM     49  C   UNL     1     -14.492  -1.843  11.930  1.00  0.00     0.049 A 
ATOM     50  N   UNL     1     -15.871  -4.462  12.475  1.00  0.00    -0.248 NA
ATOM     51  C   UNL     1     -14.023  -5.573  11.580  1.00  0.00     0.031 C 
ATOM     52  C   UNL     1     -13.883  -0.543  11.642  1.00  0.00     0.029 A 
ATOM     53  N   UNL     1     -15.713  -1.526  12.469  1.00  0.00    -0.354 N 
ATOM     54  C   UNL     1     -16.116  -5.828  12.458  1.00  0.00     0.074 A 
ATOM     55  C   UNL     1     -14.964  -6.463  11.858  1.00  0.00     0.031 C 
ATOM     56  C   UNL     1     -14.729   0.431  12.018  1.00  0.00     0.029 A 
ATOM     57  C   UNL     1     -15.942  -0.174  12.560  1.00  0.00     0.049 A 
ATOM     58  H   UNL     1     -16.364  -2.204  12.762  1.00  0.00     0.167 HD
ATOM     59  C   UNL     1     -17.190  -6.497  12.934  1.00  0.00     0.034 A 
ATOM     60  C   UNL     1     -17.007   0.499  13.040  1.00  0.00     0.034 A 
ATOM     61  C   UNL     1     -18.298  -5.871  13.595  1.00  0.00     0.049 A 
ATOM     62  C   UNL     1     -18.171  -0.272  13.599  1.00  0.00     0.074 A 
ATOM     63  C   UNL     1     -19.377  -6.472  14.217  1.00  0.00     0.029 A 
ATOM     64  N   UNL     1     -18.469  -4.502  13.721  1.00  0.00    -0.354 N 
ATOM     65  N   UNL     1     -18.314  -1.569  13.722  1.00  0.00    -0.248 NA
ATOM     66  C   UNL     1     -19.307   0.510  14.110  1.00  0.00     0.031 C 
ATOM     67  C   UNL     1     -20.205  -5.463  14.719  1.00  0.00     0.029 A 
ATOM     68  C   UNL     1     -19.641  -4.237  14.404  1.00  0.00     0.049 A 
ATOM     69  H   UNL     1     -17.848  -3.821  13.376  1.00  0.00     0.167 HD
ATOM     70  C   UNL     1     -19.540  -1.759  14.349  1.00  0.00     0.074 A 
ATOM     71  C   UNL     1     -20.097  -0.444  14.588  1.00  0.00     0.031 C 
ATOM     72  C   UNL     1     -20.152  -2.920  14.684  1.00  0.00     0.034 A 
BRANCH  59  73
ATOM     73  C   UNL     1     -17.179  -7.994  12.828  1.00  0.00     0.023 A 
ATOM     74  C   UNL     1     -16.425  -8.739  13.756  1.00  0.00     0.012 A 
ATOM     75  C   UNL     1     -17.954  -8.661  11.861  1.00  0.00     0.148 A 
ATOM     76  C   UNL     1     -16.429 -10.131  13.714  1.00  0.00     0.002 A 
ATOM     77  C   UNL     1     -17.974 -10.050  11.842  1.00  0.00     0.091 A 
ATOM     78  F   UNL     1     -18.642  -7.926  10.976  1.00  0.00    -0.205 F 
ATOM     79  C   UNL     1     -17.209 -10.786  12.764  1.00  0.00     0.022 A 
BRANCH  77  80
ATOM     80  S   UNL     1     -18.978 -10.992  10.689  1.00  0.00     0.127 S 
ATOM     81  O   UNL     1     -17.956 -11.604   9.841  1.00  0.00    -0.237 OA
ATOM     82  O   UNL     1     -19.673 -11.924  11.577  1.00  0.00    -0.237 OA
ATOM     83  O   UNL     1     -19.840 -10.025  10.024  1.00  0.00    -0.744 OA
ENDBRANCH  77  80
ENDBRANCH  59  73
BRANCH  60  84
ATOM     84  C   UNL     1     -16.974   1.985  13.106  1.00  0.00     0.023 A 
ATOM     85  C   UNL     1     -16.747   2.602  14.351  1.00  0.00     0.012 A 
ATOM     86  C   UNL     1     -17.120   2.783  11.956  1.00  0.00     0.148 A 
ATOM     87  C   UNL     1     -16.680   3.992  14.454  1.00  0.00     0.002 A 
ATOM     88  C   UNL     1     -17.020   4.166  12.059  1.00  0.00     0.091 A 
ATOM     89  F   UNL     1     -17.342   2.171  10.784  1.00  0.00    -0.205 F 
ATOM     90  C   UNL     1     -16.809   4.772  13.309  1.00  0.00     0.022 A 
BRANCH  88  91
ATOM     91  S   UNL     1     -17.083   5.254  10.631  1.00  0.00     0.127 S 
ATOM     92  O   UNL     1     -18.340   5.965  10.853  1.00  0.00    -0.237 OA
ATOM     93  O   UNL     1     -15.877   6.062  10.816  1.00  0.00    -0.237 OA
ATOM     94  O   UNL     1     -17.051   4.380   9.467  1.00  0.00    -0.744 OA
ENDBRANCH  88  91
ENDBRANCH  60  84
BRANCH  72  95
ATOM     95  C   UNL     1     -21.493  -2.845  15.357  1.00  0.00     0.023 A 
ATOM     96  C   UNL     1     -22.643  -2.642  14.571  1.00  0.00     0.012 A 
ATOM     97  C   UNL     1     -21.625  -3.116  16.732  1.00  0.00     0.148 A 
ATOM     98  C   UNL     1     -23.910  -2.709  15.146  1.00  0.00     0.002 A 
ATOM     99  C   UNL     1     -22.892  -3.214  17.292  1.00  0.00     0.091 A 
ATOM    100  F   UNL     1     -20.511  -3.295  17.457  1.00  0.00    -0.205 F 
ATOM    101  C   UNL     1     -24.035  -3.007  16.502  1.00  0.00     0.022 A 
BRANCH  99 102
ATOM    102  S   UNL     1     -23.158  -3.676  19.008  1.00  0.00     0.127 S 
ATOM    103  O   UNL     1     -23.666  -2.428  19.576  1.00  0.00    -0.237 OA
ATOM    104  O   UNL     1     -24.151  -4.743  18.891  1.00  0.00    -0.237 OA
ATOM    105  O   UNL     1     -21.862  -4.107  19.515  1.00  0.00    -0.744 OA
ENDBRANCH  99 102
ENDBRANCH  72  95
ENDBRANCH  46  47
ENDBRANCH  38  41
ENDBRANCH  36  37
ENDBRANCH   1  36
TORSDOF 16
