REMARK SMILES Cc1ccccc1OCC(=O)N1C[C@@H](O)C[C@H]1C(=O)NCCCCNC(=O)c1ccc(-c2c3nc(c(-c4cccc(S(=O)(=O)[O-])c4F)c4ccc([nH]4)c(-c4cccc(S(=O)(=O)[O-])c4F)c4nc(c(-c5cccc(S(=O)(=O)[O-])c5F)c5ccc2[nH]5)C=C4)C=C3)cc1
REMARK SMILES IDX 22 1 21 2 20 3 18 4 19 5 17 7 12 8 13 9 14 10 16 11 10 12
REMARK SMILES IDX 11 13 9 14 8 15 7 16 1 17 2 18 3 19 4 20 6 21 5 22 15 23
REMARK SMILES IDX 23 25 24 26 25 27 26 28 27 30 28 31 29 32 90 33 30 34 89 35
REMARK SMILES IDX 31 36 32 37 33 38 83 39 34 40 88 41 82 42 84 43 35 44 87 45
REMARK SMILES IDX 81 46 80 47 36 49 68 50 48 51 67 52 49 53 52 54 66 55 85 56
REMARK SMILES IDX 50 57 51 58 65 60 86 61 53 62 37 63 38 64 46 65 39 66 41 67
REMARK SMILES IDX 47 68 40 69 42 70 43 71 44 72 45 73 69 74 70 75 78 76 71 77
REMARK SMILES IDX 73 78 79 79 72 80 74 81 75 82 76 83 77 84 54 85 55 86 63 87
REMARK SMILES IDX 56 88 58 89 64 90 57 91 59 92 60 93 61 94 62 95
REMARK H PARENT 20 6 15 24 25 29 84 48 52 59
REMARK Flexibility Score: inf
ROOT
ATOM      1  C   UNL     1       0.856  -0.529   3.275  1.00  0.00     0.023 C 
ENDROOT
BRANCH   1   2
ATOM      2  C   UNL     1       1.522   0.066   4.512  1.00  0.00     0.116 C 
BRANCH   2   3
ATOM      3  N   UNL     1       2.972   0.028   4.453  1.00  0.00    -0.354 N 
ATOM      4  C   UNL     1       3.895   0.987   4.160  1.00  0.00     0.242 C 
ATOM      5  O   UNL     1       5.080   0.706   4.372  1.00  0.00    -0.273 OA
ATOM      6  H   UNL     1       3.360  -0.852   4.664  1.00  0.00     0.163 HD
BRANCH   4   7
ATOM      7  C   UNL     1       3.507   2.417   3.733  1.00  0.00     0.177 C 
ATOM      8  N   UNL     1       2.625   2.523   2.570  1.00  0.00    -0.325 N 
ATOM      9  C   UNL     1       1.406   3.246   2.877  1.00  0.00     0.152 C 
ATOM     10  C   UNL     1       1.687   3.963   4.196  1.00  0.00     0.136 C 
ATOM     11  C   UNL     1       2.810   3.174   4.867  1.00  0.00     0.069 C 
BRANCH   8  12
ATOM     12  C   UNL     1       3.105   2.214   1.312  1.00  0.00     0.261 C 
ATOM     13  O   UNL     1       4.227   1.728   1.151  1.00  0.00    -0.271 OA
BRANCH  12  14
ATOM     14  C   UNL     1       2.263   2.599   0.086  1.00  0.00     0.329 C 
BRANCH  14  15
ATOM     15  O   UNL     1       0.885   2.332   0.071  1.00  0.00    -0.484 OA
BRANCH  15  16
ATOM     16  C   UNL     1       0.352   1.091  -0.099  1.00  0.00     0.122 A 
ATOM     17  C   UNL     1       2.429  -0.422  -0.478  1.00  0.00     0.048 C 
ATOM     18  C   UNL     1       0.957  -0.150  -0.350  1.00  0.00    -0.009 A 
ATOM     19  C   UNL     1       0.126  -1.296  -0.401  1.00  0.00     0.007 A 
ATOM     20  C   UNL     1      -1.254  -1.223  -0.217  1.00  0.00     0.001 A 
ATOM     21  C   UNL     1      -1.048   1.148   0.047  1.00  0.00     0.047 A 
ATOM     22  C   UNL     1      -1.847   0.008  -0.002  1.00  0.00     0.004 A 
ENDBRANCH  15  16
ENDBRANCH  14  15
ENDBRANCH  12  14
ENDBRANCH   8  12
BRANCH  10  23
ATOM     23  O   UNL     1       0.534   4.041   5.019  1.00  0.00    -0.391 OA
ATOM     24  H   UNL     1       0.216   3.147   5.216  1.00  0.00     0.211 HD
ENDBRANCH  10  23
ENDBRANCH   4   7
ENDBRANCH   2   3
ENDBRANCH   1   2
BRANCH   1  25
ATOM     25  C   UNL     1       1.211  -1.986   2.987  1.00  0.00     0.023 C 
BRANCH  25  26
ATOM     26  C   UNL     1       0.745  -2.963   4.052  1.00  0.00     0.116 C 
BRANCH  26  27
ATOM     27  N   UNL     1      -0.625  -3.417   3.885  1.00  0.00    -0.352 N 
ATOM     28  C   UNL     1      -1.351  -4.312   4.651  1.00  0.00     0.251 C 
ATOM     29  H   UNL     1      -1.106  -3.034   3.116  1.00  0.00     0.163 HD
ATOM     30  O   UNL     1      -2.394  -4.768   4.183  1.00  0.00    -0.269 OA
BRANCH  28  31
ATOM     31  C   UNL     1      -0.962  -4.586   6.061  1.00  0.00     0.039 A 
ATOM     32  C   UNL     1      -1.983  -4.612   7.022  1.00  0.00     0.014 A 
ATOM     33  C   UNL     1       0.366  -4.545   6.473  1.00  0.00     0.014 A 
ATOM     34  C   UNL     1      -1.696  -4.300   8.349  1.00  0.00     0.010 A 
ATOM     35  C   UNL     1       0.648  -4.139   7.758  1.00  0.00     0.010 A 
ATOM     36  C   UNL     1      -0.394  -3.938   8.669  1.00  0.00    -0.014 A 
BRANCH  36  37
ATOM     37  C   UNL     1       0.009  -3.256   9.885  1.00  0.00     0.031 A 
ATOM     38  C   UNL     1       0.667  -4.007  10.969  1.00  0.00     0.074 A 
ATOM     39  C   UNL     1       0.025  -1.903   9.863  1.00  0.00     0.049 A 
ATOM     40  N   UNL     1       0.946  -3.499  12.119  1.00  0.00    -0.248 NA
ATOM     41  C   UNL     1       1.015  -5.421  10.858  1.00  0.00     0.031 C 
ATOM     42  C   UNL     1       0.841  -1.016  10.683  1.00  0.00     0.029 A 
ATOM     43  N   UNL     1      -0.867  -1.043   9.209  1.00  0.00    -0.354 N 
ATOM     44  C   UNL     1       1.763  -4.394  12.769  1.00  0.00     0.074 A 
ATOM     45  C   UNL     1       1.655  -5.617  12.016  1.00  0.00     0.031 C 
ATOM     46  C   UNL     1       0.268   0.197  10.707  1.00  0.00     0.029 A 
ATOM     47  C   UNL     1      -1.024   0.068  10.057  1.00  0.00     0.049 A 
ATOM     48  H   UNL     1      -1.296  -1.187   8.335  1.00  0.00     0.167 HD
ATOM     49  C   UNL     1       2.545  -3.937  13.784  1.00  0.00     0.034 A 
ATOM     50  C   UNL     1      -2.217   0.447  10.602  1.00  0.00     0.034 A 
ATOM     51  C   UNL     1       2.138  -2.584  14.185  1.00  0.00     0.049 A 
ATOM     52  C   UNL     1      -2.202   0.460  12.121  1.00  0.00     0.074 A 
ATOM     53  C   UNL     1       2.664  -1.325  13.963  1.00  0.00     0.029 A 
ATOM     54  N   UNL     1       0.865  -2.392  14.714  1.00  0.00    -0.354 N 
ATOM     55  N   UNL     1      -1.207   0.032  12.850  1.00  0.00    -0.248 NA
ATOM     56  C   UNL     1      -3.317   0.927  12.942  1.00  0.00     0.031 C 
ATOM     57  C   UNL     1       1.643  -0.373  14.245  1.00  0.00     0.029 A 
ATOM     58  C   UNL     1       0.518  -1.050  14.689  1.00  0.00     0.049 A 
ATOM     59  H   UNL     1       0.289  -3.111  15.059  1.00  0.00     0.167 HD
ATOM     60  C   UNL     1      -1.573   0.003  14.171  1.00  0.00     0.074 A 
ATOM     61  C   UNL     1      -2.868   0.662  14.182  1.00  0.00     0.031 C 
ATOM     62  C   UNL     1      -0.813  -0.627  15.122  1.00  0.00     0.034 A 
BRANCH  49  63
ATOM     63  C   UNL     1       3.799  -4.606  14.324  1.00  0.00     0.023 A 
ATOM     64  C   UNL     1       4.450  -3.966  15.404  1.00  0.00     0.012 A 
ATOM     65  C   UNL     1       4.463  -5.739  13.787  1.00  0.00     0.148 A 
ATOM     66  C   UNL     1       5.682  -4.404  15.908  1.00  0.00     0.002 A 
ATOM     67  C   UNL     1       5.660  -6.215  14.332  1.00  0.00     0.091 A 
ATOM     68  F   UNL     1       4.006  -6.325  12.680  1.00  0.00    -0.205 F 
ATOM     69  C   UNL     1       6.283  -5.537  15.381  1.00  0.00     0.022 A 
BRANCH  67  70
ATOM     70  S   UNL     1       6.468  -7.711  13.728  1.00  0.00     0.127 S 
ATOM     71  O   UNL     1       7.646  -7.172  13.050  1.00  0.00    -0.237 OA
ATOM     72  O   UNL     1       6.757  -8.436  14.966  1.00  0.00    -0.237 OA
ATOM     73  O   UNL     1       5.501  -8.373  12.860  1.00  0.00    -0.744 OA
ENDBRANCH  67  70
ENDBRANCH  49  63
BRANCH  50  74
ATOM     74  C   UNL     1      -3.394   0.139   9.741  1.00  0.00     0.023 A 
ATOM     75  C   UNL     1      -3.496   0.862   8.528  1.00  0.00     0.012 A 
ATOM     76  C   UNL     1      -4.115  -1.060   9.881  1.00  0.00     0.148 A 
ATOM     77  C   UNL     1      -4.190   0.338   7.437  1.00  0.00     0.002 A 
ATOM     78  C   UNL     1      -4.799  -1.581   8.783  1.00  0.00     0.091 A 
ATOM     79  F   UNL     1      -4.040  -1.717  11.045  1.00  0.00    -0.205 F 
ATOM     80  C   UNL     1      -4.809  -0.901   7.553  1.00  0.00     0.022 A 
BRANCH  78  81
ATOM     81  S   UNL     1      -5.560  -3.211   8.820  1.00  0.00     0.127 S 
ATOM     82  O   UNL     1      -6.968  -2.872   9.007  1.00  0.00    -0.237 OA
ATOM     83  O   UNL     1      -5.223  -3.739   7.499  1.00  0.00    -0.237 OA
ATOM     84  O   UNL     1      -4.912  -3.904   9.923  1.00  0.00    -0.744 OA
ENDBRANCH  78  81
ENDBRANCH  50  74
BRANCH  62  85
ATOM     85  C   UNL     1      -1.266  -0.940  16.541  1.00  0.00     0.023 A 
ATOM     86  C   UNL     1      -2.625  -1.007  16.904  1.00  0.00     0.012 A 
ATOM     87  C   UNL     1      -0.329  -1.337  17.532  1.00  0.00     0.148 A 
ATOM     88  C   UNL     1      -3.036  -1.382  18.189  1.00  0.00     0.002 A 
ATOM     89  C   UNL     1      -0.749  -1.820  18.770  1.00  0.00     0.091 A 
ATOM     90  F   UNL     1       0.986  -1.236  17.289  1.00  0.00    -0.205 F 
ATOM     91  C   UNL     1      -2.100  -1.813  19.117  1.00  0.00     0.022 A 
BRANCH  89  92
ATOM     92  S   UNL     1       0.418  -2.624  19.880  1.00  0.00     0.127 S 
ATOM     93  O   UNL     1       0.910  -1.502  20.675  1.00  0.00    -0.237 OA
ATOM     94  O   UNL     1      -0.434  -3.562  20.616  1.00  0.00    -0.237 OA
ATOM     95  O   UNL     1       1.382  -3.267  18.997  1.00  0.00    -0.744 OA
ENDBRANCH  89  92
ENDBRANCH  62  85
ENDBRANCH  36  37
ENDBRANCH  28  31
ENDBRANCH  26  27
ENDBRANCH  25  26
ENDBRANCH   1  25
TORSDOF 19
