REMARK SMILES O=C(NCCCCNC(=O)c1ccc(-c2c3nc(c(-c4cccc(S(=O)(=O)[O-])c4F)c4ccc([nH]4)c(-c4cccc(S(=O)(=O)[O-])c4F)c4nc(c(-c5cccc(S(=O)(=O)[O-])c5F)c5ccc2[nH]5)C=C4)C=C3)cc1)C1=Cc2cc(Cl)cc(C#Cc3ccccc3)c2O[C@@H]1C(F)(F)F
REMARK SMILES IDX 6 1 5 2 4 3 3 4 1 5 2 6 74 8 75 9 92 10 76 11 91 12 77 13
REMARK SMILES IDX 90 14 78 15 81 16 79 17 80 18 93 19 94 20 95 21 96 22 82 23
REMARK SMILES IDX 83 24 84 25 85 26 89 27 86 28 88 29 87 30 7 31 8 32 9 33
REMARK SMILES IDX 10 35 11 36 12 37 73 38 13 39 72 40 14 41 15 42 16 43 66 44
REMARK SMILES IDX 17 45 71 46 65 47 67 48 18 49 70 50 64 51 63 52 19 54 51 55
REMARK SMILES IDX 31 56 50 57 32 58 35 59 49 60 68 61 33 62 34 63 48 65 69 66
REMARK SMILES IDX 36 67 20 68 21 69 29 70 22 71 24 72 30 73 23 74 25 75 26 76
REMARK SMILES IDX 27 77 28 78 52 79 53 80 61 81 54 82 56 83 62 84 55 85 57 86
REMARK SMILES IDX 58 87 59 88 60 89 37 90 38 91 46 92 39 93 41 94 47 95 40 96
REMARK SMILES IDX 42 97 43 98 44 99 45 100
REMARK H PARENT 3 7 8 34 67 53 35 64
REMARK Flexibility Score: inf
ROOT
ATOM      1  C   UNL     1       4.119   4.399  -0.813  1.00  0.00     0.023 C 
ENDROOT
BRANCH   1   2
ATOM      2  C   UNL     1       4.318   3.029  -1.444  1.00  0.00     0.023 C 
BRANCH   2   3
ATOM      3  C   UNL     1       3.871   1.850  -0.595  1.00  0.00     0.116 C 
BRANCH   3   4
ATOM      4  N   UNL     1       2.604   1.237  -0.939  1.00  0.00    -0.352 N 
ATOM      5  O   UNL     1       1.021  -0.357  -0.966  1.00  0.00    -0.270 OA
ATOM      6  C   UNL     1       2.207  -0.067  -0.812  1.00  0.00     0.251 C 
ATOM      7  H   UNL     1       1.931   1.846  -1.320  1.00  0.00     0.163 HD
BRANCH   6   8
ATOM      8  C   UNL     1       3.138  -1.168  -0.401  1.00  0.00     0.067 C 
ATOM      9  C   UNL     1       4.408  -1.282  -0.836  1.00  0.00     0.025 C 
ATOM     10  C   UNL     1       2.842  -1.658   0.998  1.00  0.00     0.314 C 
ATOM     11  C   UNL     1       5.378  -0.849   0.217  1.00  0.00     0.020 A 
ATOM     12  O   UNL     1       3.677  -0.958   1.963  1.00  0.00    -0.474 OA
ATOM     13  C   UNL     1       6.632  -0.401  -0.218  1.00  0.00     0.032 A 
ATOM     14  C   UNL     1       4.896  -0.509   1.502  1.00  0.00     0.143 A 
ATOM     15  C   UNL     1       7.343   0.495   0.573  1.00  0.00     0.043 A 
ATOM     16  C   UNL     1       5.594   0.444   2.258  1.00  0.00     0.069 A 
ATOM     17  Cl  UNL     1       8.786   1.201  -0.043  1.00  0.00    -0.084 Cl
ATOM     18  C   UNL     1       6.820   0.940   1.788  1.00  0.00     0.041 A 
BRANCH  10  19
ATOM     19  C   UNL     1       2.950  -3.192   1.099  1.00  0.00     0.429 C 
ATOM     20  F   UNL     1       2.555  -3.649   2.309  1.00  0.00    -0.167 F 
ATOM     21  F   UNL     1       2.167  -3.803   0.174  1.00  0.00    -0.167 F 
ATOM     22  F   UNL     1       4.213  -3.643   0.896  1.00  0.00    -0.167 F 
ENDBRANCH  10  19
BRANCH  16  23
ATOM     23  C   UNL     1       4.997   1.116   3.383  1.00  0.00    -0.058 C 
ATOM     24  C   UNL     1       4.575   1.805   4.272  1.00  0.00    -0.062 C 
BRANCH  24  25
ATOM     25  C   UNL     1       4.220   2.677   5.357  1.00  0.00     0.025 A 
ATOM     26  C   UNL     1       3.992   4.038   5.142  1.00  0.00     0.017 A 
ATOM     27  C   UNL     1       4.189   2.179   6.658  1.00  0.00     0.017 A 
ATOM     28  C   UNL     1       3.827   4.912   6.222  1.00  0.00     0.001 A 
ATOM     29  C   UNL     1       3.990   3.043   7.738  1.00  0.00     0.001 A 
ATOM     30  C   UNL     1       3.835   4.412   7.522  1.00  0.00     0.000 A 
ENDBRANCH  24  25
ENDBRANCH  16  23
ENDBRANCH   6   8
ENDBRANCH   3   4
ENDBRANCH   2   3
ENDBRANCH   1   2
BRANCH   1  31
ATOM     31  C   UNL     1       4.776   4.625   0.550  1.00  0.00     0.116 C 
BRANCH  31  32
ATOM     32  N   UNL     1       6.231   4.492   0.573  1.00  0.00    -0.352 N 
ATOM     33  C   UNL     1       7.170   5.330   1.146  1.00  0.00     0.251 C 
ATOM     34  H   UNL     1       6.592   3.697   0.118  1.00  0.00     0.163 HD
ATOM     35  O   UNL     1       8.367   5.078   1.055  1.00  0.00    -0.269 OA
BRANCH  33  36
ATOM     36  C   UNL     1       6.721   6.556   1.845  1.00  0.00     0.039 A 
ATOM     37  C   UNL     1       7.265   7.794   1.506  1.00  0.00     0.014 A 
ATOM     38  C   UNL     1       5.683   6.484   2.771  1.00  0.00     0.014 A 
ATOM     39  C   UNL     1       6.671   8.960   2.002  1.00  0.00     0.010 A 
ATOM     40  C   UNL     1       5.025   7.638   3.179  1.00  0.00     0.010 A 
ATOM     41  C   UNL     1       5.501   8.893   2.782  1.00  0.00    -0.014 A 
BRANCH  41  42
ATOM     42  C   UNL     1       4.721  10.121   3.097  1.00  0.00     0.031 A 
ATOM     43  C   UNL     1       4.465  10.545   4.517  1.00  0.00     0.074 A 
ATOM     44  C   UNL     1       4.164  10.815   2.083  1.00  0.00     0.049 A 
ATOM     45  N   UNL     1       3.852  11.615   4.955  1.00  0.00    -0.248 NA
ATOM     46  C   UNL     1       4.928   9.644   5.584  1.00  0.00     0.031 C 
ATOM     47  C   UNL     1       4.229  10.439   0.668  1.00  0.00     0.029 A 
ATOM     48  N   UNL     1       3.425  11.972   2.082  1.00  0.00    -0.354 N 
ATOM     49  C   UNL     1       3.842  11.511   6.341  1.00  0.00     0.074 A 
ATOM     50  C   UNL     1       4.465  10.247   6.670  1.00  0.00     0.031 C 
ATOM     51  C   UNL     1       3.591  11.365  -0.065  1.00  0.00     0.029 A 
ATOM     52  C   UNL     1       3.042  12.382   0.825  1.00  0.00     0.049 A 
ATOM     53  H   UNL     1       3.190  12.462   2.902  1.00  0.00     0.167 HD
ATOM     54  C   UNL     1       3.385  12.398   7.257  1.00  0.00     0.034 A 
ATOM     55  C   UNL     1       2.333  13.456   0.429  1.00  0.00     0.034 A 
ATOM     56  C   UNL     1       2.774  13.658   6.923  1.00  0.00     0.049 A 
ATOM     57  C   UNL     1       1.868  14.445   1.461  1.00  0.00     0.074 A 
ATOM     58  C   UNL     1       2.367  14.669   7.775  1.00  0.00     0.029 A 
ATOM     59  N   UNL     1       2.455  14.069   5.637  1.00  0.00    -0.354 N 
ATOM     60  N   UNL     1       2.039  14.421   2.760  1.00  0.00    -0.248 NA
ATOM     61  C   UNL     1       1.145  15.626   0.970  1.00  0.00     0.031 C 
ATOM     62  C   UNL     1       1.757  15.668   7.009  1.00  0.00     0.029 A 
ATOM     63  C   UNL     1       1.833  15.306   5.674  1.00  0.00     0.049 A 
ATOM     64  H   UNL     1       2.643  13.556   4.818  1.00  0.00     0.167 HD
ATOM     65  C   UNL     1       1.475  15.598   3.240  1.00  0.00     0.074 A 
ATOM     66  C   UNL     1       0.981  16.322   2.087  1.00  0.00     0.031 C 
ATOM     67  C   UNL     1       1.369  16.034   4.520  1.00  0.00     0.034 A 
BRANCH  54  68
ATOM     68  C   UNL     1       3.562  12.053   8.715  1.00  0.00     0.023 A 
ATOM     69  C   UNL     1       4.857  12.014   9.274  1.00  0.00     0.012 A 
ATOM     70  C   UNL     1       2.449  11.820   9.546  1.00  0.00     0.148 A 
ATOM     71  C   UNL     1       5.044  11.704  10.621  1.00  0.00     0.002 A 
ATOM     72  C   UNL     1       2.640  11.562  10.899  1.00  0.00     0.091 A 
ATOM     73  F   UNL     1       1.226  11.844   8.998  1.00  0.00    -0.205 F 
ATOM     74  C   UNL     1       3.936  11.489  11.434  1.00  0.00     0.022 A 
BRANCH  72  75
ATOM     75  S   UNL     1       1.276  11.351  12.048  1.00  0.00     0.127 S 
ATOM     76  O   UNL     1       1.385   9.929  12.374  1.00  0.00    -0.237 OA
ATOM     77  O   UNL     1       1.649  12.256  13.136  1.00  0.00    -0.237 OA
ATOM     78  O   UNL     1       0.074  11.734  11.322  1.00  0.00    -0.744 OA
ENDBRANCH  72  75
ENDBRANCH  54  68
BRANCH  55  79
ATOM     79  C   UNL     1       2.078  13.685  -1.022  1.00  0.00     0.023 A 
ATOM     80  C   UNL     1       2.718  14.751  -1.684  1.00  0.00     0.012 A 
ATOM     81  C   UNL     1       1.232  12.830  -1.755  1.00  0.00     0.148 A 
ATOM     82  C   UNL     1       2.495  14.981  -3.042  1.00  0.00     0.002 A 
ATOM     83  C   UNL     1       1.060  13.029  -3.119  1.00  0.00     0.091 A 
ATOM     84  F   UNL     1       0.630  11.825  -1.104  1.00  0.00    -0.205 F 
ATOM     85  C   UNL     1       1.675  14.115  -3.761  1.00  0.00     0.022 A 
BRANCH  83  86
ATOM     86  S   UNL     1       0.132  11.890  -4.150  1.00  0.00     0.127 S 
ATOM     87  O   UNL     1      -0.999  12.716  -4.565  1.00  0.00    -0.237 OA
ATOM     88  O   UNL     1       1.098  11.588  -5.206  1.00  0.00    -0.237 OA
ATOM     89  O   UNL     1      -0.196  10.758  -3.293  1.00  0.00    -0.744 OA
ENDBRANCH  83  86
ENDBRANCH  55  79
BRANCH  67  90
ATOM     90  C   UNL     1       0.720  17.376   4.746  1.00  0.00     0.023 A 
ATOM     91  C   UNL     1      -0.663  17.541   4.525  1.00  0.00     0.012 A 
ATOM     92  C   UNL     1       1.475  18.463   5.229  1.00  0.00     0.148 A 
ATOM     93  C   UNL     1      -1.273  18.777   4.738  1.00  0.00     0.002 A 
ATOM     94  C   UNL     1       0.850  19.675   5.494  1.00  0.00     0.091 A 
ATOM     95  F   UNL     1       2.792  18.292   5.419  1.00  0.00    -0.205 F 
ATOM     96  C   UNL     1      -0.520  19.839   5.232  1.00  0.00     0.022 A 
BRANCH  94  97
ATOM     97  S   UNL     1       1.716  21.068   6.224  1.00  0.00     0.127 S 
ATOM     98  O   UNL     1       1.751  22.014   5.109  1.00  0.00    -0.237 OA
ATOM     99  O   UNL     1       0.823  21.447   7.318  1.00  0.00    -0.237 OA
ATOM    100  O   UNL     1       3.013  20.560   6.649  1.00  0.00    -0.744 OA
ENDBRANCH  94  97
ENDBRANCH  67  90
ENDBRANCH  41  42
ENDBRANCH  33  36
ENDBRANCH  31  32
ENDBRANCH   1  31
TORSDOF 17
