REMARK SMILES Cc1ccc(S(=O)(=O)N2C[C@@H](CC(=O)NCCCCNC(=O)c3ccc(-c4c5nc(c(-c6cccc(S(=O)(=O)[O-])c6F)c6ccc([nH]6)c(-c6cccc(S(=O)(=O)[O-])c6F)c6nc(c(-c7cccc(S(=O)(=O)[O-])c7F)c7ccc4[nH]7)C=C6)C=C5)cc3)c3ccccc32)c(C)c1
REMARK SMILES IDX 17 1 16 2 15 3 13 4 14 5 12 7 11 8 9 9 10 10 91 11 86 12
REMARK SMILES IDX 90 13 87 14 89 15 88 16 6 17 7 18 8 19 5 20 1 21 2 22 3 23
REMARK SMILES IDX 94 24 4 25 92 26 93 27 18 28 19 29 20 30 21 31 22 33 23 34
REMARK SMILES IDX 24 35 85 36 25 37 84 38 26 39 27 40 28 41 78 42 29 43 83 44
REMARK SMILES IDX 77 45 79 46 30 47 82 48 76 49 75 50 31 52 63 53 43 54 62 55
REMARK SMILES IDX 44 56 47 57 61 58 80 59 45 60 46 61 60 63 81 64 48 65 32 66
REMARK SMILES IDX 33 67 41 68 34 69 36 70 42 71 35 72 37 73 38 74 39 75 40 76
REMARK SMILES IDX 64 77 65 78 73 79 66 80 68 81 74 82 67 83 69 84 70 85 71 86
REMARK SMILES IDX 72 87 49 88 50 89 58 90 51 91 53 92 59 93 52 94 54 95 55 96
REMARK SMILES IDX 56 97 57 98
REMARK H PARENT 15 6 20 32 79 51 47 62
REMARK Flexibility Score: inf
ROOT
ATOM      1  C   UNL     1      -0.205  -7.674   1.881  1.00  0.00     0.023 C 
ENDROOT
BRANCH   1   2
ATOM      2  C   UNL     1       0.233  -7.932   0.448  1.00  0.00     0.116 C 
BRANCH   2   3
ATOM      3  N   UNL     1      -0.831  -8.627  -0.255  1.00  0.00    -0.356 N 
ATOM      4  C   UNL     1      -1.961  -8.089  -0.802  1.00  0.00     0.220 C 
ATOM      5  O   UNL     1      -2.916  -8.826  -1.051  1.00  0.00    -0.275 OA
ATOM      6  H   UNL     1      -0.725  -9.601  -0.349  1.00  0.00     0.163 HD
BRANCH   4   7
ATOM      7  C   UNL     1      -1.994  -6.623  -1.178  1.00  0.00     0.110 C 
BRANCH   7   8
ATOM      8  C   UNL     1      -3.062  -5.785  -0.451  1.00  0.00     0.051 C 
ATOM      9  N   UNL     1      -2.191  -3.508  -0.478  1.00  0.00    -0.265 N 
ATOM     10  C   UNL     1      -3.179  -4.421  -1.169  1.00  0.00     0.144 C 
ATOM     11  C   UNL     1      -2.053  -4.045   0.851  1.00  0.00     0.055 A 
ATOM     12  C   UNL     1      -2.663  -5.299   0.918  1.00  0.00    -0.018 A 
ATOM     13  C   UNL     1      -1.412  -3.501   1.953  1.00  0.00     0.027 A 
ATOM     14  C   UNL     1      -2.848  -5.917   2.143  1.00  0.00     0.006 A 
ATOM     15  C   UNL     1      -1.495  -4.177   3.172  1.00  0.00     0.002 A 
ATOM     16  C   UNL     1      -2.244  -5.356   3.275  1.00  0.00     0.000 A 
BRANCH   9  17
ATOM     17  S   UNL     1      -2.645  -1.856  -0.596  1.00  0.00     0.264 S 
ATOM     18  O   UNL     1      -3.540  -1.568   0.503  1.00  0.00    -0.201 OA
ATOM     19  O   UNL     1      -3.047  -1.615  -1.971  1.00  0.00    -0.201 OA
BRANCH  17  20
ATOM     20  C   UNL     1      -1.143  -0.918  -0.370  1.00  0.00     0.090 A 
ATOM     21  C   UNL     1       2.550   1.259   0.070  1.00  0.00     0.044 C 
ATOM     22  C   UNL     1       1.271   0.487  -0.065  1.00  0.00    -0.051 A 
ATOM     23  C   UNL     1       1.287  -0.881  -0.337  1.00  0.00     0.005 A 
ATOM     24  C   UNL     1       0.039   1.149   0.034  1.00  0.00     0.008 A 
ATOM     25  C   UNL     1       0.090  -1.578  -0.500  1.00  0.00     0.023 A 
ATOM     26  C   UNL     1      -1.183   0.465  -0.111  1.00  0.00    -0.030 A 
ATOM     27  C   UNL     1      -2.436   1.296  -0.061  1.00  0.00     0.046 C 
ENDBRANCH  17  20
ENDBRANCH   9  17
ENDBRANCH   7   8
ENDBRANCH   4   7
ENDBRANCH   2   3
ENDBRANCH   1   2
BRANCH   1  28
ATOM     28  C   UNL     1       0.204  -8.714   2.904  1.00  0.00     0.023 C 
BRANCH  28  29
ATOM     29  C   UNL     1       1.689  -8.749   3.183  1.00  0.00     0.116 C 
BRANCH  29  30
ATOM     30  N   UNL     1       2.231  -7.486   3.674  1.00  0.00    -0.352 N 
ATOM     31  C   UNL     1       3.125  -7.273   4.700  1.00  0.00     0.251 C 
ATOM     32  H   UNL     1       1.914  -6.677   3.210  1.00  0.00     0.163 HD
ATOM     33  O   UNL     1       3.416  -6.131   5.040  1.00  0.00    -0.269 OA
BRANCH  31  34
ATOM     34  C   UNL     1       3.683  -8.441   5.415  1.00  0.00     0.039 A 
ATOM     35  C   UNL     1       3.724  -8.433   6.810  1.00  0.00     0.014 A 
ATOM     36  C   UNL     1       4.056  -9.583   4.707  1.00  0.00     0.014 A 
ATOM     37  C   UNL     1       4.055  -9.608   7.488  1.00  0.00     0.010 A 
ATOM     38  C   UNL     1       4.218 -10.782   5.382  1.00  0.00     0.010 A 
ATOM     39  C   UNL     1       4.249 -10.808   6.781  1.00  0.00    -0.014 A 
BRANCH  39  40
ATOM     40  C   UNL     1       4.496 -12.092   7.485  1.00  0.00     0.031 A 
ATOM     41  C   UNL     1       5.731 -12.901   7.175  1.00  0.00     0.074 A 
ATOM     42  C   UNL     1       3.575 -12.568   8.348  1.00  0.00     0.049 A 
ATOM     43  N   UNL     1       6.119 -14.041   7.687  1.00  0.00    -0.248 NA
ATOM     44  C   UNL     1       6.629 -12.391   6.122  1.00  0.00     0.031 C 
ATOM     45  C   UNL     1       2.280 -11.945   8.639  1.00  0.00     0.029 A 
ATOM     46  N   UNL     1       3.581 -13.692   9.134  1.00  0.00    -0.354 N 
ATOM     47  C   UNL     1       7.271 -14.396   6.995  1.00  0.00     0.074 A 
ATOM     48  C   UNL     1       7.485 -13.391   5.981  1.00  0.00     0.031 C 
ATOM     49  C   UNL     1       1.639 -12.670   9.569  1.00  0.00     0.029 A 
ATOM     50  C   UNL     1       2.458 -13.825   9.919  1.00  0.00     0.049 A 
ATOM     51  H   UNL     1       4.320 -14.343   9.137  1.00  0.00     0.167 HD
ATOM     52  C   UNL     1       8.108 -15.437   7.211  1.00  0.00     0.034 A 
ATOM     53  C   UNL     1       2.133 -14.766  10.826  1.00  0.00     0.034 A 
ATOM     54  C   UNL     1       7.921 -16.402   8.258  1.00  0.00     0.049 A 
ATOM     55  C   UNL     1       3.119 -15.867  11.107  1.00  0.00     0.074 A 
ATOM     56  C   UNL     1       8.754 -17.441   8.631  1.00  0.00     0.029 A 
ATOM     57  N   UNL     1       6.820 -16.448   9.098  1.00  0.00    -0.354 N 
ATOM     58  N   UNL     1       4.288 -16.089  10.558  1.00  0.00    -0.248 NA
ATOM     59  C   UNL     1       2.760 -16.820  12.166  1.00  0.00     0.031 C 
ATOM     60  C   UNL     1       8.141 -18.134   9.680  1.00  0.00     0.029 A 
ATOM     61  C   UNL     1       6.947 -17.501   9.987  1.00  0.00     0.049 A 
ATOM     62  H   UNL     1       6.059 -15.823   9.068  1.00  0.00     0.167 HD
ATOM     63  C   UNL     1       4.822 -17.184  11.228  1.00  0.00     0.074 A 
ATOM     64  C   UNL     1       3.859 -17.558  12.244  1.00  0.00     0.031 C 
ATOM     65  C   UNL     1       5.995 -17.831  11.016  1.00  0.00     0.034 A 
BRANCH  52  66
ATOM     66  C   UNL     1       9.329 -15.547   6.333  1.00  0.00     0.023 A 
ATOM     67  C   UNL     1      10.360 -14.588   6.443  1.00  0.00     0.012 A 
ATOM     68  C   UNL     1       9.478 -16.615   5.429  1.00  0.00     0.148 A 
ATOM     69  C   UNL     1      11.495 -14.665   5.638  1.00  0.00     0.002 A 
ATOM     70  C   UNL     1      10.637 -16.716   4.668  1.00  0.00     0.091 A 
ATOM     71  F   UNL     1       8.481 -17.504   5.320  1.00  0.00    -0.205 F 
ATOM     72  C   UNL     1      11.639 -15.735   4.760  1.00  0.00     0.022 A 
BRANCH  70  73
ATOM     73  S   UNL     1      10.959 -18.099   3.569  1.00  0.00     0.127 S 
ATOM     74  O   UNL     1      10.894 -17.455   2.258  1.00  0.00    -0.237 OA
ATOM     75  O   UNL     1      12.302 -18.510   3.981  1.00  0.00    -0.237 OA
ATOM     76  O   UNL     1       9.914 -19.078   3.835  1.00  0.00    -0.744 OA
ENDBRANCH  70  73
ENDBRANCH  52  66
BRANCH  53  77
ATOM     77  C   UNL     1       0.858 -14.660  11.593  1.00  0.00     0.023 A 
ATOM     78  C   UNL     1       0.897 -14.363  12.970  1.00  0.00     0.012 A 
ATOM     79  C   UNL     1      -0.389 -14.830  10.964  1.00  0.00     0.148 A 
ATOM     80  C   UNL     1      -0.281 -14.278  13.714  1.00  0.00     0.002 A 
ATOM     81  C   UNL     1      -1.561 -14.685  11.698  1.00  0.00     0.091 A 
ATOM     82  F   UNL     1      -0.406 -15.119   9.655  1.00  0.00    -0.205 F 
ATOM     83  C   UNL     1      -1.509 -14.430  13.077  1.00  0.00     0.022 A 
BRANCH  81  84
ATOM     84  S   UNL     1      -3.186 -14.729  10.935  1.00  0.00     0.127 S 
ATOM     85  O   UNL     1      -3.725 -15.985  11.451  1.00  0.00    -0.237 OA
ATOM     86  O   UNL     1      -3.807 -13.521  11.480  1.00  0.00    -0.237 OA
ATOM     87  O   UNL     1      -2.947 -14.684   9.499  1.00  0.00    -0.744 OA
ENDBRANCH  81  84
ENDBRANCH  53  77
BRANCH  65  88
ATOM     88  C   UNL     1       6.320 -18.985  11.928  1.00  0.00     0.023 A 
ATOM     89  C   UNL     1       5.585 -20.183  11.842  1.00  0.00     0.012 A 
ATOM     90  C   UNL     1       7.385 -18.891  12.845  1.00  0.00     0.148 A 
ATOM     91  C   UNL     1       5.868 -21.250  12.693  1.00  0.00     0.002 A 
ATOM     92  C   UNL     1       7.699 -19.979  13.649  1.00  0.00     0.091 A 
ATOM     93  F   UNL     1       8.064 -17.737  12.924  1.00  0.00    -0.205 F 
ATOM     94  C   UNL     1       6.930 -21.152  13.588  1.00  0.00     0.022 A 
BRANCH  92  95
ATOM     95  S   UNL     1       9.115 -19.975  14.753  1.00  0.00     0.127 S 
ATOM     96  O   UNL     1       8.476 -19.808  16.057  1.00  0.00    -0.237 OA
ATOM     97  O   UNL     1       9.694 -21.299  14.521  1.00  0.00    -0.237 OA
ATOM     98  O   UNL     1       9.956 -18.867  14.319  1.00  0.00    -0.744 OA
ENDBRANCH  92  95
ENDBRANCH  65  88
ENDBRANCH  39  40
ENDBRANCH  31  34
ENDBRANCH  29  30
ENDBRANCH  28  29
ENDBRANCH   1  28
TORSDOF 17
