REMARK SMILES CCOc1cc(N2CCOCC2)ccc1[C@H]([NH3+])C(=O)NCCCCNC(=O)c1ccc(-c2c3nc(c(-c4cccc(S(=O)(=O)[O-])c4F)c4ccc([nH]4)c(-c4cccc(S(=O)(=O)[O-])c4F)c4nc(c(-c5cccc(S(=O)(=O)[O-])c5F)c5ccc2[nH]5)C=C4)C=C3)cc1
REMARK SMILES IDX 22 1 21 2 20 3 18 4 19 5 16 7 15 8 4 9 5 10 6 11 14 12 13 13
REMARK SMILES IDX 3 14 2 15 1 16 7 17 8 18 12 19 9 20 11 21 10 22 17 23 23 27
REMARK SMILES IDX 24 28 25 29 26 30 27 32 28 33 29 34 90 35 30 36 89 37 31 38
REMARK SMILES IDX 32 39 33 40 83 41 34 42 88 43 82 44 84 45 35 46 87 47 81 48
REMARK SMILES IDX 80 49 36 51 68 52 48 53 67 54 49 55 52 56 66 57 85 58 50 59
REMARK SMILES IDX 51 60 65 62 86 63 53 64 37 65 38 66 46 67 39 68 41 69 47 70
REMARK SMILES IDX 40 71 42 72 43 73 44 74 45 75 69 76 70 77 78 78 71 79 73 80
REMARK SMILES IDX 79 81 72 82 74 83 75 84 76 85 77 86 54 87 55 88 63 89 56 90
REMARK SMILES IDX 58 91 64 92 57 93 59 94 60 95 61 96 62 97
REMARK H PARENT 20 6 17 24 17 25 17 26 25 31 84 50 52 61
REMARK Flexibility Score: inf
ROOT
ATOM      1  C   UNL     1       6.926  -0.952  -1.134  1.00  0.00     0.023 C 
ENDROOT
BRANCH   1   2
ATOM      2  C   UNL     1       5.563  -1.155  -0.477  1.00  0.00     0.116 C 
BRANCH   2   3
ATOM      3  N   UNL     1       4.629  -0.119  -0.886  1.00  0.00    -0.351 N 
ATOM      4  C   UNL     1       3.272  -0.039  -0.786  1.00  0.00     0.283 C 
ATOM      5  O   UNL     1       2.750   1.006  -1.197  1.00  0.00    -0.268 OA
ATOM      6  H   UNL     1       5.051   0.663  -1.310  1.00  0.00     0.163 HD
BRANCH   4   7
ATOM      7  C   UNL     1       2.377  -1.221  -0.366  1.00  0.00     0.306 C 
BRANCH   7   8
ATOM      8  C   UNL     1       2.543  -1.865   1.002  1.00  0.00     0.061 A 
ATOM      9  C   UNL     1       3.313  -1.379   2.067  1.00  0.00     0.131 A 
ATOM     10  C   UNL     1       3.603  -2.211   3.167  1.00  0.00     0.072 A 
ATOM     11  C   UNL     1       3.097  -3.520   3.239  1.00  0.00     0.040 A 
ATOM     12  C   UNL     1       1.860  -3.078   1.208  1.00  0.00     0.016 A 
ATOM     13  C   UNL     1       2.140  -3.892   2.298  1.00  0.00     0.027 A 
BRANCH   9  14
ATOM     14  O   UNL     1       4.021  -0.220   1.922  1.00  0.00    -0.493 OA
BRANCH  14  15
ATOM     15  C   UNL     1       3.530   0.917   2.633  1.00  0.00     0.226 C 
ATOM     16  C   UNL     1       3.706   2.135   1.732  1.00  0.00     0.049 C 
ENDBRANCH  14  15
ENDBRANCH   9  14
BRANCH  11  17
ATOM     17  N   UNL     1       3.629  -4.447   4.117  1.00  0.00    -0.367 N 
ATOM     18  C   UNL     1       4.019  -5.778   3.615  1.00  0.00     0.145 C 
ATOM     19  C   UNL     1       3.312  -4.410   5.546  1.00  0.00     0.145 C 
ATOM     20  C   UNL     1       2.997  -6.844   4.041  1.00  0.00     0.181 C 
ATOM     21  C   UNL     1       2.306  -5.529   5.882  1.00  0.00     0.181 C 
ATOM     22  O   UNL     1       2.776  -6.825   5.461  1.00  0.00    -0.378 OA
ENDBRANCH  11  17
ENDBRANCH   7   8
BRANCH   7  23
ATOM     23  N   UNL     1       2.430  -2.241  -1.457  1.00  0.00    -0.343 N 
ATOM     24  H   UNL     1       3.375  -2.619  -1.524  1.00  0.00     0.345 HD
ATOM     25  H   UNL     1       2.175  -1.804  -2.343  1.00  0.00     0.345 HD
ATOM     26  H   UNL     1       1.776  -2.995  -1.250  1.00  0.00     0.345 HD
ENDBRANCH   7  23
ENDBRANCH   4   7
ENDBRANCH   2   3
ENDBRANCH   1   2
BRANCH   1  27
ATOM     27  C   UNL     1       7.714   0.243  -0.577  1.00  0.00     0.023 C 
BRANCH  27  28
ATOM     28  C   UNL     1       8.175   0.101   0.875  1.00  0.00     0.116 C 
BRANCH  28  29
ATOM     29  N   UNL     1       9.026  -1.063   1.069  1.00  0.00    -0.352 N 
ATOM     30  C   UNL     1      10.367  -1.149   1.351  1.00  0.00     0.251 C 
ATOM     31  H   UNL     1       8.566  -1.930   0.985  1.00  0.00     0.163 HD
ATOM     32  O   UNL     1      10.940  -2.229   1.228  1.00  0.00    -0.269 OA
BRANCH  30  33
ATOM     33  C   UNL     1      11.126   0.040   1.802  1.00  0.00     0.039 A 
ATOM     34  C   UNL     1      12.429   0.229   1.330  1.00  0.00     0.014 A 
ATOM     35  C   UNL     1      10.589   0.930   2.734  1.00  0.00     0.014 A 
ATOM     36  C   UNL     1      13.172   1.333   1.758  1.00  0.00     0.010 A 
ATOM     37  C   UNL     1      11.301   2.071   3.099  1.00  0.00     0.010 A 
ATOM     38  C   UNL     1      12.607   2.277   2.630  1.00  0.00    -0.014 A 
BRANCH  38  39
ATOM     39  C   UNL     1      13.371   3.474   3.075  1.00  0.00     0.031 A 
ATOM     40  C   UNL     1      13.692   3.672   4.533  1.00  0.00     0.074 A 
ATOM     41  C   UNL     1      13.713   4.421   2.179  1.00  0.00     0.049 A 
ATOM     42  N   UNL     1      14.294   4.676   5.117  1.00  0.00    -0.248 NA
ATOM     43  C   UNL     1      13.257   2.615   5.462  1.00  0.00     0.031 C 
ATOM     44  C   UNL     1      13.399   4.385   0.749  1.00  0.00     0.029 A 
ATOM     45  N   UNL     1      14.375   5.612   2.343  1.00  0.00    -0.354 N 
ATOM     46  C   UNL     1      14.278   4.392   6.478  1.00  0.00     0.074 A 
ATOM     47  C   UNL     1      13.573   3.139   6.637  1.00  0.00     0.031 C 
ATOM     48  C   UNL     1      13.866   5.501   0.168  1.00  0.00     0.029 A 
ATOM     49  C   UNL     1      14.485   6.346   1.185  1.00  0.00     0.049 A 
ATOM     50  H   UNL     1      14.737   5.913   3.208  1.00  0.00     0.167 HD
ATOM     51  C   UNL     1      14.824   5.091   7.502  1.00  0.00     0.034 A 
ATOM     52  C   UNL     1      15.013   7.567   0.967  1.00  0.00     0.034 A 
ATOM     53  C   UNL     1      15.555   6.320   7.338  1.00  0.00     0.049 A 
ATOM     54  C   UNL     1      15.646   8.308   2.113  1.00  0.00     0.074 A 
ATOM     55  C   UNL     1      16.209   7.066   8.303  1.00  0.00     0.029 A 
ATOM     56  N   UNL     1      15.724   6.986   6.135  1.00  0.00    -0.354 N 
ATOM     57  N   UNL     1      15.744   7.954   3.371  1.00  0.00    -0.248 NA
ATOM     58  C   UNL     1      16.280   9.598   1.802  1.00  0.00     0.031 C 
ATOM     59  C   UNL     1      16.751   8.199   7.686  1.00  0.00     0.029 A 
ATOM     60  C   UNL     1      16.469   8.137   6.331  1.00  0.00     0.049 A 
ATOM     61  H   UNL     1      15.367   6.686   5.268  1.00  0.00     0.167 HD
ATOM     62  C   UNL     1      16.487   8.952   3.992  1.00  0.00     0.074 A 
ATOM     63  C   UNL     1      16.826   9.918   2.967  1.00  0.00     0.031 C 
ATOM     64  C   UNL     1      16.849   9.062   5.294  1.00  0.00     0.034 A 
BRANCH  51  65
ATOM     65  C   UNL     1      14.691   4.518   8.890  1.00  0.00     0.023 A 
ATOM     66  C   UNL     1      15.399   3.348   9.233  1.00  0.00     0.012 A 
ATOM     67  C   UNL     1      13.908   5.161   9.870  1.00  0.00     0.148 A 
ATOM     68  C   UNL     1      15.298   2.802  10.512  1.00  0.00     0.002 A 
ATOM     69  C   UNL     1      13.852   4.639  11.157  1.00  0.00     0.091 A 
ATOM     70  F   UNL     1      13.227   6.262   9.524  1.00  0.00    -0.205 F 
ATOM     71  C   UNL     1      14.533   3.453  11.476  1.00  0.00     0.022 A 
BRANCH  69  72
ATOM     72  S   UNL     1      12.963   5.446  12.493  1.00  0.00     0.127 S 
ATOM     73  O   UNL     1      11.840   4.530  12.696  1.00  0.00    -0.237 OA
ATOM     74  O   UNL     1      13.954   5.442  13.569  1.00  0.00    -0.237 OA
ATOM     75  O   UNL     1      12.608   6.769  11.999  1.00  0.00    -0.744 OA
ENDBRANCH  69  72
ENDBRANCH  51  65
BRANCH  52  76
ATOM     76  C   UNL     1      15.017   8.139  -0.409  1.00  0.00     0.023 A 
ATOM     77  C   UNL     1      16.234   8.259  -1.109  1.00  0.00     0.012 A 
ATOM     78  C   UNL     1      13.821   8.538  -1.037  1.00  0.00     0.148 A 
ATOM     79  C   UNL     1      16.265   8.799  -2.395  1.00  0.00     0.002 A 
ATOM     80  C   UNL     1      13.852   9.022  -2.340  1.00  0.00     0.091 A 
ATOM     81  F   UNL     1      12.675   8.422  -0.351  1.00  0.00    -0.205 F 
ATOM     82  C   UNL     1      15.074   9.171  -3.014  1.00  0.00     0.022 A 
BRANCH  80  83
ATOM     83  S   UNL     1      12.360   9.402  -3.264  1.00  0.00     0.127 S 
ATOM     84  O   UNL     1      12.446  10.854  -3.387  1.00  0.00    -0.237 OA
ATOM     85  O   UNL     1      12.579   8.662  -4.506  1.00  0.00    -0.237 OA
ATOM     86  O   UNL     1      11.256   8.901  -2.453  1.00  0.00    -0.744 OA
ENDBRANCH  80  83
ENDBRANCH  52  76
BRANCH  64  87
ATOM     87  C   UNL     1      17.707  10.237   5.687  1.00  0.00     0.023 A 
ATOM     88  C   UNL     1      17.163  11.536   5.721  1.00  0.00     0.012 A 
ATOM     89  C   UNL     1      19.043  10.037   6.092  1.00  0.00     0.148 A 
ATOM     90  C   UNL     1      17.944  12.622   6.116  1.00  0.00     0.002 A 
ATOM     91  C   UNL     1      19.799  11.115   6.535  1.00  0.00     0.091 A 
ATOM     92  F   UNL     1      19.550   8.797   6.034  1.00  0.00    -0.205 F 
ATOM     93  C   UNL     1      19.256  12.410   6.534  1.00  0.00     0.022 A 
BRANCH  91  94
ATOM     94  S   UNL     1      21.462  10.921   7.186  1.00  0.00     0.127 S 
ATOM     95  O   UNL     1      22.271  11.489   6.109  1.00  0.00    -0.237 OA
ATOM     96  O   UNL     1      21.414  11.729   8.405  1.00  0.00    -0.237 OA
ATOM     97  O   UNL     1      21.639   9.494   7.415  1.00  0.00    -0.744 OA
ENDBRANCH  91  94
ENDBRANCH  64  87
ENDBRANCH  38  39
ENDBRANCH  30  33
ENDBRANCH  28  29
ENDBRANCH  27  28
ENDBRANCH   1  27
TORSDOF 19
