REMARK SMILES C[N@H+](CC(=O)NCCCCNC(=O)c1ccc(-c2c3nc(c(-c4cccc(S(=O)(=O)[O-])c4F)c4ccc([nH]4)c(-c4cccc(S(=O)(=O)[O-])c4F)c4nc(c(-c5cccc(S(=O)(=O)[O-])c5F)c5ccc2[nH]5)C=C4)C=C3)cc1)Cc1noc(-c2ccccc2Cl)n1
REMARK SMILES IDX 8 1 7 2 6 3 4 4 5 5 3 7 2 8 1 9 77 11 78 12 79 13 89 14
REMARK SMILES IDX 80 15 81 16 82 17 83 18 87 19 84 20 86 21 88 22 85 23 9 24
REMARK SMILES IDX 10 25 11 26 12 27 13 29 14 30 15 31 76 32 16 33 75 34 17 35
REMARK SMILES IDX 18 36 19 37 69 38 20 39 74 40 68 41 70 42 21 43 73 44 67 45
REMARK SMILES IDX 66 46 22 48 54 49 34 50 53 51 35 52 38 53 52 54 71 55 36 56
REMARK SMILES IDX 37 57 51 59 72 60 39 61 23 62 24 63 32 64 25 65 27 66 33 67
REMARK SMILES IDX 26 68 28 69 29 70 30 71 31 72 55 73 56 74 64 75 57 76 59 77
REMARK SMILES IDX 65 78 58 79 60 80 61 81 62 82 63 83 40 84 41 85 49 86 42 87
REMARK SMILES IDX 44 88 50 89 43 90 45 91 46 92 47 93 48 94
REMARK H PARENT 6 6 2 10 11 28 70 47 38 58
REMARK Flexibility Score: inf
ROOT
ATOM      1  C   UNL     1       1.119  -0.859  -1.824  1.00  0.00     0.023 C 
ENDROOT
BRANCH   1   2
ATOM      2  C   UNL     1      -0.069   0.112  -1.737  1.00  0.00     0.116 C 
BRANCH   2   3
ATOM      3  N   UNL     1      -1.200  -0.268  -0.911  1.00  0.00    -0.351 N 
ATOM      4  C   UNL     1      -1.468  -0.014   0.408  1.00  0.00     0.275 C 
ATOM      5  O   UNL     1      -2.588  -0.262   0.864  1.00  0.00    -0.269 OA
ATOM      6  H   UNL     1      -1.888  -0.796  -1.377  1.00  0.00     0.163 HD
BRANCH   4   7
ATOM      7  C   UNL     1      -0.398   0.627   1.281  1.00  0.00     0.363 C 
BRANCH   7   8
ATOM      8  N   UNL     1       0.845  -0.160   1.246  1.00  0.00    -0.323 N 
ATOM      9  C   UNL     1       2.019   0.692   1.387  1.00  0.00     0.333 C 
ATOM     10  H   UNL     1       0.874  -0.592   0.323  1.00  0.00     0.348 HD
BRANCH   8  11
ATOM     11  C   UNL     1       0.865  -1.280   2.211  1.00  0.00     0.345 C 
BRANCH  11  12
ATOM     12  C   UNL     1       0.024  -2.490   1.875  1.00  0.00     0.226 A 
ATOM     13  N   UNL     1      -0.087  -3.480   2.774  1.00  0.00    -0.056 NA
ATOM     14  N   UNL     1      -0.649  -2.734   0.694  1.00  0.00    -0.186 NA
ATOM     15  O   UNL     1      -0.923  -4.397   2.147  1.00  0.00    -0.334 OA
ATOM     16  C   UNL     1      -1.250  -3.887   0.914  1.00  0.00     0.259 A 
BRANCH  16  17
ATOM     17  C   UNL     1      -2.128  -4.738   0.090  1.00  0.00     0.058 A 
ATOM     18  C   UNL     1      -2.476  -6.023   0.562  1.00  0.00     0.015 A 
ATOM     19  C   UNL     1      -2.646  -4.379  -1.168  1.00  0.00     0.053 A 
ATOM     20  C   UNL     1      -3.234  -6.917  -0.204  1.00  0.00     0.001 A 
ATOM     21  C   UNL     1      -3.357  -5.297  -1.959  1.00  0.00     0.021 A 
ATOM     22  Cl  UNL     1      -2.579  -2.794  -1.826  1.00  0.00    -0.083 Cl
ATOM     23  C   UNL     1      -3.646  -6.566  -1.480  1.00  0.00     0.002 A 
ENDBRANCH  16  17
ENDBRANCH  11  12
ENDBRANCH   8  11
ENDBRANCH   7   8
ENDBRANCH   4   7
ENDBRANCH   2   3
ENDBRANCH   1   2
BRANCH   1  24
ATOM     24  C   UNL     1       0.897  -2.256  -2.395  1.00  0.00     0.023 C 
BRANCH  24  25
ATOM     25  C   UNL     1       0.219  -2.342  -3.750  1.00  0.00     0.116 C 
BRANCH  25  26
ATOM     26  N   UNL     1       1.004  -1.784  -4.836  1.00  0.00    -0.352 N 
ATOM     27  C   UNL     1       1.204  -2.278  -6.106  1.00  0.00     0.251 C 
ATOM     28  H   UNL     1       1.456  -0.932  -4.636  1.00  0.00     0.163 HD
ATOM     29  O   UNL     1       1.938  -1.677  -6.879  1.00  0.00    -0.269 OA
BRANCH  27  30
ATOM     30  C   UNL     1       0.576  -3.559  -6.524  1.00  0.00     0.039 A 
ATOM     31  C   UNL     1       1.359  -4.483  -7.224  1.00  0.00     0.014 A 
ATOM     32  C   UNL     1      -0.758  -3.861  -6.237  1.00  0.00     0.014 A 
ATOM     33  C   UNL     1       0.827  -5.728  -7.577  1.00  0.00     0.010 A 
ATOM     34  C   UNL     1      -1.264  -5.129  -6.523  1.00  0.00     0.010 A 
ATOM     35  C   UNL     1      -0.480  -6.076  -7.202  1.00  0.00    -0.014 A 
BRANCH  35  36
ATOM     36  C   UNL     1      -1.052  -7.412  -7.526  1.00  0.00     0.031 A 
ATOM     37  C   UNL     1      -2.246  -7.519  -8.439  1.00  0.00     0.074 A 
ATOM     38  C   UNL     1      -0.551  -8.521  -6.946  1.00  0.00     0.049 A 
ATOM     39  N   UNL     1      -2.936  -8.579  -8.776  1.00  0.00    -0.248 NA
ATOM     40  C   UNL     1      -2.747  -6.267  -9.031  1.00  0.00     0.031 C 
ATOM     41  C   UNL     1       0.561  -8.553  -5.994  1.00  0.00     0.029 A 
ATOM     42  N   UNL     1      -0.930  -9.838  -7.053  1.00  0.00    -0.354 N 
ATOM     43  C   UNL     1      -3.969  -8.119  -9.585  1.00  0.00     0.074 A 
ATOM     44  C   UNL     1      -3.837  -6.681  -9.661  1.00  0.00     0.031 C 
ATOM     45  C   UNL     1       0.777  -9.822  -5.609  1.00  0.00     0.029 A 
ATOM     46  C   UNL     1      -0.196 -10.693  -6.263  1.00  0.00     0.049 A 
ATOM     47  H   UNL     1      -1.659 -10.142  -7.641  1.00  0.00     0.167 HD
ATOM     48  C   UNL     1      -4.921  -8.829 -10.235  1.00  0.00     0.034 A 
ATOM     49  C   UNL     1      -0.296 -12.025  -6.082  1.00  0.00     0.034 A 
ATOM     50  C   UNL     1      -5.018 -10.263 -10.210  1.00  0.00     0.049 A 
ATOM     51  C   UNL     1      -1.337 -12.795  -6.853  1.00  0.00     0.074 A 
ATOM     52  C   UNL     1      -5.909 -11.077 -10.888  1.00  0.00     0.029 A 
ATOM     53  N   UNL     1      -4.191 -11.099  -9.477  1.00  0.00    -0.354 N 
ATOM     54  N   UNL     1      -2.219 -12.354  -7.716  1.00  0.00    -0.248 NA
ATOM     55  C   UNL     1      -1.373 -14.252  -6.653  1.00  0.00     0.031 C 
ATOM     56  C   UNL     1      -5.623 -12.406 -10.560  1.00  0.00     0.029 A 
ATOM     57  C   UNL     1      -4.545 -12.420  -9.690  1.00  0.00     0.049 A 
ATOM     58  H   UNL     1      -3.460 -10.798  -8.891  1.00  0.00     0.167 HD
ATOM     59  C   UNL     1      -2.880 -13.479  -8.196  1.00  0.00     0.074 A 
ATOM     60  C   UNL     1      -2.289 -14.625  -7.537  1.00  0.00     0.031 C 
ATOM     61  C   UNL     1      -3.897 -13.555  -9.089  1.00  0.00     0.034 A 
BRANCH  48  62
ATOM     62  C   UNL     1      -5.898  -8.068 -11.092  1.00  0.00     0.023 A 
ATOM     63  C   UNL     1      -5.460  -7.516 -12.313  1.00  0.00     0.012 A 
ATOM     64  C   UNL     1      -7.254  -7.952 -10.727  1.00  0.00     0.148 A 
ATOM     65  C   UNL     1      -6.347  -6.832 -13.143  1.00  0.00     0.002 A 
ATOM     66  C   UNL     1      -8.142  -7.306 -11.581  1.00  0.00     0.091 A 
ATOM     67  F   UNL     1      -7.648  -8.466  -9.554  1.00  0.00    -0.205 F 
ATOM     68  C   UNL     1      -7.688  -6.737 -12.782  1.00  0.00     0.022 A 
BRANCH  66  69
ATOM     69  S   UNL     1      -9.903  -7.195 -11.245  1.00  0.00     0.127 S 
ATOM     70  O   UNL     1     -10.053  -5.776 -10.926  1.00  0.00    -0.237 OA
ATOM     71  O   UNL     1     -10.487  -7.597 -12.525  1.00  0.00    -0.237 OA
ATOM     72  O   UNL     1     -10.160  -8.114 -10.145  1.00  0.00    -0.744 OA
ENDBRANCH  66  69
ENDBRANCH  48  62
BRANCH  49  73
ATOM     73  C   UNL     1       0.664 -12.737  -5.190  1.00  0.00     0.023 A 
ATOM     74  C   UNL     1       1.626 -13.594  -5.760  1.00  0.00     0.012 A 
ATOM     75  C   UNL     1       0.635 -12.572  -3.792  1.00  0.00     0.148 A 
ATOM     76  C   UNL     1       2.518 -14.301  -4.953  1.00  0.00     0.002 A 
ATOM     77  C   UNL     1       1.562 -13.239  -2.997  1.00  0.00     0.091 A 
ATOM     78  F   UNL     1      -0.298 -11.767  -3.265  1.00  0.00    -0.205 F 
ATOM     79  C   UNL     1       2.493 -14.117  -3.573  1.00  0.00     0.022 A 
BRANCH  77  80
ATOM     80  S   UNL     1       1.675 -12.963  -1.226  1.00  0.00     0.127 S 
ATOM     81  O   UNL     1       1.052 -14.171  -0.693  1.00  0.00    -0.237 OA
ATOM     82  O   UNL     1       3.122 -12.874  -1.021  1.00  0.00    -0.237 OA
ATOM     83  O   UNL     1       0.961 -11.716  -0.982  1.00  0.00    -0.744 OA
ENDBRANCH  77  80
ENDBRANCH  49  73
BRANCH  61  84
ATOM     84  C   UNL     1      -4.409 -14.922  -9.459  1.00  0.00     0.023 A 
ATOM     85  C   UNL     1      -5.210 -15.640  -8.550  1.00  0.00     0.012 A 
ATOM     86  C   UNL     1      -4.174 -15.451 -10.744  1.00  0.00     0.148 A 
ATOM     87  C   UNL     1      -5.749 -16.876  -8.905  1.00  0.00     0.002 A 
ATOM     88  C   UNL     1      -4.752 -16.662 -11.106  1.00  0.00     0.091 A 
ATOM     89  F   UNL     1      -3.393 -14.760 -11.587  1.00  0.00    -0.205 F 
ATOM     90  C   UNL     1      -5.531 -17.380 -10.185  1.00  0.00     0.022 A 
BRANCH  88  91
ATOM     91  S   UNL     1      -4.603 -17.340 -12.764  1.00  0.00     0.127 S 
ATOM     92  O   UNL     1      -3.660 -18.437 -12.553  1.00  0.00    -0.237 OA
ATOM     93  O   UNL     1      -5.975 -17.761 -13.052  1.00  0.00    -0.237 OA
ATOM     94  O   UNL     1      -4.120 -16.249 -13.600  1.00  0.00    -0.744 OA
ENDBRANCH  88  91
ENDBRANCH  61  84
ENDBRANCH  35  36
ENDBRANCH  27  30
ENDBRANCH  25  26
ENDBRANCH  24  25
ENDBRANCH   1  24
TORSDOF 18
