REMARK SMILES CCCSc1nc2n(n1)[C@@H](c1ccc(C(=O)NCCCCNC(=O)c3ccc(-c4c5nc(c(-c6cccc(S(=O)(=O)[O-])c6F)c6ccc([nH]6)c(-c6cccc(S(=O)(=O)[O-])c6F)c6nc(c(-c7cccc(S(=O)(=O)[O-])c7F)c7ccc4[nH]7)C=C6)C=C5)cc3)cc1)C(C(=O)Nc1cccc(C)c1)=C(C)N2
REMARK SMILES IDX 19 1 18 2 17 3 15 4 16 5 14 7 11 8 12 9 89 10 13 11 88 12
REMARK SMILES IDX 10 13 5 14 6 15 9 16 7 17 8 18 103 19 101 20 90 22 102 23
REMARK SMILES IDX 4 24 3 25 2 26 1 27 91 28 92 29 93 30 94 32 95 33 100 34
REMARK SMILES IDX 96 35 98 36 97 37 99 38 20 39 21 40 22 41 23 42 24 44 25 45
REMARK SMILES IDX 26 46 87 47 27 48 86 49 28 50 29 51 30 52 80 53 31 54 85 55
REMARK SMILES IDX 79 56 81 57 32 58 84 59 78 60 77 61 33 63 65 64 45 65 64 66
REMARK SMILES IDX 46 67 49 68 63 69 82 70 47 71 48 72 62 74 83 75 50 76 34 77
REMARK SMILES IDX 35 78 43 79 36 80 38 81 44 82 37 83 39 84 40 85 41 86 42 87
REMARK SMILES IDX 66 88 67 89 75 90 68 91 70 92 76 93 69 94 71 95 72 96 73 97
REMARK SMILES IDX 74 98 51 99 52 100 60 101 53 102 55 103 61 104 54 105 56 106
REMARK SMILES IDX 57 107 58 108 59 109
REMARK H PARENT 17 6 103 21 93 31 22 43 81 62 49 73
REMARK Flexibility Score: inf
ROOT
ATOM      1  C   UNL     1       6.591  -9.872   3.696  1.00  0.00     0.023 C 
ENDROOT
BRANCH   1   2
ATOM      2  C   UNL     1       7.145  -8.443   3.653  1.00  0.00     0.116 C 
BRANCH   2   3
ATOM      3  N   UNL     1       7.385  -8.019   2.290  1.00  0.00    -0.352 N 
ATOM      4  C   UNL     1       6.622  -7.302   1.407  1.00  0.00     0.251 C 
ATOM      5  O   UNL     1       7.071  -7.101   0.279  1.00  0.00    -0.269 OA
ATOM      6  H   UNL     1       8.258  -8.298   1.931  1.00  0.00     0.163 HD
BRANCH   4   7
ATOM      7  C   UNL     1       5.301  -6.718   1.762  1.00  0.00     0.039 A 
ATOM      8  C   UNL     1       2.862  -5.394   2.392  1.00  0.00    -0.019 A 
ATOM      9  C   UNL     1       3.784  -4.848   1.476  1.00  0.00     0.007 A 
ATOM     10  C   UNL     1       3.159  -6.660   2.914  1.00  0.00     0.007 A 
ATOM     11  C   UNL     1       4.979  -5.499   1.164  1.00  0.00     0.014 A 
ATOM     12  C   UNL     1       4.361  -7.310   2.604  1.00  0.00     0.014 A 
BRANCH   8  13
ATOM     13  C   UNL     1       1.655  -4.590   2.946  1.00  0.00     0.179 C 
ATOM     14  C   UNL     1       0.625  -2.791   0.135  1.00  0.00     0.210 A 
ATOM     15  N   UNL     1       1.422  -1.844   0.716  1.00  0.00    -0.185 NA
ATOM     16  N   UNL     1       0.438  -3.909   0.854  1.00  0.00    -0.141 NA
ATOM     17  C   UNL     1       1.720  -2.369   1.866  1.00  0.00     0.227 A 
ATOM     18  N   UNL     1       1.191  -3.626   1.942  1.00  0.00    -0.218 N 
ATOM     19  N   UNL     1       2.510  -1.933   2.856  1.00  0.00    -0.328 N 
ATOM     20  C   UNL     1       2.702  -2.625   4.050  1.00  0.00     0.026 C 
ATOM     21  H   UNL     1       2.980  -1.077   2.733  1.00  0.00     0.169 HD
ATOM     22  C   UNL     1       2.100  -3.835   4.236  1.00  0.00     0.065 C 
ATOM     23  C   UNL     1       3.672  -1.935   4.971  1.00  0.00     0.065 C 
BRANCH  14  24
ATOM     24  S   UNL     1      -0.106  -2.541  -1.424  1.00  0.00    -0.084 SA
BRANCH  24  25
ATOM     25  C   UNL     1       0.815  -1.077  -2.013  1.00  0.00     0.078 C 
BRANCH  25  26
ATOM     26  C   UNL     1       0.211   0.270  -1.596  1.00  0.00     0.008 C 
ATOM     27  C   UNL     1       0.501   0.709  -0.169  1.00  0.00     0.005 C 
ENDBRANCH  25  26
ENDBRANCH  24  25
ENDBRANCH  14  24
BRANCH  22  28
ATOM     28  C   UNL     1       1.956  -4.674   5.481  1.00  0.00     0.255 C 
ATOM     29  O   UNL     1       1.694  -5.876   5.382  1.00  0.00    -0.269 OA
ATOM     30  N   UNL     1       2.095  -4.190   6.747  1.00  0.00    -0.322 N 
ATOM     31  H   UNL     1       2.362  -4.864   7.413  1.00  0.00     0.170 HD
BRANCH  30  32
ATOM     32  C   UNL     1       1.926  -2.903   7.263  1.00  0.00     0.041 A 
ATOM     33  C   UNL     1       2.772  -2.512   8.305  1.00  0.00     0.026 A 
ATOM     34  C   UNL     1       1.011  -2.000   6.724  1.00  0.00     0.029 A 
ATOM     35  C   UNL     1       2.806  -1.176   8.699  1.00  0.00     0.002 A 
ATOM     36  C   UNL     1       1.030  -0.659   7.126  1.00  0.00    -0.049 A 
ATOM     37  C   UNL     1       1.952  -0.250   8.099  1.00  0.00     0.003 A 
ATOM     38  C   UNL     1       0.158   0.348   6.439  1.00  0.00     0.044 C 
ENDBRANCH  30  32
ENDBRANCH  22  28
ENDBRANCH   8  13
ENDBRANCH   4   7
ENDBRANCH   2   3
ENDBRANCH   1   2
BRANCH   1  39
ATOM     39  C   UNL     1       7.591 -10.973   3.321  1.00  0.00     0.023 C 
BRANCH  39  40
ATOM     40  C   UNL     1       8.723 -11.169   4.321  1.00  0.00     0.116 C 
BRANCH  40  41
ATOM     41  N   UNL     1       8.230 -11.550   5.643  1.00  0.00    -0.352 N 
ATOM     42  C   UNL     1       8.903 -11.520   6.845  1.00  0.00     0.251 C 
ATOM     43  H   UNL     1       7.299 -11.869   5.679  1.00  0.00     0.163 HD
ATOM     44  O   UNL     1       8.523 -12.198   7.792  1.00  0.00    -0.269 OA
BRANCH  42  45
ATOM     45  C   UNL     1      10.087 -10.656   6.974  1.00  0.00     0.039 A 
ATOM     46  C   UNL     1      11.259 -11.143   7.555  1.00  0.00     0.014 A 
ATOM     47  C   UNL     1      10.023  -9.357   6.470  1.00  0.00     0.014 A 
ATOM     48  C   UNL     1      12.397 -10.344   7.541  1.00  0.00     0.010 A 
ATOM     49  C   UNL     1      11.174  -8.609   6.361  1.00  0.00     0.010 A 
ATOM     50  C   UNL     1      12.360  -9.086   6.915  1.00  0.00    -0.014 A 
BRANCH  50  51
ATOM     51  C   UNL     1      13.606  -8.352   6.696  1.00  0.00     0.031 A 
ATOM     52  C   UNL     1      14.670  -9.130   5.998  1.00  0.00     0.074 A 
ATOM     53  C   UNL     1      13.742  -7.025   6.901  1.00  0.00     0.049 A 
ATOM     54  N   UNL     1      15.813  -9.500   6.475  1.00  0.00    -0.248 NA
ATOM     55  C   UNL     1      14.380  -9.674   4.662  1.00  0.00     0.031 C 
ATOM     56  C   UNL     1      12.704  -6.062   7.281  1.00  0.00     0.029 A 
ATOM     57  N   UNL     1      14.819  -6.225   6.654  1.00  0.00    -0.354 N 
ATOM     58  C   UNL     1      16.485 -10.112   5.418  1.00  0.00     0.074 A 
ATOM     59  C   UNL     1      15.491 -10.368   4.409  1.00  0.00     0.031 C 
ATOM     60  C   UNL     1      13.119  -4.814   6.973  1.00  0.00     0.029 A 
ATOM     61  C   UNL     1      14.499  -4.875   6.529  1.00  0.00     0.049 A 
ATOM     62  H   UNL     1      15.738  -6.570   6.572  1.00  0.00     0.167 HD
ATOM     63  C   UNL     1      17.846 -10.120   5.357  1.00  0.00     0.034 A 
ATOM     64  C   UNL     1      15.292  -3.893   6.033  1.00  0.00     0.034 A 
ATOM     65  C   UNL     1      18.433  -9.784   6.632  1.00  0.00     0.049 A 
ATOM     66  C   UNL     1      16.690  -4.373   6.128  1.00  0.00     0.074 A 
ATOM     67  C   UNL     1      18.310 -10.267   7.921  1.00  0.00     0.029 A 
ATOM     68  N   UNL     1      19.006  -8.541   6.754  1.00  0.00    -0.354 N 
ATOM     69  N   UNL     1      17.312  -4.557   7.259  1.00  0.00    -0.248 NA
ATOM     70  C   UNL     1      17.262  -5.053   4.978  1.00  0.00     0.031 C 
ATOM     71  C   UNL     1      18.324  -9.103   8.745  1.00  0.00     0.029 A 
ATOM     72  C   UNL     1      18.536  -7.998   7.919  1.00  0.00     0.049 A 
ATOM     73  H   UNL     1      19.634  -8.121   6.124  1.00  0.00     0.167 HD
ATOM     74  C   UNL     1      18.034  -5.726   7.062  1.00  0.00     0.074 A 
ATOM     75  C   UNL     1      18.060  -5.916   5.612  1.00  0.00     0.031 C 
ATOM     76  C   UNL     1      18.281  -6.587   8.094  1.00  0.00     0.034 A 
BRANCH  63  77
ATOM     77  C   UNL     1      18.664 -10.045   4.082  1.00  0.00     0.023 A 
ATOM     78  C   UNL     1      20.068 -10.163   4.208  1.00  0.00     0.012 A 
ATOM     79  C   UNL     1      18.176  -9.579   2.840  1.00  0.00     0.148 A 
ATOM     80  C   UNL     1      20.938  -9.759   3.189  1.00  0.00     0.002 A 
ATOM     81  C   UNL     1      19.041  -9.258   1.800  1.00  0.00     0.091 A 
ATOM     82  F   UNL     1      16.878  -9.306   2.686  1.00  0.00    -0.205 F 
ATOM     83  C   UNL     1      20.424  -9.309   1.981  1.00  0.00     0.022 A 
BRANCH  81  84
ATOM     84  S   UNL     1      18.428  -8.726   0.197  1.00  0.00     0.127 S 
ATOM     85  O   UNL     1      18.726  -7.298   0.230  1.00  0.00    -0.237 OA
ATOM     86  O   UNL     1      19.254  -9.515  -0.716  1.00  0.00    -0.237 OA
ATOM     87  O   UNL     1      17.013  -9.087   0.183  1.00  0.00    -0.744 OA
ENDBRANCH  81  84
ENDBRANCH  63  77
BRANCH  64  88
ATOM     88  C   UNL     1      14.939  -2.659   5.290  1.00  0.00     0.023 A 
ATOM     89  C   UNL     1      15.904  -1.642   5.140  1.00  0.00     0.012 A 
ATOM     90  C   UNL     1      13.775  -2.588   4.493  1.00  0.00     0.148 A 
ATOM     91  C   UNL     1      15.740  -0.620   4.197  1.00  0.00     0.002 A 
ATOM     92  C   UNL     1      13.610  -1.562   3.566  1.00  0.00     0.091 A 
ATOM     93  F   UNL     1      12.873  -3.575   4.569  1.00  0.00    -0.205 F 
ATOM     94  C   UNL     1      14.598  -0.585   3.403  1.00  0.00     0.022 A 
BRANCH  92  95
ATOM     95  S   UNL     1      12.162  -1.472   2.502  1.00  0.00     0.127 S 
ATOM     96  O   UNL     1      11.840  -0.044   2.540  1.00  0.00    -0.237 OA
ATOM     97  O   UNL     1      12.693  -1.947   1.228  1.00  0.00    -0.237 OA
ATOM     98  O   UNL     1      11.159  -2.322   3.133  1.00  0.00    -0.744 OA
ENDBRANCH  92  95
ENDBRANCH  64  88
BRANCH  76  99
ATOM     99  C   UNL     1      18.001  -6.133   9.505  1.00  0.00     0.023 A 
ATOM    100  C   UNL     1      16.717  -5.736   9.934  1.00  0.00     0.012 A 
ATOM    101  C   UNL     1      19.016  -6.291  10.464  1.00  0.00     0.148 A 
ATOM    102  C   UNL     1      16.459  -5.479  11.283  1.00  0.00     0.002 A 
ATOM    103  C   UNL     1      18.743  -6.085  11.811  1.00  0.00     0.091 A 
ATOM    104  F   UNL     1      20.233  -6.670  10.044  1.00  0.00    -0.205 F 
ATOM    105  C   UNL     1      17.469  -5.669  12.224  1.00  0.00     0.022 A 
BRANCH 103 106
ATOM    106  S   UNL     1      19.964  -6.445  13.075  1.00  0.00     0.127 S 
ATOM    107  O   UNL     1      20.433  -5.109  13.435  1.00  0.00    -0.237 OA
ATOM    108  O   UNL     1      19.166  -7.111  14.106  1.00  0.00    -0.237 OA
ATOM    109  O   UNL     1      20.952  -7.309  12.441  1.00  0.00    -0.744 OA
ENDBRANCH 103 106
ENDBRANCH  76  99
ENDBRANCH  50  51
ENDBRANCH  42  45
ENDBRANCH  40  41
ENDBRANCH  39  40
ENDBRANCH   1  39
TORSDOF 20
