REMARK SMILES O=C(NCCCCNC(=O)[C@H](CO)NC(=O)[C@H](Cc1c[nH]c2ccccc12)NC(=O)[C@H](Cc1ccc(O)cc1)NC(=O)c1ccc(F)cc1)c1ccc(-c2c3nc(c(-c4cccc(S(=O)(=O)[O-])c4F)c4ccc([nH]4)c(-c4cccc(S(=O)(=O)[O-])c4F)c4nc(c(-c5cccc(S(=O)(=O)[O-])c5F)c5ccc2[nH]5)C=C4)C=C3)cc1
REMARK SMILES IDX 8 1 9 2 10 3 7 5 6 6 5 7 4 8 3 9 1 10 2 11 50 13 51 14
REMARK SMILES IDX 112 15 52 16 111 17 53 18 54 19 55 20 105 21 56 22 110 23
REMARK SMILES IDX 104 24 106 25 57 26 109 27 103 28 102 29 58 31 90 32 70 33
REMARK SMILES IDX 89 34 71 35 74 36 88 37 107 38 72 39 73 40 87 42 108 43
REMARK SMILES IDX 75 44 59 45 60 46 68 47 61 48 63 49 69 50 62 51 64 52 65 53
REMARK SMILES IDX 66 54 67 55 91 56 92 57 100 58 93 59 95 60 101 61 94 62
REMARK SMILES IDX 96 63 97 64 98 65 99 66 76 67 77 68 85 69 78 70 80 71 86 72
REMARK SMILES IDX 79 73 81 74 82 75 83 76 84 77 11 78 14 79 15 80 16 82 17 83
REMARK SMILES IDX 28 84 29 85 30 87 31 88 40 89 41 90 42 92 43 93 44 94 49 95
REMARK SMILES IDX 45 96 48 97 46 98 47 99 32 100 33 101 34 102 39 103 35 104
REMARK SMILES IDX 38 105 36 106 37 107 18 109 19 110 20 111 27 112 21 113
REMARK SMILES IDX 22 114 26 115 23 117 25 118 24 119 12 120 13 121
REMARK H PARENT 8 4 3 12 106 30 74 41 14 81 28 86 40 91 37 108 21 116 13 122
REMARK Flexibility Score: inf
ROOT
ATOM      1  N   UNL     1      11.088 -11.062  -3.126  1.00  0.00    -0.354 N 
ATOM      2  C   UNL     1      10.507  -9.896  -3.564  1.00  0.00     0.244 C 
ATOM      3  O   UNL     1      11.205  -8.885  -3.654  1.00  0.00    -0.273 OA
ATOM      4  H   UNL     1      12.071 -11.082  -3.165  1.00  0.00     0.163 HD
ENDROOT
BRANCH   1   5
ATOM      5  C   UNL     1      10.460 -12.271  -2.613  1.00  0.00     0.116 C 
BRANCH   5   6
ATOM      6  C   UNL     1      10.576 -13.477  -3.542  1.00  0.00     0.023 C 
BRANCH   6   7
ATOM      7  C   UNL     1      11.973 -14.057  -3.657  1.00  0.00     0.023 C 
BRANCH   7   8
ATOM      8  C   UNL     1      12.563 -14.486  -2.330  1.00  0.00     0.116 C 
BRANCH   8   9
ATOM      9  N   UNL     1      11.781 -15.527  -1.672  1.00  0.00    -0.352 N 
ATOM     10  O   UNL     1      11.441 -17.604  -0.826  1.00  0.00    -0.269 OA
ATOM     11  C   UNL     1      12.226 -16.745  -1.210  1.00  0.00     0.251 C 
ATOM     12  H   UNL     1      10.824 -15.335  -1.543  1.00  0.00     0.163 HD
BRANCH  11  13
ATOM     13  C   UNL     1      13.682 -16.982  -1.215  1.00  0.00     0.039 A 
ATOM     14  C   UNL     1      14.521 -15.983  -0.715  1.00  0.00     0.014 A 
ATOM     15  C   UNL     1      14.209 -18.119  -1.826  1.00  0.00     0.014 A 
ATOM     16  C   UNL     1      15.871 -16.025  -1.007  1.00  0.00     0.010 A 
ATOM     17  C   UNL     1      15.592 -18.222  -1.993  1.00  0.00     0.010 A 
ATOM     18  C   UNL     1      16.430 -17.160  -1.617  1.00  0.00    -0.014 A 
BRANCH  18  19
ATOM     19  C   UNL     1      17.904 -17.239  -1.749  1.00  0.00     0.031 A 
ATOM     20  C   UNL     1      18.573 -17.369  -3.087  1.00  0.00     0.074 A 
ATOM     21  C   UNL     1      18.636 -17.169  -0.618  1.00  0.00     0.049 A 
ATOM     22  N   UNL     1      19.850 -17.470  -3.352  1.00  0.00    -0.248 NA
ATOM     23  C   UNL     1      17.712 -17.398  -4.280  1.00  0.00     0.031 C 
ATOM     24  C   UNL     1      18.078 -17.064   0.735  1.00  0.00     0.029 A 
ATOM     25  N   UNL     1      19.990 -17.162  -0.415  1.00  0.00    -0.354 N 
ATOM     26  C   UNL     1      19.945 -17.626  -4.730  1.00  0.00     0.074 A 
ATOM     27  C   UNL     1      18.596 -17.600  -5.250  1.00  0.00     0.031 C 
ATOM     28  C   UNL     1      19.076 -16.949   1.619  1.00  0.00     0.029 A 
ATOM     29  C   UNL     1      20.342 -17.066   0.910  1.00  0.00     0.049 A 
ATOM     30  H   UNL     1      20.646 -17.220  -1.147  1.00  0.00     0.167 HD
ATOM     31  C   UNL     1      21.061 -17.767  -5.484  1.00  0.00     0.034 A 
ATOM     32  C   UNL     1      21.550 -17.099   1.503  1.00  0.00     0.034 A 
ATOM     33  C   UNL     1      22.398 -17.741  -4.951  1.00  0.00     0.049 A 
ATOM     34  C   UNL     1      22.764 -17.242   0.637  1.00  0.00     0.074 A 
ATOM     35  C   UNL     1      23.597 -17.825  -5.638  1.00  0.00     0.029 A 
ATOM     36  N   UNL     1      22.717 -17.621  -3.606  1.00  0.00    -0.354 N 
ATOM     37  N   UNL     1      22.836 -17.305  -0.670  1.00  0.00    -0.248 NA
ATOM     38  C   UNL     1      24.061 -17.306   1.320  1.00  0.00     0.031 C 
ATOM     39  C   UNL     1      24.639 -17.774  -4.707  1.00  0.00     0.029 A 
ATOM     40  C   UNL     1      24.091 -17.637  -3.442  1.00  0.00     0.049 A 
ATOM     41  H   UNL     1      22.062 -17.537  -2.876  1.00  0.00     0.167 HD
ATOM     42  C   UNL     1      24.186 -17.407  -0.971  1.00  0.00     0.074 A 
ATOM     43  C   UNL     1      24.898 -17.362   0.292  1.00  0.00     0.031 C 
ATOM     44  C   UNL     1      24.781 -17.549  -2.179  1.00  0.00     0.034 A 
BRANCH  31  45
ATOM     45  C   UNL     1      20.906 -17.923  -6.974  1.00  0.00     0.023 A 
ATOM     46  C   UNL     1      20.592 -16.798  -7.762  1.00  0.00     0.012 A 
ATOM     47  C   UNL     1      21.186 -19.152  -7.606  1.00  0.00     0.148 A 
ATOM     48  C   UNL     1      20.547 -16.895  -9.153  1.00  0.00     0.002 A 
ATOM     49  C   UNL     1      21.178 -19.232  -8.994  1.00  0.00     0.091 A 
ATOM     50  F   UNL     1      21.466 -20.215  -6.838  1.00  0.00    -0.205 F 
ATOM     51  C   UNL     1      20.852 -18.106  -9.768  1.00  0.00     0.022 A 
BRANCH  49  52
ATOM     52  S   UNL     1      21.632 -20.724  -9.887  1.00  0.00     0.127 S 
ATOM     53  O   UNL     1      20.352 -21.115 -10.477  1.00  0.00    -0.237 OA
ATOM     54  O   UNL     1      22.615 -20.221 -10.847  1.00  0.00    -0.237 OA
ATOM     55  O   UNL     1      22.165 -21.643  -8.892  1.00  0.00    -0.744 OA
ENDBRANCH  49  52
ENDBRANCH  31  45
BRANCH  32  56
ATOM     56  C   UNL     1      21.641 -16.962   2.982  1.00  0.00     0.023 A 
ATOM     57  C   UNL     1      22.183 -15.787   3.535  1.00  0.00     0.012 A 
ATOM     58  C   UNL     1      21.104 -17.942   3.842  1.00  0.00     0.148 A 
ATOM     59  C   UNL     1      22.197 -15.594   4.917  1.00  0.00     0.002 A 
ATOM     60  C   UNL     1      21.059 -17.713   5.211  1.00  0.00     0.091 A 
ATOM     61  F   UNL     1      20.606 -19.062   3.297  1.00  0.00    -0.205 F 
ATOM     62  C   UNL     1      21.620 -16.547   5.753  1.00  0.00     0.022 A 
BRANCH  60  63
ATOM     63  S   UNL     1      20.183 -18.808   6.335  1.00  0.00     0.127 S 
ATOM     64  O   UNL     1      21.284 -19.486   7.012  1.00  0.00    -0.237 OA
ATOM     65  O   UNL     1      19.438 -17.860   7.164  1.00  0.00    -0.237 OA
ATOM     66  O   UNL     1      19.344 -19.645   5.487  1.00  0.00    -0.744 OA
ENDBRANCH  60  63
ENDBRANCH  32  56
BRANCH  44  67
ATOM     67  C   UNL     1      26.280 -17.665  -2.203  1.00  0.00     0.023 A 
ATOM     68  C   UNL     1      26.887 -18.867  -1.794  1.00  0.00     0.012 A 
ATOM     69  C   UNL     1      27.075 -16.622  -2.716  1.00  0.00     0.148 A 
ATOM     70  C   UNL     1      28.270 -19.024  -1.875  1.00  0.00     0.002 A 
ATOM     71  C   UNL     1      28.447 -16.804  -2.840  1.00  0.00     0.091 A 
ATOM     72  F   UNL     1      26.476 -15.479  -3.080  1.00  0.00    -0.205 F 
ATOM     73  C   UNL     1      29.047 -17.999  -2.411  1.00  0.00     0.022 A 
BRANCH  71  74
ATOM     74  S   UNL     1      29.513 -15.579  -3.607  1.00  0.00     0.127 S 
ATOM     75  O   UNL     1      30.235 -15.047  -2.452  1.00  0.00    -0.237 OA
ATOM     76  O   UNL     1      30.324 -16.395  -4.511  1.00  0.00    -0.237 OA
ATOM     77  O   UNL     1      28.625 -14.638  -4.277  1.00  0.00    -0.744 OA
ENDBRANCH  71  74
ENDBRANCH  44  67
ENDBRANCH  18  19
ENDBRANCH  11  13
ENDBRANCH   8   9
ENDBRANCH   7   8
ENDBRANCH   6   7
ENDBRANCH   5   6
ENDBRANCH   1   5
BRANCH   2  78
ATOM     78  C   UNL     1       8.988  -9.870  -3.827  1.00  0.00     0.197 C 
BRANCH  78  79
ATOM     79  N   UNL     1       8.327  -9.101  -2.756  1.00  0.00    -0.340 N 
ATOM     80  C   UNL     1       7.274  -9.441  -1.957  1.00  0.00     0.243 C 
ATOM     81  H   UNL     1       8.702  -8.206  -2.593  1.00  0.00     0.164 HD
ATOM     82  O   UNL     1       6.784  -8.534  -1.272  1.00  0.00    -0.273 OA
BRANCH  80  83
ATOM     83  C   UNL     1       6.785 -10.922  -1.795  1.00  0.00     0.175 C 
BRANCH  83  84
ATOM     84  N   UNL     1       5.641 -10.934  -0.860  1.00  0.00    -0.342 N 
ATOM     85  C   UNL     1       5.414 -11.722   0.229  1.00  0.00     0.243 C 
ATOM     86  H   UNL     1       4.936 -10.274  -1.052  1.00  0.00     0.164 HD
ATOM     87  O   UNL     1       4.271 -12.176   0.348  1.00  0.00    -0.273 OA
BRANCH  85  88
ATOM     88  C   UNL     1       6.423 -11.815   1.406  1.00  0.00     0.176 C 
BRANCH  88  89
ATOM     89  N   UNL     1       7.801 -12.045   0.966  1.00  0.00    -0.340 N 
ATOM     90  C   UNL     1       8.518 -13.209   0.869  1.00  0.00     0.251 C 
ATOM     91  H   UNL     1       8.290 -11.234   0.696  1.00  0.00     0.164 HD
ATOM     92  O   UNL     1       9.643 -13.177   0.377  1.00  0.00    -0.269 OA
BRANCH  90  93
ATOM     93  C   UNL     1       7.992 -14.494   1.383  1.00  0.00     0.040 A 
ATOM     94  C   UNL     1       6.736 -14.992   1.020  1.00  0.00     0.017 A 
ATOM     95  C   UNL     1       8.827 -15.248   2.221  1.00  0.00     0.017 A 
ATOM     96  C   UNL     1       6.292 -16.206   1.550  1.00  0.00     0.040 A 
ATOM     97  C   UNL     1       8.384 -16.467   2.739  1.00  0.00     0.040 A 
ATOM     98  C   UNL     1       7.116 -16.928   2.409  1.00  0.00     0.123 A 
ATOM     99  F   UNL     1       6.678 -18.086   2.920  1.00  0.00    -0.207 F 
ENDBRANCH  90  93
ENDBRANCH  88  89
BRANCH  88 100
ATOM    100  C   UNL     1       6.346 -10.538   2.273  1.00  0.00     0.070 C 
BRANCH 100 101
ATOM    101  C   UNL     1       4.994 -10.322   2.919  1.00  0.00    -0.045 A 
ATOM    102  C   UNL     1       4.692 -10.881   4.169  1.00  0.00     0.007 A 
ATOM    103  C   UNL     1       3.999  -9.600   2.242  1.00  0.00     0.007 A 
ATOM    104  C   UNL     1       3.417 -10.730   4.725  1.00  0.00     0.046 A 
ATOM    105  C   UNL     1       2.723  -9.464   2.788  1.00  0.00     0.046 A 
ATOM    106  C   UNL     1       2.440 -10.030   4.024  1.00  0.00     0.115 A 
BRANCH 106 107
ATOM    107  O   UNL     1       1.178  -9.877   4.519  1.00  0.00    -0.508 OA
ATOM    108  H   UNL     1       0.954 -10.246   5.351  1.00  0.00     0.293 HD
ENDBRANCH 106 107
ENDBRANCH 100 101
ENDBRANCH  88 100
ENDBRANCH  85  88
ENDBRANCH  83  84
BRANCH  83 109
ATOM    109  C   UNL     1       6.365 -11.736  -3.059  1.00  0.00     0.072 C 
BRANCH 109 110
ATOM    110  C   UNL     1       6.087 -10.893  -4.261  1.00  0.00    -0.020 A 
ATOM    111  C   UNL     1       5.018 -10.019  -4.436  1.00  0.00     0.087 A 
ATOM    112  C   UNL     1       7.003 -10.681  -5.325  1.00  0.00     0.003 A 
ATOM    113  N   UNL     1       5.204  -9.056  -5.423  1.00  0.00    -0.361 N 
ATOM    114  C   UNL     1       6.454  -9.127  -5.967  1.00  0.00     0.046 A 
ATOM    115  C   UNL     1       8.624 -11.356  -5.875  1.00  0.00     0.010 A 
ATOM    116  H   UNL     1       4.519  -8.403  -5.695  1.00  0.00     0.166 HD
ATOM    117  C   UNL     1       7.508  -8.157  -7.093  1.00  0.00     0.026 A 
ATOM    118  C   UNL     1       9.691 -10.403  -6.990  1.00  0.00     0.001 A 
ATOM    119  C   UNL     1       9.130  -8.798  -7.597  1.00  0.00     0.002 A 
ENDBRANCH 109 110
ENDBRANCH  83 109
ENDBRANCH  80  83
ENDBRANCH  78  79
BRANCH  78 120
ATOM    120  C   UNL     1       8.679  -9.178  -5.303  1.00  0.00     0.191 C 
BRANCH 120 121
ATOM    121  O   UNL     1       7.862  -9.984  -6.897  1.00  0.00    -0.394 OA
ATOM    122  H   UNL     1       8.490 -10.600  -7.306  1.00  0.00     0.210 HD
ENDBRANCH 120 121
ENDBRANCH  78 120
ENDBRANCH   2  78
TORSDOF 27
