REMARK SMILES O=C(C[N@H+]1CCC[C@@H]1C(=O)NCCCCNC(=O)c1ccc(-c2c3nc(c(-c4cccc(S(=O)(=O)[O-])c4F)c4ccc([nH]4)c(-c4cccc(S(=O)(=O)[O-])c4F)c4nc(c(-c5cccc(S(=O)(=O)[O-])c5F)c5ccc2[nH]5)C=C4)C=C3)cc1)NCc1ccc(Cl)cc1
REMARK SMILES IDX 13 1 12 2 11 3 9 4 10 5 8 7 4 8 5 9 6 11 7 12 3 13 2 14 1 15
REMARK SMILES IDX 82 16 83 18 84 19 85 20 90 21 86 22 89 23 87 24 88 25 14 26
REMARK SMILES IDX 15 27 16 28 17 29 18 31 19 32 20 33 81 34 21 35 80 36 22 37
REMARK SMILES IDX 23 38 24 39 74 40 25 41 79 42 73 43 75 44 26 45 78 46 72 47
REMARK SMILES IDX 71 48 27 50 59 51 39 52 58 53 40 54 43 55 57 56 76 57 41 58
REMARK SMILES IDX 42 59 56 61 77 62 44 63 28 64 29 65 37 66 30 67 32 68 38 69
REMARK SMILES IDX 31 70 33 71 34 72 35 73 36 74 60 75 61 76 69 77 62 78 64 79
REMARK SMILES IDX 70 80 63 81 65 82 66 83 67 84 68 85 45 86 46 87 54 88 47 89
REMARK SMILES IDX 49 90 55 91 48 92 50 93 51 94 52 95 53 96
REMARK H PARENT 11 6 4 10 82 17 16 30 75 49 43 60
REMARK Flexibility Score: inf
ROOT
ATOM      1  C   UNL     1      -0.243   3.873  -1.098  1.00  0.00     0.023 C 
ENDROOT
BRANCH   1   2
ATOM      2  C   UNL     1       0.812   2.801  -1.327  1.00  0.00     0.116 C 
BRANCH   2   3
ATOM      3  N   UNL     1       1.746   3.157  -2.381  1.00  0.00    -0.351 N 
ATOM      4  C   UNL     1       3.110   3.196  -2.350  1.00  0.00     0.278 C 
ATOM      5  O   UNL     1       3.710   3.445  -3.401  1.00  0.00    -0.268 OA
ATOM      6  H   UNL     1       1.337   3.405  -3.241  1.00  0.00     0.163 HD
BRANCH   4   7
ATOM      7  C   UNL     1       3.904   3.001  -1.049  1.00  0.00     0.274 C 
ATOM      8  N   UNL     1       3.421   1.886  -0.227  1.00  0.00    -0.317 N 
ATOM      9  C   UNL     1       3.852   2.144   1.134  1.00  0.00     0.263 C 
ATOM     10  H   UNL     1       2.401   1.864  -0.243  1.00  0.00     0.349 HD
ATOM     11  C   UNL     1       3.502   3.617   1.269  1.00  0.00     0.068 C 
ATOM     12  C   UNL     1       3.785   4.207  -0.111  1.00  0.00     0.081 C 
BRANCH   8  13
ATOM     13  C   UNL     1       3.610   0.545  -0.761  1.00  0.00     0.364 C 
BRANCH  13  14
ATOM     14  C   UNL     1       2.622  -0.390  -0.045  1.00  0.00     0.275 C 
ATOM     15  O   UNL     1       1.429  -0.445  -0.331  1.00  0.00    -0.268 OA
ATOM     16  N   UNL     1       3.178  -1.069   1.017  1.00  0.00    -0.347 N 
ATOM     17  H   UNL     1       4.153  -1.032   1.147  1.00  0.00     0.164 HD
BRANCH  16  18
ATOM     18  C   UNL     1       2.380  -1.833   1.945  1.00  0.00     0.151 C 
BRANCH  18  19
ATOM     19  C   UNL     1       2.733  -3.297   1.908  1.00  0.00    -0.029 A 
ATOM     20  C   UNL     1       1.729  -4.256   1.705  1.00  0.00     0.007 A 
ATOM     21  C   UNL     1       4.055  -3.728   2.101  1.00  0.00     0.007 A 
ATOM     22  C   UNL     1       2.043  -5.617   1.681  1.00  0.00     0.021 A 
ATOM     23  C   UNL     1       4.370  -5.087   2.067  1.00  0.00     0.021 A 
ATOM     24  C   UNL     1       3.362  -6.026   1.858  1.00  0.00     0.041 A 
ATOM     25  Cl  UNL     1       3.753  -7.700   1.825  1.00  0.00    -0.084 Cl
ENDBRANCH  18  19
ENDBRANCH  16  18
ENDBRANCH  13  14
ENDBRANCH   8  13
ENDBRANCH   4   7
ENDBRANCH   2   3
ENDBRANCH   1   2
BRANCH   1  26
ATOM     26  C   UNL     1      -1.348   3.911  -2.146  1.00  0.00     0.023 C 
BRANCH  26  27
ATOM     27  C   UNL     1      -2.079   2.591  -2.369  1.00  0.00     0.116 C 
BRANCH  27  28
ATOM     28  N   UNL     1      -2.618   2.004  -1.148  1.00  0.00    -0.352 N 
ATOM     29  C   UNL     1      -3.827   1.373  -0.971  1.00  0.00     0.251 C 
ATOM     30  H   UNL     1      -2.044   2.067  -0.350  1.00  0.00     0.163 HD
ATOM     31  O   UNL     1      -4.194   1.011   0.143  1.00  0.00    -0.269 OA
BRANCH  29  32
ATOM     32  C   UNL     1      -4.696   1.172  -2.147  1.00  0.00     0.039 A 
ATOM     33  C   UNL     1      -6.008   1.647  -2.113  1.00  0.00     0.014 A 
ATOM     34  C   UNL     1      -4.178   0.588  -3.307  1.00  0.00     0.014 A 
ATOM     35  C   UNL     1      -6.781   1.608  -3.275  1.00  0.00     0.010 A 
ATOM     36  C   UNL     1      -4.925   0.616  -4.479  1.00  0.00     0.010 A 
ATOM     37  C   UNL     1      -6.230   1.131  -4.476  1.00  0.00    -0.014 A 
BRANCH  37  38
ATOM     38  C   UNL     1      -6.993   1.179  -5.749  1.00  0.00     0.031 A 
ATOM     39  C   UNL     1      -7.350  -0.095  -6.461  1.00  0.00     0.074 A 
ATOM     40  C   UNL     1      -7.275   2.372  -6.310  1.00  0.00     0.049 A 
ATOM     41  N   UNL     1      -7.949  -0.255  -7.613  1.00  0.00    -0.248 NA
ATOM     42  C   UNL     1      -6.958  -1.356  -5.809  1.00  0.00     0.031 C 
ATOM     43  C   UNL     1      -6.902   3.678  -5.760  1.00  0.00     0.029 A 
ATOM     44  N   UNL     1      -7.916   2.679  -7.484  1.00  0.00    -0.354 N 
ATOM     45  C   UNL     1      -7.977  -1.625  -7.838  1.00  0.00     0.074 A 
ATOM     46  C   UNL     1      -7.300  -2.251  -6.723  1.00  0.00     0.031 C 
ATOM     47  C   UNL     1      -7.326   4.643  -6.591  1.00  0.00     0.029 A 
ATOM     48  C   UNL     1      -7.978   4.029  -7.743  1.00  0.00     0.049 A 
ATOM     49  H   UNL     1      -8.295   1.998  -8.085  1.00  0.00     0.167 HD
ATOM     50  C   UNL     1      -8.546  -2.305  -8.861  1.00  0.00     0.034 A 
ATOM     51  C   UNL     1      -8.503   4.695  -8.790  1.00  0.00     0.034 A 
ATOM     52  C   UNL     1      -9.262  -1.683  -9.941  1.00  0.00     0.049 A 
ATOM     53  C   UNL     1      -9.179   3.916  -9.886  1.00  0.00     0.074 A 
ATOM     54  C   UNL     1      -9.941  -2.286 -10.984  1.00  0.00     0.029 A 
ATOM     55  N   UNL     1      -9.396  -0.314 -10.114  1.00  0.00    -0.354 N 
ATOM     56  N   UNL     1      -9.332   2.619 -10.002  1.00  0.00    -0.248 NA
ATOM     57  C   UNL     1      -9.789   4.692 -10.976  1.00  0.00     0.031 C 
ATOM     58  C   UNL     1     -10.483  -1.281 -11.792  1.00  0.00     0.029 A 
ATOM     59  C   UNL     1     -10.149  -0.052 -11.245  1.00  0.00     0.049 A 
ATOM     60  H   UNL     1      -9.011   0.371  -9.521  1.00  0.00     0.167 HD
ATOM     61  C   UNL     1     -10.084   2.425 -11.155  1.00  0.00     0.074 A 
ATOM     62  C   UNL     1     -10.373   3.739 -11.691  1.00  0.00     0.031 C 
ATOM     63  C   UNL     1     -10.482   1.263 -11.729  1.00  0.00     0.034 A 
BRANCH  50  64
ATOM     64  C   UNL     1      -8.485  -3.809  -8.815  1.00  0.00     0.023 A 
ATOM     65  C   UNL     1      -9.283  -4.499  -7.879  1.00  0.00     0.012 A 
ATOM     66  C   UNL     1      -7.688  -4.539  -9.716  1.00  0.00     0.148 A 
ATOM     67  C   UNL     1      -9.263  -5.891  -7.817  1.00  0.00     0.002 A 
ATOM     68  C   UNL     1      -7.705  -5.929  -9.677  1.00  0.00     0.091 A 
ATOM     69  F   UNL     1      -6.918  -3.866 -10.583  1.00  0.00    -0.205 F 
ATOM     70  C   UNL     1      -8.483  -6.606  -8.722  1.00  0.00     0.022 A 
BRANCH  68  71
ATOM     71  S   UNL     1      -6.793  -6.943 -10.847  1.00  0.00     0.127 S 
ATOM     72  O   UNL     1      -5.707  -7.453 -10.012  1.00  0.00    -0.237 OA
ATOM     73  O   UNL     1      -7.788  -7.945 -11.230  1.00  0.00    -0.237 OA
ATOM     74  O   UNL     1      -6.391  -6.047 -11.922  1.00  0.00    -0.744 OA
ENDBRANCH  68  71
ENDBRANCH  50  64
BRANCH  51  75
ATOM     75  C   UNL     1      -8.490   6.186  -8.806  1.00  0.00     0.023 A 
ATOM     76  C   UNL     1      -9.698   6.883  -8.611  1.00  0.00     0.012 A 
ATOM     77  C   UNL     1      -7.297   6.914  -8.977  1.00  0.00     0.148 A 
ATOM     78  C   UNL     1      -9.724   8.278  -8.616  1.00  0.00     0.002 A 
ATOM     79  C   UNL     1      -7.322   8.304  -8.929  1.00  0.00     0.091 A 
ATOM     80  F   UNL     1      -6.159   6.233  -9.176  1.00  0.00    -0.205 F 
ATOM     81  C   UNL     1      -8.536   8.988  -8.764  1.00  0.00     0.022 A 
BRANCH  79  82
ATOM     82  S   UNL     1      -5.823   9.292  -8.982  1.00  0.00     0.127 S 
ATOM     83  O   UNL     1      -5.871   9.837 -10.336  1.00  0.00    -0.237 OA
ATOM     84  O   UNL     1      -6.061  10.267  -7.917  1.00  0.00    -0.237 OA
ATOM     85  O   UNL     1      -4.735   8.363  -8.707  1.00  0.00    -0.744 OA
ENDBRANCH  79  82
ENDBRANCH  51  75
BRANCH  63  86
ATOM     86  C   UNL     1     -11.301   1.352 -12.989  1.00  0.00     0.023 A 
ATOM     87  C   UNL     1     -10.675   1.699 -14.203  1.00  0.00     0.012 A 
ATOM     88  C   UNL     1     -12.668   1.011 -12.986  1.00  0.00     0.148 A 
ATOM     89  C   UNL     1     -11.404   1.731 -15.391  1.00  0.00     0.002 A 
ATOM     90  C   UNL     1     -13.378   1.004 -14.182  1.00  0.00     0.091 A 
ATOM     91  F   UNL     1     -13.250   0.704 -11.818  1.00  0.00    -0.205 F 
ATOM     92  C   UNL     1     -12.750   1.373 -15.383  1.00  0.00     0.022 A 
BRANCH  90  93
ATOM     93  S   UNL     1     -15.090   0.467 -14.276  1.00  0.00     0.127 S 
ATOM     94  O   UNL     1     -15.794   1.741 -14.411  1.00  0.00    -0.237 OA
ATOM     95  O   UNL     1     -15.092  -0.362 -15.483  1.00  0.00    -0.237 OA
ATOM     96  O   UNL     1     -15.346  -0.266 -13.043  1.00  0.00    -0.744 OA
ENDBRANCH  90  93
ENDBRANCH  63  86
ENDBRANCH  37  38
ENDBRANCH  29  32
ENDBRANCH  27  28
ENDBRANCH  26  27
ENDBRANCH   1  26
TORSDOF 18
