REMARK SMILES CCc1cc(S(F)(F)(F)(F)F)cc2c1O[C@@H](C(F)(F)F)C(C(=O)NCCCCNC(=O)c1ccc(-c3c4nc(c(-c5cccc(S(=O)(=O)[O-])c5F)c5ccc([nH]5)c(-c5cccc(S(=O)(=O)[O-])c5F)c5nc(c(-c6cccc(S(=O)(=O)[O-])c6F)c6ccc3[nH]6)C=C5)C=C4)cc1)=C2
REMARK SMILES IDX 27 1 26 2 25 3 24 4 22 5 23 6 21 8 3 9 4 10 14 11 5 12 13 13
REMARK SMILES IDX 15 14 12 15 95 16 16 17 2 18 1 19 6 20 7 21 8 22 9 23 10 24
REMARK SMILES IDX 11 25 17 26 18 27 19 28 20 29 28 30 29 31 30 32 31 34 32 35
REMARK SMILES IDX 33 36 94 37 34 38 93 39 35 40 36 41 37 42 87 43 38 44 92 45
REMARK SMILES IDX 86 46 88 47 39 48 91 49 85 50 84 51 40 53 72 54 52 55 71 56
REMARK SMILES IDX 53 57 56 58 70 59 89 60 54 61 55 62 69 64 90 65 57 66 41 67
REMARK SMILES IDX 42 68 50 69 43 70 45 71 51 72 44 73 46 74 47 75 48 76 49 77
REMARK SMILES IDX 73 78 74 79 82 80 75 81 77 82 83 83 76 84 78 85 79 86 80 87
REMARK SMILES IDX 81 88 58 89 59 90 67 91 60 92 62 93 68 94 61 95 63 96 64 97
REMARK SMILES IDX 65 98 66 99
REMARK H PARENT 24 7 29 33 88 52 56 63
REMARK Flexibility Score: inf
ROOT
ATOM      1  C   UNL     1       6.364  -6.789   4.433  1.00  0.00     0.023 C 
ENDROOT
BRANCH   1   2
ATOM      2  C   UNL     1       5.439  -6.433   3.281  1.00  0.00     0.023 C 
BRANCH   2   3
ATOM      3  C   UNL     1       4.485  -5.333   3.719  1.00  0.00     0.116 C 
BRANCH   3   4
ATOM      4  N   UNL     1       5.255  -4.145   4.114  1.00  0.00    -0.352 N 
ATOM      5  C   UNL     1       5.054  -2.871   3.410  1.00  0.00     0.251 C 
ATOM      6  O   UNL     1       5.720  -1.844   3.752  1.00  0.00    -0.270 OA
ATOM      7  H   UNL     1       5.906  -4.203   4.851  1.00  0.00     0.163 HD
BRANCH   5   8
ATOM      8  C   UNL     1       4.050  -2.781   2.272  1.00  0.00     0.067 C 
ATOM      9  C   UNL     1       0.968  -2.333  -0.511  1.00  0.00    -0.004 A 
ATOM     10  C   UNL     1       0.358  -3.450  -1.051  1.00  0.00     0.032 A 
ATOM     11  C   UNL     1       1.942  -2.509   0.442  1.00  0.00     0.131 A 
ATOM     12  C   UNL     1       0.709  -4.711  -0.645  1.00  0.00     0.108 A 
ATOM     13  C   UNL     1       2.336  -3.766   0.863  1.00  0.00     0.019 A 
ATOM     14  O   UNL     1       2.458  -1.390   1.049  1.00  0.00    -0.475 OA
ATOM     15  C   UNL     1       1.699  -4.868   0.303  1.00  0.00     0.036 A 
ATOM     16  C   UNL     1       3.347  -3.845   1.903  1.00  0.00     0.025 C 
ATOM     17  C   UNL     1       3.829  -1.470   1.531  1.00  0.00     0.314 C 
BRANCH   9  18
ATOM     18  C   UNL     1       0.461  -0.970  -0.953  1.00  0.00     0.036 C 
ATOM     19  C   UNL     1       0.968   0.095   0.007  1.00  0.00     0.009 C 
ENDBRANCH   9  18
BRANCH  12  20
ATOM     20  S   UNL     1      -0.118  -6.159  -1.347  1.00  0.00     0.310 S 
ATOM     21  F   UNL     1      -1.221  -6.282  -0.213  1.00  0.00    -0.094 F 
ATOM     22  F   UNL     1       0.831  -7.007  -0.418  1.00  0.00    -0.094 F 
ATOM     23  F   UNL     1      -0.708  -7.454  -1.974  1.00  0.00    -0.094 F 
ATOM     24  F   UNL     1      -1.159  -5.299  -2.165  1.00  0.00    -0.094 F 
ATOM     25  F   UNL     1       0.391  -4.842  -0.637  1.00  0.00    -0.094 F 
ENDBRANCH  12  20
BRANCH  17  26
ATOM     26  C   UNL     1       4.088  -0.313   2.482  1.00  0.00     0.429 C 
ATOM     27  F   UNL     1       5.340  -0.375   2.925  1.00  0.00    -0.167 F 
ATOM     28  F   UNL     1       3.901   0.838   1.842  1.00  0.00    -0.167 F 
ATOM     29  F   UNL     1       3.249  -0.389   3.512  1.00  0.00    -0.167 F 
ENDBRANCH  17  26
ENDBRANCH   5   8
ENDBRANCH   3   4
ENDBRANCH   2   3
ENDBRANCH   1   2
BRANCH   1  30
ATOM     30  C   UNL     1       5.539  -7.275   5.614  1.00  0.00     0.116 C 
BRANCH  30  31
ATOM     31  N   UNL     1       4.769  -8.463   5.218  1.00  0.00    -0.352 N 
ATOM     32  C   UNL     1       4.970  -9.737   5.923  1.00  0.00     0.251 C 
ATOM     33  H   UNL     1       4.119  -8.405   4.482  1.00  0.00     0.163 HD
ATOM     34  O   UNL     1       4.304 -10.764   5.581  1.00  0.00    -0.269 OA
BRANCH  32  35
ATOM     35  C   UNL     1       5.974  -9.826   7.060  1.00  0.00     0.039 A 
ATOM     36  C   UNL     1       6.842 -10.904   7.117  1.00  0.00     0.014 A 
ATOM     37  C   UNL     1       6.001  -8.871   7.982  1.00  0.00     0.014 A 
ATOM     38  C   UNL     1       7.515 -11.034   8.355  1.00  0.00     0.010 A 
ATOM     39  C   UNL     1       6.786  -9.002   9.103  1.00  0.00     0.010 A 
ATOM     40  C   UNL     1       7.624 -10.072   9.253  1.00  0.00    -0.014 A 
BRANCH  40  41
ATOM     41  C   UNL     1       8.628 -10.149  10.392  1.00  0.00     0.031 A 
ATOM     42  C   UNL     1       8.140 -10.120  11.699  1.00  0.00     0.074 A 
ATOM     43  C   UNL     1       9.971 -10.245  10.069  1.00  0.00     0.049 A 
ATOM     44  N   UNL     1       8.839 -10.210  12.831  1.00  0.00    -0.248 NA
ATOM     45  C   UNL     1       6.717  -9.983  12.045  1.00  0.00     0.031 C 
ATOM     46  C   UNL     1      10.470 -10.283   8.752  1.00  0.00     0.029 A 
ATOM     47  N   UNL     1      11.044 -10.319  10.929  1.00  0.00    -0.354 N 
ATOM     48  C   UNL     1       8.021 -10.164  13.884  1.00  0.00     0.074 A 
ATOM     49  C   UNL     1       6.644 -10.011  13.393  1.00  0.00     0.031 C 
ATOM     50  C   UNL     1      11.825 -10.367   8.818  1.00  0.00     0.029 A 
ATOM     51  C   UNL     1      12.195 -10.384  10.176  1.00  0.00     0.049 A 
ATOM     52  H   UNL     1      10.996 -10.324  11.912  1.00  0.00     0.167 HD
ATOM     53  C   UNL     1       8.368 -10.245  15.233  1.00  0.00     0.034 A 
ATOM     54  C   UNL     1      13.503 -10.451  10.630  1.00  0.00     0.034 A 
ATOM     55  C   UNL     1       9.673 -10.356  15.686  1.00  0.00     0.049 A 
ATOM     56  C   UNL     1      13.855 -10.474  11.982  1.00  0.00     0.074 A 
ATOM     57  C   UNL     1      10.040 -10.447  17.043  1.00  0.00     0.029 A 
ATOM     58  N   UNL     1      10.826 -10.396  14.934  1.00  0.00    -0.354 N 
ATOM     59  N   UNL     1      13.034 -10.467  13.033  1.00  0.00    -0.248 NA
ATOM     60  C   UNL     1      15.238 -10.513  12.474  1.00  0.00     0.031 C 
ATOM     61  C   UNL     1      11.395 -10.531  17.108  1.00  0.00     0.029 A 
ATOM     62  C   UNL     1      11.898 -10.493  15.794  1.00  0.00     0.049 A 
ATOM     63  H   UNL     1      10.876 -10.361  13.951  1.00  0.00     0.167 HD
ATOM     64  C   UNL     1      13.737 -10.516  14.166  1.00  0.00     0.074 A 
ATOM     65  C   UNL     1      15.165 -10.539  13.823  1.00  0.00     0.031 C 
ATOM     66  C   UNL     1      13.245 -10.546  15.472  1.00  0.00     0.034 A 
BRANCH  53  67
ATOM     67  C   UNL     1       7.252 -10.208  16.265  1.00  0.00     0.023 A 
ATOM     68  C   UNL     1       6.271 -11.186  16.239  1.00  0.00     0.012 A 
ATOM     69  C   UNL     1       7.235  -9.239  17.173  1.00  0.00     0.148 A 
ATOM     70  C   UNL     1       5.144 -10.889  17.042  1.00  0.00     0.002 A 
ATOM     71  C   UNL     1       6.161  -9.090  18.017  1.00  0.00     0.091 A 
ATOM     72  F   UNL     1       8.267  -8.406  17.266  1.00  0.00    -0.205 F 
ATOM     73  C   UNL     1       5.128  -9.986  18.005  1.00  0.00     0.022 A 
BRANCH  71  74
ATOM     74  S   UNL     1       6.113  -7.688  19.160  1.00  0.00     0.127 S 
ATOM     75  O   UNL     1       4.877  -6.833  18.868  1.00  0.00    -0.237 OA
ATOM     76  O   UNL     1       6.047  -8.204  20.599  1.00  0.00    -0.237 OA
ATOM     77  O   UNL     1       7.522  -6.740  18.958  1.00  0.00    -0.744 OA
ENDBRANCH  71  74
ENDBRANCH  53  67
BRANCH  54  78
ATOM     78  C   UNL     1      14.618 -10.505   9.598  1.00  0.00     0.023 A 
ATOM     79  C   UNL     1      15.472 -11.595   9.576  1.00  0.00     0.012 A 
ATOM     80  C   UNL     1      14.754  -9.505   8.734  1.00  0.00     0.148 A 
ATOM     81  C   UNL     1      16.628 -11.402   8.783  1.00  0.00     0.002 A 
ATOM     82  C   UNL     1      15.840  -9.451   7.894  1.00  0.00     0.091 A 
ATOM     83  F   UNL     1      13.832  -8.549   8.682  1.00  0.00    -0.205 F 
ATOM     84  C   UNL     1      16.756 -10.465   7.861  1.00  0.00     0.022 A 
BRANCH  82  85
ATOM     85  S   UNL     1      16.061  -8.015   6.814  1.00  0.00     0.127 S 
ATOM     86  O   UNL     1      17.391  -7.332   7.140  1.00  0.00    -0.237 OA
ATOM     87  O   UNL     1      16.066  -8.470   5.354  1.00  0.00    -0.237 OA
ATOM     88  O   UNL     1      14.778  -6.912   7.063  1.00  0.00    -0.744 OA
ENDBRANCH  82  85
ENDBRANCH  54  78
BRANCH  66  89
ATOM     89  C   UNL     1      14.248 -10.642  16.610  1.00  0.00     0.023 A 
ATOM     90  C   UNL     1      15.201  -9.649  16.761  1.00  0.00     0.012 A 
ATOM     91  C   UNL     1      14.195 -11.678  17.439  1.00  0.00     0.148 A 
ATOM     92  C   UNL     1      16.246  -9.988  17.653  1.00  0.00     0.002 A 
ATOM     93  C   UNL     1      15.179 -11.874  18.377  1.00  0.00     0.091 A 
ATOM     94  F   UNL     1      13.179 -12.533  17.361  1.00  0.00    -0.205 F 
ATOM     95  C   UNL     1      16.185 -10.963  18.542  1.00  0.00     0.022 A 
BRANCH  93  96
ATOM     96  S   UNL     1      15.144 -13.360  19.410  1.00  0.00     0.127 S 
ATOM     97  O   UNL     1      16.424 -14.168  19.185  1.00  0.00    -0.237 OA
ATOM     98  O   UNL     1      15.048 -12.955  20.883  1.00  0.00    -0.237 OA
ATOM     99  O   UNL     1      13.787 -14.313  18.992  1.00  0.00    -0.744 OA
ENDBRANCH  93  96
ENDBRANCH  66  89
ENDBRANCH  40  41
ENDBRANCH  32  35
ENDBRANCH  30  31
ENDBRANCH   1  30
TORSDOF 17
