REMARK SMILES Cc1cc(C)n([C@@H](C(=O)NCCCCNC(=O)c2ccc(-c3c4nc(c(-c5cccc(S(=O)(=O)[O-])c5F)c5ccc([nH]5)c(-c5cccc(S(=O)(=O)[O-])c5F)c5nc(c(-c6cccc(S(=O)(=O)[O-])c6F)c6ccc3[nH]6)C=C5)C=C4)cc2)C(C)C)n1
REMARK SMILES IDX 13 1 12 2 11 3 10 4 8 5 9 6 7 8 6 9 1 10 2 11 3 12 84 13
REMARK SMILES IDX 4 14 5 15 81 16 82 17 83 18 14 19 15 20 16 21 17 23 18 24
REMARK SMILES IDX 19 25 80 26 20 27 79 28 21 29 22 30 23 31 73 32 24 33 78 34
REMARK SMILES IDX 72 35 74 36 25 37 77 38 71 39 70 40 26 42 58 43 38 44 57 45
REMARK SMILES IDX 39 46 42 47 56 48 75 49 40 50 41 51 55 53 76 54 43 55 27 56
REMARK SMILES IDX 28 57 36 58 29 59 31 60 37 61 30 62 32 63 33 64 34 65 35 66
REMARK SMILES IDX 59 67 60 68 68 69 61 70 63 71 69 72 62 73 64 74 65 75 66 76
REMARK SMILES IDX 67 77 44 78 45 79 53 80 46 81 48 82 54 83 47 84 49 85 50 86
REMARK SMILES IDX 51 87 52 88
REMARK H PARENT 10 7 15 22 74 41 42 52
REMARK Flexibility Score: inf
ROOT
ATOM      1  C   UNL     1       4.345  -0.274  -4.435  1.00  0.00     0.023 C 
ENDROOT
BRANCH   1   2
ATOM      2  C   UNL     1       3.041   0.213  -3.787  1.00  0.00     0.023 C 
BRANCH   2   3
ATOM      3  C   UNL     1       1.996   0.815  -4.737  1.00  0.00     0.116 C 
BRANCH   3   4
ATOM      4  N   UNL     1       1.493  -0.161  -5.689  1.00  0.00    -0.354 N 
ATOM      5  C   UNL     1       0.340  -0.900  -5.657  1.00  0.00     0.245 C 
ATOM      6  O   UNL     1       0.224  -1.802  -6.491  1.00  0.00    -0.273 OA
ATOM      7  H   UNL     1       2.066  -0.313  -6.475  1.00  0.00     0.163 HD
BRANCH   5   8
ATOM      8  C   UNL     1      -0.741  -0.619  -4.606  1.00  0.00     0.199 C 
BRANCH   8   9
ATOM      9  N   UNL     1      -0.269  -1.072  -3.291  1.00  0.00    -0.257 N 
ATOM     10  C   UNL     1       0.828  -0.062  -0.071  1.00  0.00     0.069 C 
ATOM     11  C   UNL     1       0.424  -0.791  -1.295  1.00  0.00     0.060 A 
ATOM     12  C   UNL     1       0.626  -2.151  -1.598  1.00  0.00     0.048 A 
ATOM     13  N   UNL     1      -0.173  -0.148  -2.301  1.00  0.00    -0.177 NA
ATOM     14  C   UNL     1       0.169  -2.317  -2.889  1.00  0.00     0.037 A 
ATOM     15  C   UNL     1       0.179  -3.535  -3.737  1.00  0.00     0.066 C 
ENDBRANCH   8   9
BRANCH   8  16
ATOM     16  C   UNL     1      -2.138  -1.204  -4.970  1.00  0.00     0.017 C 
ATOM     17  C   UNL     1      -3.184  -0.899  -3.886  1.00  0.00     0.010 C 
ATOM     18  C   UNL     1      -2.667  -0.658  -6.305  1.00  0.00     0.010 C 
ENDBRANCH   8  16
ENDBRANCH   5   8
ENDBRANCH   3   4
ENDBRANCH   2   3
ENDBRANCH   1   2
BRANCH   1  19
ATOM     19  C   UNL     1       5.169   0.815  -5.106  1.00  0.00     0.116 C 
BRANCH  19  20
ATOM     20  N   UNL     1       5.648   1.825  -4.162  1.00  0.00    -0.352 N 
ATOM     21  C   UNL     1       6.286   3.020  -4.447  1.00  0.00     0.251 C 
ATOM     22  H   UNL     1       5.497   1.632  -3.209  1.00  0.00     0.163 HD
ATOM     23  O   UNL     1       6.961   3.590  -3.606  1.00  0.00    -0.269 OA
BRANCH  21  24
ATOM     24  C   UNL     1       6.127   3.591  -5.797  1.00  0.00     0.039 A 
ATOM     25  C   UNL     1       7.221   4.099  -6.502  1.00  0.00     0.014 A 
ATOM     26  C   UNL     1       4.860   3.555  -6.370  1.00  0.00     0.014 A 
ATOM     27  C   UNL     1       7.043   4.485  -7.829  1.00  0.00     0.010 A 
ATOM     28  C   UNL     1       4.718   3.795  -7.714  1.00  0.00     0.010 A 
ATOM     29  C   UNL     1       5.792   4.305  -8.439  1.00  0.00    -0.014 A 
BRANCH  29  30
ATOM     30  C   UNL     1       5.624   4.526  -9.874  1.00  0.00     0.031 A 
ATOM     31  C   UNL     1       6.561   3.759 -10.742  1.00  0.00     0.074 A 
ATOM     32  C   UNL     1       4.557   5.175 -10.392  1.00  0.00     0.049 A 
ATOM     33  N   UNL     1       7.476   4.230 -11.525  1.00  0.00    -0.248 NA
ATOM     34  C   UNL     1       6.567   2.291 -10.638  1.00  0.00     0.031 C 
ATOM     35  C   UNL     1       3.388   5.698  -9.671  1.00  0.00     0.029 A 
ATOM     36  N   UNL     1       4.210   5.358 -11.696  1.00  0.00    -0.354 N 
ATOM     37  C   UNL     1       8.001   3.127 -12.196  1.00  0.00     0.074 A 
ATOM     38  C   UNL     1       7.557   1.965 -11.471  1.00  0.00     0.031 C 
ATOM     39  C   UNL     1       2.368   5.872 -10.538  1.00  0.00     0.029 A 
ATOM     40  C   UNL     1       2.862   5.654 -11.882  1.00  0.00     0.049 A 
ATOM     41  H   UNL     1       4.853   5.287 -12.438  1.00  0.00     0.167 HD
ATOM     42  C   UNL     1       8.534   3.241 -13.444  1.00  0.00     0.034 A 
ATOM     43  C   UNL     1       2.186   5.673 -13.055  1.00  0.00     0.034 A 
ATOM     44  C   UNL     1       8.795   4.616 -13.787  1.00  0.00     0.049 A 
ATOM     45  C   UNL     1       3.187   5.819 -14.133  1.00  0.00     0.074 A 
ATOM     46  C   UNL     1       9.535   5.641 -13.233  1.00  0.00     0.029 A 
ATOM     47  N   UNL     1       7.918   5.213 -14.660  1.00  0.00    -0.354 N 
ATOM     48  N   UNL     1       3.913   6.888 -14.300  1.00  0.00    -0.248 NA
ATOM     49  C   UNL     1       3.681   4.617 -14.780  1.00  0.00     0.031 C 
ATOM     50  C   UNL     1       8.740   6.810 -13.428  1.00  0.00     0.029 A 
ATOM     51  C   UNL     1       7.601   6.442 -14.148  1.00  0.00     0.049 A 
ATOM     52  H   UNL     1       7.580   4.827 -15.500  1.00  0.00     0.167 HD
ATOM     53  C   UNL     1       5.163   6.399 -14.651  1.00  0.00     0.074 A 
ATOM     54  C   UNL     1       4.925   5.016 -15.059  1.00  0.00     0.031 C 
ATOM     55  C   UNL     1       6.303   7.063 -14.295  1.00  0.00     0.034 A 
BRANCH  42  56
ATOM     56  C   UNL     1       8.479   2.169 -14.510  1.00  0.00     0.023 A 
ATOM     57  C   UNL     1       9.244   2.370 -15.681  1.00  0.00     0.012 A 
ATOM     58  C   UNL     1       7.521   1.130 -14.545  1.00  0.00     0.148 A 
ATOM     59  C   UNL     1       9.037   1.607 -16.837  1.00  0.00     0.002 A 
ATOM     60  C   UNL     1       7.382   0.315 -15.663  1.00  0.00     0.091 A 
ATOM     61  F   UNL     1       6.633   1.004 -13.555  1.00  0.00    -0.205 F 
ATOM     62  C   UNL     1       8.113   0.570 -16.824  1.00  0.00     0.022 A 
BRANCH  60  63
ATOM     63  S   UNL     1       6.250  -1.080 -15.669  1.00  0.00     0.127 S 
ATOM     64  O   UNL     1       5.157  -0.566 -16.489  1.00  0.00    -0.237 OA
ATOM     65  O   UNL     1       7.062  -2.122 -16.298  1.00  0.00    -0.237 OA
ATOM     66  O   UNL     1       5.943  -1.332 -14.267  1.00  0.00    -0.744 OA
ENDBRANCH  60  63
ENDBRANCH  42  56
BRANCH  43  67
ATOM     67  C   UNL     1       0.768   5.359 -13.338  1.00  0.00     0.023 A 
ATOM     68  C   UNL     1       0.172   5.834 -14.522  1.00  0.00     0.012 A 
ATOM     69  C   UNL     1       0.086   4.367 -12.598  1.00  0.00     0.148 A 
ATOM     70  C   UNL     1      -1.042   5.308 -14.979  1.00  0.00     0.002 A 
ATOM     71  C   UNL     1      -1.124   3.852 -13.052  1.00  0.00     0.091 A 
ATOM     72  F   UNL     1       0.670   3.863 -11.502  1.00  0.00    -0.205 F 
ATOM     73  C   UNL     1      -1.685   4.311 -14.251  1.00  0.00     0.022 A 
BRANCH  71  74
ATOM     74  S   UNL     1      -1.998   2.546 -12.178  1.00  0.00     0.127 S 
ATOM     75  O   UNL     1      -3.365   3.066 -12.143  1.00  0.00    -0.237 OA
ATOM     76  O   UNL     1      -1.799   1.404 -13.065  1.00  0.00    -0.237 OA
ATOM     77  O   UNL     1      -1.362   2.451 -10.869  1.00  0.00    -0.744 OA
ENDBRANCH  71  74
ENDBRANCH  43  67
BRANCH  55  78
ATOM     78  C   UNL     1       6.170   8.469 -13.760  1.00  0.00     0.023 A 
ATOM     79  C   UNL     1       5.466   8.767 -12.574  1.00  0.00     0.012 A 
ATOM     80  C   UNL     1       6.910   9.489 -14.380  1.00  0.00     0.148 A 
ATOM     81  C   UNL     1       5.477  10.057 -12.036  1.00  0.00     0.002 A 
ATOM     82  C   UNL     1       6.958  10.759 -13.817  1.00  0.00     0.091 A 
ATOM     83  F   UNL     1       7.580   9.194 -15.505  1.00  0.00    -0.205 F 
ATOM     84  C   UNL     1       6.234  11.051 -12.650  1.00  0.00     0.022 A 
BRANCH  82  85
ATOM     85  S   UNL     1       8.016  12.041 -14.493  1.00  0.00     0.127 S 
ATOM     86  O   UNL     1       7.056  12.889 -15.197  1.00  0.00    -0.237 OA
ATOM     87  O   UNL     1       8.595  12.641 -13.289  1.00  0.00    -0.237 OA
ATOM     88  O   UNL     1       8.986  11.353 -15.336  1.00  0.00    -0.744 OA
ENDBRANCH  82  85
ENDBRANCH  55  78
ENDBRANCH  29  30
ENDBRANCH  21  24
ENDBRANCH  19  20
ENDBRANCH   1  19
TORSDOF 16
