REMARK SMILES COc1cc2c(cc1OC)[C@@H](CC(=O)NCCCCNC(=O)c1ccc(-c3c4nc(c(-c5cccc(S(=O)(=O)[O-])c5F)c5ccc([nH]5)c(-c5cccc(S(=O)(=O)[O-])c5F)c5nc(c(-c6cccc(S(=O)(=O)[O-])c6F)c6ccc3[nH]6)C=C5)C=C4)cc1)N(C(=O)Nc1ccc(Cl)cc1)CC2
REMARK SMILES IDX 17 1 16 2 15 3 13 4 14 5 12 7 11 8 3 9 4 10 8 11 5 12 7 13
REMARK SMILES IDX 6 14 98 15 97 16 86 17 2 18 1 19 9 20 10 21 87 22 88 23
REMARK SMILES IDX 89 24 90 26 91 27 96 28 92 29 95 30 93 31 94 32 18 33 19 34
REMARK SMILES IDX 20 35 21 36 22 38 23 39 24 40 85 41 25 42 84 43 26 44 27 45
REMARK SMILES IDX 28 46 78 47 29 48 83 49 77 50 79 51 30 52 82 53 76 54 75 55
REMARK SMILES IDX 31 57 63 58 43 59 62 60 44 61 47 62 61 63 80 64 45 65 46 66
REMARK SMILES IDX 60 68 81 69 48 70 32 71 33 72 41 73 34 74 36 75 42 76 35 77
REMARK SMILES IDX 37 78 38 79 39 80 40 81 64 82 65 83 73 84 66 85 68 86 74 87
REMARK SMILES IDX 67 88 69 89 70 90 71 91 72 92 49 93 50 94 58 95 51 96 53 97
REMARK SMILES IDX 59 98 52 99 54 100 55 101 56 102 57 103
REMARK H PARENT 15 6 89 25 20 37 79 56 47 67
REMARK Flexibility Score: inf
ROOT
ATOM      1  C   UNL     1       1.692  -9.144   5.495  1.00  0.00     0.023 C 
ENDROOT
BRANCH   1   2
ATOM      2  C   UNL     1       2.975  -8.316   5.385  1.00  0.00     0.116 C 
BRANCH   2   3
ATOM      3  N   UNL     1       3.372  -8.178   3.988  1.00  0.00    -0.356 N 
ATOM      4  C   UNL     1       3.290  -7.141   3.109  1.00  0.00     0.222 C 
ATOM      5  O   UNL     1       3.555  -7.361   1.923  1.00  0.00    -0.275 OA
ATOM      6  H   UNL     1       3.776  -8.991   3.607  1.00  0.00     0.163 HD
BRANCH   4   7
ATOM      7  C   UNL     1       2.970  -5.731   3.561  1.00  0.00     0.130 C 
BRANCH   7   8
ATOM      8  C   UNL     1       1.589  -5.253   3.039  1.00  0.00     0.127 C 
ATOM      9  C   UNL     1       1.262  -1.346   1.111  1.00  0.00     0.161 A 
ATOM     10  C   UNL     1       0.138  -2.018   1.554  1.00  0.00     0.054 A 
ATOM     11  C   UNL     1       2.523  -1.960   1.142  1.00  0.00     0.161 A 
ATOM     12  C   UNL     1       0.280  -3.283   2.118  1.00  0.00    -0.037 A 
ATOM     13  C   UNL     1       2.650  -3.265   1.666  1.00  0.00     0.056 A 
ATOM     14  C   UNL     1       1.544  -3.923   2.231  1.00  0.00    -0.018 A 
ATOM     15  C   UNL     1      -0.877  -3.862   2.878  1.00  0.00     0.057 C 
ATOM     16  C   UNL     1      -0.291  -4.047   4.266  1.00  0.00     0.127 C 
ATOM     17  N   UNL     1       0.677  -5.146   4.228  1.00  0.00    -0.317 N 
BRANCH   9  18
ATOM     18  O   UNL     1       1.080  -0.016   0.828  1.00  0.00    -0.493 OA
ATOM     19  C   UNL     1       1.162   0.241  -0.568  1.00  0.00     0.278 C 
ENDBRANCH   9  18
BRANCH  11  20
ATOM     20  O   UNL     1       3.562  -1.186   0.694  1.00  0.00    -0.493 OA
ATOM     21  C   UNL     1       4.857  -1.763   0.684  1.00  0.00     0.278 C 
ENDBRANCH  11  20
BRANCH  17  22
ATOM     22  C   UNL     1       0.172  -6.286   4.835  1.00  0.00     0.322 C 
ATOM     23  O   UNL     1      -0.226  -7.249   4.198  1.00  0.00    -0.248 OA
ATOM     24  N   UNL     1       0.068  -6.073   6.198  1.00  0.00    -0.308 N 
ATOM     25  H   UNL     1       0.891  -5.831   6.681  1.00  0.00     0.171 HD
BRANCH  24  26
ATOM     26  C   UNL     1      -1.112  -6.173   6.949  1.00  0.00     0.042 A 
ATOM     27  C   UNL     1      -1.099  -5.596   8.223  1.00  0.00     0.028 A 
ATOM     28  C   UNL     1      -2.311  -6.640   6.410  1.00  0.00     0.028 A 
ATOM     29  C   UNL     1      -2.291  -5.419   8.926  1.00  0.00     0.022 A 
ATOM     30  C   UNL     1      -3.505  -6.459   7.112  1.00  0.00     0.022 A 
ATOM     31  C   UNL     1      -3.492  -5.831   8.357  1.00  0.00     0.041 A 
ATOM     32  Cl  UNL     1      -4.973  -5.525   9.177  1.00  0.00    -0.084 Cl
ENDBRANCH  24  26
ENDBRANCH  17  22
ENDBRANCH   7   8
ENDBRANCH   4   7
ENDBRANCH   2   3
ENDBRANCH   1   2
BRANCH   1  33
ATOM     33  C   UNL     1       1.714 -10.300   6.478  1.00  0.00     0.023 C 
BRANCH  33  34
ATOM     34  C   UNL     1       2.000  -9.931   7.925  1.00  0.00     0.116 C 
BRANCH  34  35
ATOM     35  N   UNL     1       1.141  -8.905   8.512  1.00  0.00    -0.352 N 
ATOM     36  C   UNL     1       0.676  -8.817   9.814  1.00  0.00     0.251 C 
ATOM     37  H   UNL     1       0.857  -8.185   7.905  1.00  0.00     0.163 HD
ATOM     38  O   UNL     1       0.029  -7.850  10.191  1.00  0.00    -0.269 OA
BRANCH  36  39
ATOM     39  C   UNL     1       0.918  -9.954  10.729  1.00  0.00     0.039 A 
ATOM     40  C   UNL     1      -0.175 -10.570  11.344  1.00  0.00     0.014 A 
ATOM     41  C   UNL     1       2.192 -10.507  10.834  1.00  0.00     0.014 A 
ATOM     42  C   UNL     1      -0.007 -11.819  11.947  1.00  0.00     0.010 A 
ATOM     43  C   UNL     1       2.326 -11.803  11.311  1.00  0.00     0.010 A 
ATOM     44  C   UNL     1       1.229 -12.482  11.863  1.00  0.00    -0.014 A 
BRANCH  44  45
ATOM     45  C   UNL     1       1.394 -13.896  12.299  1.00  0.00     0.031 A 
ATOM     46  C   UNL     1       2.467 -14.261  13.293  1.00  0.00     0.074 A 
ATOM     47  C   UNL     1       0.676 -14.872  11.703  1.00  0.00     0.049 A 
ATOM     48  N   UNL     1       2.835 -15.443  13.713  1.00  0.00    -0.248 NA
ATOM     49  C   UNL     1       3.273 -13.157  13.842  1.00  0.00     0.031 C 
ATOM     50  C   UNL     1      -0.300 -14.675  10.626  1.00  0.00     0.029 A 
ATOM     51  N   UNL     1       0.673 -16.231  11.899  1.00  0.00    -0.354 N 
ATOM     52  C   UNL     1       3.949 -15.230  14.516  1.00  0.00     0.074 A 
ATOM     53  C   UNL     1       4.228 -13.812  14.484  1.00  0.00     0.031 C 
ATOM     54  C   UNL     1      -0.825 -15.862  10.280  1.00  0.00     0.029 A 
ATOM     55  C   UNL     1      -0.210 -16.909  11.088  1.00  0.00     0.049 A 
ATOM     56  H   UNL     1       1.249 -16.680  12.559  1.00  0.00     0.167 HD
ATOM     57  C   UNL     1       4.650 -16.122  15.255  1.00  0.00     0.034 A 
ATOM     58  C   UNL     1      -0.503 -18.222  11.015  1.00  0.00     0.034 A 
ATOM     59  C   UNL     1       4.304 -17.511  15.368  1.00  0.00     0.049 A 
ATOM     60  C   UNL     1       0.185 -19.172  11.957  1.00  0.00     0.074 A 
ATOM     61  C   UNL     1       4.864 -18.475  16.186  1.00  0.00     0.029 A 
ATOM     62  N   UNL     1       3.292 -18.130  14.652  1.00  0.00    -0.354 N 
ATOM     63  N   UNL     1       1.116 -18.921  12.846  1.00  0.00    -0.248 NA
ATOM     64  C   UNL     1      -0.248 -20.577  11.923  1.00  0.00     0.031 C 
ATOM     65  C   UNL     1       4.185 -19.679  15.968  1.00  0.00     0.029 A 
ATOM     66  C   UNL     1       3.199 -19.461  15.018  1.00  0.00     0.049 A 
ATOM     67  H   UNL     1       2.722 -17.688  13.982  1.00  0.00     0.167 HD
ATOM     68  C   UNL     1       1.354 -20.123  13.501  1.00  0.00     0.074 A 
ATOM     69  C   UNL     1       0.453 -21.099  12.921  1.00  0.00     0.031 C 
ATOM     70  C   UNL     1       2.249 -20.400  14.480  1.00  0.00     0.034 A 
BRANCH  57  71
ATOM     71  C   UNL     1       5.804 -15.595  16.069  1.00  0.00     0.023 A 
ATOM     72  C   UNL     1       5.543 -14.779  17.190  1.00  0.00     0.012 A 
ATOM     73  C   UNL     1       7.135 -15.923  15.750  1.00  0.00     0.148 A 
ATOM     74  C   UNL     1       6.588 -14.258  17.950  1.00  0.00     0.002 A 
ATOM     75  C   UNL     1       8.171 -15.438  16.542  1.00  0.00     0.091 A 
ATOM     76  F   UNL     1       7.368 -16.680  14.668  1.00  0.00    -0.205 F 
ATOM     77  C   UNL     1       7.900 -14.595  17.632  1.00  0.00     0.022 A 
BRANCH  75  78
ATOM     78  S   UNL     1       9.889 -15.881  16.260  1.00  0.00     0.127 S 
ATOM     79  O   UNL     1      10.413 -14.659  15.652  1.00  0.00    -0.237 OA
ATOM     80  O   UNL     1      10.369 -16.140  17.618  1.00  0.00    -0.237 OA
ATOM     81  O   UNL     1       9.860 -17.053  15.396  1.00  0.00    -0.744 OA
ENDBRANCH  75  78
ENDBRANCH  57  71
BRANCH  58  82
ATOM     82  C   UNL     1      -1.583 -18.694  10.101  1.00  0.00     0.023 A 
ATOM     83  C   UNL     1      -2.815 -19.098  10.653  1.00  0.00     0.012 A 
ATOM     84  C   UNL     1      -1.422 -18.707   8.703  1.00  0.00     0.148 A 
ATOM     85  C   UNL     1      -3.857 -19.535   9.833  1.00  0.00     0.002 A 
ATOM     86  C   UNL     1      -2.481 -19.096   7.888  1.00  0.00     0.091 A 
ATOM     87  F   UNL     1      -0.240 -18.330   8.195  1.00  0.00    -0.205 F 
ATOM     88  C   UNL     1      -3.693 -19.524   8.451  1.00  0.00     0.022 A 
BRANCH  86  89
ATOM     89  S   UNL     1      -2.404 -18.991   6.096  1.00  0.00     0.127 S 
ATOM     90  O   UNL     1      -2.273 -20.396   5.719  1.00  0.00    -0.237 OA
ATOM     91  O   UNL     1      -3.696 -18.384   5.769  1.00  0.00    -0.237 OA
ATOM     92  O   UNL     1      -1.255 -18.144   5.805  1.00  0.00    -0.744 OA
ENDBRANCH  86  89
ENDBRANCH  58  82
BRANCH  70  93
ATOM     93  C   UNL     1       2.281 -21.803  15.023  1.00  0.00     0.023 A 
ATOM     94  C   UNL     1       2.855 -22.834  14.254  1.00  0.00     0.012 A 
ATOM     95  C   UNL     1       1.821 -22.081  16.324  1.00  0.00     0.148 A 
ATOM     96  C   UNL     1       2.947 -24.128  14.764  1.00  0.00     0.002 A 
ATOM     97  C   UNL     1       1.956 -23.364  16.842  1.00  0.00     0.091 A 
ATOM     98  F   UNL     1       1.257 -21.091  17.031  1.00  0.00    -0.205 F 
ATOM     99  C   UNL     1       2.510 -24.390  16.060  1.00  0.00     0.022 A 
BRANCH  97 100
ATOM    100  S   UNL     1       1.506 -23.756  18.536  1.00  0.00     0.127 S 
ATOM    101  O   UNL     1       0.200 -24.387  18.360  1.00  0.00    -0.237 OA
ATOM    102  O   UNL     1       2.575 -24.669  18.944  1.00  0.00    -0.237 OA
ATOM    103  O   UNL     1       1.503 -22.484  19.247  1.00  0.00    -0.744 OA
ENDBRANCH  97 100
ENDBRANCH  70  93
ENDBRANCH  44  45
ENDBRANCH  36  39
ENDBRANCH  34  35
ENDBRANCH  33  34
ENDBRANCH   1  33
TORSDOF 19
