REMARK SMILES CCc1cc(Nc2ccc(C(=O)NCCCCNC(=O)c3ccc(-c4c5nc(c(-c6cccc(S(=O)(=O)[O-])c6F)c6ccc([nH]6)c(-c6cccc(S(=O)(=O)[O-])c6F)c6nc(c(-c7cccc(S(=O)(=O)[O-])c7F)c7ccc4[nH]7)C=C6)C=C5)cc3)cc2)nc(C(C)C)n1
REMARK SMILES IDX 15 1 14 2 13 3 11 4 12 5 10 7 7 8 8 9 85 10 9 11 84 12 6 13
REMARK SMILES IDX 5 15 3 16 4 17 91 18 87 19 86 20 2 21 1 22 88 23 89 24 90 25
REMARK SMILES IDX 16 26 17 27 18 28 19 29 20 31 21 32 22 33 83 34 23 35 82 36
REMARK SMILES IDX 24 37 25 38 26 39 76 40 27 41 81 42 75 43 77 44 28 45 80 46
REMARK SMILES IDX 74 47 73 48 29 50 61 51 41 52 60 53 42 54 45 55 59 56 78 57
REMARK SMILES IDX 43 58 44 59 58 61 79 62 46 63 30 64 31 65 39 66 32 67 34 68
REMARK SMILES IDX 40 69 33 70 35 71 36 72 37 73 38 74 62 75 63 76 71 77 64 78
REMARK SMILES IDX 66 79 72 80 65 81 67 82 68 83 69 84 70 85 47 86 48 87 56 88
REMARK SMILES IDX 49 89 51 90 57 91 50 92 52 93 53 94 54 95 55 96
REMARK H PARENT 13 6 6 14 18 30 77 49 45 60
REMARK Flexibility Score: inf
ROOT
ATOM      1  C   UNL     1       6.673  -6.942   6.802  1.00  0.00     0.023 C 
ENDROOT
BRANCH   1   2
ATOM      2  C   UNL     1       5.197  -7.173   7.134  1.00  0.00     0.116 C 
BRANCH   2   3
ATOM      3  N   UNL     1       4.830  -6.426   8.320  1.00  0.00    -0.352 N 
ATOM      4  C   UNL     1       4.243  -5.197   8.486  1.00  0.00     0.251 C 
ATOM      5  O   UNL     1       4.059  -4.799   9.636  1.00  0.00    -0.269 OA
ATOM      6  H   UNL     1       5.041  -6.885   9.165  1.00  0.00     0.163 HD
BRANCH   4   7
ATOM      7  C   UNL     1       3.764  -4.358   7.350  1.00  0.00     0.039 A 
ATOM      8  C   UNL     1       2.615  -2.816   5.282  1.00  0.00     0.040 A 
ATOM      9  C   UNL     1       2.147  -2.700   6.592  1.00  0.00     0.027 A 
ATOM     10  C   UNL     1       3.701  -3.655   5.030  1.00  0.00     0.027 A 
ATOM     11  C   UNL     1       2.704  -3.478   7.613  1.00  0.00     0.016 A 
ATOM     12  C   UNL     1       4.298  -4.382   6.061  1.00  0.00     0.016 A 
BRANCH   8  13
ATOM     13  N   UNL     1       2.029  -2.079   4.249  1.00  0.00    -0.340 N 
ATOM     14  H   UNL     1       1.939  -1.111   4.401  1.00  0.00     0.168 HD
BRANCH  13  15
ATOM     15  C   UNL     1       1.556  -2.562   3.018  1.00  0.00     0.134 A 
ATOM     16  C   UNL     1       0.784  -2.148   0.822  1.00  0.00     0.046 A 
ATOM     17  C   UNL     1       1.257  -1.653   2.021  1.00  0.00     0.071 A 
ATOM     18  N   UNL     1       0.587  -3.469   0.633  1.00  0.00    -0.238 NA
ATOM     19  C   UNL     1       0.885  -4.292   1.656  1.00  0.00     0.133 A 
ATOM     20  N   UNL     1       1.380  -3.882   2.835  1.00  0.00    -0.216 NA
BRANCH  16  21
ATOM     21  C   UNL     1       0.402  -1.266  -0.340  1.00  0.00     0.053 C 
ATOM     22  C   UNL     1       0.867   0.183  -0.280  1.00  0.00     0.011 C 
ENDBRANCH  16  21
BRANCH  19  23
ATOM     23  C   UNL     1       0.594  -5.769   1.503  1.00  0.00     0.051 C 
ATOM     24  C   UNL     1      -0.902  -6.006   1.291  1.00  0.00     0.016 C 
ATOM     25  C   UNL     1       1.411  -6.384   0.368  1.00  0.00     0.016 C 
ENDBRANCH  19  23
ENDBRANCH  13  15
ENDBRANCH   8  13
ENDBRANCH   4   7
ENDBRANCH   2   3
ENDBRANCH   1   2
BRANCH   1  26
ATOM     26  C   UNL     1       7.637  -7.760   7.667  1.00  0.00     0.023 C 
BRANCH  26  27
ATOM     27  C   UNL     1       7.488  -9.272   7.530  1.00  0.00     0.116 C 
BRANCH  27  28
ATOM     28  N   UNL     1       7.619  -9.731   6.157  1.00  0.00    -0.352 N 
ATOM     29  C   UNL     1       8.142 -10.912   5.689  1.00  0.00     0.251 C 
ATOM     30  H   UNL     1       7.288  -9.111   5.468  1.00  0.00     0.163 HD
ATOM     31  O   UNL     1       8.297 -11.074   4.486  1.00  0.00    -0.269 OA
BRANCH  29  32
ATOM     32  C   UNL     1       8.546 -11.964   6.646  1.00  0.00     0.039 A 
ATOM     33  C   UNL     1       9.768 -12.609   6.447  1.00  0.00     0.014 A 
ATOM     34  C   UNL     1       7.736 -12.310   7.731  1.00  0.00     0.014 A 
ATOM     35  C   UNL     1      10.194 -13.571   7.362  1.00  0.00     0.010 A 
ATOM     36  C   UNL     1       8.203 -13.207   8.688  1.00  0.00     0.010 A 
ATOM     37  C   UNL     1       9.430 -13.858   8.507  1.00  0.00    -0.014 A 
BRANCH  37  38
ATOM     38  C   UNL     1       9.931 -14.825   9.516  1.00  0.00     0.031 A 
ATOM     39  C   UNL     1       9.184 -16.099   9.806  1.00  0.00     0.074 A 
ATOM     40  C   UNL     1      11.056 -14.535  10.198  1.00  0.00     0.049 A 
ATOM     41  N   UNL     1       9.524 -17.089  10.591  1.00  0.00    -0.248 NA
ATOM     42  C   UNL     1       7.877 -16.277   9.153  1.00  0.00     0.031 C 
ATOM     43  C   UNL     1      11.814 -13.286  10.085  1.00  0.00     0.029 A 
ATOM     44  N   UNL     1      11.758 -15.264  11.124  1.00  0.00    -0.354 N 
ATOM     45  C   UNL     1       8.469 -17.993  10.545  1.00  0.00     0.074 A 
ATOM     46  C   UNL     1       7.456 -17.414   9.690  1.00  0.00     0.031 C 
ATOM     47  C   UNL     1      12.890 -13.350  10.884  1.00  0.00     0.029 A 
ATOM     48  C   UNL     1      12.887 -14.629  11.585  1.00  0.00     0.049 A 
ATOM     49  H   UNL     1      11.479 -16.158  11.429  1.00  0.00     0.167 HD
ATOM     50  C   UNL     1       8.364 -19.208  11.134  1.00  0.00     0.034 A 
ATOM     51  C   UNL     1      13.820 -15.036  12.466  1.00  0.00     0.034 A 
ATOM     52  C   UNL     1       9.386 -19.791  11.963  1.00  0.00     0.049 A 
ATOM     53  C   UNL     1      13.711 -16.414  13.058  1.00  0.00     0.074 A 
ATOM     54  C   UNL     1       9.417 -21.051  12.534  1.00  0.00     0.029 A 
ATOM     55  N   UNL     1      10.551 -19.148  12.353  1.00  0.00    -0.354 N 
ATOM     56  N   UNL     1      12.793 -17.328  12.859  1.00  0.00    -0.248 NA
ATOM     57  C   UNL     1      14.791 -16.832  13.961  1.00  0.00     0.031 C 
ATOM     58  C   UNL     1      10.585 -21.156  13.299  1.00  0.00     0.029 A 
ATOM     59  C   UNL     1      11.302 -19.978  13.169  1.00  0.00     0.049 A 
ATOM     60  H   UNL     1      10.807 -18.235  12.089  1.00  0.00     0.167 HD
ATOM     61  C   UNL     1      13.199 -18.440  13.587  1.00  0.00     0.074 A 
ATOM     62  C   UNL     1      14.466 -18.094  14.200  1.00  0.00     0.031 C 
ATOM     63  C   UNL     1      12.575 -19.634  13.749  1.00  0.00     0.034 A 
BRANCH  50  64
ATOM     64  C   UNL     1       7.117 -20.012  10.865  1.00  0.00     0.023 A 
ATOM     65  C   UNL     1       6.894 -20.550   9.580  1.00  0.00     0.012 A 
ATOM     66  C   UNL     1       6.195 -20.286  11.895  1.00  0.00     0.148 A 
ATOM     67  C   UNL     1       5.759 -21.314   9.314  1.00  0.00     0.002 A 
ATOM     68  C   UNL     1       5.090 -21.089  11.634  1.00  0.00     0.091 A 
ATOM     69  F   UNL     1       6.410 -19.750  13.105  1.00  0.00    -0.205 F 
ATOM     70  C   UNL     1       4.864 -21.593  10.343  1.00  0.00     0.022 A 
BRANCH  68  71
ATOM     71  S   UNL     1       3.922 -21.577  12.909  1.00  0.00     0.127 S 
ATOM     72  O   UNL     1       2.721 -20.849  12.503  1.00  0.00    -0.237 OA
ATOM     73  O   UNL     1       3.850 -23.026  12.719  1.00  0.00    -0.237 OA
ATOM     74  O   UNL     1       4.508 -21.158  14.174  1.00  0.00    -0.744 OA
ENDBRANCH  68  71
ENDBRANCH  50  64
BRANCH  51  75
ATOM     75  C   UNL     1      14.978 -14.153  12.786  1.00  0.00     0.023 A 
ATOM     76  C   UNL     1      16.270 -14.511  12.353  1.00  0.00     0.012 A 
ATOM     77  C   UNL     1      14.801 -12.952  13.499  1.00  0.00     0.148 A 
ATOM     78  C   UNL     1      17.370 -13.709  12.658  1.00  0.00     0.002 A 
ATOM     79  C   UNL     1      15.892 -12.128  13.747  1.00  0.00     0.091 A 
ATOM     80  F   UNL     1      13.566 -12.634  13.909  1.00  0.00    -0.205 F 
ATOM     81  C   UNL     1      17.180 -12.514  13.346  1.00  0.00     0.022 A 
BRANCH  79  82
ATOM     82  S   UNL     1      15.720 -10.508  14.503  1.00  0.00     0.127 S 
ATOM     83  O   UNL     1      16.348 -10.718  15.805  1.00  0.00    -0.237 OA
ATOM     84  O   UNL     1      16.480  -9.664  13.580  1.00  0.00    -0.237 OA
ATOM     85  O   UNL     1      14.290 -10.235  14.527  1.00  0.00    -0.744 OA
ENDBRANCH  79  82
ENDBRANCH  51  75
BRANCH  63  86
ATOM     86  C   UNL     1      13.269 -20.664  14.604  1.00  0.00     0.023 A 
ATOM     87  C   UNL     1      13.393 -20.460  15.993  1.00  0.00     0.012 A 
ATOM     88  C   UNL     1      13.779 -21.847  14.034  1.00  0.00     0.148 A 
ATOM     89  C   UNL     1      14.064 -21.386  16.791  1.00  0.00     0.002 A 
ATOM     90  C   UNL     1      14.396 -22.793  14.844  1.00  0.00     0.091 A 
ATOM     91  F   UNL     1      13.669 -22.020  12.708  1.00  0.00    -0.205 F 
ATOM     92  C   UNL     1      14.557 -22.555  16.218  1.00  0.00     0.022 A 
BRANCH  90  93
ATOM     93  S   UNL     1      14.971 -24.371  14.207  1.00  0.00     0.127 S 
ATOM     94  O   UNL     1      16.418 -24.167  14.165  1.00  0.00    -0.237 OA
ATOM     95  O   UNL     1      14.517 -25.306  15.238  1.00  0.00    -0.237 OA
ATOM     96  O   UNL     1      14.322 -24.540  12.914  1.00  0.00    -0.744 OA
ENDBRANCH  90  93
ENDBRANCH  63  86
ENDBRANCH  37  38
ENDBRANCH  29  32
ENDBRANCH  27  28
ENDBRANCH  26  27
ENDBRANCH   1  26
TORSDOF 18
