REMARK SMILES O=C(NCCCCNC(=O)c1ccc(Nc2c([N+](=O)[O-])c(=O)oc3ccccc23)cc1O)c1ccc(-c2c3nc(c(-c4cccc(S(=O)(=O)[O-])c4F)c4ccc([nH]4)c(-c4cccc(S(=O)(=O)[O-])c4F)c4nc(c(-c5cccc(S(=O)(=O)[O-])c5F)c5ccc2[nH]5)C=C4)C=C3)cc1
REMARK SMILES IDX 5 1 4 2 3 3 1 4 2 5 33 7 34 8 95 9 35 10 94 11 36 12 37 13
REMARK SMILES IDX 38 14 88 15 39 16 93 17 87 18 89 19 40 20 92 21 86 22 85 23
REMARK SMILES IDX 41 25 73 26 53 27 72 28 54 29 57 30 71 31 90 32 55 33 56 34
REMARK SMILES IDX 70 36 91 37 58 38 42 39 43 40 51 41 44 42 46 43 52 44 45 45
REMARK SMILES IDX 47 46 48 47 49 48 50 49 74 50 75 51 83 52 76 53 78 54 84 55
REMARK SMILES IDX 77 56 79 57 80 58 81 59 82 60 59 61 60 62 68 63 61 64 63 65
REMARK SMILES IDX 69 66 62 67 64 68 65 69 66 70 67 71 6 72 7 73 8 74 9 75
REMARK SMILES IDX 10 77 11 78 12 79 31 80 13 81 30 82 14 83 32 84 15 86 16 88
REMARK SMILES IDX 17 89 29 90 21 91 24 92 28 93 22 94 23 95 25 96 27 97 26 98
REMARK SMILES IDX 18 99 19 100 20 101
REMARK H PARENT 3 6 89 24 57 35 8 76 32 85 15 87
REMARK Flexibility Score: inf
ROOT
ATOM      1  C   UNL     1       4.889   2.675  -0.358  1.00  0.00     0.023 C 
ENDROOT
BRANCH   1   2
ATOM      2  C   UNL     1       4.533   1.327   0.255  1.00  0.00     0.116 C 
BRANCH   2   3
ATOM      3  N   UNL     1       3.099   1.101   0.327  1.00  0.00    -0.352 N 
ATOM      4  O   UNL     1       1.141   0.091  -0.143  1.00  0.00    -0.269 OA
ATOM      5  C   UNL     1       2.367   0.045  -0.164  1.00  0.00     0.251 C 
ATOM      6  H   UNL     1       2.581   1.798   0.790  1.00  0.00     0.163 HD
BRANCH   5   7
ATOM      7  C   UNL     1       3.066  -1.126  -0.739  1.00  0.00     0.039 A 
ATOM      8  C   UNL     1       4.155  -1.700  -0.076  1.00  0.00     0.014 A 
ATOM      9  C   UNL     1       2.625  -1.658  -1.954  1.00  0.00     0.014 A 
ATOM     10  C   UNL     1       4.879  -2.719  -0.686  1.00  0.00     0.010 A 
ATOM     11  C   UNL     1       3.306  -2.737  -2.527  1.00  0.00     0.010 A 
ATOM     12  C   UNL     1       4.450  -3.263  -1.908  1.00  0.00    -0.014 A 
BRANCH  12  13
ATOM     13  C   UNL     1       5.142  -4.459  -2.451  1.00  0.00     0.031 A 
ATOM     14  C   UNL     1       5.888  -4.419  -3.755  1.00  0.00     0.074 A 
ATOM     15  C   UNL     1       5.067  -5.606  -1.746  1.00  0.00     0.049 A 
ATOM     16  N   UNL     1       6.556  -5.378  -4.343  1.00  0.00    -0.248 NA
ATOM     17  C   UNL     1       5.882  -3.151  -4.501  1.00  0.00     0.031 C 
ATOM     18  C   UNL     1       4.318  -5.775  -0.497  1.00  0.00     0.029 A 
ATOM     19  N   UNL     1       5.611  -6.843  -1.975  1.00  0.00    -0.354 N 
ATOM     20  C   UNL     1       7.016  -4.848  -5.543  1.00  0.00     0.074 A 
ATOM     21  C   UNL     1       6.553  -3.478  -5.600  1.00  0.00     0.031 C 
ATOM     22  C   UNL     1       4.459  -7.036  -0.065  1.00  0.00     0.029 A 
ATOM     23  C   UNL     1       5.267  -7.777  -1.026  1.00  0.00     0.049 A 
ATOM     24  H   UNL     1       6.192  -7.043  -2.744  1.00  0.00     0.167 HD
ATOM     25  C   UNL     1       7.765  -5.449  -6.498  1.00  0.00     0.034 A 
ATOM     26  C   UNL     1       5.548  -9.091  -0.946  1.00  0.00     0.034 A 
ATOM     27  C   UNL     1       8.261  -6.799  -6.409  1.00  0.00     0.049 A 
ATOM     28  C   UNL     1       6.407  -9.714  -2.007  1.00  0.00     0.074 A 
ATOM     29  C   UNL     1       9.117  -7.457  -7.275  1.00  0.00     0.029 A 
ATOM     30  N   UNL     1       7.935  -7.700  -5.408  1.00  0.00    -0.354 N 
ATOM     31  N   UNL     1       6.976  -9.147  -3.042  1.00  0.00    -0.248 NA
ATOM     32  C   UNL     1       6.684 -11.151  -1.877  1.00  0.00     0.031 C 
ATOM     33  C   UNL     1       9.289  -8.766  -6.810  1.00  0.00     0.029 A 
ATOM     34  C   UNL     1       8.552  -8.917  -5.647  1.00  0.00     0.049 A 
ATOM     35  H   UNL     1       7.351  -7.505  -4.640  1.00  0.00     0.167 HD
ATOM     36  C   UNL     1       7.687 -10.153  -3.682  1.00  0.00     0.074 A 
ATOM     37  C   UNL     1       7.510 -11.356  -2.894  1.00  0.00     0.031 C 
ATOM     38  C   UNL     1       8.399 -10.094  -4.833  1.00  0.00     0.034 A 
BRANCH  25  39
ATOM     39  C   UNL     1       8.150  -4.651  -7.715  1.00  0.00     0.023 A 
ATOM     40  C   UNL     1       9.189  -3.704  -7.623  1.00  0.00     0.012 A 
ATOM     41  C   UNL     1       7.574  -4.927  -8.972  1.00  0.00     0.148 A 
ATOM     42  C   UNL     1       9.643  -3.036  -8.760  1.00  0.00     0.002 A 
ATOM     43  C   UNL     1       8.055  -4.282 -10.106  1.00  0.00     0.091 A 
ATOM     44  F   UNL     1       6.577  -5.821  -9.034  1.00  0.00    -0.205 F 
ATOM     45  C   UNL     1       9.085  -3.333 -10.001  1.00  0.00     0.022 A 
BRANCH  43  46
ATOM     46  S   UNL     1       7.455  -4.646 -11.761  1.00  0.00     0.127 S 
ATOM     47  O   UNL     1       6.764  -3.403 -12.103  1.00  0.00    -0.237 OA
ATOM     48  O   UNL     1       8.700  -4.872 -12.496  1.00  0.00    -0.237 OA
ATOM     49  O   UNL     1       6.601  -5.817 -11.632  1.00  0.00    -0.744 OA
ENDBRANCH  43  46
ENDBRANCH  25  39
BRANCH  26  50
ATOM     50  C   UNL     1       5.032  -9.888   0.201  1.00  0.00     0.023 A 
ATOM     51  C   UNL     1       5.929 -10.376   1.169  1.00  0.00     0.012 A 
ATOM     52  C   UNL     1       3.653 -10.128   0.360  1.00  0.00     0.148 A 
ATOM     53  C   UNL     1       5.465 -11.109   2.261  1.00  0.00     0.002 A 
ATOM     54  C   UNL     1       3.192 -10.805   1.482  1.00  0.00     0.091 A 
ATOM     55  F   UNL     1       2.812  -9.677  -0.582  1.00  0.00    -0.205 F 
ATOM     56  C   UNL     1       4.096 -11.312   2.426  1.00  0.00     0.022 A 
BRANCH  54  57
ATOM     57  S   UNL     1       1.436 -10.960   1.827  1.00  0.00     0.127 S 
ATOM     58  O   UNL     1       1.139 -12.286   1.293  1.00  0.00    -0.237 OA
ATOM     59  O   UNL     1       1.392 -10.860   3.287  1.00  0.00    -0.237 OA
ATOM     60  O   UNL     1       0.817  -9.834   1.139  1.00  0.00    -0.744 OA
ENDBRANCH  54  57
ENDBRANCH  26  50
BRANCH  38  61
ATOM     61  C   UNL     1       9.037 -11.369  -5.313  1.00  0.00     0.023 A 
ATOM     62  C   UNL     1       8.227 -12.375  -5.877  1.00  0.00     0.012 A 
ATOM     63  C   UNL     1      10.432 -11.551  -5.260  1.00  0.00     0.148 A 
ATOM     64  C   UNL     1       8.793 -13.556  -6.353  1.00  0.00     0.002 A 
ATOM     65  C   UNL     1      10.994 -12.713  -5.776  1.00  0.00     0.091 A 
ATOM     66  F   UNL     1      11.183 -10.591  -4.700  1.00  0.00    -0.205 F 
ATOM     67  C   UNL     1      10.176 -13.721  -6.312  1.00  0.00     0.022 A 
BRANCH  65  68
ATOM     68  S   UNL     1      12.770 -12.972  -5.843  1.00  0.00     0.127 S 
ATOM     69  O   UNL     1      12.973 -13.933  -4.759  1.00  0.00    -0.237 OA
ATOM     70  O   UNL     1      12.956 -13.521  -7.187  1.00  0.00    -0.237 OA
ATOM     71  O   UNL     1      13.372 -11.661  -5.640  1.00  0.00    -0.744 OA
ENDBRANCH  65  68
ENDBRANCH  38  61
ENDBRANCH  12  13
ENDBRANCH   5   7
ENDBRANCH   2   3
ENDBRANCH   1   2
BRANCH   1  72
ATOM     72  C   UNL     1       4.422   3.894   0.432  1.00  0.00     0.023 C 
BRANCH  72  73
ATOM     73  C   UNL     1       4.788   3.896   1.913  1.00  0.00     0.116 C 
BRANCH  73  74
ATOM     74  N   UNL     1       6.212   3.739   2.152  1.00  0.00    -0.352 N 
ATOM     75  C   UNL     1       7.027   4.465   2.983  1.00  0.00     0.255 C 
ATOM     76  H   UNL     1       6.651   3.014   1.651  1.00  0.00     0.163 HD
ATOM     77  O   UNL     1       8.228   4.217   3.054  1.00  0.00    -0.269 OA
BRANCH  75  78
ATOM     78  C   UNL     1       6.484   5.619   3.724  1.00  0.00     0.081 A 
ATOM     79  C   UNL     1       7.067   6.861   3.468  1.00  0.00     0.020 A 
ATOM     80  C   UNL     1       5.434   5.520   4.639  1.00  0.00     0.130 A 
ATOM     81  C   UNL     1       6.557   8.008   4.077  1.00  0.00     0.027 A 
ATOM     82  C   UNL     1       4.910   6.675   5.227  1.00  0.00     0.073 A 
ATOM     83  C   UNL     1       5.459   7.937   4.946  1.00  0.00     0.042 A 
BRANCH  80  84
ATOM     84  O   UNL     1       4.903   4.300   4.950  1.00  0.00    -0.507 OA
ATOM     85  H   UNL     1       5.252   3.523   4.558  1.00  0.00     0.293 HD
ENDBRANCH  80  84
BRANCH  83  86
ATOM     86  N   UNL     1       4.851   9.079   5.503  1.00  0.00    -0.349 N 
ATOM     87  H   UNL     1       4.097   8.920   6.115  1.00  0.00     0.167 HD
BRANCH  86  88
ATOM     88  C   UNL     1       5.200  10.402   5.285  1.00  0.00     0.137 A 
ATOM     89  C   UNL     1       5.096  11.112   4.145  1.00  0.00     0.377 A 
ATOM     90  C   UNL     1       5.763  11.131   6.445  1.00  0.00     0.048 A 
ATOM     91  C   UNL     1       5.503  12.499   3.945  1.00  0.00     0.417 A 
ATOM     92  C   UNL     1       6.249  12.428   6.266  1.00  0.00     0.141 A 
ATOM     93  C   UNL     1       5.879  10.572   7.729  1.00  0.00     0.014 A 
ATOM     94  O   UNL     1       5.302  13.138   2.919  1.00  0.00    -0.238 OA
ATOM     95  O   UNL     1       6.153  13.084   5.025  1.00  0.00    -0.418 OA
ATOM     96  C   UNL     1       6.843  13.153   7.299  1.00  0.00     0.048 A 
ATOM     97  C   UNL     1       6.457  11.294   8.779  1.00  0.00     0.001 A 
ATOM     98  C   UNL     1       6.945  12.581   8.563  1.00  0.00     0.004 A 
BRANCH  89  99
ATOM     99  N   UNL     1       4.463  10.494   3.019  1.00  0.00     0.073 N 
ATOM    100  O   UNL     1       3.243  10.292   3.095  1.00  0.00    -0.258 OA
ATOM    101  O   UNL     1       5.185  10.214   2.052  1.00  0.00    -0.258 OA
ENDBRANCH  89  99
ENDBRANCH  86  88
ENDBRANCH  83  86
ENDBRANCH  75  78
ENDBRANCH  73  74
ENDBRANCH  72  73
ENDBRANCH   1  72
TORSDOF 18
