REMARK SMILES NS(=O)(=O)c1ccc(-n2nc(C(=O)NCCCC(=O)NCCCCNC(=O)c3ccc(-c4c5nc(c(-c6cccc(S(=O)(=O)[O-])c6F)c6ccc([nH]6)c(-c6cccc(S(=O)(=O)[O-])c6F)c6nc(c(-c7cccc(S(=O)(=O)[O-])c7F)c7ccc4[nH]7)C=C6)C=C5)cc3)cc2-c2ccccc2)cc1
REMARK SMILES IDX 18 1 19 2 20 3 17 5 16 6 15 7 14 8 12 9 13 10 11 12 9 13
REMARK SMILES IDX 10 14 92 15 91 16 8 17 5 18 6 19 100 20 7 21 99 22 2 23 3 24
REMARK SMILES IDX 4 25 1 26 93 29 94 30 98 31 95 32 97 33 96 34 21 35 22 36
REMARK SMILES IDX 23 37 24 38 25 39 26 40 27 42 28 43 29 44 90 45 30 46 89 47
REMARK SMILES IDX 31 48 32 49 33 50 83 51 34 52 88 53 82 54 84 55 35 56 87 57
REMARK SMILES IDX 81 58 80 59 36 61 68 62 48 63 67 64 49 65 52 66 66 67 85 68
REMARK SMILES IDX 50 69 51 70 65 72 86 73 53 74 37 75 38 76 46 77 39 78 41 79
REMARK SMILES IDX 47 80 40 81 42 82 43 83 44 84 45 85 69 86 70 87 78 88 71 89
REMARK SMILES IDX 73 90 79 91 72 92 74 93 75 94 76 95 77 96 54 97 55 98 63 99
REMARK SMILES IDX 56 100 58 101 64 102 57 103 59 104 60 105 61 106 62 107
REMARK H PARENT 20 4 14 11 1 27 1 28 25 41 84 60 52 71
REMARK Flexibility Score: inf
ROOT
ATOM      1  C   UNL     1       3.773 -12.688   5.775  1.00  0.00     0.220 C 
ATOM      2  O   UNL     1       4.587 -13.464   5.270  1.00  0.00    -0.275 OA
ATOM      3  N   UNL     1       2.477 -12.753   5.365  1.00  0.00    -0.356 N 
ATOM      4  H   UNL     1       2.252 -13.553   4.836  1.00  0.00     0.163 HD
ENDROOT
BRANCH   1   5
ATOM      5  C   UNL     1       4.217 -11.671   6.808  1.00  0.00     0.102 C 
BRANCH   5   6
ATOM      6  C   UNL     1       4.926 -10.456   6.205  1.00  0.00     0.031 C 
BRANCH   6   7
ATOM      7  C   UNL     1       4.007  -9.393   5.615  1.00  0.00     0.116 C 
BRANCH   7   8
ATOM      8  N   UNL     1       3.047  -8.840   6.552  1.00  0.00    -0.351 N 
ATOM      9  C   UNL     1       2.208  -7.751   6.425  1.00  0.00     0.271 C 
ATOM     10  O   UNL     1       1.520  -7.452   7.401  1.00  0.00    -0.267 OA
ATOM     11  H   UNL     1       2.984  -9.316   7.412  1.00  0.00     0.163 HD
BRANCH   9  12
ATOM     12  C   UNL     1       2.170  -6.980   5.165  1.00  0.00     0.151 A 
ATOM     13  N   UNL     1       1.883  -5.298   3.865  1.00  0.00    -0.232 N 
ATOM     14  N   UNL     1       1.927  -5.652   5.169  1.00  0.00    -0.162 NA
ATOM     15  C   UNL     1       2.394  -6.299   3.051  1.00  0.00     0.075 A 
ATOM     16  C   UNL     1       2.389  -7.429   3.837  1.00  0.00     0.065 A 
BRANCH  13  17
ATOM     17  C   UNL     1       1.411  -4.022   3.453  1.00  0.00     0.065 A 
ATOM     18  C   UNL     1       0.713  -1.502   2.502  1.00  0.00     0.082 A 
ATOM     19  C   UNL     1       0.437  -2.627   1.725  1.00  0.00     0.024 A 
ATOM     20  C   UNL     1       1.278  -1.630   3.776  1.00  0.00     0.024 A 
ATOM     21  C   UNL     1       0.792  -3.886   2.200  1.00  0.00     0.030 A 
ATOM     22  C   UNL     1       1.603  -2.900   4.268  1.00  0.00     0.030 A 
BRANCH  18  23
ATOM     23  S   UNL     1       0.384   0.093   1.818  1.00  0.00     0.238 S 
ATOM     24  O   UNL     1       1.143   1.095   2.550  1.00  0.00    -0.207 OA
ATOM     25  O   UNL     1      -1.018   0.218   1.553  1.00  0.00    -0.207 OA
BRANCH  23  26
ATOM     26  N   UNL     1       1.143   0.007   0.316  1.00  0.00    -0.225 NA
ATOM     27  H   UNL     1       1.017   0.890  -0.179  1.00  0.00     0.137 HD
ATOM     28  H   UNL     1       0.731  -0.751  -0.230  1.00  0.00     0.137 HD
ENDBRANCH  23  26
ENDBRANCH  18  23
ENDBRANCH  13  17
BRANCH  15  29
ATOM     29  C   UNL     1       2.942  -6.109   1.710  1.00  0.00     0.000 A 
ATOM     30  C   UNL     1       3.893  -5.101   1.485  1.00  0.00     0.010 A 
ATOM     31  C   UNL     1       2.563  -6.937   0.651  1.00  0.00     0.010 A 
ATOM     32  C   UNL     1       4.429  -4.899   0.215  1.00  0.00     0.001 A 
ATOM     33  C   UNL     1       3.102  -6.734  -0.622  1.00  0.00     0.001 A 
ATOM     34  C   UNL     1       4.028  -5.714  -0.840  1.00  0.00     0.000 A 
ENDBRANCH  15  29
ENDBRANCH   9  12
ENDBRANCH   7   8
ENDBRANCH   6   7
ENDBRANCH   5   6
ENDBRANCH   1   5
BRANCH   3  35
ATOM     35  C   UNL     1       1.371 -11.837   5.581  1.00  0.00     0.116 C 
BRANCH  35  36
ATOM     36  C   UNL     1       1.040 -11.077   4.288  1.00  0.00     0.023 C 
BRANCH  36  37
ATOM     37  C   UNL     1       0.225 -11.857   3.251  1.00  0.00     0.023 C 
BRANCH  37  38
ATOM     38  C   UNL     1      -1.240 -12.037   3.619  1.00  0.00     0.116 C 
BRANCH  38  39
ATOM     39  N   UNL     1      -1.971 -10.770   3.647  1.00  0.00    -0.352 N 
ATOM     40  C   UNL     1      -3.228 -10.546   4.171  1.00  0.00     0.251 C 
ATOM     41  H   UNL     1      -1.517  -9.993   3.247  1.00  0.00     0.163 HD
ATOM     42  O   UNL     1      -3.910  -9.596   3.807  1.00  0.00    -0.269 OA
BRANCH  40  43
ATOM     43  C   UNL     1      -3.726 -11.487   5.185  1.00  0.00     0.039 A 
ATOM     44  C   UNL     1      -4.974 -12.098   5.042  1.00  0.00     0.014 A 
ATOM     45  C   UNL     1      -2.863 -11.823   6.228  1.00  0.00     0.014 A 
ATOM     46  C   UNL     1      -5.312 -13.135   5.906  1.00  0.00     0.010 A 
ATOM     47  C   UNL     1      -3.156 -12.914   7.013  1.00  0.00     0.010 A 
ATOM     48  C   UNL     1      -4.385 -13.560   6.870  1.00  0.00    -0.014 A 
BRANCH  48  49
ATOM     49  C   UNL     1      -4.611 -14.804   7.606  1.00  0.00     0.031 A 
ATOM     50  C   UNL     1      -4.777 -16.010   6.743  1.00  0.00     0.074 A 
ATOM     51  C   UNL     1      -4.406 -14.905   8.937  1.00  0.00     0.049 A 
ATOM     52  N   UNL     1      -5.823 -16.761   6.617  1.00  0.00    -0.248 NA
ATOM     53  C   UNL     1      -3.698 -16.337   5.795  1.00  0.00     0.031 C 
ATOM     54  C   UNL     1      -3.905 -13.856   9.835  1.00  0.00     0.029 A 
ATOM     55  N   UNL     1      -4.426 -16.006   9.740  1.00  0.00    -0.354 N 
ATOM     56  C   UNL     1      -5.430 -17.808   5.780  1.00  0.00     0.074 A 
ATOM     57  C   UNL     1      -4.229 -17.363   5.128  1.00  0.00     0.031 C 
ATOM     58  C   UNL     1      -3.410 -14.425  10.954  1.00  0.00     0.029 A 
ATOM     59  C   UNL     1      -3.712 -15.843  10.927  1.00  0.00     0.049 A 
ATOM     60  H   UNL     1      -4.899 -16.837   9.505  1.00  0.00     0.167 HD
ATOM     61  C   UNL     1      -5.949 -19.060   5.929  1.00  0.00     0.034 A 
ATOM     62  C   UNL     1      -3.341 -16.810  11.799  1.00  0.00     0.034 A 
ATOM     63  C   UNL     1      -7.142 -19.032   6.741  1.00  0.00     0.049 A 
ATOM     64  C   UNL     1      -4.210 -17.980  11.552  1.00  0.00     0.074 A 
ATOM     65  C   UNL     1      -8.355 -18.375   6.698  1.00  0.00     0.029 A 
ATOM     66  N   UNL     1      -7.017 -19.512   8.022  1.00  0.00    -0.354 N 
ATOM     67  N   UNL     1      -5.492 -17.988  11.784  1.00  0.00    -0.248 NA
ATOM     68  C   UNL     1      -3.725 -19.026  10.669  1.00  0.00     0.031 C 
ATOM     69  C   UNL     1      -8.671 -18.098   8.062  1.00  0.00     0.029 A 
ATOM     70  C   UNL     1      -7.675 -18.660   8.862  1.00  0.00     0.049 A 
ATOM     71  H   UNL     1      -6.536 -20.328   8.288  1.00  0.00     0.167 HD
ATOM     72  C   UNL     1      -6.023 -18.711  10.725  1.00  0.00     0.074 A 
ATOM     73  C   UNL     1      -4.889 -19.442  10.164  1.00  0.00     0.031 C 
ATOM     74  C   UNL     1      -7.257 -18.407  10.223  1.00  0.00     0.034 A 
BRANCH  61  75
ATOM     75  C   UNL     1      -5.174 -20.361   5.747  1.00  0.00     0.023 A 
ATOM     76  C   UNL     1      -5.899 -21.564   5.934  1.00  0.00     0.012 A 
ATOM     77  C   UNL     1      -3.765 -20.475   5.723  1.00  0.00     0.148 A 
ATOM     78  C   UNL     1      -5.260 -22.781   6.199  1.00  0.00     0.002 A 
ATOM     79  C   UNL     1      -3.134 -21.701   5.909  1.00  0.00     0.091 A 
ATOM     80  F   UNL     1      -2.998 -19.387   5.645  1.00  0.00    -0.205 F 
ATOM     81  C   UNL     1      -3.874 -22.850   6.190  1.00  0.00     0.022 A 
BRANCH  79  82
ATOM     82  S   UNL     1      -1.342 -21.856   5.857  1.00  0.00     0.127 S 
ATOM     83  O   UNL     1      -1.031 -22.068   7.267  1.00  0.00    -0.237 OA
ATOM     84  O   UNL     1      -1.171 -23.027   4.998  1.00  0.00    -0.237 OA
ATOM     85  O   UNL     1      -0.857 -20.611   5.274  1.00  0.00    -0.744 OA
ENDBRANCH  79  82
ENDBRANCH  61  75
BRANCH  62  86
ATOM     86  C   UNL     1      -2.165 -16.888  12.696  1.00  0.00     0.023 A 
ATOM     87  C   UNL     1      -2.187 -17.770  13.795  1.00  0.00     0.012 A 
ATOM     88  C   UNL     1      -0.927 -16.316  12.326  1.00  0.00     0.148 A 
ATOM     89  C   UNL     1      -1.011 -18.103  14.478  1.00  0.00     0.002 A 
ATOM     90  C   UNL     1       0.238 -16.642  13.014  1.00  0.00     0.091 A 
ATOM     91  F   UNL     1      -0.877 -15.527  11.244  1.00  0.00    -0.205 F 
ATOM     92  C   UNL     1       0.202 -17.547  14.082  1.00  0.00     0.022 A 
BRANCH  90  93
ATOM     93  S   UNL     1       1.843 -15.977  12.548  1.00  0.00     0.127 S 
ATOM     94  O   UNL     1       2.377 -15.538  13.838  1.00  0.00    -0.237 OA
ATOM     95  O   UNL     1       2.503 -17.149  11.980  1.00  0.00    -0.237 OA
ATOM     96  O   UNL     1       1.569 -14.891  11.614  1.00  0.00    -0.744 OA
ENDBRANCH  90  93
ENDBRANCH  62  86
BRANCH  74  97
ATOM     97  C   UNL     1      -8.163 -17.527  11.043  1.00  0.00     0.023 A 
ATOM     98  C   UNL     1      -7.843 -16.192  11.368  1.00  0.00     0.012 A 
ATOM     99  C   UNL     1      -9.443 -18.014  11.355  1.00  0.00     0.148 A 
ATOM    100  C   UNL     1      -8.772 -15.371  12.013  1.00  0.00     0.002 A 
ATOM    101  C   UNL     1     -10.381 -17.181  11.951  1.00  0.00     0.091 A 
ATOM    102  F   UNL     1      -9.732 -19.286  11.039  1.00  0.00    -0.205 F 
ATOM    103  C   UNL     1     -10.046 -15.861  12.292  1.00  0.00     0.022 A 
BRANCH 101 104
ATOM    104  S   UNL     1     -12.071 -17.721  12.214  1.00  0.00     0.127 S 
ATOM    105  O   UNL     1     -12.080 -18.009  13.646  1.00  0.00    -0.237 OA
ATOM    106  O   UNL     1     -12.845 -16.542  11.821  1.00  0.00    -0.237 OA
ATOM    107  O   UNL     1     -12.261 -18.872  11.339  1.00  0.00    -0.744 OA
ENDBRANCH 101 104
ENDBRANCH  74  97
ENDBRANCH  48  49
ENDBRANCH  40  43
ENDBRANCH  38  39
ENDBRANCH  37  38
ENDBRANCH  36  37
ENDBRANCH  35  36
ENDBRANCH   3  35
TORSDOF 22
