REMARK SMILES Cc1ccc(S(=O)(=O)Nc2cc3c(cc2C(=O)NCCCCNC(=O)c2ccc(-c4c5nc(c(-c6cccc(S(=O)(=O)[O-])c6F)c6ccc([nH]6)c(-c6cccc(S(=O)(=O)[O-])c6F)c6nc(c(-c7cccc(S(=O)(=O)[O-])c7F)c7ccc4[nH]7)C=C6)C=C5)cc2)OCCO3)s1
REMARK SMILES IDX 20 1 19 2 18 3 16 4 17 5 15 7 10 8 11 9 12 10 14 11 13 12
REMARK SMILES IDX 92 13 89 14 91 15 90 16 9 17 6 19 7 20 8 21 5 22 1 23 2 24
REMARK SMILES IDX 3 25 93 26 4 27 21 28 22 29 23 30 24 31 25 33 26 34 27 35
REMARK SMILES IDX 88 36 28 37 87 38 29 39 30 40 31 41 81 42 32 43 86 44 80 45
REMARK SMILES IDX 82 46 33 47 85 48 79 49 78 50 34 52 66 53 46 54 65 55 47 56
REMARK SMILES IDX 50 57 64 58 83 59 48 60 49 61 63 63 84 64 51 65 35 66 36 67
REMARK SMILES IDX 44 68 37 69 39 70 45 71 38 72 40 73 41 74 42 75 43 76 67 77
REMARK SMILES IDX 68 78 76 79 69 80 71 81 77 82 70 83 72 84 73 85 74 86 75 87
REMARK SMILES IDX 52 88 53 89 61 90 54 91 56 92 62 93 55 94 57 95 58 96 59 97
REMARK SMILES IDX 60 98
REMARK H PARENT 18 6 9 18 23 32 82 51 50 62
REMARK Flexibility Score: inf
ROOT
ATOM      1  C   UNL     1       0.958  -2.998   2.093  1.00  0.00     0.023 C 
ENDROOT
BRANCH   1   2
ATOM      2  C   UNL     1      -0.497  -3.309   2.415  1.00  0.00     0.116 C 
BRANCH   2   3
ATOM      3  N   UNL     1      -1.317  -2.166   2.779  1.00  0.00    -0.352 N 
ATOM      4  C   UNL     1      -2.608  -1.831   2.433  1.00  0.00     0.253 C 
ATOM      5  O   UNL     1      -3.154  -0.899   3.016  1.00  0.00    -0.269 OA
ATOM      6  H   UNL     1      -0.874  -1.520   3.376  1.00  0.00     0.163 HD
BRANCH   4   7
ATOM      7  C   UNL     1      -3.328  -2.555   1.353  1.00  0.00     0.067 A 
ATOM      8  C   UNL     1      -4.021  -1.847   0.348  1.00  0.00     0.066 A 
ATOM      9  C   UNL     1      -4.599  -2.546  -0.721  1.00  0.00     0.078 A 
ATOM     10  C   UNL     1      -4.467  -3.932  -0.799  1.00  0.00     0.163 A 
ATOM     11  C   UNL     1      -3.316  -3.953   1.325  1.00  0.00     0.066 A 
ATOM     12  C   UNL     1      -3.815  -4.630   0.219  1.00  0.00     0.162 A 
ATOM     13  O   UNL     1      -4.982  -4.546  -1.913  1.00  0.00    -0.486 OA
ATOM     14  O   UNL     1      -3.598  -5.983   0.185  1.00  0.00    -0.486 OA
ATOM     15  C   UNL     1      -4.990  -5.975  -1.787  1.00  0.00     0.271 C 
ATOM     16  C   UNL     1      -3.703  -6.476  -1.155  1.00  0.00     0.271 C 
BRANCH   8  17
ATOM     17  N   UNL     1      -4.160  -0.424   0.418  1.00  0.00    -0.278 N 
ATOM     18  H   UNL     1      -4.753  -0.013   1.087  1.00  0.00     0.180 HD
BRANCH  17  19
ATOM     19  S   UNL     1      -3.293   0.538  -0.660  1.00  0.00     0.271 S 
ATOM     20  O   UNL     1      -3.337   1.892  -0.168  1.00  0.00    -0.200 OA
ATOM     21  O   UNL     1      -3.781   0.226  -1.993  1.00  0.00    -0.200 OA
BRANCH  19  22
ATOM     22  C   UNL     1      -1.599  -0.005  -0.681  1.00  0.00     0.140 A 
ATOM     23  C   UNL     1       2.245   0.206   0.083  1.00  0.00     0.056 C 
ATOM     24  C   UNL     1       0.843  -0.090  -0.331  1.00  0.00     0.003 A 
ATOM     25  C   UNL     1       0.394  -1.130  -1.120  1.00  0.00     0.016 A 
ATOM     26  S   UNL     1      -0.447   0.915   0.178  1.00  0.00    -0.127 S 
ATOM     27  C   UNL     1      -1.014  -1.091  -1.305  1.00  0.00     0.034 A 
ENDBRANCH  19  22
ENDBRANCH  17  19
ENDBRANCH   8  17
ENDBRANCH   4   7
ENDBRANCH   2   3
ENDBRANCH   1   2
BRANCH   1  28
ATOM     28  C   UNL     1       1.742  -2.198   3.123  1.00  0.00     0.023 C 
BRANCH  28  29
ATOM     29  C   UNL     1       1.684  -2.725   4.549  1.00  0.00     0.116 C 
BRANCH  29  30
ATOM     30  N   UNL     1       2.045  -4.129   4.665  1.00  0.00    -0.352 N 
ATOM     31  C   UNL     1       2.852  -4.752   5.586  1.00  0.00     0.251 C 
ATOM     32  H   UNL     1       1.652  -4.721   3.983  1.00  0.00     0.163 HD
ATOM     33  O   UNL     1       3.092  -5.951   5.465  1.00  0.00    -0.269 OA
BRANCH  31  34
ATOM     34  C   UNL     1       3.458  -3.980   6.694  1.00  0.00     0.039 A 
ATOM     35  C   UNL     1       4.795  -4.219   7.025  1.00  0.00     0.014 A 
ATOM     36  C   UNL     1       2.722  -3.027   7.402  1.00  0.00     0.014 A 
ATOM     37  C   UNL     1       5.407  -3.465   8.029  1.00  0.00     0.010 A 
ATOM     38  C   UNL     1       3.357  -2.217   8.338  1.00  0.00     0.010 A 
ATOM     39  C   UNL     1       4.698  -2.441   8.678  1.00  0.00    -0.014 A 
BRANCH  39  40
ATOM     40  C   UNL     1       5.331  -1.617   9.737  1.00  0.00     0.031 A 
ATOM     41  C   UNL     1       4.795  -1.661  11.143  1.00  0.00     0.074 A 
ATOM     42  C   UNL     1       6.327  -0.768   9.420  1.00  0.00     0.049 A 
ATOM     43  N   UNL     1       5.190  -0.995  12.197  1.00  0.00    -0.248 NA
ATOM     44  C   UNL     1       3.639  -2.539  11.390  1.00  0.00     0.031 C 
ATOM     45  C   UNL     1       6.861  -0.553   8.073  1.00  0.00     0.029 A 
ATOM     46  N   UNL     1       7.052   0.094  10.205  1.00  0.00    -0.354 N 
ATOM     47  C   UNL     1       4.305  -1.335  13.213  1.00  0.00     0.074 A 
ATOM     48  C   UNL     1       3.329  -2.235  12.641  1.00  0.00     0.031 C 
ATOM     49  C   UNL     1       7.832   0.373   8.128  1.00  0.00     0.029 A 
ATOM     50  C   UNL     1       7.985   0.825   9.508  1.00  0.00     0.049 A 
ATOM     51  H   UNL     1       6.916   0.180  11.176  1.00  0.00     0.167 HD
ATOM     52  C   UNL     1       4.324  -0.966  14.516  1.00  0.00     0.034 A 
ATOM     53  C   UNL     1       8.873   1.742   9.937  1.00  0.00     0.034 A 
ATOM     54  C   UNL     1       5.341  -0.135  15.097  1.00  0.00     0.049 A 
ATOM     55  C   UNL     1       8.956   2.041  11.410  1.00  0.00     0.074 A 
ATOM     56  C   UNL     1       5.519   0.213  16.424  1.00  0.00     0.029 A 
ATOM     57  N   UNL     1       6.363   0.472  14.383  1.00  0.00    -0.354 N 
ATOM     58  N   UNL     1       8.225   1.565  12.390  1.00  0.00    -0.248 NA
ATOM     59  C   UNL     1      10.019   2.958  11.845  1.00  0.00     0.031 C 
ATOM     60  C   UNL     1       6.652   1.029  16.512  1.00  0.00     0.029 A 
ATOM     61  C   UNL     1       7.183   1.184  15.241  1.00  0.00     0.049 A 
ATOM     62  H   UNL     1       6.488   0.406  13.409  1.00  0.00     0.167 HD
ATOM     63  C   UNL     1       8.761   2.094  13.558  1.00  0.00     0.074 A 
ATOM     64  C   UNL     1       9.892   2.910  13.165  1.00  0.00     0.031 C 
ATOM     65  C   UNL     1       8.345   1.934  14.839  1.00  0.00     0.034 A 
BRANCH  52  66
ATOM     66  C   UNL     1       3.251  -1.528  15.412  1.00  0.00     0.023 A 
ATOM     67  C   UNL     1       3.289  -2.895  15.760  1.00  0.00     0.012 A 
ATOM     68  C   UNL     1       2.228  -0.712  15.931  1.00  0.00     0.148 A 
ATOM     69  C   UNL     1       2.303  -3.450  16.574  1.00  0.00     0.002 A 
ATOM     70  C   UNL     1       1.272  -1.265  16.777  1.00  0.00     0.091 A 
ATOM     71  F   UNL     1       2.189   0.578  15.570  1.00  0.00    -0.205 F 
ATOM     72  C   UNL     1       1.301  -2.634  17.089  1.00  0.00     0.022 A 
BRANCH  70  73
ATOM     73  S   UNL     1      -0.012  -0.274  17.551  1.00  0.00     0.127 S 
ATOM     74  O   UNL     1      -1.173  -0.595  16.723  1.00  0.00    -0.237 OA
ATOM     75  O   UNL     1      -0.059  -0.826  18.906  1.00  0.00    -0.237 OA
ATOM     76  O   UNL     1       0.456   1.103  17.480  1.00  0.00    -0.744 OA
ENDBRANCH  70  73
ENDBRANCH  52  66
BRANCH  53  77
ATOM     77  C   UNL     1       9.833   2.348   8.972  1.00  0.00     0.023 A 
ATOM     78  C   UNL     1      11.183   1.946   9.005  1.00  0.00     0.012 A 
ATOM     79  C   UNL     1       9.415   3.272   7.995  1.00  0.00     0.148 A 
ATOM     80  C   UNL     1      12.106   2.474   8.101  1.00  0.00     0.002 A 
ATOM     81  C   UNL     1      10.330   3.756   7.066  1.00  0.00     0.091 A 
ATOM     82  F   UNL     1       8.129   3.650   7.986  1.00  0.00    -0.205 F 
ATOM     83  C   UNL     1      11.678   3.369   7.126  1.00  0.00     0.022 A 
BRANCH  81  84
ATOM     84  S   UNL     1       9.842   4.810   5.694  1.00  0.00     0.127 S 
ATOM     85  O   UNL     1      10.376   6.105   6.107  1.00  0.00    -0.237 OA
ATOM     86  O   UNL     1      10.539   4.186   4.568  1.00  0.00    -0.237 OA
ATOM     87  O   UNL     1       8.390   4.712   5.625  1.00  0.00    -0.744 OA
ENDBRANCH  81  84
ENDBRANCH  53  77
BRANCH  65  88
ATOM     88  C   UNL     1       9.133   2.623  15.920  1.00  0.00     0.023 A 
ATOM     89  C   UNL     1       9.013   4.016  16.089  1.00  0.00     0.012 A 
ATOM     90  C   UNL     1       9.930   1.883  16.815  1.00  0.00     0.148 A 
ATOM     91  C   UNL     1       9.697   4.666  17.115  1.00  0.00     0.002 A 
ATOM     92  C   UNL     1      10.574   2.532  17.861  1.00  0.00     0.091 A 
ATOM     93  F   UNL     1      10.052   0.560  16.625  1.00  0.00    -0.205 F 
ATOM     94  C   UNL     1      10.467   3.924  18.008  1.00  0.00     0.022 A 
BRANCH  92  95
ATOM     95  S   UNL     1      11.506   1.626  19.103  1.00  0.00     0.127 S 
ATOM     96  O   UNL     1      12.873   1.750  18.602  1.00  0.00    -0.237 OA
ATOM     97  O   UNL     1      11.233   2.385  20.324  1.00  0.00    -0.237 OA
ATOM     98  O   UNL     1      10.948   0.279  19.101  1.00  0.00    -0.744 OA
ENDBRANCH  92  95
ENDBRANCH  65  88
ENDBRANCH  39  40
ENDBRANCH  31  34
ENDBRANCH  29  30
ENDBRANCH  28  29
ENDBRANCH   1  28
TORSDOF 17
