REMARK SMILES Cc1ccc(/C=C2/C[N@@H+](C)Cc3c2nc2ccccc2c3C(=O)NCCCCNC(=O)c2ccc(-c3c4nc(c(-c5cccc(S(=O)(=O)[O-])c5F)c5ccc([nH]5)c(-c5cccc(S(=O)(=O)[O-])c5F)c5nc(c(-c6cccc(S(=O)(=O)[O-])c6F)c6ccc3[nH]6)C=C5)C=C4)cc2)cc1
REMARK SMILES IDX 27 1 26 2 25 3 24 4 22 5 23 6 21 8 6 9 7 10 8 11 13 12 9 13
REMARK SMILES IDX 12 14 14 15 10 16 11 17 15 19 20 20 16 21 19 22 17 23 18 24
REMARK SMILES IDX 5 25 1 26 2 27 3 28 96 29 4 30 95 31 28 32 29 33 30 34 31 36
REMARK SMILES IDX 32 37 33 38 94 39 34 40 93 41 35 42 36 43 37 44 87 45 38 46
REMARK SMILES IDX 92 47 86 48 88 49 39 50 91 51 85 52 84 53 40 55 72 56 52 57
REMARK SMILES IDX 71 58 53 59 56 60 70 61 89 62 54 63 55 64 69 66 90 67 57 68
REMARK SMILES IDX 41 69 42 70 50 71 43 72 45 73 51 74 44 75 46 76 47 77 48 78
REMARK SMILES IDX 49 79 73 80 74 81 82 82 75 83 77 84 83 85 76 86 78 87 79 88
REMARK SMILES IDX 80 89 81 90 58 91 59 92 67 93 60 94 62 95 68 96 61 97 63 98
REMARK SMILES IDX 64 99 65 100 66 101
REMARK H PARENT 24 7 9 18 29 35 88 54 56 65
REMARK Flexibility Score: inf
ROOT
ATOM      1  C   UNL     1      -8.259  -7.089  -1.090  1.00  0.00     0.023 C 
ENDROOT
BRANCH   1   2
ATOM      2  C   UNL     1      -7.238  -6.050  -1.527  1.00  0.00     0.023 C 
BRANCH   2   3
ATOM      3  C   UNL     1      -6.204  -5.572  -0.521  1.00  0.00     0.116 C 
BRANCH   3   4
ATOM      4  N   UNL     1      -5.199  -6.431   0.050  1.00  0.00    -0.352 N 
ATOM      5  C   UNL     1      -3.989  -6.011   0.599  1.00  0.00     0.252 C 
ATOM      6  O   UNL     1      -3.419  -6.754   1.395  1.00  0.00    -0.269 OA
ATOM      7  H   UNL     1      -5.382  -7.398   0.052  1.00  0.00     0.163 HD
BRANCH   5   8
ATOM      8  C   UNL     1      -3.312  -4.740   0.160  1.00  0.00     0.060 A 
ATOM      9  C   UNL     1      -2.962   0.095   0.129  1.00  0.00     0.020 C 
ATOM     10  C   UNL     1      -3.705  -1.015  -0.077  1.00  0.00     0.033 C 
ATOM     11  C   UNL     1      -5.200  -0.978   0.031  1.00  0.00     0.301 C 
ATOM     12  C   UNL     1      -3.209  -2.393  -0.265  1.00  0.00     0.082 A 
ATOM     13  N   UNL     1      -5.550  -1.738   1.235  1.00  0.00    -0.330 N 
ATOM     14  C   UNL     1      -3.887  -3.455   0.324  1.00  0.00     0.046 A 
ATOM     15  N   UNL     1      -2.080  -2.535  -0.987  1.00  0.00    -0.247 NA
ATOM     16  C   UNL     1      -6.995  -1.639   1.487  1.00  0.00     0.333 C 
ATOM     17  C   UNL     1      -5.176  -3.158   1.063  1.00  0.00     0.302 C 
ATOM     18  H   UNL     1      -5.041  -1.351   2.030  1.00  0.00     0.348 HD
ATOM     19  C   UNL     1      -1.441  -3.702  -0.966  1.00  0.00     0.072 A 
ATOM     20  C   UNL     1      -1.988  -4.864  -0.394  1.00  0.00     0.013 A 
ATOM     21  C   UNL     1      -0.154  -3.708  -1.489  1.00  0.00     0.029 A 
ATOM     22  C   UNL     1      -1.155  -6.024  -0.393  1.00  0.00     0.011 A 
ATOM     23  C   UNL     1       0.662  -4.834  -1.432  1.00  0.00     0.002 A 
ATOM     24  C   UNL     1       0.159  -5.999  -0.879  1.00  0.00     0.001 A 
BRANCH   9  25
ATOM     25  C   UNL     1      -1.500   0.204   0.244  1.00  0.00    -0.025 A 
ATOM     26  C   UNL     1       2.798   0.373   0.091  1.00  0.00     0.044 C 
ATOM     27  C   UNL     1       1.310   0.377   0.248  1.00  0.00    -0.051 A 
ATOM     28  C   UNL     1       0.670  -0.715   0.838  1.00  0.00     0.004 A 
ATOM     29  C   UNL     1       0.534   1.421  -0.268  1.00  0.00     0.004 A 
ATOM     30  C   UNL     1      -0.721  -0.771   0.879  1.00  0.00     0.008 A 
ATOM     31  C   UNL     1      -0.861   1.335  -0.269  1.00  0.00     0.008 A 
ENDBRANCH   9  25
ENDBRANCH   5   8
ENDBRANCH   3   4
ENDBRANCH   2   3
ENDBRANCH   1   2
BRANCH   1  32
ATOM     32  C   UNL     1      -8.934  -6.824   0.238  1.00  0.00     0.116 C 
BRANCH  32  33
ATOM     33  N   UNL     1     -10.004  -5.853   0.220  1.00  0.00    -0.352 N 
ATOM     34  C   UNL     1     -11.043  -5.707   1.119  1.00  0.00     0.251 C 
ATOM     35  H   UNL     1      -9.990  -5.213  -0.528  1.00  0.00     0.163 HD
ATOM     36  O   UNL     1     -12.001  -5.019   0.752  1.00  0.00    -0.269 OA
BRANCH  34  37
ATOM     37  C   UNL     1     -10.972  -6.226   2.518  1.00  0.00     0.039 A 
ATOM     38  C   UNL     1     -11.976  -5.847   3.428  1.00  0.00     0.014 A 
ATOM     39  C   UNL     1      -9.830  -6.847   3.013  1.00  0.00     0.014 A 
ATOM     40  C   UNL     1     -11.715  -5.833   4.798  1.00  0.00     0.010 A 
ATOM     41  C   UNL     1      -9.556  -6.816   4.345  1.00  0.00     0.010 A 
ATOM     42  C   UNL     1     -10.446  -6.188   5.208  1.00  0.00    -0.014 A 
BRANCH  42  43
ATOM     43  C   UNL     1      -9.826  -5.943   6.489  1.00  0.00     0.031 A 
ATOM     44  C   UNL     1      -9.835  -7.043   7.467  1.00  0.00     0.074 A 
ATOM     45  C   UNL     1      -8.835  -5.020   6.407  1.00  0.00     0.049 A 
ATOM     46  N   UNL     1      -9.272  -7.001   8.619  1.00  0.00    -0.248 NA
ATOM     47  C   UNL     1     -10.484  -8.322   7.187  1.00  0.00     0.031 C 
ATOM     48  C   UNL     1      -7.557  -5.024   7.105  1.00  0.00     0.029 A 
ATOM     49  N   UNL     1      -8.742  -3.870   5.611  1.00  0.00    -0.354 N 
ATOM     50  C   UNL     1      -9.175  -8.305   9.067  1.00  0.00     0.074 A 
ATOM     51  C   UNL     1     -10.082  -9.051   8.231  1.00  0.00     0.031 C 
ATOM     52  C   UNL     1      -6.979  -3.818   6.949  1.00  0.00     0.029 A 
ATOM     53  C   UNL     1      -7.979  -2.953   6.345  1.00  0.00     0.049 A 
ATOM     54  H   UNL     1      -9.133  -3.734   4.718  1.00  0.00     0.167 HD
ATOM     55  C   UNL     1      -8.196  -8.608   9.966  1.00  0.00     0.034 A 
ATOM     56  C   UNL     1      -8.539  -1.867   6.969  1.00  0.00     0.034 A 
ATOM     57  C   UNL     1      -7.465  -7.378  10.337  1.00  0.00     0.049 A 
ATOM     58  C   UNL     1      -8.464  -1.961   8.494  1.00  0.00     0.074 A 
ATOM     59  C   UNL     1      -6.243  -6.853   9.945  1.00  0.00     0.029 A 
ATOM     60  N   UNL     1      -8.148  -6.339  10.963  1.00  0.00    -0.354 N 
ATOM     61  N   UNL     1      -8.046  -3.018   9.138  1.00  0.00    -0.248 NA
ATOM     62  C   UNL     1      -8.841  -0.891   9.416  1.00  0.00     0.031 C 
ATOM     63  C   UNL     1      -6.256  -5.455  10.231  1.00  0.00     0.029 A 
ATOM     64  C   UNL     1      -7.463  -5.137  10.832  1.00  0.00     0.049 A 
ATOM     65  H   UNL     1      -9.005  -6.443  11.437  1.00  0.00     0.167 HD
ATOM     66  C   UNL     1      -8.212  -2.864  10.485  1.00  0.00     0.074 A 
ATOM     67  C   UNL     1      -8.636  -1.478  10.611  1.00  0.00     0.031 C 
ATOM     68  C   UNL     1      -8.044  -3.902  11.365  1.00  0.00     0.034 A 
BRANCH  55  69
ATOM     69  C   UNL     1      -7.684 -10.000  10.339  1.00  0.00     0.023 A 
ATOM     70  C   UNL     1      -6.510 -10.053  11.127  1.00  0.00     0.012 A 
ATOM     71  C   UNL     1      -8.211 -11.259   9.957  1.00  0.00     0.148 A 
ATOM     72  C   UNL     1      -5.869 -11.254  11.460  1.00  0.00     0.002 A 
ATOM     73  C   UNL     1      -7.572 -12.462  10.282  1.00  0.00     0.091 A 
ATOM     74  F   UNL     1      -9.359 -11.336   9.290  1.00  0.00    -0.205 F 
ATOM     75  C   UNL     1      -6.393 -12.461  11.027  1.00  0.00     0.022 A 
BRANCH  73  76
ATOM     76  S   UNL     1      -8.195 -14.075   9.755  1.00  0.00     0.127 S 
ATOM     77  O   UNL     1      -7.058 -14.614   9.008  1.00  0.00    -0.237 OA
ATOM     78  O   UNL     1      -8.453 -14.741  11.031  1.00  0.00    -0.237 OA
ATOM     79  O   UNL     1      -9.379 -13.820   8.944  1.00  0.00    -0.744 OA
ENDBRANCH  73  76
ENDBRANCH  55  69
BRANCH  56  80
ATOM     80  C   UNL     1      -9.650  -1.256   6.171  1.00  0.00     0.023 A 
ATOM     81  C   UNL     1      -9.276  -0.650   4.946  1.00  0.00     0.012 A 
ATOM     82  C   UNL     1     -10.980  -1.686   6.336  1.00  0.00     0.148 A 
ATOM     83  C   UNL     1     -10.145  -0.652   3.853  1.00  0.00     0.002 A 
ATOM     84  C   UNL     1     -11.839  -1.694   5.235  1.00  0.00     0.091 A 
ATOM     85  F   UNL     1     -11.355  -2.163   7.530  1.00  0.00    -0.205 F 
ATOM     86  C   UNL     1     -11.405  -1.224   3.984  1.00  0.00     0.022 A 
BRANCH  84  87
ATOM     87  S   UNL     1     -13.474  -2.443   5.308  1.00  0.00     0.127 S 
ATOM     88  O   UNL     1     -14.329  -1.270   5.459  1.00  0.00    -0.237 OA
ATOM     89  O   UNL     1     -13.574  -3.108   4.009  1.00  0.00    -0.237 OA
ATOM     90  O   UNL     1     -13.427  -3.353   6.442  1.00  0.00    -0.744 OA
ENDBRANCH  84  87
ENDBRANCH  56  80
BRANCH  68  91
ATOM     91  C   UNL     1      -8.445  -3.875  12.828  1.00  0.00     0.023 A 
ATOM     92  C   UNL     1      -9.430  -3.002  13.325  1.00  0.00     0.012 A 
ATOM     93  C   UNL     1      -7.955  -4.861  13.725  1.00  0.00     0.148 A 
ATOM     94  C   UNL     1      -9.865  -3.061  14.654  1.00  0.00     0.002 A 
ATOM     95  C   UNL     1      -8.490  -5.002  15.001  1.00  0.00     0.091 A 
ATOM     96  F   UNL     1      -6.949  -5.666  13.353  1.00  0.00    -0.205 F 
ATOM     97  C   UNL     1      -9.417  -4.079  15.484  1.00  0.00     0.022 A 
BRANCH  95  98
ATOM     98  S   UNL     1      -8.149  -6.468  15.984  1.00  0.00     0.127 S 
ATOM     99  O   UNL     1      -7.035  -6.024  16.817  1.00  0.00    -0.237 OA
ATOM    100  O   UNL     1      -9.410  -6.663  16.704  1.00  0.00    -0.237 OA
ATOM    101  O   UNL     1      -7.853  -7.514  15.014  1.00  0.00    -0.744 OA
ENDBRANCH  95  98
ENDBRANCH  68  91
ENDBRANCH  42  43
ENDBRANCH  34  37
ENDBRANCH  32  33
ENDBRANCH   1  32
TORSDOF 15
