REMARK SMILES COc1ccc(-c2ncn(CC(=O)NCCCCNC(=O)c3ccc(-c4c5nc(c(-c6cccc(S(=O)(=O)[O-])c6F)c6ccc([nH]6)c(-c6cccc(S(=O)(=O)[O-])c6F)c6nc(c(-c7cccc(S(=O)(=O)[O-])c7F)c7ccc4[nH]7)C=C6)C=C5)cc3)c2-c2ccc(OC)cc2)cc1
REMARK SMILES IDX 16 1 15 2 14 3 12 4 13 5 11 7 10 8 7 9 8 10 85 11 9 12 6 13
REMARK SMILES IDX 3 14 4 15 95 16 5 17 94 18 2 19 1 20 86 21 87 22 93 23 88 24
REMARK SMILES IDX 92 25 89 26 90 27 91 28 17 29 18 30 19 31 20 32 21 34 22 35
REMARK SMILES IDX 23 36 84 37 24 38 83 39 25 40 26 41 27 42 77 43 28 44 82 45
REMARK SMILES IDX 76 46 78 47 29 48 81 49 75 50 74 51 30 53 62 54 42 55 61 56
REMARK SMILES IDX 43 57 46 58 60 59 79 60 44 61 45 62 59 64 80 65 47 66 31 67
REMARK SMILES IDX 32 68 40 69 33 70 35 71 41 72 34 73 36 74 37 75 38 76 39 77
REMARK SMILES IDX 63 78 64 79 72 80 65 81 67 82 73 83 66 84 68 85 69 86 70 87
REMARK SMILES IDX 71 88 48 89 49 90 57 91 50 92 52 93 58 94 51 95 53 96 54 97
REMARK SMILES IDX 55 98 56 99
REMARK H PARENT 14 6 19 33 78 52 46 63
REMARK Flexibility Score: inf
ROOT
ATOM      1  C   UNL     1       0.379   3.849   8.892  1.00  0.00     0.023 C 
ENDROOT
BRANCH   1   2
ATOM      2  C   UNL     1       0.811   3.146  10.183  1.00  0.00     0.116 C 
BRANCH   2   3
ATOM      3  N   UNL     1       0.080   1.922  10.442  1.00  0.00    -0.355 N 
ATOM      4  C   UNL     1       0.468   0.622  10.287  1.00  0.00     0.239 C 
ATOM      5  O   UNL     1      -0.313  -0.259  10.653  1.00  0.00    -0.273 OA
ATOM      6  H   UNL     1      -0.836   2.046  10.781  1.00  0.00     0.163 HD
BRANCH   4   7
ATOM      7  C   UNL     1       1.821   0.260   9.715  1.00  0.00     0.223 C 
BRANCH   7   8
ATOM      8  N   UNL     1       2.069   0.780   8.380  1.00  0.00    -0.321 N 
ATOM      9  C   UNL     1       2.042   1.281   6.261  1.00  0.00     0.096 A 
ATOM     10  N   UNL     1       3.125   1.933   6.796  1.00  0.00    -0.236 NA
ATOM     11  C   UNL     1       1.398   0.495   7.209  1.00  0.00     0.076 A 
ATOM     12  C   UNL     1       3.126   1.596   8.064  1.00  0.00     0.201 A 
BRANCH   9  13
ATOM     13  C   UNL     1       1.690   1.334   4.857  1.00  0.00     0.003 A 
ATOM     14  C   UNL     1       0.977   1.193   2.153  1.00  0.00     0.118 A 
ATOM     15  C   UNL     1       0.031   1.568   3.106  1.00  0.00     0.047 A 
ATOM     16  C   UNL     1       2.295   0.947   2.542  1.00  0.00     0.047 A 
ATOM     17  C   UNL     1       0.382   1.632   4.455  1.00  0.00     0.014 A 
ATOM     18  C   UNL     1       2.652   1.024   3.892  1.00  0.00     0.014 A 
BRANCH  14  19
ATOM     19  O   UNL     1       0.535   1.143   0.859  1.00  0.00    -0.497 OA
ATOM     20  C   UNL     1       1.065   0.057   0.104  1.00  0.00     0.278 C 
ENDBRANCH  14  19
ENDBRANCH   9  13
BRANCH  11  21
ATOM     21  C   UNL     1       0.345  -0.502   7.038  1.00  0.00     0.001 A 
ATOM     22  C   UNL     1      -0.929  -0.336   7.577  1.00  0.00     0.014 A 
ATOM     23  C   UNL     1       0.605  -1.636   6.258  1.00  0.00     0.014 A 
ATOM     24  C   UNL     1      -1.908  -1.315   7.389  1.00  0.00     0.047 A 
ATOM     25  C   UNL     1      -0.384  -2.599   6.041  1.00  0.00     0.047 A 
ATOM     26  C   UNL     1      -1.645  -2.446   6.614  1.00  0.00     0.118 A 
BRANCH  26  27
ATOM     27  O   UNL     1      -2.692  -3.317   6.494  1.00  0.00    -0.497 OA
ATOM     28  C   UNL     1      -2.520  -4.398   5.589  1.00  0.00     0.278 C 
ENDBRANCH  26  27
ENDBRANCH  11  21
ENDBRANCH   7   8
ENDBRANCH   4   7
ENDBRANCH   2   3
ENDBRANCH   1   2
BRANCH   1  29
ATOM     29  C   UNL     1      -1.052   4.404   8.864  1.00  0.00     0.023 C 
BRANCH  29  30
ATOM     30  C   UNL     1      -1.368   5.423   9.950  1.00  0.00     0.116 C 
BRANCH  30  31
ATOM     31  N   UNL     1      -0.546   6.629   9.854  1.00  0.00    -0.352 N 
ATOM     32  C   UNL     1      -0.521   7.708  10.719  1.00  0.00     0.251 C 
ATOM     33  H   UNL     1       0.062   6.678   9.081  1.00  0.00     0.163 HD
ATOM     34  O   UNL     1      -0.116   8.799  10.350  1.00  0.00    -0.269 OA
BRANCH  32  35
ATOM     35  C   UNL     1      -0.984   7.514  12.106  1.00  0.00     0.039 A 
ATOM     36  C   UNL     1      -1.791   8.466  12.737  1.00  0.00     0.014 A 
ATOM     37  C   UNL     1      -0.611   6.345  12.766  1.00  0.00     0.014 A 
ATOM     38  C   UNL     1      -2.290   8.191  14.008  1.00  0.00     0.010 A 
ATOM     39  C   UNL     1      -1.199   6.020  13.963  1.00  0.00     0.010 A 
ATOM     40  C   UNL     1      -2.009   6.953  14.607  1.00  0.00    -0.014 A 
BRANCH  40  41
ATOM     41  C   UNL     1      -2.721   6.530  15.814  1.00  0.00     0.031 A 
ATOM     42  C   UNL     1      -4.206   6.501  15.642  1.00  0.00     0.074 A 
ATOM     43  C   UNL     1      -2.079   5.965  16.863  1.00  0.00     0.049 A 
ATOM     44  N   UNL     1      -5.099   7.173  16.292  1.00  0.00    -0.248 NA
ATOM     45  C   UNL     1      -4.754   5.762  14.488  1.00  0.00     0.031 C 
ATOM     46  C   UNL     1      -0.642   5.668  16.955  1.00  0.00     0.029 A 
ATOM     47  N   UNL     1      -2.572   5.370  17.989  1.00  0.00    -0.354 N 
ATOM     48  C   UNL     1      -6.328   6.724  15.805  1.00  0.00     0.074 A 
ATOM     49  C   UNL     1      -6.049   6.072  14.557  1.00  0.00     0.031 C 
ATOM     50  C   UNL     1      -0.434   4.725  17.899  1.00  0.00     0.029 A 
ATOM     51  C   UNL     1      -1.686   4.465  18.582  1.00  0.00     0.049 A 
ATOM     52  H   UNL     1      -3.469   5.560  18.349  1.00  0.00     0.167 HD
ATOM     53  C   UNL     1      -7.416   6.641  16.623  1.00  0.00     0.034 A 
ATOM     54  C   UNL     1      -1.967   3.519  19.515  1.00  0.00     0.034 A 
ATOM     55  C   UNL     1      -7.220   7.433  17.812  1.00  0.00     0.049 A 
ATOM     56  C   UNL     1      -3.270   3.869  20.116  1.00  0.00     0.074 A 
ATOM     57  C   UNL     1      -6.939   8.758  18.078  1.00  0.00     0.029 A 
ATOM     58  N   UNL     1      -6.918   6.740  18.957  1.00  0.00    -0.354 N 
ATOM     59  N   UNL     1      -3.463   4.917  20.862  1.00  0.00    -0.248 NA
ATOM     60  C   UNL     1      -4.462   3.278  19.534  1.00  0.00     0.031 C 
ATOM     61  C   UNL     1      -6.057   8.728  19.198  1.00  0.00     0.029 A 
ATOM     62  C   UNL     1      -5.920   7.402  19.611  1.00  0.00     0.049 A 
ATOM     63  H   UNL     1      -7.349   5.907  19.257  1.00  0.00     0.167 HD
ATOM     64  C   UNL     1      -4.694   5.400  20.444  1.00  0.00     0.074 A 
ATOM     65  C   UNL     1      -5.313   4.289  19.723  1.00  0.00     0.031 C 
ATOM     66  C   UNL     1      -4.953   6.739  20.457  1.00  0.00     0.034 A 
BRANCH  53  67
ATOM     67  C   UNL     1      -8.445   5.517  16.597  1.00  0.00     0.023 A 
ATOM     68  C   UNL     1      -9.505   5.605  17.532  1.00  0.00     0.012 A 
ATOM     69  C   UNL     1      -8.279   4.268  15.953  1.00  0.00     0.148 A 
ATOM     70  C   UNL     1     -10.283   4.494  17.878  1.00  0.00     0.002 A 
ATOM     71  C   UNL     1      -9.104   3.186  16.243  1.00  0.00     0.091 A 
ATOM     72  F   UNL     1      -7.247   4.059  15.136  1.00  0.00    -0.205 F 
ATOM     73  C   UNL     1     -10.082   3.281  17.233  1.00  0.00     0.022 A 
BRANCH  71  74
ATOM     74  S   UNL     1      -8.917   1.604  15.407  1.00  0.00     0.127 S 
ATOM     75  O   UNL     1      -8.390   0.768  16.481  1.00  0.00    -0.237 OA
ATOM     76  O   UNL     1     -10.295   1.315  15.011  1.00  0.00    -0.237 OA
ATOM     77  O   UNL     1      -8.014   1.850  14.289  1.00  0.00    -0.744 OA
ENDBRANCH  71  74
ENDBRANCH  53  67
BRANCH  54  78
ATOM     78  C   UNL     1      -1.341   2.200  19.785  1.00  0.00     0.023 A 
ATOM     79  C   UNL     1      -1.548   1.572  21.032  1.00  0.00     0.012 A 
ATOM     80  C   UNL     1      -0.796   1.426  18.738  1.00  0.00     0.148 A 
ATOM     81  C   UNL     1      -1.263   0.212  21.217  1.00  0.00     0.002 A 
ATOM     82  C   UNL     1      -0.506   0.076  18.928  1.00  0.00     0.091 A 
ATOM     83  F   UNL     1      -0.653   1.986  17.529  1.00  0.00    -0.205 F 
ATOM     84  C   UNL     1      -0.752  -0.538  20.163  1.00  0.00     0.022 A 
BRANCH  82  85
ATOM     85  S   UNL     1       0.132  -0.961  17.605  1.00  0.00     0.127 S 
ATOM     86  O   UNL     1       1.256  -1.630  18.261  1.00  0.00    -0.237 OA
ATOM     87  O   UNL     1      -1.012  -1.822  17.320  1.00  0.00    -0.237 OA
ATOM     88  O   UNL     1       0.521  -0.047  16.538  1.00  0.00    -0.744 OA
ENDBRANCH  82  85
ENDBRANCH  54  78
BRANCH  66  89
ATOM     89  C   UNL     1      -4.037   7.632  21.250  1.00  0.00     0.023 A 
ATOM     90  C   UNL     1      -2.665   7.790  20.967  1.00  0.00     0.012 A 
ATOM     91  C   UNL     1      -4.629   8.446  22.228  1.00  0.00     0.148 A 
ATOM     92  C   UNL     1      -1.898   8.727  21.668  1.00  0.00     0.002 A 
ATOM     93  C   UNL     1      -3.878   9.409  22.884  1.00  0.00     0.091 A 
ATOM     94  F   UNL     1      -5.934   8.276  22.490  1.00  0.00    -0.205 F 
ATOM     95  C   UNL     1      -2.508   9.547  22.617  1.00  0.00     0.022 A 
BRANCH  93  96
ATOM     96  S   UNL     1      -4.652  10.563  24.017  1.00  0.00     0.127 S 
ATOM     97  O   UNL     1      -4.316   9.986  25.316  1.00  0.00    -0.237 OA
ATOM     98  O   UNL     1      -3.967  11.819  23.708  1.00  0.00    -0.237 OA
ATOM     99  O   UNL     1      -6.069  10.563  23.673  1.00  0.00    -0.744 OA
ENDBRANCH  93  96
ENDBRANCH  66  89
ENDBRANCH  40  41
ENDBRANCH  32  35
ENDBRANCH  30  31
ENDBRANCH  29  30
ENDBRANCH   1  29
TORSDOF 19
