REMARK SMILES Cc1ccc(-c2cc(Cl)cc3c2O[C@@H](C(F)(F)F)C(C(=O)NCCCCNC(=O)c2ccc(-c4c5nc(c(-c6cccc(S(=O)(=O)[O-])c6F)c6ccc([nH]6)c(-c6cccc(S(=O)(=O)[O-])c6F)c6nc(c(-c7cccc(S(=O)(=O)[O-])c7F)c7ccc4[nH]7)C=C6)C=C5)cc2)=C3)cc1
REMARK SMILES IDX 25 1 24 2 23 3 22 4 20 5 21 6 19 8 6 9 7 10 12 11 8 12 11 13
REMARK SMILES IDX 13 14 9 15 10 16 93 17 14 18 5 19 1 20 2 21 3 22 95 23 4 24
REMARK SMILES IDX 94 25 15 26 16 27 17 28 18 29 26 30 27 31 28 32 29 34 30 35
REMARK SMILES IDX 31 36 92 37 32 38 91 39 33 40 34 41 35 42 85 43 36 44 90 45
REMARK SMILES IDX 84 46 86 47 37 48 89 49 83 50 82 51 38 53 70 54 50 55 69 56
REMARK SMILES IDX 51 57 54 58 68 59 87 60 52 61 53 62 67 64 88 65 55 66 39 67
REMARK SMILES IDX 40 68 48 69 41 70 43 71 49 72 42 73 44 74 45 75 46 76 47 77
REMARK SMILES IDX 71 78 72 79 80 80 73 81 75 82 81 83 74 84 76 85 77 86 78 87
REMARK SMILES IDX 79 88 56 89 57 90 65 91 58 92 60 93 66 94 59 95 61 96 62 97
REMARK SMILES IDX 63 98 64 99
REMARK H PARENT 22 7 27 33 86 52 54 63
REMARK Flexibility Score: inf
ROOT
ATOM      1  C   UNL     1      -2.025  -5.069   4.697  1.00  0.00     0.023 C 
ENDROOT
BRANCH   1   2
ATOM      2  C   UNL     1      -3.435  -4.462   4.686  1.00  0.00     0.023 C 
BRANCH   2   3
ATOM      3  C   UNL     1      -3.717  -3.034   5.203  1.00  0.00     0.116 C 
BRANCH   3   4
ATOM      4  N   UNL     1      -3.277  -1.849   4.451  1.00  0.00    -0.352 N 
ATOM      5  C   UNL     1      -3.865  -0.652   4.062  1.00  0.00     0.251 C 
ATOM      6  O   UNL     1      -3.107   0.303   3.871  1.00  0.00    -0.270 OA
ATOM      7  H   UNL     1      -2.342  -1.921   4.153  1.00  0.00     0.163 HD
BRANCH   5   8
ATOM      8  C   UNL     1      -5.359  -0.465   3.692  1.00  0.00     0.067 C 
ATOM      9  C   UNL     1      -3.801  -1.162   0.192  1.00  0.00     0.026 A 
ATOM     10  C   UNL     1      -4.260  -0.514  -0.986  1.00  0.00     0.033 A 
ATOM     11  C   UNL     1      -4.686  -1.121   1.272  1.00  0.00     0.135 A 
ATOM     12  C   UNL     1      -5.376   0.329  -0.959  1.00  0.00     0.042 A 
ATOM     13  C   UNL     1      -5.460   0.054   1.411  1.00  0.00     0.019 A 
ATOM     14  O   UNL     1      -4.934  -2.199   2.195  1.00  0.00    -0.475 OA
ATOM     15  Cl  UNL     1      -5.900   1.104  -2.404  1.00  0.00    -0.084 Cl
ATOM     16  C   UNL     1      -5.934   0.683   0.265  1.00  0.00     0.032 A 
ATOM     17  C   UNL     1      -5.726   0.514   2.822  1.00  0.00     0.025 C 
ATOM     18  C   UNL     1      -5.959  -1.729   3.159  1.00  0.00     0.314 C 
BRANCH   9  19
ATOM     19  C   UNL     1      -2.317  -1.003   0.381  1.00  0.00    -0.015 A 
ATOM     20  C   UNL     1       1.962  -0.203   0.093  1.00  0.00     0.044 C 
ATOM     21  C   UNL     1       0.491  -0.475   0.243  1.00  0.00    -0.051 A 
ATOM     22  C   UNL     1      -0.013  -1.786   0.218  1.00  0.00     0.004 A 
ATOM     23  C   UNL     1      -0.409   0.574   0.405  1.00  0.00     0.004 A 
ATOM     24  C   UNL     1      -1.400  -2.048   0.282  1.00  0.00     0.009 A 
ATOM     25  C   UNL     1      -1.782   0.310   0.485  1.00  0.00     0.009 A 
ENDBRANCH   9  19
BRANCH  18  26
ATOM     26  C   UNL     1      -6.743  -2.362   4.331  1.00  0.00     0.429 C 
ATOM     27  F   UNL     1      -8.043  -1.931   4.263  1.00  0.00    -0.167 F 
ATOM     28  F   UNL     1      -6.783  -3.705   4.312  1.00  0.00    -0.167 F 
ATOM     29  F   UNL     1      -6.345  -1.950   5.562  1.00  0.00    -0.167 F 
ENDBRANCH  18  26
ENDBRANCH   5   8
ENDBRANCH   3   4
ENDBRANCH   2   3
ENDBRANCH   1   2
BRANCH   1  30
ATOM     30  C   UNL     1      -1.202  -4.881   5.956  1.00  0.00     0.116 C 
BRANCH  30  31
ATOM     31  N   UNL     1      -1.709  -5.615   7.120  1.00  0.00    -0.352 N 
ATOM     32  C   UNL     1      -1.131  -5.641   8.391  1.00  0.00     0.251 C 
ATOM     33  H   UNL     1      -2.534  -6.139   6.994  1.00  0.00     0.163 HD
ATOM     34  O   UNL     1      -1.036  -6.712   8.976  1.00  0.00    -0.269 OA
BRANCH  32  35
ATOM     35  C   UNL     1      -0.686  -4.362   8.995  1.00  0.00     0.039 A 
ATOM     36  C   UNL     1      -0.061  -4.245  10.241  1.00  0.00     0.014 A 
ATOM     37  C   UNL     1      -1.079  -3.210   8.340  1.00  0.00     0.014 A 
ATOM     38  C   UNL     1      -0.001  -2.980  10.838  1.00  0.00     0.010 A 
ATOM     39  C   UNL     1      -0.671  -1.989   8.732  1.00  0.00     0.010 A 
ATOM     40  C   UNL     1      -0.386  -1.879  10.077  1.00  0.00    -0.014 A 
BRANCH  40  41
ATOM     41  C   UNL     1      -0.640  -0.527  10.517  1.00  0.00     0.031 A 
ATOM     42  C   UNL     1       0.509   0.332  10.781  1.00  0.00     0.074 A 
ATOM     43  C   UNL     1      -1.878  -0.049  10.223  1.00  0.00     0.049 A 
ATOM     44  N   UNL     1       0.443   1.455  11.397  1.00  0.00    -0.248 NA
ATOM     45  C   UNL     1       1.856  -0.038  10.363  1.00  0.00     0.031 C 
ATOM     46  C   UNL     1      -2.257   1.323   9.931  1.00  0.00     0.029 A 
ATOM     47  N   UNL     1      -3.087  -0.751  10.080  1.00  0.00    -0.354 N 
ATOM     48  C   UNL     1       1.637   2.098  11.154  1.00  0.00     0.074 A 
ATOM     49  C   UNL     1       2.530   1.069  10.682  1.00  0.00     0.031 C 
ATOM     50  C   UNL     1      -3.600   1.409   9.940  1.00  0.00     0.029 A 
ATOM     51  C   UNL     1      -4.110   0.137  10.426  1.00  0.00     0.049 A 
ATOM     52  H   UNL     1      -3.194  -1.686   9.792  1.00  0.00     0.167 HD
ATOM     53  C   UNL     1       1.655   3.461  11.172  1.00  0.00     0.034 A 
ATOM     54  C   UNL     1      -4.867  -0.023  11.555  1.00  0.00     0.034 A 
ATOM     55  C   UNL     1       0.297   3.976  11.456  1.00  0.00     0.049 A 
ATOM     56  C   UNL     1      -4.582   1.057  12.588  1.00  0.00     0.074 A 
ATOM     57  C   UNL     1      -0.704   4.481  10.639  1.00  0.00     0.029 A 
ATOM     58  N   UNL     1      -0.315   3.675  12.670  1.00  0.00    -0.354 N 
ATOM     59  N   UNL     1      -3.659   1.971  12.457  1.00  0.00    -0.248 NA
ATOM     60  C   UNL     1      -5.308   1.203  13.846  1.00  0.00     0.031 C 
ATOM     61  C   UNL     1      -1.936   4.407  11.350  1.00  0.00     0.029 A 
ATOM     62  C   UNL     1      -1.687   3.888  12.611  1.00  0.00     0.049 A 
ATOM     63  H   UNL     1       0.163   3.353  13.469  1.00  0.00     0.167 HD
ATOM     64  C   UNL     1      -3.554   2.722  13.594  1.00  0.00     0.074 A 
ATOM     65  C   UNL     1      -4.674   2.254  14.399  1.00  0.00     0.031 C 
ATOM     66  C   UNL     1      -2.530   3.619  13.780  1.00  0.00     0.034 A 
BRANCH  53  67
ATOM     67  C   UNL     1       2.773   4.340  10.621  1.00  0.00     0.023 A 
ATOM     68  C   UNL     1       2.458   5.695  10.376  1.00  0.00     0.012 A 
ATOM     69  C   UNL     1       4.101   3.957  10.306  1.00  0.00     0.148 A 
ATOM     70  C   UNL     1       3.360   6.589   9.786  1.00  0.00     0.002 A 
ATOM     71  C   UNL     1       4.989   4.833   9.671  1.00  0.00     0.091 A 
ATOM     72  F   UNL     1       4.565   2.769  10.690  1.00  0.00    -0.205 F 
ATOM     73  C   UNL     1       4.619   6.152   9.408  1.00  0.00     0.022 A 
BRANCH  71  74
ATOM     74  S   UNL     1       6.635   4.328   9.127  1.00  0.00     0.127 S 
ATOM     75  O   UNL     1       6.630   4.727   7.718  1.00  0.00    -0.237 OA
ATOM     76  O   UNL     1       7.508   5.131   9.980  1.00  0.00    -0.237 OA
ATOM     77  O   UNL     1       6.713   2.887   9.335  1.00  0.00    -0.744 OA
ENDBRANCH  71  74
ENDBRANCH  53  67
BRANCH  54  78
ATOM     78  C   UNL     1      -5.205  -1.452  11.838  1.00  0.00     0.023 A 
ATOM     79  C   UNL     1      -6.082  -2.079  10.918  1.00  0.00     0.012 A 
ATOM     80  C   UNL     1      -4.347  -2.252  12.613  1.00  0.00     0.148 A 
ATOM     81  C   UNL     1      -5.976  -3.443  10.644  1.00  0.00     0.002 A 
ATOM     82  C   UNL     1      -4.220  -3.604  12.306  1.00  0.00     0.091 A 
ATOM     83  F   UNL     1      -3.595  -1.660  13.549  1.00  0.00    -0.205 F 
ATOM     84  C   UNL     1      -5.007  -4.193  11.299  1.00  0.00     0.022 A 
BRANCH  82  85
ATOM     85  S   UNL     1      -2.903  -4.622  12.984  1.00  0.00     0.127 S 
ATOM     86  O   UNL     1      -3.632  -5.476  13.912  1.00  0.00    -0.237 OA
ATOM     87  O   UNL     1      -2.407  -5.293  11.790  1.00  0.00    -0.237 OA
ATOM     88  O   UNL     1      -1.960  -3.681  13.588  1.00  0.00    -0.744 OA
ENDBRANCH  82  85
ENDBRANCH  54  78
BRANCH  66  89
ATOM     89  C   UNL     1      -2.209   4.343  15.082  1.00  0.00     0.023 A 
ATOM     90  C   UNL     1      -2.730   3.942  16.325  1.00  0.00     0.012 A 
ATOM     91  C   UNL     1      -1.256   5.399  15.115  1.00  0.00     0.148 A 
ATOM     92  C   UNL     1      -2.395   4.592  17.519  1.00  0.00     0.002 A 
ATOM     93  C   UNL     1      -0.821   5.947  16.318  1.00  0.00     0.091 A 
ATOM     94  F   UNL     1      -0.781   5.917  13.973  1.00  0.00    -0.205 F 
ATOM     95  C   UNL     1      -1.421   5.577  17.520  1.00  0.00     0.022 A 
BRANCH  93  96
ATOM     96  S   UNL     1       0.621   7.019  16.391  1.00  0.00     0.127 S 
ATOM     97  O   UNL     1       0.009   8.343  16.458  1.00  0.00    -0.237 OA
ATOM     98  O   UNL     1       1.267   6.581  17.631  1.00  0.00    -0.237 OA
ATOM     99  O   UNL     1       1.384   6.723  15.187  1.00  0.00    -0.744 OA
ENDBRANCH  93  96
ENDBRANCH  66  89
ENDBRANCH  40  41
ENDBRANCH  32  35
ENDBRANCH  30  31
ENDBRANCH   1  30
TORSDOF 16
