REMARK SMILES Cc1cc(F)c(-c2ccc(F)c(C(=O)NCCCCNC(=O)c3ccc(-c4c5nc(c(-c6cccc(S(=O)(=O)[O-])c6F)c6ccc([nH]6)c(-c6cccc(S(=O)(=O)[O-])c6F)c6nc(c(-c7cccc(S(=O)(=O)[O-])c7F)c7ccc4[nH]7)C=C6)C=C5)cc3)c2)cc1F
REMARK SMILES IDX 18 1 17 2 16 3 15 4 13 5 14 6 12 8 7 9 8 10 86 11 9 12 10 13
REMARK SMILES IDX 11 14 6 15 1 16 2 17 3 18 88 19 4 20 87 21 89 22 5 23 19 24
REMARK SMILES IDX 20 25 21 26 22 28 23 29 24 30 85 31 25 32 84 33 26 34 27 35
REMARK SMILES IDX 28 36 78 37 29 38 83 39 77 40 79 41 30 42 82 43 76 44 75 45
REMARK SMILES IDX 31 47 63 48 43 49 62 50 44 51 47 52 61 53 80 54 45 55 46 56
REMARK SMILES IDX 60 58 81 59 48 60 32 61 33 62 41 63 34 64 36 65 42 66 35 67
REMARK SMILES IDX 37 68 38 69 39 70 40 71 64 72 65 73 73 74 66 75 68 76 74 77
REMARK SMILES IDX 67 78 69 79 70 80 71 81 72 82 49 83 50 84 58 85 51 86 53 87
REMARK SMILES IDX 59 88 52 89 54 90 55 91 56 92 57 93
REMARK H PARENT 15 7 20 27 79 46 47 57
REMARK Flexibility Score: inf
ROOT
ATOM      1  C   UNL     1       4.179  -5.279   7.151  1.00  0.00     0.023 C 
ENDROOT
BRANCH   1   2
ATOM      2  C   UNL     1       3.108  -4.452   6.455  1.00  0.00     0.023 C 
BRANCH   2   3
ATOM      3  C   UNL     1       2.282  -5.155   5.386  1.00  0.00     0.116 C 
BRANCH   3   4
ATOM      4  N   UNL     1       1.589  -6.357   5.823  1.00  0.00    -0.352 N 
ATOM      5  C   UNL     1       0.333  -6.842   5.519  1.00  0.00     0.254 C 
ATOM      6  O   UNL     1       0.013  -7.949   5.944  1.00  0.00    -0.269 OA
ATOM      7  H   UNL     1       2.105  -6.922   6.443  1.00  0.00     0.163 HD
BRANCH   5   8
ATOM      8  C   UNL     1      -0.640  -6.048   4.730  1.00  0.00     0.076 A 
ATOM      9  C   UNL     1      -1.117  -4.312   3.070  1.00  0.00    -0.014 A 
ATOM     10  C   UNL     1      -2.466  -4.350   3.462  1.00  0.00     0.012 A 
ATOM     11  C   UNL     1      -0.244  -5.250   3.649  1.00  0.00     0.025 A 
ATOM     12  C   UNL     1      -2.902  -5.236   4.449  1.00  0.00     0.041 A 
ATOM     13  C   UNL     1      -1.984  -6.057   5.099  1.00  0.00     0.135 A 
ATOM     14  F   UNL     1      -2.429  -6.812   6.113  1.00  0.00    -0.206 F 
BRANCH   9  15
ATOM     15  C   UNL     1      -0.588  -3.235   2.208  1.00  0.00     0.020 A 
ATOM     16  C   UNL     1       1.189   0.048  -0.016  1.00  0.00     0.047 C 
ATOM     17  C   UNL     1       0.573  -1.081   0.749  1.00  0.00    -0.012 A 
ATOM     18  C   UNL     1       0.963  -2.402   0.503  1.00  0.00     0.046 A 
ATOM     19  C   UNL     1      -0.407  -0.852   1.713  1.00  0.00     0.126 A 
ATOM     20  C   UNL     1       0.388  -3.454   1.223  1.00  0.00     0.131 A 
ATOM     21  C   UNL     1      -0.976  -1.901   2.434  1.00  0.00     0.051 A 
ATOM     22  F   UNL     1      -0.808   0.399   1.980  1.00  0.00    -0.207 F 
ATOM     23  F   UNL     1       0.817  -4.697   0.959  1.00  0.00    -0.206 F 
ENDBRANCH   9  15
ENDBRANCH   5   8
ENDBRANCH   3   4
ENDBRANCH   2   3
ENDBRANCH   1   2
BRANCH   1  24
ATOM     24  C   UNL     1       5.100  -6.090   6.248  1.00  0.00     0.116 C 
BRANCH  24  25
ATOM     25  N   UNL     1       5.856  -5.291   5.293  1.00  0.00    -0.352 N 
ATOM     26  C   UNL     1       7.218  -5.167   5.109  1.00  0.00     0.251 C 
ATOM     27  H   UNL     1       5.306  -4.753   4.678  1.00  0.00     0.163 HD
ATOM     28  O   UNL     1       7.644  -4.378   4.275  1.00  0.00    -0.269 OA
BRANCH  26  29
ATOM     29  C   UNL     1       8.159  -5.941   5.955  1.00  0.00     0.039 A 
ATOM     30  C   UNL     1       7.931  -7.285   6.238  1.00  0.00     0.014 A 
ATOM     31  C   UNL     1       9.268  -5.293   6.509  1.00  0.00     0.014 A 
ATOM     32  C   UNL     1       8.660  -7.909   7.244  1.00  0.00     0.010 A 
ATOM     33  C   UNL     1      10.072  -5.961   7.442  1.00  0.00     0.010 A 
ATOM     34  C   UNL     1       9.732  -7.252   7.872  1.00  0.00    -0.014 A 
BRANCH  34  35
ATOM     35  C   UNL     1      10.461  -7.945   8.971  1.00  0.00     0.031 A 
ATOM     36  C   UNL     1      10.482  -7.386  10.372  1.00  0.00     0.074 A 
ATOM     37  C   UNL     1      11.050  -9.131   8.717  1.00  0.00     0.049 A 
ATOM     38  N   UNL     1      11.002  -7.911  11.453  1.00  0.00    -0.248 NA
ATOM     39  C   UNL     1       9.849  -6.075  10.598  1.00  0.00     0.031 C 
ATOM     40  C   UNL     1      11.137  -9.760   7.397  1.00  0.00     0.029 A 
ATOM     41  N   UNL     1      11.663 -10.030   9.553  1.00  0.00    -0.354 N 
ATOM     42  C   UNL     1      10.797  -6.986  12.470  1.00  0.00     0.074 A 
ATOM     43  C   UNL     1      10.108  -5.859  11.883  1.00  0.00     0.031 C 
ATOM     44  C   UNL     1      11.717 -10.963   7.519  1.00  0.00     0.029 A 
ATOM     45  C   UNL     1      12.087 -11.173   8.915  1.00  0.00     0.049 A 
ATOM     46  H   UNL     1      11.788  -9.873  10.517  1.00  0.00     0.167 HD
ATOM     47  C   UNL     1      11.130  -7.078  13.778  1.00  0.00     0.034 A 
ATOM     48  C   UNL     1      12.706 -12.272   9.391  1.00  0.00     0.034 A 
ATOM     49  C   UNL     1      11.748  -8.226  14.381  1.00  0.00     0.049 A 
ATOM     50  C   UNL     1      13.007 -12.371  10.857  1.00  0.00     0.074 A 
ATOM     51  C   UNL     1      12.071  -8.421  15.713  1.00  0.00     0.029 A 
ATOM     52  N   UNL     1      12.122  -9.374  13.704  1.00  0.00    -0.354 N 
ATOM     53  N   UNL     1      12.721 -11.519  11.810  1.00  0.00    -0.248 NA
ATOM     54  C   UNL     1      13.699 -13.583  11.321  1.00  0.00     0.031 C 
ATOM     55  C   UNL     1      12.636  -9.691  15.844  1.00  0.00     0.029 A 
ATOM     56  C   UNL     1      12.666 -10.284  14.592  1.00  0.00     0.049 A 
ATOM     57  H   UNL     1      12.017  -9.521  12.736  1.00  0.00     0.167 HD
ATOM     58  C   UNL     1      13.191 -12.092  12.985  1.00  0.00     0.074 A 
ATOM     59  C   UNL     1      13.758 -13.376  12.631  1.00  0.00     0.031 C 
ATOM     60  C   UNL     1      13.175 -11.582  14.238  1.00  0.00     0.034 A 
BRANCH  47  61
ATOM     61  C   UNL     1      10.772  -5.941  14.696  1.00  0.00     0.023 A 
ATOM     62  C   UNL     1       9.467  -5.876  15.222  1.00  0.00     0.012 A 
ATOM     63  C   UNL     1      11.756  -5.046  15.160  1.00  0.00     0.148 A 
ATOM     64  C   UNL     1       9.146  -4.939  16.202  1.00  0.00     0.002 A 
ATOM     65  C   UNL     1      11.435  -4.131  16.156  1.00  0.00     0.091 A 
ATOM     66  F   UNL     1      12.990  -5.132  14.643  1.00  0.00    -0.205 F 
ATOM     67  C   UNL     1      10.130  -4.076  16.676  1.00  0.00     0.022 A 
BRANCH  65  68
ATOM     68  S   UNL     1      12.638  -3.012  16.881  1.00  0.00     0.127 S 
ATOM     69  O   UNL     1      12.060  -1.707  16.558  1.00  0.00    -0.237 OA
ATOM     70  O   UNL     1      12.576  -3.373  18.297  1.00  0.00    -0.237 OA
ATOM     71  O   UNL     1      13.906  -3.299  16.225  1.00  0.00    -0.744 OA
ENDBRANCH  65  68
ENDBRANCH  47  61
BRANCH  48  72
ATOM     72  C   UNL     1      13.031 -13.381   8.455  1.00  0.00     0.023 A 
ATOM     73  C   UNL     1      12.266 -14.562   8.485  1.00  0.00     0.012 A 
ATOM     74  C   UNL     1      14.035 -13.232   7.479  1.00  0.00     0.148 A 
ATOM     75  C   UNL     1      12.499 -15.578   7.558  1.00  0.00     0.002 A 
ATOM     76  C   UNL     1      14.228 -14.226   6.528  1.00  0.00     0.091 A 
ATOM     77  F   UNL     1      14.760 -12.104   7.482  1.00  0.00    -0.205 F 
ATOM     78  C   UNL     1      13.468 -15.405   6.572  1.00  0.00     0.022 A 
BRANCH  76  79
ATOM     79  S   UNL     1      15.359 -14.024   5.147  1.00  0.00     0.127 S 
ATOM     80  O   UNL     1      16.447 -14.924   5.519  1.00  0.00    -0.237 OA
ATOM     81  O   UNL     1      14.543 -14.475   4.019  1.00  0.00    -0.237 OA
ATOM     82  O   UNL     1      15.690 -12.606   5.117  1.00  0.00    -0.744 OA
ENDBRANCH  76  79
ENDBRANCH  48  72
BRANCH  60  83
ATOM     83  C   UNL     1      13.781 -12.392  15.347  1.00  0.00     0.023 A 
ATOM     84  C   UNL     1      15.175 -12.345  15.540  1.00  0.00     0.012 A 
ATOM     85  C   UNL     1      12.966 -13.053  16.285  1.00  0.00     0.148 A 
ATOM     86  C   UNL     1      15.751 -12.943  16.659  1.00  0.00     0.002 A 
ATOM     87  C   UNL     1      13.544 -13.622  17.413  1.00  0.00     0.091 A 
ATOM     88  F   UNL     1      11.642 -13.078  16.073  1.00  0.00    -0.205 F 
ATOM     89  C   UNL     1      14.936 -13.570  17.600  1.00  0.00     0.022 A 
BRANCH  87  90
ATOM     90  S   UNL     1      12.578 -14.387  18.719  1.00  0.00     0.127 S 
ATOM     91  O   UNL     1      13.074 -15.763  18.690  1.00  0.00    -0.237 OA
ATOM     92  O   UNL     1      12.985 -13.616  19.893  1.00  0.00    -0.237 OA
ATOM     93  O   UNL     1      11.181 -14.231  18.336  1.00  0.00    -0.744 OA
ENDBRANCH  87  90
ENDBRANCH  60  83
ENDBRANCH  34  35
ENDBRANCH  26  29
ENDBRANCH  24  25
ENDBRANCH   1  24
TORSDOF 15
