REMARK SMILES Cc1nn(C(C)C)cc1-c1cnccc1C(=O)NCCCCNC(=O)c1ccc(-c2c3nc(c(-c4cccc(S(=O)(=O)[O-])c4F)c4ccc([nH]4)c(-c4cccc(S(=O)(=O)[O-])c4F)c4nc(c(-c5cccc(S(=O)(=O)[O-])c5F)c5ccc2[nH]5)C=C4)C=C3)cc1
REMARK SMILES IDX 21 1 20 2 19 3 18 4 16 5 17 6 15 8 10 9 11 10 12 11 14 12
REMARK SMILES IDX 13 13 9 14 1 15 2 16 3 17 4 18 8 19 5 20 6 21 7 22 22 23
REMARK SMILES IDX 23 24 24 25 25 27 26 28 27 29 88 30 28 31 87 32 29 33 30 34
REMARK SMILES IDX 31 35 81 36 32 37 86 38 80 39 82 40 33 41 85 42 79 43 78 44
REMARK SMILES IDX 34 46 66 47 46 48 65 49 47 50 50 51 64 52 83 53 48 54 49 55
REMARK SMILES IDX 63 57 84 58 51 59 35 60 36 61 44 62 37 63 39 64 45 65 38 66
REMARK SMILES IDX 40 67 41 68 42 69 43 70 67 71 68 72 76 73 69 74 71 75 77 76
REMARK SMILES IDX 70 77 72 78 73 79 74 80 75 81 52 82 53 83 61 84 54 85 56 86
REMARK SMILES IDX 62 87 55 88 57 89 58 90 59 91 60 92
REMARK H PARENT 18 7 23 26 82 45 50 56
REMARK Flexibility Score: inf
ROOT
ATOM      1  C   UNL     1       1.882   0.990   4.377  1.00  0.00     0.023 C 
ENDROOT
BRANCH   1   2
ATOM      2  C   UNL     1       2.068   0.695   2.893  1.00  0.00     0.023 C 
BRANCH   2   3
ATOM      3  C   UNL     1       1.956   1.827   1.876  1.00  0.00     0.116 C 
BRANCH   3   4
ATOM      4  N   UNL     1       3.005   2.808   1.807  1.00  0.00    -0.352 N 
ATOM      5  C   UNL     1       3.563   3.417   0.700  1.00  0.00     0.252 C 
ATOM      6  O   UNL     1       4.450   4.244   0.925  1.00  0.00    -0.269 OA
ATOM      7  H   UNL     1       3.379   3.086   2.675  1.00  0.00     0.163 HD
BRANCH   5   8
ATOM      8  C   UNL     1       3.295   3.053  -0.735  1.00  0.00     0.050 A 
ATOM      9  C   UNL     1       2.087   2.718  -1.368  1.00  0.00     0.016 A 
ATOM     10  C   UNL     1       2.140   2.373  -2.726  1.00  0.00     0.120 A 
ATOM     11  N   UNL     1       3.255   2.354  -3.490  1.00  0.00    -0.264 NA
ATOM     12  C   UNL     1       4.451   3.100  -1.542  1.00  0.00     0.034 A 
ATOM     13  C   UNL     1       4.384   2.753  -2.882  1.00  0.00     0.112 A 
BRANCH   9  14
ATOM     14  C   UNL     1       0.768   2.703  -0.784  1.00  0.00     0.025 A 
ATOM     15  C   UNL     1       0.141   0.157  -0.689  1.00  0.00     0.069 C 
ATOM     16  C   UNL     1      -0.111   1.612  -0.525  1.00  0.00     0.067 A 
ATOM     17  N   UNL     1      -1.254   2.026   0.027  1.00  0.00    -0.177 NA
ATOM     18  N   UNL     1      -1.122   3.366   0.100  1.00  0.00    -0.269 N 
ATOM     19  C   UNL     1       0.063   3.822  -0.415  1.00  0.00     0.118 A 
BRANCH  18  20
ATOM     20  C   UNL     1      -2.095   4.174   0.826  1.00  0.00     0.101 C 
ATOM     21  C   UNL     1      -3.428   3.466   1.088  1.00  0.00     0.033 C 
ATOM     22  C   UNL     1      -1.487   4.601   2.149  1.00  0.00     0.033 C 
ENDBRANCH  18  20
ENDBRANCH   9  14
ENDBRANCH   5   8
ENDBRANCH   3   4
ENDBRANCH   2   3
ENDBRANCH   1   2
BRANCH   1  23
ATOM     23  C   UNL     1       0.761   1.937   4.765  1.00  0.00     0.116 C 
BRANCH  23  24
ATOM     24  N   UNL     1      -0.593   1.427   4.854  1.00  0.00    -0.352 N 
ATOM     25  C   UNL     1      -1.744   2.093   5.262  1.00  0.00     0.251 C 
ATOM     26  H   UNL     1      -0.714   0.486   4.591  1.00  0.00     0.163 HD
ATOM     27  O   UNL     1      -2.774   1.433   5.411  1.00  0.00    -0.269 OA
BRANCH  25  28
ATOM     28  C   UNL     1      -1.802   3.585   5.442  1.00  0.00     0.039 A 
ATOM     29  C   UNL     1      -3.053   4.228   5.531  1.00  0.00     0.014 A 
ATOM     30  C   UNL     1      -0.669   4.390   5.407  1.00  0.00     0.014 A 
ATOM     31  C   UNL     1      -3.140   5.632   5.530  1.00  0.00     0.010 A 
ATOM     32  C   UNL     1      -0.757   5.748   5.215  1.00  0.00     0.010 A 
ATOM     33  C   UNL     1      -1.981   6.385   5.343  1.00  0.00    -0.014 A 
BRANCH  33  34
ATOM     34  C   UNL     1      -1.897   7.834   5.505  1.00  0.00     0.031 A 
ATOM     35  C   UNL     1      -1.485   8.294   6.875  1.00  0.00     0.074 A 
ATOM     36  C   UNL     1      -1.723   8.664   4.453  1.00  0.00     0.049 A 
ATOM     37  N   UNL     1      -2.076   9.159   7.636  1.00  0.00    -0.248 NA
ATOM     38  C   UNL     1      -0.300   7.676   7.505  1.00  0.00     0.031 C 
ATOM     39  C   UNL     1      -1.613   8.298   3.039  1.00  0.00     0.029 A 
ATOM     40  N   UNL     1      -1.408   9.993   4.454  1.00  0.00    -0.354 N 
ATOM     41  C   UNL     1      -1.235   9.323   8.739  1.00  0.00     0.074 A 
ATOM     42  C   UNL     1      -0.264   8.270   8.692  1.00  0.00     0.031 C 
ATOM     43  C   UNL     1      -1.032   9.310   2.359  1.00  0.00     0.029 A 
ATOM     44  C   UNL     1      -0.840  10.432   3.261  1.00  0.00     0.049 A 
ATOM     45  H   UNL     1      -1.567  10.585   5.224  1.00  0.00     0.167 HD
ATOM     46  C   UNL     1      -1.228  10.444   9.505  1.00  0.00     0.034 A 
ATOM     47  C   UNL     1      -0.197  11.604   3.044  1.00  0.00     0.034 A 
ATOM     48  C   UNL     1      -2.388  11.258   9.294  1.00  0.00     0.049 A 
ATOM     49  C   UNL     1      -0.535  12.518   4.157  1.00  0.00     0.074 A 
ATOM     50  C   UNL     1      -3.751  11.050   9.353  1.00  0.00     0.029 A 
ATOM     51  N   UNL     1      -2.214  12.433   8.608  1.00  0.00    -0.354 N 
ATOM     52  N   UNL     1      -1.714  13.037   4.347  1.00  0.00    -0.248 NA
ATOM     53  C   UNL     1       0.381  12.616   5.281  1.00  0.00     0.031 C 
ATOM     54  C   UNL     1      -4.288  11.848   8.302  1.00  0.00     0.029 A 
ATOM     55  C   UNL     1      -3.220  12.503   7.683  1.00  0.00     0.049 A 
ATOM     56  H   UNL     1      -1.502  13.098   8.753  1.00  0.00     0.167 HD
ATOM     57  C   UNL     1      -1.834  13.134   5.725  1.00  0.00     0.074 A 
ATOM     58  C   UNL     1      -0.471  13.008   6.230  1.00  0.00     0.031 C 
ATOM     59  C   UNL     1      -3.049  13.009   6.338  1.00  0.00     0.034 A 
BRANCH  46  60
ATOM     60  C   UNL     1      -0.010  10.963  10.227  1.00  0.00     0.023 A 
ATOM     61  C   UNL     1      -0.210  11.923  11.240  1.00  0.00     0.012 A 
ATOM     62  C   UNL     1       1.321  10.737   9.807  1.00  0.00     0.148 A 
ATOM     63  C   UNL     1       0.859  12.634  11.794  1.00  0.00     0.002 A 
ATOM     64  C   UNL     1       2.388  11.376  10.431  1.00  0.00     0.091 A 
ATOM     65  F   UNL     1       1.567  10.002   8.714  1.00  0.00    -0.205 F 
ATOM     66  C   UNL     1       2.162  12.347  11.404  1.00  0.00     0.022 A 
BRANCH  64  67
ATOM     67  S   UNL     1       4.078  10.933  10.013  1.00  0.00     0.127 S 
ATOM     68  O   UNL     1       4.386  11.908   8.963  1.00  0.00    -0.237 OA
ATOM     69  O   UNL     1       4.780  11.159  11.282  1.00  0.00    -0.237 OA
ATOM     70  O   UNL     1       4.005   9.543   9.616  1.00  0.00    -0.744 OA
ENDBRANCH  64  67
ENDBRANCH  46  60
BRANCH  47  71
ATOM     71  C   UNL     1       0.814  11.976   2.027  1.00  0.00     0.023 A 
ATOM     72  C   UNL     1       0.960  13.329   1.659  1.00  0.00     0.012 A 
ATOM     73  C   UNL     1       1.792  11.058   1.589  1.00  0.00     0.148 A 
ATOM     74  C   UNL     1       2.056  13.758   0.902  1.00  0.00     0.002 A 
ATOM     75  C   UNL     1       2.872  11.488   0.822  1.00  0.00     0.091 A 
ATOM     76  F   UNL     1       1.711   9.784   1.997  1.00  0.00    -0.205 F 
ATOM     77  C   UNL     1       3.014  12.840   0.486  1.00  0.00     0.022 A 
BRANCH  75  78
ATOM     78  S   UNL     1       4.139  10.351   0.243  1.00  0.00     0.127 S 
ATOM     79  O   UNL     1       4.361  10.810  -1.129  1.00  0.00    -0.237 OA
ATOM     80  O   UNL     1       5.237  10.626   1.165  1.00  0.00    -0.237 OA
ATOM     81  O   UNL     1       3.536   9.028   0.336  1.00  0.00    -0.744 OA
ENDBRANCH  75  78
ENDBRANCH  47  71
BRANCH  59  82
ATOM     82  C   UNL     1      -4.295  13.057   5.486  1.00  0.00     0.023 A 
ATOM     83  C   UNL     1      -4.519  12.131   4.445  1.00  0.00     0.012 A 
ATOM     84  C   UNL     1      -5.342  13.918   5.859  1.00  0.00     0.148 A 
ATOM     85  C   UNL     1      -5.741  12.086   3.772  1.00  0.00     0.002 A 
ATOM     86  C   UNL     1      -6.575  13.834   5.222  1.00  0.00     0.091 A 
ATOM     87  F   UNL     1      -5.126  14.791   6.856  1.00  0.00    -0.205 F 
ATOM     88  C   UNL     1      -6.775  12.928   4.170  1.00  0.00     0.022 A 
BRANCH  86  89
ATOM     89  S   UNL     1      -7.988  14.786   5.789  1.00  0.00     0.127 S 
ATOM     90  O   UNL     1      -8.015  15.893   4.837  1.00  0.00    -0.237 OA
ATOM     91  O   UNL     1      -9.092  13.833   5.649  1.00  0.00    -0.237 OA
ATOM     92  O   UNL     1      -7.692  15.145   7.171  1.00  0.00    -0.744 OA
ENDBRANCH  86  89
ENDBRANCH  59  82
ENDBRANCH  33  34
ENDBRANCH  25  28
ENDBRANCH  23  24
ENDBRANCH   1  23
TORSDOF 16
