REMARK SMILES COc1ccc(OC)c(-c2cc(-c3ccccc3)nc(S[C@H](C)C(=O)NCCCCNC(=O)c3ccc(-c4c5nc(c(-c6cccc(S(=O)(=O)[O-])c6F)c6ccc([nH]6)c(-c6cccc(S(=O)(=O)[O-])c6F)c6nc(c(-c7cccc(S(=O)(=O)[O-])c7F)c7ccc4[nH]7)C=C6)C=C5)cc3)c2C#N)c1
REMARK SMILES IDX 28 1 27 2 26 3 24 4 25 5 22 7 23 8 21 9 20 10 10 11 11 12
REMARK SMILES IDX 97 13 12 14 19 15 9 16 3 17 4 18 100 19 5 20 6 21 2 22 1 23
REMARK SMILES IDX 7 24 8 25 98 26 99 27 13 28 14 29 18 30 15 31 17 32 16 33
REMARK SMILES IDX 29 34 30 35 31 36 32 37 33 39 34 40 35 41 96 42 36 43 95 44
REMARK SMILES IDX 37 45 38 46 39 47 89 48 40 49 94 50 88 51 90 52 41 53 93 54
REMARK SMILES IDX 87 55 86 56 42 58 74 59 54 60 73 61 55 62 58 63 72 64 91 65
REMARK SMILES IDX 56 66 57 67 71 69 92 70 59 71 43 72 44 73 52 74 45 75 47 76
REMARK SMILES IDX 53 77 46 78 48 79 49 80 50 81 51 82 75 83 76 84 84 85 77 86
REMARK SMILES IDX 79 87 85 88 78 89 80 90 81 91 82 92 83 93 60 94 61 95 69 96
REMARK SMILES IDX 62 97 64 98 70 99 63 100 65 101 66 102 67 103 68 104
REMARK H PARENT 26 6 31 38 90 57 58 68
REMARK Flexibility Score: inf
ROOT
ATOM      1  C   UNL     1       4.624   5.022  -2.108  1.00  0.00     0.023 C 
ENDROOT
BRANCH   1   2
ATOM      2  C   UNL     1       4.600   3.567  -2.563  1.00  0.00     0.116 C 
BRANCH   2   3
ATOM      3  N   UNL     1       4.834   3.425  -3.986  1.00  0.00    -0.355 N 
ATOM      4  C   UNL     1       5.844   2.793  -4.651  1.00  0.00     0.233 C 
ATOM      5  O   UNL     1       5.781   2.751  -5.883  1.00  0.00    -0.274 OA
ATOM      6  H   UNL     1       4.159   3.851  -4.563  1.00  0.00     0.163 HD
BRANCH   4   7
ATOM      7  C   UNL     1       7.044   2.192  -3.913  1.00  0.00     0.139 C 
ATOM      8  C   UNL     1       7.891   3.291  -3.290  1.00  0.00     0.030 C 
BRANCH   7   9
ATOM      9  S   UNL     1       6.487   0.665  -3.010  1.00  0.00    -0.092 SA
BRANCH   9  10
ATOM     10  C   UNL     1       6.922   0.838  -1.283  1.00  0.00     0.116 A 
ATOM     11  C   UNL     1       6.916   0.054   1.013  1.00  0.00     0.008 A 
ATOM     12  C   UNL     1       7.905   1.010   1.281  1.00  0.00     0.039 A 
ATOM     13  C   UNL     1       6.431  -0.046  -0.313  1.00  0.00     0.092 A 
ATOM     14  C   UNL     1       8.278   1.904   0.290  1.00  0.00     0.072 A 
ATOM     15  N   UNL     1       7.794   1.813  -0.968  1.00  0.00    -0.240 NA
BRANCH  11  16
ATOM     16  C   UNL     1       6.453  -0.835   2.103  1.00  0.00     0.029 A 
ATOM     17  C   UNL     1       6.425  -3.156   2.947  1.00  0.00     0.119 A 
ATOM     18  C   UNL     1       5.589  -2.763   3.981  1.00  0.00     0.050 A 
ATOM     19  C   UNL     1       6.858  -2.198   2.027  1.00  0.00     0.059 A 
ATOM     20  C   UNL     1       5.206  -1.430   4.099  1.00  0.00     0.051 A 
ATOM     21  C   UNL     1       5.619  -0.453   3.175  1.00  0.00     0.127 A 
BRANCH  17  22
ATOM     22  O   UNL     1       6.700  -4.493   2.914  1.00  0.00    -0.497 OA
ATOM     23  C   UNL     1       7.835  -4.901   2.163  1.00  0.00     0.278 C 
ENDBRANCH  17  22
BRANCH  21  24
ATOM     24  O   UNL     1       5.051   0.748   3.490  1.00  0.00    -0.496 OA
ATOM     25  C   UNL     1       5.423   1.962   2.873  1.00  0.00     0.278 C 
ENDBRANCH  21  24
ENDBRANCH  11  16
BRANCH  13  26
ATOM     26  C   UNL     1       5.469  -1.054  -0.662  1.00  0.00     0.103 C 
ATOM     27  N   UNL     1       4.714  -1.893  -0.929  1.00  0.00    -0.192 NA
ENDBRANCH  13  26
BRANCH  14  28
ATOM     28  C   UNL     1       9.190   3.028   0.533  1.00  0.00     0.000 A 
ATOM     29  C   UNL     1       8.823   4.336   0.165  1.00  0.00     0.010 A 
ATOM     30  C   UNL     1      10.452   2.838   1.114  1.00  0.00     0.010 A 
ATOM     31  C   UNL     1       9.693   5.412   0.351  1.00  0.00     0.001 A 
ATOM     32  C   UNL     1      11.325   3.914   1.301  1.00  0.00     0.001 A 
ATOM     33  C   UNL     1      10.947   5.198   0.915  1.00  0.00     0.000 A 
ENDBRANCH  14  28
ENDBRANCH   9  10
ENDBRANCH   7   9
ENDBRANCH   4   7
ENDBRANCH   2   3
ENDBRANCH   1   2
BRANCH   1  34
ATOM     34  C   UNL     1       3.490   5.885  -2.661  1.00  0.00     0.023 C 
BRANCH  34  35
ATOM     35  C   UNL     1       2.084   5.355  -2.401  1.00  0.00     0.116 C 
BRANCH  35  36
ATOM     36  N   UNL     1       1.793   5.186  -0.983  1.00  0.00    -0.352 N 
ATOM     37  C   UNL     1       0.722   5.651  -0.257  1.00  0.00     0.251 C 
ATOM     38  H   UNL     1       2.457   4.667  -0.473  1.00  0.00     0.163 HD
ATOM     39  O   UNL     1       0.714   5.539   0.966  1.00  0.00    -0.269 OA
BRANCH  37  40
ATOM     40  C   UNL     1      -0.400   6.315  -0.954  1.00  0.00     0.039 A 
ATOM     41  C   UNL     1      -0.867   7.539  -0.470  1.00  0.00     0.014 A 
ATOM     42  C   UNL     1      -0.953   5.758  -2.110  1.00  0.00     0.014 A 
ATOM     43  C   UNL     1      -1.826   8.247  -1.197  1.00  0.00     0.010 A 
ATOM     44  C   UNL     1      -1.848   6.501  -2.874  1.00  0.00     0.010 A 
ATOM     45  C   UNL     1      -2.285   7.759  -2.432  1.00  0.00    -0.014 A 
BRANCH  45  46
ATOM     46  C   UNL     1      -3.176   8.574  -3.300  1.00  0.00     0.031 A 
ATOM     47  C   UNL     1      -4.545   8.078  -3.674  1.00  0.00     0.074 A 
ATOM     48  C   UNL     1      -2.710   9.724  -3.828  1.00  0.00     0.049 A 
ATOM     49  N   UNL     1      -5.430   8.625  -4.466  1.00  0.00    -0.248 NA
ATOM     50  C   UNL     1      -4.968   6.788  -3.103  1.00  0.00     0.031 C 
ATOM     51  C   UNL     1      -1.372  10.278  -3.603  1.00  0.00     0.029 A 
ATOM     52  N   UNL     1      -3.297  10.621  -4.687  1.00  0.00    -0.354 N 
ATOM     53  C   UNL     1      -6.497   7.737  -4.516  1.00  0.00     0.074 A 
ATOM     54  C   UNL     1      -6.137   6.599  -3.697  1.00  0.00     0.031 C 
ATOM     55  C   UNL     1      -1.243  11.418  -4.299  1.00  0.00     0.029 A 
ATOM     56  C   UNL     1      -2.468  11.656  -5.055  1.00  0.00     0.049 A 
ATOM     57  H   UNL     1      -4.223  10.532  -5.009  1.00  0.00     0.167 HD
ATOM     58  C   UNL     1      -7.679   7.865  -5.165  1.00  0.00     0.034 A 
ATOM     59  C   UNL     1      -2.661  12.672  -5.919  1.00  0.00     0.034 A 
ATOM     60  C   UNL     1      -8.043   9.007  -5.961  1.00  0.00     0.049 A 
ATOM     61  C   UNL     1      -3.983  12.791  -6.627  1.00  0.00     0.074 A 
ATOM     62  C   UNL     1      -9.250   9.269  -6.585  1.00  0.00     0.029 A 
ATOM     63  N   UNL     1      -7.198  10.064  -6.265  1.00  0.00    -0.354 N 
ATOM     64  N   UNL     1      -5.042  12.025  -6.529  1.00  0.00    -0.248 NA
ATOM     65  C   UNL     1      -4.148  13.929  -7.543  1.00  0.00     0.031 C 
ATOM     66  C   UNL     1      -9.120  10.461  -7.305  1.00  0.00     0.029 A 
ATOM     67  C   UNL     1      -7.848  10.966  -7.092  1.00  0.00     0.049 A 
ATOM     68  H   UNL     1      -6.273  10.159  -5.942  1.00  0.00     0.167 HD
ATOM     69  C   UNL     1      -6.007  12.602  -7.347  1.00  0.00     0.074 A 
ATOM     70  C   UNL     1      -5.415  13.798  -7.911  1.00  0.00     0.031 C 
ATOM     71  C   UNL     1      -7.264  12.173  -7.618  1.00  0.00     0.034 A 
BRANCH  58  72
ATOM     72  C   UNL     1      -8.687   6.754  -5.017  1.00  0.00     0.023 A 
ATOM     73  C   UNL     1      -9.332   6.552  -3.780  1.00  0.00     0.012 A 
ATOM     74  C   UNL     1      -9.043   5.952  -6.120  1.00  0.00     0.148 A 
ATOM     75  C   UNL     1     -10.287   5.548  -3.631  1.00  0.00     0.002 A 
ATOM     76  C   UNL     1     -10.031   4.985  -5.977  1.00  0.00     0.091 A 
ATOM     77  F   UNL     1      -8.407   6.146  -7.284  1.00  0.00    -0.205 F 
ATOM     78  C   UNL     1     -10.644   4.773  -4.731  1.00  0.00     0.022 A 
BRANCH  76  79
ATOM     79  S   UNL     1     -10.623   3.991  -7.351  1.00  0.00     0.127 S 
ATOM     80  O   UNL     1     -10.142   2.661  -6.980  1.00  0.00    -0.237 OA
ATOM     81  O   UNL     1     -12.072   4.165  -7.251  1.00  0.00    -0.237 OA
ATOM     82  O   UNL     1     -10.021   4.559  -8.549  1.00  0.00    -0.744 OA
ENDBRANCH  76  79
ENDBRANCH  58  72
BRANCH  59  83
ATOM     83  C   UNL     1      -1.583  13.678  -6.142  1.00  0.00     0.023 A 
ATOM     84  C   UNL     1      -1.764  15.002  -5.697  1.00  0.00     0.012 A 
ATOM     85  C   UNL     1      -0.376  13.327  -6.777  1.00  0.00     0.148 A 
ATOM     86  C   UNL     1      -0.778  15.966  -5.912  1.00  0.00     0.002 A 
ATOM     87  C   UNL     1       0.626  14.277  -6.934  1.00  0.00     0.091 A 
ATOM     88  F   UNL     1      -0.227  12.064  -7.201  1.00  0.00    -0.205 F 
ATOM     89  C   UNL     1       0.419  15.602  -6.521  1.00  0.00     0.022 A 
BRANCH  87  90
ATOM     90  S   UNL     1       2.249  13.868  -7.587  1.00  0.00     0.127 S 
ATOM     91  O   UNL     1       2.253  14.593  -8.855  1.00  0.00    -0.237 OA
ATOM     92  O   UNL     1       3.132  14.419  -6.558  1.00  0.00    -0.237 OA
ATOM     93  O   UNL     1       2.280  12.416  -7.689  1.00  0.00    -0.744 OA
ENDBRANCH  87  90
ENDBRANCH  59  83
BRANCH  71  94
ATOM     94  C   UNL     1      -8.106  13.010  -8.546  1.00  0.00     0.023 A 
ATOM     95  C   UNL     1      -7.807  13.052  -9.922  1.00  0.00     0.012 A 
ATOM     96  C   UNL     1      -9.242  13.692  -8.065  1.00  0.00     0.148 A 
ATOM     97  C   UNL     1      -8.606  13.786 -10.800  1.00  0.00     0.002 A 
ATOM     98  C   UNL     1     -10.063  14.376  -8.952  1.00  0.00     0.091 A 
ATOM     99  F   UNL     1      -9.502  13.651  -6.750  1.00  0.00    -0.205 F 
ATOM    100  C   UNL     1      -9.739  14.436 -10.317  1.00  0.00     0.022 A 
BRANCH  98 101
ATOM    101  S   UNL     1     -11.595  15.165  -8.443  1.00  0.00     0.127 S 
ATOM    102  O   UNL     1     -11.286  16.578  -8.654  1.00  0.00    -0.237 OA
ATOM    103  O   UNL     1     -12.559  14.603  -9.389  1.00  0.00    -0.237 OA
ATOM    104  O   UNL     1     -11.808  14.778  -7.055  1.00  0.00    -0.744 OA
ENDBRANCH  98 101
ENDBRANCH  71  94
ENDBRANCH  45  46
ENDBRANCH  37  40
ENDBRANCH  35  36
ENDBRANCH  34  35
ENDBRANCH   1  34
TORSDOF 21
