REMARK SMILES O=C(CCC(=O)N1Cc2[nH]cnc2C[C@H]1C(=O)NCc1ccccc1)NCCCCNC(=O)c1ccc(-c2c3nc(c(-c4cccc(S(=O)(=O)[O-])c4F)c4ccc([nH]4)c(-c4cccc(S(=O)(=O)[O-])c4F)c4nc(c(-c5cccc(S(=O)(=O)[O-])c5F)c5ccc2[nH]5)C=C4)C=C3)cc1
REMARK SMILES IDX 27 1 26 2 1 3 2 4 3 6 4 7 5 8 6 9 7 10 8 11 15 12 9 13 14 14
REMARK SMILES IDX 10 15 13 16 11 17 12 19 16 20 17 21 18 22 19 24 20 25 21 26
REMARK SMILES IDX 25 27 22 28 24 29 23 30 28 31 29 32 30 33 31 34 32 35 33 37
REMARK SMILES IDX 34 38 35 39 96 40 36 41 95 42 37 43 38 44 39 45 89 46 40 47
REMARK SMILES IDX 94 48 88 49 90 50 41 51 93 52 87 53 86 54 42 56 74 57 54 58
REMARK SMILES IDX 73 59 55 60 58 61 72 62 91 63 56 64 57 65 71 67 92 68 59 69
REMARK SMILES IDX 43 70 44 71 52 72 45 73 47 74 53 75 46 76 48 77 49 78 50 79
REMARK SMILES IDX 51 80 75 81 76 82 84 83 77 84 79 85 85 86 78 87 80 88 81 89
REMARK SMILES IDX 82 90 83 91 60 92 61 93 69 94 62 95 64 96 70 97 63 98 65 99
REMARK SMILES IDX 66 100 67 101 68 102
REMARK H PARENT 26 5 10 18 18 23 31 36 90 55 58 66
REMARK Flexibility Score: inf
ROOT
ATOM      1  C   UNL     1       1.911  -2.353  -1.741  1.00  0.00     0.116 C 
ENDROOT
BRANCH   1   2
ATOM      2  N   UNL     1       2.764  -1.174  -1.638  1.00  0.00    -0.356 N 
ATOM      3  O   UNL     1       1.000   0.242  -1.211  1.00  0.00    -0.275 OA
ATOM      4  C   UNL     1       2.212   0.043  -1.229  1.00  0.00     0.220 C 
ATOM      5  H   UNL     1       3.722  -1.235  -1.856  1.00  0.00     0.163 HD
BRANCH   4   6
ATOM      6  C   UNL     1       3.206   1.093  -0.729  1.00  0.00     0.110 C 
BRANCH   6   7
ATOM      7  C   UNL     1       3.268   1.232   0.799  1.00  0.00     0.110 C 
BRANCH   7   8
ATOM      8  C   UNL     1       4.367   0.402   1.446  1.00  0.00     0.224 C 
ATOM      9  O   UNL     1       5.542   0.734   1.300  1.00  0.00    -0.275 OA
BRANCH   8  10
ATOM     10  N   UNL     1       3.986  -0.731   2.159  1.00  0.00    -0.324 N 
ATOM     11  C   UNL     1       4.965  -1.301   3.124  1.00  0.00     0.176 C 
ATOM     12  C   UNL     1       2.866  -1.589   1.668  1.00  0.00     0.180 C 
ATOM     13  C   UNL     1       4.803  -2.772   3.132  1.00  0.00     0.058 A 
ATOM     14  C   UNL     1       3.385  -2.920   1.138  1.00  0.00     0.093 C 
ATOM     15  N   UNL     1       5.027  -3.629   4.163  1.00  0.00    -0.347 N 
ATOM     16  C   UNL     1       4.149  -3.533   2.203  1.00  0.00     0.066 A 
ATOM     17  C   UNL     1       4.476  -4.833   3.793  1.00  0.00     0.197 A 
ATOM     18  H   UNL     1       5.492  -3.427   5.007  1.00  0.00     0.167 HD
ATOM     19  N   UNL     1       4.001  -4.824   2.572  1.00  0.00    -0.242 NA
BRANCH  12  20
ATOM     20  C   UNL     1       1.418  -1.535   2.209  1.00  0.00     0.243 C 
ATOM     21  O   UNL     1       0.698  -0.567   1.923  1.00  0.00    -0.273 OA
ATOM     22  N   UNL     1       0.813  -2.449   2.998  1.00  0.00    -0.350 N 
ATOM     23  H   UNL     1      -0.171  -2.405   2.972  1.00  0.00     0.163 HD
BRANCH  22  24
ATOM     24  C   UNL     1       1.325  -3.477   3.871  1.00  0.00     0.151 C 
BRANCH  24  25
ATOM     25  C   UNL     1       1.887  -2.942   5.162  1.00  0.00    -0.029 A 
ATOM     26  C   UNL     1       2.203  -3.828   6.207  1.00  0.00     0.005 A 
ATOM     27  C   UNL     1       2.102  -1.574   5.370  1.00  0.00     0.005 A 
ATOM     28  C   UNL     1       2.674  -3.347   7.431  1.00  0.00     0.000 A 
ATOM     29  C   UNL     1       2.575  -1.101   6.584  1.00  0.00     0.000 A 
ATOM     30  C   UNL     1       2.849  -1.981   7.621  1.00  0.00     0.000 A 
ENDBRANCH  24  25
ENDBRANCH  22  24
ENDBRANCH  12  20
ENDBRANCH   8  10
ENDBRANCH   7   8
ENDBRANCH   6   7
ENDBRANCH   4   6
ENDBRANCH   1   2
BRANCH   1  31
ATOM     31  C   UNL     1       2.428  -3.643  -2.424  1.00  0.00     0.023 C 
BRANCH  31  32
ATOM     32  C   UNL     1       3.923  -3.974  -2.555  1.00  0.00     0.023 C 
BRANCH  32  33
ATOM     33  C   UNL     1       4.642  -4.834  -1.497  1.00  0.00     0.116 C 
BRANCH  33  34
ATOM     34  N   UNL     1       4.367  -6.261  -1.402  1.00  0.00    -0.352 N 
ATOM     35  C   UNL     1       4.883  -7.227  -0.525  1.00  0.00     0.251 C 
ATOM     36  H   UNL     1       3.715  -6.602  -2.057  1.00  0.00     0.163 HD
ATOM     37  O   UNL     1       4.530  -8.395  -0.709  1.00  0.00    -0.269 OA
BRANCH  35  38
ATOM     38  C   UNL     1       5.794  -6.929   0.644  1.00  0.00     0.039 A 
ATOM     39  C   UNL     1       5.981  -7.863   1.694  1.00  0.00     0.014 A 
ATOM     40  C   UNL     1       6.444  -5.725   0.782  1.00  0.00     0.014 A 
ATOM     41  C   UNL     1       6.685  -7.537   2.896  1.00  0.00     0.010 A 
ATOM     42  C   UNL     1       7.032  -5.380   1.993  1.00  0.00     0.010 A 
ATOM     43  C   UNL     1       7.175  -6.248   3.088  1.00  0.00    -0.014 A 
BRANCH  43  44
ATOM     44  C   UNL     1       7.962  -5.713   4.248  1.00  0.00     0.031 A 
ATOM     45  C   UNL     1       9.333  -5.285   3.837  1.00  0.00     0.074 A 
ATOM     46  C   UNL     1       7.576  -5.354   5.506  1.00  0.00     0.049 A 
ATOM     47  N   UNL     1      10.425  -5.970   3.998  1.00  0.00    -0.248 NA
ATOM     48  C   UNL     1       9.512  -4.082   3.004  1.00  0.00     0.031 C 
ATOM     49  C   UNL     1       6.287  -5.543   6.172  1.00  0.00     0.029 A 
ATOM     50  N   UNL     1       8.233  -4.546   6.420  1.00  0.00    -0.354 N 
ATOM     51  C   UNL     1      11.408  -5.130   3.490  1.00  0.00     0.074 A 
ATOM     52  C   UNL     1      10.751  -4.272   2.550  1.00  0.00     0.031 C 
ATOM     53  C   UNL     1       6.127  -4.622   7.155  1.00  0.00     0.029 A 
ATOM     54  C   UNL     1       7.385  -3.929   7.351  1.00  0.00     0.049 A 
ATOM     55  H   UNL     1       9.209  -4.418   6.417  1.00  0.00     0.167 HD
ATOM     56  C   UNL     1      12.515  -4.820   4.220  1.00  0.00     0.034 A 
ATOM     57  C   UNL     1       7.691  -2.972   8.266  1.00  0.00     0.034 A 
ATOM     58  C   UNL     1      12.648  -5.678   5.369  1.00  0.00     0.049 A 
ATOM     59  C   UNL     1       9.087  -3.214   8.673  1.00  0.00     0.074 A 
ATOM     60  C   UNL     1      12.902  -7.004   5.634  1.00  0.00     0.029 A 
ATOM     61  N   UNL     1      12.151  -5.123   6.514  1.00  0.00    -0.354 N 
ATOM     62  N   UNL     1       9.445  -4.261   9.361  1.00  0.00    -0.248 NA
ATOM     63  C   UNL     1      10.169  -2.386   8.161  1.00  0.00     0.031 C 
ATOM     64  C   UNL     1      12.466  -7.242   6.971  1.00  0.00     0.029 A 
ATOM     65  C   UNL     1      11.961  -6.056   7.494  1.00  0.00     0.049 A 
ATOM     66  H   UNL     1      11.953  -4.165   6.621  1.00  0.00     0.167 HD
ATOM     67  C   UNL     1      10.735  -4.483   8.936  1.00  0.00     0.074 A 
ATOM     68  C   UNL     1      11.193  -3.207   8.406  1.00  0.00     0.031 C 
ATOM     69  C   UNL     1      11.144  -5.750   8.648  1.00  0.00     0.034 A 
BRANCH  56  70
ATOM     70  C   UNL     1      13.225  -3.468   4.210  1.00  0.00     0.023 A 
ATOM     71  C   UNL     1      14.467  -3.407   4.878  1.00  0.00     0.012 A 
ATOM     72  C   UNL     1      12.665  -2.224   3.826  1.00  0.00     0.148 A 
ATOM     73  C   UNL     1      15.099  -2.190   5.161  1.00  0.00     0.002 A 
ATOM     74  C   UNL     1      13.346  -1.025   4.013  1.00  0.00     0.091 A 
ATOM     75  F   UNL     1      11.398  -2.139   3.422  1.00  0.00    -0.205 F 
ATOM     76  C   UNL     1      14.549  -0.998   4.709  1.00  0.00     0.022 A 
BRANCH  74  77
ATOM     77  S   UNL     1      12.675   0.520   3.379  1.00  0.00     0.127 S 
ATOM     78  O   UNL     1      12.174   1.138   4.612  1.00  0.00    -0.237 OA
ATOM     79  O   UNL     1      13.875   1.154   2.817  1.00  0.00    -0.237 OA
ATOM     80  O   UNL     1      11.687   0.141   2.398  1.00  0.00    -0.744 OA
ENDBRANCH  74  77
ENDBRANCH  56  70
BRANCH  57  81
ATOM     81  C   UNL     1       6.936  -1.915   8.985  1.00  0.00     0.023 A 
ATOM     82  C   UNL     1       7.237  -1.631  10.336  1.00  0.00     0.012 A 
ATOM     83  C   UNL     1       6.188  -0.964   8.260  1.00  0.00     0.148 A 
ATOM     84  C   UNL     1       6.848  -0.427  10.934  1.00  0.00     0.002 A 
ATOM     85  C   UNL     1       5.802   0.238   8.863  1.00  0.00     0.091 A 
ATOM     86  F   UNL     1       5.916  -1.225   6.972  1.00  0.00    -0.205 F 
ATOM     87  C   UNL     1       6.144   0.514  10.194  1.00  0.00     0.022 A 
BRANCH  85  88
ATOM     88  S   UNL     1       4.931   1.540   7.977  1.00  0.00     0.127 S 
ATOM     89  O   UNL     1       3.580   1.402   8.520  1.00  0.00    -0.237 OA
ATOM     90  O   UNL     1       5.634   2.748   8.405  1.00  0.00    -0.237 OA
ATOM     91  O   UNL     1       5.076   1.208   6.567  1.00  0.00    -0.744 OA
ENDBRANCH  85  88
ENDBRANCH  57  81
BRANCH  69  92
ATOM     92  C   UNL     1      10.538  -6.884   9.421  1.00  0.00     0.023 A 
ATOM     93  C   UNL     1       9.172  -7.221   9.362  1.00  0.00     0.012 A 
ATOM     94  C   UNL     1      11.406  -7.689  10.178  1.00  0.00     0.148 A 
ATOM     95  C   UNL     1       8.681  -8.328  10.061  1.00  0.00     0.002 A 
ATOM     96  C   UNL     1      10.925  -8.818  10.826  1.00  0.00     0.091 A 
ATOM     97  F   UNL     1      12.699  -7.338  10.249  1.00  0.00    -0.205 F 
ATOM     98  C   UNL     1       9.560  -9.136  10.780  1.00  0.00     0.022 A 
BRANCH  96  99
ATOM     99  S   UNL     1      12.039  -9.953  11.655  1.00  0.00     0.127 S 
ATOM    100  O   UNL     1      11.887  -9.564  13.055  1.00  0.00    -0.237 OA
ATOM    101  O   UNL     1      11.470 -11.259  11.317  1.00  0.00    -0.237 OA
ATOM    102  O   UNL     1      13.352  -9.711  11.069  1.00  0.00    -0.744 OA
ENDBRANCH  96  99
ENDBRANCH  69  92
ENDBRANCH  43  44
ENDBRANCH  35  38
ENDBRANCH  33  34
ENDBRANCH  32  33
ENDBRANCH  31  32
ENDBRANCH   1  31
TORSDOF 20
