REMARK SMILES O=C(CCCN1C(=O)C(=O)/C(=C(\[O-])c2ccccc2)[C@H]1c1ccc([N+](=O)[O-])cc1)NCCCCNC(=O)c1ccc(-c2c3nc(c(-c4cccc(S(=O)(=O)[O-])c4F)c4ccc([nH]4)c(-c4cccc(S(=O)(=O)[O-])c4F)c4nc(c(-c5cccc(S(=O)(=O)[O-])c5F)c5ccc2[nH]5)C=C4)C=C3)cc1
REMARK SMILES IDX 31 1 30 2 1 3 2 4 3 6 4 7 5 8 6 9 7 10 20 11 8 12 9 13 11 14
REMARK SMILES IDX 10 15 12 16 13 17 21 18 22 19 29 20 23 21 28 22 24 23 25 24
REMARK SMILES IDX 26 25 27 26 14 27 15 28 19 29 16 30 18 31 17 32 32 33 33 34
REMARK SMILES IDX 34 35 35 36 36 37 37 39 38 40 39 41 100 42 40 43 99 44 41 45
REMARK SMILES IDX 42 46 43 47 93 48 44 49 98 50 92 51 94 52 45 53 97 54 91 55
REMARK SMILES IDX 90 56 46 58 78 59 58 60 77 61 59 62 62 63 76 64 95 65 60 66
REMARK SMILES IDX 61 67 75 69 96 70 63 71 47 72 48 73 56 74 49 75 51 76 57 77
REMARK SMILES IDX 50 78 52 79 53 80 54 81 55 82 79 83 80 84 88 85 81 86 83 87
REMARK SMILES IDX 89 88 82 89 84 90 85 91 86 92 87 93 64 94 65 95 73 96 66 97
REMARK SMILES IDX 68 98 74 99 67 100 69 101 70 102 71 103 72 104
REMARK H PARENT 30 5 35 38 94 57 62 68
REMARK Flexibility Score: inf
ROOT
ATOM      1  C   UNL     1       1.953   0.709  -2.221  1.00  0.00     0.116 C 
ENDROOT
BRANCH   1   2
ATOM      2  N   UNL     1       2.441   0.551  -0.870  1.00  0.00    -0.356 N 
ATOM      3  O   UNL     1       1.131  -1.252  -0.334  1.00  0.00    -0.275 OA
ATOM      4  C   UNL     1       2.009  -0.449  -0.034  1.00  0.00     0.220 C 
ATOM      5  H   UNL     1       3.112   1.189  -0.534  1.00  0.00     0.163 HD
BRANCH   4   6
ATOM      6  C   UNL     1       2.761  -0.530   1.284  1.00  0.00     0.102 C 
BRANCH   6   7
ATOM      7  C   UNL     1       4.001  -1.426   1.197  1.00  0.00     0.031 C 
BRANCH   7   8
ATOM      8  C   UNL     1       5.074  -1.056   0.164  1.00  0.00     0.121 C 
BRANCH   8   9
ATOM      9  N   UNL     1       5.969   0.043   0.522  1.00  0.00    -0.325 N 
ATOM     10  C   UNL     1       5.565   1.361   0.454  1.00  0.00     0.295 C 
ATOM     11  C   UNL     1       7.433  -0.098   0.438  1.00  0.00     0.150 C 
ATOM     12  O   UNL     1       4.436   1.812   0.380  1.00  0.00    -0.265 OA
ATOM     13  C   UNL     1       6.801   2.216   0.287  1.00  0.00     0.248 C 
ATOM     14  C   UNL     1       7.938   1.298   0.148  1.00  0.00     0.025 C 
ATOM     15  O   UNL     1       6.815   3.429   0.225  1.00  0.00    -0.283 OA
ATOM     16  C   UNL     1       9.156   1.750  -0.193  1.00  0.00    -0.092 C 
ATOM     17  O   UNL     1       9.455   3.074  -0.411  1.00  0.00    -0.872 OA
BRANCH  11  18
ATOM     18  C   UNL     1       8.033  -0.779   1.669  1.00  0.00    -0.020 A 
ATOM     19  C   UNL     1       8.747  -0.072   2.656  1.00  0.00     0.013 A 
ATOM     20  C   UNL     1       7.957  -2.180   1.794  1.00  0.00     0.013 A 
ATOM     21  C   UNL     1       9.432  -0.739   3.678  1.00  0.00     0.086 A 
ATOM     22  C   UNL     1       8.605  -2.855   2.835  1.00  0.00     0.086 A 
ATOM     23  C   UNL     1       9.364  -2.131   3.758  1.00  0.00     0.269 A 
BRANCH  23  24
ATOM     24  N   UNL     1      10.101  -2.839   4.810  1.00  0.00     0.062 N 
ATOM     25  O   UNL     1      10.941  -2.201   5.460  1.00  0.00    -0.258 OA
ATOM     26  O   UNL     1       9.826  -4.034   5.000  1.00  0.00    -0.258 OA
ENDBRANCH  23  24
ENDBRANCH  11  18
BRANCH  16  27
ATOM     27  C   UNL     1      10.335   0.877  -0.257  1.00  0.00    -0.033 A 
ATOM     28  C   UNL     1      11.386   1.104   0.643  1.00  0.00     0.007 A 
ATOM     29  C   UNL     1      10.435  -0.178  -1.171  1.00  0.00     0.007 A 
ATOM     30  C   UNL     1      12.496   0.260   0.666  1.00  0.00     0.001 A 
ATOM     31  C   UNL     1      11.550  -1.018  -1.152  1.00  0.00     0.001 A 
ATOM     32  C   UNL     1      12.572  -0.806  -0.227  1.00  0.00     0.000 A 
ENDBRANCH  16  27
ENDBRANCH   8   9
ENDBRANCH   7   8
ENDBRANCH   6   7
ENDBRANCH   4   6
ENDBRANCH   1   2
BRANCH   1  33
ATOM     33  C   UNL     1       2.417   2.013  -2.870  1.00  0.00     0.023 C 
BRANCH  33  34
ATOM     34  C   UNL     1       3.921   2.120  -3.149  1.00  0.00     0.023 C 
BRANCH  34  35
ATOM     35  C   UNL     1       4.499   1.093  -4.119  1.00  0.00     0.116 C 
BRANCH  35  36
ATOM     36  N   UNL     1       3.937   1.196  -5.456  1.00  0.00    -0.352 N 
ATOM     37  C   UNL     1       4.558   1.361  -6.672  1.00  0.00     0.251 C 
ATOM     38  H   UNL     1       2.954   1.140  -5.498  1.00  0.00     0.163 HD
ATOM     39  O   UNL     1       3.876   1.573  -7.672  1.00  0.00    -0.269 OA
BRANCH  37  40
ATOM     40  C   UNL     1       6.035   1.307  -6.790  1.00  0.00     0.039 A 
ATOM     41  C   UNL     1       6.678   2.240  -7.611  1.00  0.00     0.014 A 
ATOM     42  C   UNL     1       6.788   0.332  -6.130  1.00  0.00     0.014 A 
ATOM     43  C   UNL     1       8.073   2.239  -7.713  1.00  0.00     0.010 A 
ATOM     44  C   UNL     1       8.182   0.376  -6.178  1.00  0.00     0.010 A 
ATOM     45  C   UNL     1       8.842   1.330  -6.968  1.00  0.00    -0.014 A 
BRANCH  45  46
ATOM     46  C   UNL     1      10.330   1.381  -6.982  1.00  0.00     0.031 A 
ATOM     47  C   UNL     1      11.134   0.213  -7.489  1.00  0.00     0.074 A 
ATOM     48  C   UNL     1      10.964   2.448  -6.454  1.00  0.00     0.049 A 
ATOM     49  N   UNL     1      12.432   0.051  -7.508  1.00  0.00    -0.248 NA
ATOM     50  C   UNL     1      10.381  -0.935  -8.019  1.00  0.00     0.031 C 
ATOM     51  C   UNL     1      10.305   3.614  -5.861  1.00  0.00     0.029 A 
ATOM     52  N   UNL     1      12.303   2.713  -6.302  1.00  0.00    -0.354 N 
ATOM     53  C   UNL     1      12.652  -1.222  -8.018  1.00  0.00     0.074 A 
ATOM     54  C   UNL     1      11.350  -1.805  -8.265  1.00  0.00     0.031 C 
ATOM     55  C   UNL     1      11.239   4.465  -5.408  1.00  0.00     0.029 A 
ATOM     56  C   UNL     1      12.561   3.897  -5.649  1.00  0.00     0.049 A 
ATOM     57  H   UNL     1      13.011   2.113  -6.630  1.00  0.00     0.167 HD
ATOM     58  C   UNL     1      13.827  -1.842  -8.286  1.00  0.00     0.034 A 
ATOM     59  C   UNL     1      13.728   4.458  -5.274  1.00  0.00     0.034 A 
ATOM     60  C   UNL     1      15.121  -1.247  -8.080  1.00  0.00     0.049 A 
ATOM     61  C   UNL     1      15.020   3.765  -5.616  1.00  0.00     0.074 A 
ATOM     62  C   UNL     1      16.366  -1.765  -8.396  1.00  0.00     0.029 A 
ATOM     63  N   UNL     1      15.341  -0.006  -7.502  1.00  0.00    -0.354 N 
ATOM     64  N   UNL     1      15.206   2.627  -6.239  1.00  0.00    -0.248 NA
ATOM     65  C   UNL     1      16.264   4.452  -5.239  1.00  0.00     0.031 C 
ATOM     66  C   UNL     1      17.339  -0.848  -7.986  1.00  0.00     0.029 A 
ATOM     67  C   UNL     1      16.700   0.255  -7.443  1.00  0.00     0.049 A 
ATOM     68  H   UNL     1      14.636   0.600  -7.180  1.00  0.00     0.167 HD
ATOM     69  C   UNL     1      16.584   2.478  -6.360  1.00  0.00     0.074 A 
ATOM     70  C   UNL     1      17.184   3.655  -5.766  1.00  0.00     0.031 C 
ATOM     71  C   UNL     1      17.288   1.453  -6.899  1.00  0.00     0.034 A 
BRANCH  58  72
ATOM     72  C   UNL     1      13.770  -3.225  -8.882  1.00  0.00     0.023 A 
ATOM     73  C   UNL     1      13.343  -3.391 -10.216  1.00  0.00     0.012 A 
ATOM     74  C   UNL     1      14.197  -4.351  -8.150  1.00  0.00     0.148 A 
ATOM     75  C   UNL     1      13.306  -4.656 -10.799  1.00  0.00     0.002 A 
ATOM     76  C   UNL     1      14.200  -5.604  -8.753  1.00  0.00     0.091 A 
ATOM     77  F   UNL     1      14.581  -4.178  -6.877  1.00  0.00    -0.205 F 
ATOM     78  C   UNL     1      13.744  -5.760 -10.072  1.00  0.00     0.022 A 
BRANCH  76  79
ATOM     79  S   UNL     1      14.816  -7.075  -7.927  1.00  0.00     0.127 S 
ATOM     80  O   UNL     1      13.579  -7.817  -7.688  1.00  0.00    -0.237 OA
ATOM     81  O   UNL     1      15.690  -7.657  -8.946  1.00  0.00    -0.237 OA
ATOM     82  O   UNL     1      15.503  -6.606  -6.732  1.00  0.00    -0.744 OA
ENDBRANCH  76  79
ENDBRANCH  58  72
BRANCH  59  83
ATOM     83  C   UNL     1      13.731   5.782  -4.588  1.00  0.00     0.023 A 
ATOM     84  C   UNL     1      14.214   6.914  -5.274  1.00  0.00     0.012 A 
ATOM     85  C   UNL     1      13.239   5.934  -3.276  1.00  0.00     0.148 A 
ATOM     86  C   UNL     1      14.241   8.164  -4.656  1.00  0.00     0.002 A 
ATOM     87  C   UNL     1      13.217   7.192  -2.686  1.00  0.00     0.091 A 
ATOM     88  F   UNL     1      12.795   4.844  -2.635  1.00  0.00    -0.205 F 
ATOM     89  C   UNL     1      13.734   8.305  -3.368  1.00  0.00     0.022 A 
BRANCH  87  90
ATOM     90  S   UNL     1      12.467   7.496  -1.082  1.00  0.00     0.127 S 
ATOM     91  O   UNL     1      13.638   7.757  -0.248  1.00  0.00    -0.237 OA
ATOM     92  O   UNL     1      11.633   8.668  -1.355  1.00  0.00    -0.237 OA
ATOM     93  O   UNL     1      11.717   6.291  -0.761  1.00  0.00    -0.744 OA
ENDBRANCH  87  90
ENDBRANCH  59  83
BRANCH  71  94
ATOM     94  C   UNL     1      18.791   1.564  -6.914  1.00  0.00     0.023 A 
ATOM     95  C   UNL     1      19.517   1.435  -5.713  1.00  0.00     0.012 A 
ATOM     96  C   UNL     1      19.488   1.722  -8.128  1.00  0.00     0.148 A 
ATOM     97  C   UNL     1      20.910   1.496  -5.716  1.00  0.00     0.002 A 
ATOM     98  C   UNL     1      20.878   1.731  -8.130  1.00  0.00     0.091 A 
ATOM     99  F   UNL     1      18.780   1.860  -9.259  1.00  0.00    -0.205 F 
ATOM    100  C   UNL     1      21.590   1.631  -6.925  1.00  0.00     0.022 A 
BRANCH  98 101
ATOM    101  S   UNL     1      21.839   1.802  -9.646  1.00  0.00     0.127 S 
ATOM    102  O   UNL     1      22.383   3.158  -9.590  1.00  0.00    -0.237 OA
ATOM    103  O   UNL     1      22.825   0.741  -9.439  1.00  0.00    -0.237 OA
ATOM    104  O   UNL     1      20.899   1.550 -10.730  1.00  0.00    -0.744 OA
ENDBRANCH  98 101
ENDBRANCH  71  94
ENDBRANCH  45  46
ENDBRANCH  37  40
ENDBRANCH  35  36
ENDBRANCH  34  35
ENDBRANCH  33  34
ENDBRANCH   1  33
TORSDOF 20
