REMARK SMILES Cc1cc2c(=O)c3ccccc3oc2c(C(=O)NCCCCNC(=O)c2ccc(-c3c4nc(c(-c5cccc(S(=O)(=O)[O-])c5F)c5ccc([nH]5)c(-c5cccc(S(=O)(=O)[O-])c5F)c5nc(c(-c6cccc(S(=O)(=O)[O-])c6F)c6ccc3[nH]6)C=C5)C=C4)cc2)c1C
REMARK SMILES IDX 22 1 21 2 20 3 19 4 18 5 16 6 17 7 15 9 1 10 2 11 3 12 89 13
REMARK SMILES IDX 4 14 90 15 5 16 14 17 6 18 7 19 13 20 8 21 12 22 9 23 11 24
REMARK SMILES IDX 10 25 23 26 24 27 25 29 26 30 27 31 88 32 28 33 87 34 29 35
REMARK SMILES IDX 30 36 31 37 81 38 32 39 86 40 80 41 82 42 33 43 85 44 79 45
REMARK SMILES IDX 78 46 34 48 66 49 46 50 65 51 47 52 50 53 64 54 83 55 48 56
REMARK SMILES IDX 49 57 63 59 84 60 51 61 35 62 36 63 44 64 37 65 39 66 45 67
REMARK SMILES IDX 38 68 40 69 41 70 42 71 43 72 67 73 68 74 76 75 69 76 71 77
REMARK SMILES IDX 77 78 70 79 72 80 73 81 74 82 75 83 52 84 53 85 61 86 54 87
REMARK SMILES IDX 56 88 62 89 55 90 57 91 58 92 59 93 60 94
REMARK H PARENT 18 8 23 28 82 47 50 58
REMARK Flexibility Score: inf
ROOT
ATOM      1  C   UNL     1      -1.330  -5.231   4.693  1.00  0.00     0.116 C 
ENDROOT
BRANCH   1   2
ATOM      2  C   UNL     1      -0.169  -4.307   5.031  1.00  0.00     0.023 C 
BRANCH   2   3
ATOM      3  C   UNL     1      -0.028  -3.101   4.109  1.00  0.00     0.023 C 
BRANCH   3   4
ATOM      4  C   UNL     1      -1.196  -2.108   4.154  1.00  0.00     0.116 C 
BRANCH   4   5
ATOM      5  N   UNL     1      -0.728  -0.777   4.550  1.00  0.00    -0.352 N 
ATOM      6  C   UNL     1      -1.117   0.414   3.970  1.00  0.00     0.255 C 
ATOM      7  O   UNL     1      -2.009   1.050   4.530  1.00  0.00    -0.269 OA
ATOM      8  H   UNL     1      -0.081  -0.728   5.291  1.00  0.00     0.163 HD
BRANCH   6   9
ATOM      9  C   UNL     1      -0.320   1.055   2.851  1.00  0.00     0.086 A 
ATOM     10  C   UNL     1       1.154   0.542  -0.699  1.00  0.00     0.044 C 
ATOM     11  C   UNL     1       0.694   1.155   0.600  1.00  0.00    -0.046 A 
ATOM     12  C   UNL     1       0.937   2.516   0.778  1.00  0.00     0.019 A 
ATOM     13  C   UNL     1       0.069   0.409   1.637  1.00  0.00    -0.032 A 
ATOM     14  C   UNL     1       0.577   3.146   1.963  1.00  0.00     0.066 A 
ATOM     15  C   UNL     1      -0.174  -1.049   1.397  1.00  0.00     0.045 C 
ATOM     16  C   UNL     1       0.834   4.587   2.098  1.00  0.00     0.200 A 
ATOM     17  C   UNL     1      -0.030   2.439   3.004  1.00  0.00     0.151 A 
ATOM     18  O   UNL     1       1.357   5.237   1.201  1.00  0.00    -0.288 OA
ATOM     19  C   UNL     1       0.426   5.215   3.353  1.00  0.00     0.065 A 
ATOM     20  O   UNL     1      -0.328   3.056   4.205  1.00  0.00    -0.455 OA
ATOM     21  C   UNL     1       0.592   6.591   3.548  1.00  0.00     0.016 A 
ATOM     22  C   UNL     1      -0.129   4.409   4.339  1.00  0.00     0.138 A 
ATOM     23  C   UNL     1       0.198   7.165   4.754  1.00  0.00     0.001 A 
ATOM     24  C   UNL     1      -0.517   4.988   5.548  1.00  0.00     0.048 A 
ATOM     25  C   UNL     1      -0.354   6.363   5.754  1.00  0.00     0.004 A 
ENDBRANCH   6   9
ENDBRANCH   4   5
ENDBRANCH   3   4
ENDBRANCH   2   3
ENDBRANCH   1   2
BRANCH   1  26
ATOM     26  N   UNL     1      -1.253  -5.847   3.375  1.00  0.00    -0.352 N 
ATOM     27  C   UNL     1      -1.850  -7.030   2.968  1.00  0.00     0.251 C 
ATOM     28  H   UNL     1      -0.718  -5.371   2.700  1.00  0.00     0.163 HD
ATOM     29  O   UNL     1      -1.667  -7.475   1.853  1.00  0.00    -0.269 OA
BRANCH  27  30
ATOM     30  C   UNL     1      -2.664  -7.762   3.967  1.00  0.00     0.039 A 
ATOM     31  C   UNL     1      -3.671  -7.093   4.662  1.00  0.00     0.014 A 
ATOM     32  C   UNL     1      -2.300  -9.064   4.319  1.00  0.00     0.014 A 
ATOM     33  C   UNL     1      -4.160  -7.642   5.840  1.00  0.00     0.010 A 
ATOM     34  C   UNL     1      -2.868  -9.652   5.454  1.00  0.00     0.010 A 
ATOM     35  C   UNL     1      -3.745  -8.917   6.266  1.00  0.00    -0.014 A 
BRANCH  35  36
ATOM     36  C   UNL     1      -4.218  -9.425   7.582  1.00  0.00     0.031 A 
ATOM     37  C   UNL     1      -3.252  -9.692   8.709  1.00  0.00     0.074 A 
ATOM     38  C   UNL     1      -5.542  -9.567   7.791  1.00  0.00     0.049 A 
ATOM     39  N   UNL     1      -3.510 -10.060   9.939  1.00  0.00    -0.248 NA
ATOM     40  C   UNL     1      -1.814  -9.533   8.430  1.00  0.00     0.031 C 
ATOM     41  C   UNL     1      -6.578  -9.357   6.777  1.00  0.00     0.029 A 
ATOM     42  N   UNL     1      -6.246  -9.885   8.925  1.00  0.00    -0.354 N 
ATOM     43  C   UNL     1      -2.278 -10.224  10.560  1.00  0.00     0.074 A 
ATOM     44  C   UNL     1      -1.265  -9.914   9.576  1.00  0.00     0.031 C 
ATOM     45  C   UNL     1      -7.784  -9.483   7.349  1.00  0.00     0.029 A 
ATOM     46  C   UNL     1      -7.609  -9.835   8.755  1.00  0.00     0.049 A 
ATOM     47  H   UNL     1      -5.816 -10.125   9.777  1.00  0.00     0.167 HD
ATOM     48  C   UNL     1      -2.013 -10.578  11.839  1.00  0.00     0.034 A 
ATOM     49  C   UNL     1      -8.613 -10.043   9.629  1.00  0.00     0.034 A 
ATOM     50  C   UNL     1      -3.015 -10.810  12.843  1.00  0.00     0.049 A 
ATOM     51  C   UNL     1      -8.291 -10.395  11.051  1.00  0.00     0.074 A 
ATOM     52  C   UNL     1      -2.832 -11.114  14.181  1.00  0.00     0.029 A 
ATOM     53  N   UNL     1      -4.381 -10.751  12.627  1.00  0.00    -0.354 N 
ATOM     54  N   UNL     1      -7.119 -10.470  11.631  1.00  0.00    -0.248 NA
ATOM     55  C   UNL     1      -9.425 -10.686  11.940  1.00  0.00     0.031 C 
ATOM     56  C   UNL     1      -4.090 -11.237  14.776  1.00  0.00     0.029 A 
ATOM     57  C   UNL     1      -5.055 -11.013  13.807  1.00  0.00     0.049 A 
ATOM     58  H   UNL     1      -4.809 -10.551  11.763  1.00  0.00     0.167 HD
ATOM     59  C   UNL     1      -7.371 -10.816  12.952  1.00  0.00     0.074 A 
ATOM     60  C   UNL     1      -8.810 -10.909  13.095  1.00  0.00     0.031 C 
ATOM     61  C   UNL     1      -6.486 -11.060  13.947  1.00  0.00     0.034 A 
BRANCH  48  62
ATOM     62  C   UNL     1      -0.574 -10.682  12.265  1.00  0.00     0.023 A 
ATOM     63  C   UNL     1       0.123  -9.510  12.618  1.00  0.00     0.012 A 
ATOM     64  C   UNL     1       0.046 -11.936  12.427  1.00  0.00     0.148 A 
ATOM     65  C   UNL     1       1.421  -9.583  13.121  1.00  0.00     0.002 A 
ATOM     66  C   UNL     1       1.332 -12.003  12.953  1.00  0.00     0.091 A 
ATOM     67  F   UNL     1      -0.634 -13.035  12.072  1.00  0.00    -0.205 F 
ATOM     68  C   UNL     1       2.021 -10.827  13.297  1.00  0.00     0.022 A 
BRANCH  66  69
ATOM     69  S   UNL     1       2.175 -13.557  13.271  1.00  0.00     0.127 S 
ATOM     70  O   UNL     1       3.260 -13.508  12.290  1.00  0.00    -0.237 OA
ATOM     71  O   UNL     1       2.602 -13.396  14.661  1.00  0.00    -0.237 OA
ATOM     72  O   UNL     1       1.188 -14.604  13.052  1.00  0.00    -0.744 OA
ENDBRANCH  66  69
ENDBRANCH  48  62
BRANCH  49  73
ATOM     73  C   UNL     1     -10.016  -9.857   9.173  1.00  0.00     0.023 A 
ATOM     74  C   UNL     1     -10.719  -8.705   9.571  1.00  0.00     0.012 A 
ATOM     75  C   UNL     1     -10.616 -10.758   8.273  1.00  0.00     0.148 A 
ATOM     76  C   UNL     1     -11.999  -8.451   9.076  1.00  0.00     0.002 A 
ATOM     77  C   UNL     1     -11.869 -10.474   7.747  1.00  0.00     0.091 A 
ATOM     78  F   UNL     1      -9.927 -11.852   7.920  1.00  0.00    -0.205 F 
ATOM     79  C   UNL     1     -12.567  -9.326   8.154  1.00  0.00     0.022 A 
BRANCH  77  80
ATOM     80  S   UNL     1     -12.621 -11.473   6.457  1.00  0.00     0.127 S 
ATOM     81  O   UNL     1     -13.751 -12.072   7.163  1.00  0.00    -0.237 OA
ATOM     82  O   UNL     1     -12.981 -10.460   5.464  1.00  0.00    -0.237 OA
ATOM     83  O   UNL     1     -11.586 -12.401   6.022  1.00  0.00    -0.744 OA
ENDBRANCH  77  80
ENDBRANCH  49  73
BRANCH  61  84
ATOM     84  C   UNL     1      -7.026 -11.468  15.288  1.00  0.00     0.023 A 
ATOM     85  C   UNL     1      -7.385 -12.814  15.494  1.00  0.00     0.012 A 
ATOM     86  C   UNL     1      -7.046 -10.565  16.367  1.00  0.00     0.148 A 
ATOM     87  C   UNL     1      -7.762 -13.256  16.761  1.00  0.00     0.002 A 
ATOM     88  C   UNL     1      -7.395 -11.020  17.633  1.00  0.00     0.091 A 
ATOM     89  F   UNL     1      -6.702  -9.290  16.138  1.00  0.00    -0.205 F 
ATOM     90  C   UNL     1      -7.756 -12.364  17.831  1.00  0.00     0.022 A 
BRANCH  88  91
ATOM     91  S   UNL     1      -7.352  -9.969  19.089  1.00  0.00     0.127 S 
ATOM     92  O   UNL     1      -8.763  -9.933  19.472  1.00  0.00    -0.237 OA
ATOM     93  O   UNL     1      -6.492 -10.731  19.993  1.00  0.00    -0.237 OA
ATOM     94  O   UNL     1      -6.800  -8.693  18.652  1.00  0.00    -0.744 OA
ENDBRANCH  88  91
ENDBRANCH  61  84
ENDBRANCH  35  36
ENDBRANCH  27  30
ENDBRANCH   1  26
TORSDOF 14
