REMARK SMILES CCOC(=O)c1sc(NC(=O)CCC(=O)NCCCCNC(=O)c2ccc(-c3c4nc(c(-c5cccc(S(=O)(=O)[O-])c5F)c5ccc([nH]5)c(-c5cccc(S(=O)(=O)[O-])c5F)c5nc(c(-c6cccc(S(=O)(=O)[O-])c6F)c6ccc3[nH]6)C=C5)C=C4)cc2)c(C#N)c1C
REMARK SMILES IDX 17 1 16 2 14 3 15 4 13 6 12 7 10 8 9 9 11 11 8 12 6 13 7 14
REMARK SMILES IDX 90 15 87 16 91 17 4 18 5 19 3 20 2 21 1 22 88 23 89 24 18 25
REMARK SMILES IDX 19 26 20 27 21 28 22 29 23 31 24 32 25 33 86 34 26 35 85 36
REMARK SMILES IDX 27 37 28 38 29 39 79 40 30 41 84 42 78 43 80 44 31 45 83 46
REMARK SMILES IDX 77 47 76 48 32 50 64 51 44 52 63 53 45 54 48 55 62 56 81 57
REMARK SMILES IDX 46 58 47 59 61 61 82 62 49 63 33 64 34 65 42 66 35 67 37 68
REMARK SMILES IDX 43 69 36 70 38 71 39 72 40 73 41 74 65 75 66 76 74 77 67 78
REMARK SMILES IDX 69 79 75 80 68 81 70 82 71 83 72 84 73 85 50 86 51 87 59 88
REMARK SMILES IDX 52 89 54 90 60 91 53 92 55 93 56 94 57 95 58 96
REMARK H PARENT 16 5 9 10 21 30 80 49 48 60
REMARK Flexibility Score: inf
ROOT
ATOM      1  C   UNL     1       6.572   3.060  -6.993  1.00  0.00     0.116 C 
ENDROOT
BRANCH   1   2
ATOM      2  N   UNL     1       5.842   2.992  -5.741  1.00  0.00    -0.356 N 
ATOM      3  C   UNL     1       5.987   2.148  -4.685  1.00  0.00     0.220 C 
ATOM      4  O   UNL     1       5.420   2.436  -3.632  1.00  0.00    -0.275 OA
ATOM      5  H   UNL     1       5.129   3.663  -5.640  1.00  0.00     0.163 HD
BRANCH   3   6
ATOM      6  C   UNL     1       6.783   0.875  -4.815  1.00  0.00     0.110 C 
BRANCH   6   7
ATOM      7  C   UNL     1       6.059  -0.335  -5.401  1.00  0.00     0.110 C 
BRANCH   7   8
ATOM      8  C   UNL     1       5.152  -0.148  -6.609  1.00  0.00     0.225 C 
ATOM      9  N   UNL     1       3.921   0.451  -6.601  1.00  0.00    -0.317 N 
ATOM     10  H   UNL     1       3.518   0.565  -7.493  1.00  0.00     0.170 HD
ATOM     11  O   UNL     1       5.569  -0.538  -7.710  1.00  0.00    -0.275 OA
BRANCH   9  12
ATOM     12  C   UNL     1       3.146   0.924  -5.559  1.00  0.00     0.114 A 
ATOM     13  C   UNL     1       2.368   1.434  -3.298  1.00  0.00     0.118 A 
ATOM     14  S   UNL     1       3.239   0.179  -4.040  1.00  0.00    -0.109 S 
ATOM     15  C   UNL     1       1.837   2.324  -4.217  1.00  0.00    -0.006 A 
ATOM     16  C   UNL     1       2.152   1.892  -5.554  1.00  0.00     0.091 A 
ATOM     17  C   UNL     1       1.078   3.575  -3.883  1.00  0.00     0.048 C 
BRANCH  13  18
ATOM     18  C   UNL     1       2.221   1.378  -1.870  1.00  0.00     0.348 C 
ATOM     19  O   UNL     1       3.102   1.158  -1.051  1.00  0.00    -0.245 OA
BRANCH  18  20
ATOM     20  O   UNL     1       0.888   1.433  -1.597  1.00  0.00    -0.462 OA
BRANCH  20  21
ATOM     21  C   UNL     1       0.524   1.224  -0.233  1.00  0.00     0.230 C 
ATOM     22  C   UNL     1       0.784  -0.211   0.197  1.00  0.00     0.049 C 
ENDBRANCH  20  21
ENDBRANCH  18  20
ENDBRANCH  13  18
BRANCH  16  23
ATOM     23  C   UNL     1       1.585   2.522  -6.722  1.00  0.00     0.103 C 
ATOM     24  N   UNL     1       1.125   3.028  -7.645  1.00  0.00    -0.192 NA
ENDBRANCH  16  23
ENDBRANCH   9  12
ENDBRANCH   7   8
ENDBRANCH   6   7
ENDBRANCH   3   6
ENDBRANCH   1   2
BRANCH   1  25
ATOM     25  C   UNL     1       5.739   2.795  -8.254  1.00  0.00     0.023 C 
BRANCH  25  26
ATOM     26  C   UNL     1       4.340   3.405  -8.282  1.00  0.00     0.023 C 
BRANCH  26  27
ATOM     27  C   UNL     1       4.327   4.894  -8.509  1.00  0.00     0.116 C 
BRANCH  27  28
ATOM     28  N   UNL     1       4.786   5.256  -9.854  1.00  0.00    -0.352 N 
ATOM     29  C   UNL     1       4.833   6.521 -10.421  1.00  0.00     0.251 C 
ATOM     30  H   UNL     1       5.097   4.514 -10.422  1.00  0.00     0.163 HD
ATOM     31  O   UNL     1       4.860   6.677 -11.635  1.00  0.00    -0.269 OA
BRANCH  29  32
ATOM     32  C   UNL     1       4.914   7.673  -9.510  1.00  0.00     0.039 A 
ATOM     33  C   UNL     1       4.300   8.909  -9.723  1.00  0.00     0.014 A 
ATOM     34  C   UNL     1       5.621   7.451  -8.348  1.00  0.00     0.014 A 
ATOM     35  C   UNL     1       4.432   9.881  -8.727  1.00  0.00     0.010 A 
ATOM     36  C   UNL     1       5.221   8.173  -7.281  1.00  0.00     0.010 A 
ATOM     37  C   UNL     1       4.956   9.496  -7.489  1.00  0.00    -0.014 A 
BRANCH  37  38
ATOM     38  C   UNL     1       4.977  10.305  -6.283  1.00  0.00     0.031 A 
ATOM     39  C   UNL     1       3.597  10.720  -5.937  1.00  0.00     0.074 A 
ATOM     40  C   UNL     1       6.080  10.402  -5.492  1.00  0.00     0.049 A 
ATOM     41  N   UNL     1       3.001  11.797  -6.339  1.00  0.00    -0.248 NA
ATOM     42  C   UNL     1       2.657   9.706  -5.414  1.00  0.00     0.031 C 
ATOM     43  C   UNL     1       7.362   9.675  -5.602  1.00  0.00     0.029 A 
ATOM     44  N   UNL     1       6.285  11.125  -4.356  1.00  0.00    -0.354 N 
ATOM     45  C   UNL     1       1.750  11.738  -5.732  1.00  0.00     0.074 A 
ATOM     46  C   UNL     1       1.489  10.344  -5.540  1.00  0.00     0.031 C 
ATOM     47  C   UNL     1       8.083   9.818  -4.461  1.00  0.00     0.029 A 
ATOM     48  C   UNL     1       7.412  10.775  -3.604  1.00  0.00     0.049 A 
ATOM     49  H   UNL     1       5.677  11.849  -4.082  1.00  0.00     0.167 HD
ATOM     50  C   UNL     1       1.314  12.809  -5.006  1.00  0.00     0.034 A 
ATOM     51  C   UNL     1       7.746  11.248  -2.369  1.00  0.00     0.034 A 
ATOM     52  C   UNL     1       2.181  13.937  -5.266  1.00  0.00     0.049 A 
ATOM     53  C   UNL     1       6.986  12.502  -2.190  1.00  0.00     0.074 A 
ATOM     54  C   UNL     1       2.457  14.771  -6.327  1.00  0.00     0.029 A 
ATOM     55  N   UNL     1       3.275  13.945  -4.437  1.00  0.00    -0.354 N 
ATOM     56  N   UNL     1       7.198  13.563  -2.919  1.00  0.00    -0.248 NA
ATOM     57  C   UNL     1       5.696  12.440  -1.518  1.00  0.00     0.031 C 
ATOM     58  C   UNL     1       3.822  15.158  -6.175  1.00  0.00     0.029 A 
ATOM     59  C   UNL     1       4.311  14.647  -4.974  1.00  0.00     0.049 A 
ATOM     60  H   UNL     1       3.306  13.497  -3.560  1.00  0.00     0.167 HD
ATOM     61  C   UNL     1       5.926  14.042  -3.175  1.00  0.00     0.074 A 
ATOM     62  C   UNL     1       5.066  13.425  -2.165  1.00  0.00     0.031 C 
ATOM     63  C   UNL     1       5.630  14.589  -4.388  1.00  0.00     0.034 A 
BRANCH  50  64
ATOM     64  C   UNL     1       0.551  12.752  -3.684  1.00  0.00     0.023 A 
ATOM     65  C   UNL     1       0.211  13.999  -3.105  1.00  0.00     0.012 A 
ATOM     66  C   UNL     1       0.397  11.617  -2.854  1.00  0.00     0.148 A 
ATOM     67  C   UNL     1      -0.196  14.113  -1.770  1.00  0.00     0.002 A 
ATOM     68  C   UNL     1      -0.057  11.726  -1.542  1.00  0.00     0.091 A 
ATOM     69  F   UNL     1       0.780  10.413  -3.271  1.00  0.00    -0.205 F 
ATOM     70  C   UNL     1      -0.329  12.975  -0.986  1.00  0.00     0.022 A 
BRANCH  68  71
ATOM     71  S   UNL     1      -0.264  10.282  -0.485  1.00  0.00     0.127 S 
ATOM     72  O   UNL     1       0.734  10.532   0.551  1.00  0.00    -0.237 OA
ATOM     73  O   UNL     1      -1.655  10.430  -0.058  1.00  0.00    -0.237 OA
ATOM     74  O   UNL     1      -0.018   9.122  -1.333  1.00  0.00    -0.744 OA
ENDBRANCH  68  71
ENDBRANCH  50  64
BRANCH  51  75
ATOM     75  C   UNL     1       8.413  10.605  -1.202  1.00  0.00     0.023 A 
ATOM     76  C   UNL     1       8.998  11.388  -0.178  1.00  0.00     0.012 A 
ATOM     77  C   UNL     1       8.171   9.244  -0.927  1.00  0.00     0.148 A 
ATOM     78  C   UNL     1       9.298  10.840   1.081  1.00  0.00     0.002 A 
ATOM     79  C   UNL     1       8.464   8.705   0.326  1.00  0.00     0.091 A 
ATOM     80  F   UNL     1       7.564   8.507  -1.867  1.00  0.00    -0.205 F 
ATOM     81  C   UNL     1       9.017   9.502   1.337  1.00  0.00     0.022 A 
BRANCH  79  82
ATOM     82  S   UNL     1       8.087   6.998   0.750  1.00  0.00     0.127 S 
ATOM     83  O   UNL     1       9.397   6.503   1.175  1.00  0.00    -0.237 OA
ATOM     84  O   UNL     1       7.115   7.163   1.828  1.00  0.00    -0.237 OA
ATOM     85  O   UNL     1       7.577   6.394  -0.473  1.00  0.00    -0.744 OA
ENDBRANCH  79  82
ENDBRANCH  51  75
BRANCH  63  86
ATOM     86  C   UNL     1       6.761  15.126  -5.210  1.00  0.00     0.023 A 
ATOM     87  C   UNL     1       7.684  14.340  -5.928  1.00  0.00     0.012 A 
ATOM     88  C   UNL     1       6.773  16.519  -5.362  1.00  0.00     0.148 A 
ATOM     89  C   UNL     1       8.605  14.954  -6.787  1.00  0.00     0.002 A 
ATOM     90  C   UNL     1       7.648  17.116  -6.250  1.00  0.00     0.091 A 
ATOM     91  F   UNL     1       5.885  17.233  -4.654  1.00  0.00    -0.205 F 
ATOM     92  C   UNL     1       8.575  16.340  -6.961  1.00  0.00     0.022 A 
BRANCH  90  93
ATOM     93  S   UNL     1       7.548  18.870  -6.592  1.00  0.00     0.127 S 
ATOM     94  O   UNL     1       8.770  19.369  -5.966  1.00  0.00    -0.237 OA
ATOM     95  O   UNL     1       7.548  18.899  -8.055  1.00  0.00    -0.237 OA
ATOM     96  O   UNL     1       6.304  19.331  -5.987  1.00  0.00    -0.744 OA
ENDBRANCH  90  93
ENDBRANCH  63  86
ENDBRANCH  37  38
ENDBRANCH  29  32
ENDBRANCH  27  28
ENDBRANCH  26  27
ENDBRANCH  25  26
ENDBRANCH   1  25
TORSDOF 21
