REMARK SMILES NC(=O)C1CC[NH+](Cc2ccc(C(=O)NCCCCNC(=O)c3ccc(-c4c5nc(c(-c6cccc(S(=O)(=O)[O-])c6F)c6ccc([nH]6)c(-c6cccc(S(=O)(=O)[O-])c6F)c6nc(c(-c7cccc(S(=O)(=O)[O-])c7F)c7ccc4[nH]7)C=C6)C=C5)cc3)cc2)CC1
REMARK SMILES IDX 17 1 16 2 15 3 13 4 14 5 12 7 9 8 10 9 87 10 11 11 86 12
REMARK SMILES IDX 8 13 7 14 4 15 5 16 89 17 6 18 88 19 2 21 1 22 3 25 18 26
REMARK SMILES IDX 19 27 20 28 21 29 22 31 23 32 24 33 85 34 25 35 84 36 26 37
REMARK SMILES IDX 27 38 28 39 78 40 29 41 83 42 77 43 79 44 30 45 82 46 76 47
REMARK SMILES IDX 75 48 31 50 63 51 43 52 62 53 44 54 47 55 61 56 80 57 45 58
REMARK SMILES IDX 46 59 60 61 81 62 48 63 32 64 33 65 41 66 34 67 36 68 42 69
REMARK SMILES IDX 35 70 37 71 38 72 39 73 40 74 64 75 65 76 73 77 66 78 68 79
REMARK SMILES IDX 74 80 67 81 69 82 70 83 71 84 72 85 49 86 50 87 58 88 51 89
REMARK SMILES IDX 53 90 59 91 52 92 54 93 55 94 56 95 57 96
REMARK H PARENT 15 6 7 20 1 23 1 24 20 30 79 49 47 60
REMARK Flexibility Score: inf
ROOT
ATOM      1  C   UNL     1      -3.611   1.662   5.292  1.00  0.00     0.023 C 
ENDROOT
BRANCH   1   2
ATOM      2  C   UNL     1      -4.072   1.711   3.834  1.00  0.00     0.116 C 
BRANCH   2   3
ATOM      3  N   UNL     1      -5.114   2.705   3.647  1.00  0.00    -0.352 N 
ATOM      4  C   UNL     1      -5.063   3.958   3.086  1.00  0.00     0.251 C 
ATOM      5  O   UNL     1      -6.105   4.592   2.938  1.00  0.00    -0.269 OA
ATOM      6  H   UNL     1      -6.002   2.438   3.977  1.00  0.00     0.163 HD
BRANCH   4   7
ATOM      7  C   UNL     1      -3.790   4.542   2.594  1.00  0.00     0.039 A 
ATOM      8  C   UNL     1      -1.415   5.552   1.474  1.00  0.00     0.006 A 
ATOM      9  C   UNL     1      -2.644   5.736   0.824  1.00  0.00     0.010 A 
ATOM     10  C   UNL     1      -1.405   4.943   2.736  1.00  0.00     0.010 A 
ATOM     11  C   UNL     1      -3.822   5.233   1.378  1.00  0.00     0.014 A 
ATOM     12  C   UNL     1      -2.587   4.456   3.297  1.00  0.00     0.014 A 
BRANCH   8  13
ATOM     13  C   UNL     1      -0.119   5.954   0.801  1.00  0.00     0.299 C 
BRANCH  13  14
ATOM     14  N   UNL     1       0.563   4.903   0.019  1.00  0.00    -0.331 N 
ATOM     15  C   UNL     1       1.196   2.305  -1.188  1.00  0.00     0.089 C 
ATOM     16  C   UNL     1       1.947   2.867   0.024  1.00  0.00     0.075 C 
ATOM     17  C   UNL     1       0.539   3.442  -1.978  1.00  0.00     0.075 C 
ATOM     18  C   UNL     1       1.068   3.807   0.851  1.00  0.00     0.263 C 
ATOM     19  C   UNL     1      -0.262   4.394  -1.085  1.00  0.00     0.263 C 
ATOM     20  H   UNL     1       1.375   5.361  -0.394  1.00  0.00     0.348 HD
BRANCH  15  21
ATOM     21  C   UNL     1       0.188   1.237  -0.775  1.00  0.00     0.220 C 
ATOM     22  N   UNL     1       0.728   0.101  -0.248  1.00  0.00    -0.369 N 
ATOM     23  H   UNL     1       0.142  -0.635   0.042  1.00  0.00     0.159 HD
ATOM     24  H   UNL     1       1.705   0.017  -0.158  1.00  0.00     0.159 HD
ATOM     25  O   UNL     1      -1.026   1.335  -0.910  1.00  0.00    -0.275 OA
ENDBRANCH  15  21
ENDBRANCH  13  14
ENDBRANCH   8  13
ENDBRANCH   4   7
ENDBRANCH   2   3
ENDBRANCH   1   2
BRANCH   1  26
ATOM     26  C   UNL     1      -4.593   0.983   6.249  1.00  0.00     0.023 C 
BRANCH  26  27
ATOM     27  C   UNL     1      -4.821  -0.502   5.995  1.00  0.00     0.116 C 
BRANCH  27  28
ATOM     28  N   UNL     1      -3.600  -1.291   6.081  1.00  0.00    -0.352 N 
ATOM     29  C   UNL     1      -3.440  -2.575   6.550  1.00  0.00     0.251 C 
ATOM     30  H   UNL     1      -2.781  -0.848   5.762  1.00  0.00     0.163 HD
ATOM     31  O   UNL     1      -2.320  -3.057   6.652  1.00  0.00    -0.269 OA
BRANCH  29  32
ATOM     32  C   UNL     1      -4.631  -3.349   6.963  1.00  0.00     0.039 A 
ATOM     33  C   UNL     1      -4.617  -3.998   8.200  1.00  0.00     0.014 A 
ATOM     34  C   UNL     1      -5.765  -3.407   6.149  1.00  0.00     0.014 A 
ATOM     35  C   UNL     1      -5.765  -4.654   8.649  1.00  0.00     0.010 A 
ATOM     36  C   UNL     1      -6.928  -4.002   6.626  1.00  0.00     0.010 A 
ATOM     37  C   UNL     1      -6.940  -4.634   7.879  1.00  0.00    -0.014 A 
BRANCH  37  38
ATOM     38  C   UNL     1      -8.195  -5.259   8.367  1.00  0.00     0.031 A 
ATOM     39  C   UNL     1      -8.797  -6.421   7.624  1.00  0.00     0.074 A 
ATOM     40  C   UNL     1      -8.842  -4.721   9.419  1.00  0.00     0.049 A 
ATOM     41  N   UNL     1      -9.921  -7.049   7.849  1.00  0.00    -0.248 NA
ATOM     42  C   UNL     1      -8.051  -6.925   6.458  1.00  0.00     0.031 C 
ATOM     43  C   UNL     1      -8.407  -3.539  10.166  1.00  0.00     0.029 A 
ATOM     44  N   UNL     1     -10.023  -5.077  10.021  1.00  0.00    -0.354 N 
ATOM     45  C   UNL     1     -10.034  -7.998   6.839  1.00  0.00     0.074 A 
ATOM     46  C   UNL     1      -8.883  -7.837   5.978  1.00  0.00     0.031 C 
ATOM     47  C   UNL     1      -9.310  -3.264  11.121  1.00  0.00     0.029 A 
ATOM     48  C   UNL     1     -10.398  -4.234  11.042  1.00  0.00     0.049 A 
ATOM     49  H   UNL     1     -10.552  -5.861   9.749  1.00  0.00     0.167 HD
ATOM     50  C   UNL     1     -10.989  -8.941   6.664  1.00  0.00     0.034 A 
ATOM     51  C   UNL     1     -11.496  -4.241  11.823  1.00  0.00     0.034 A 
ATOM     52  C   UNL     1     -12.107  -9.129   7.549  1.00  0.00     0.049 A 
ATOM     53  C   UNL     1     -12.510  -5.339  11.648  1.00  0.00     0.074 A 
ATOM     54  C   UNL     1     -13.090 -10.101   7.499  1.00  0.00     0.029 A 
ATOM     55  N   UNL     1     -12.388  -8.331   8.647  1.00  0.00    -0.354 N 
ATOM     56  N   UNL     1     -12.518  -6.323  10.783  1.00  0.00    -0.248 NA
ATOM     57  C   UNL     1     -13.644  -5.354  12.583  1.00  0.00     0.031 C 
ATOM     58  C   UNL     1     -13.969  -9.888   8.567  1.00  0.00     0.029 A 
ATOM     59  C   UNL     1     -13.525  -8.792   9.288  1.00  0.00     0.049 A 
ATOM     60  H   UNL     1     -11.857  -7.551   8.929  1.00  0.00     0.167 HD
ATOM     61  C   UNL     1     -13.633  -7.093  11.090  1.00  0.00     0.074 A 
ATOM     62  C   UNL     1     -14.265  -6.473  12.236  1.00  0.00     0.031 C 
ATOM     63  C   UNL     1     -14.104  -8.202  10.467  1.00  0.00     0.034 A 
BRANCH  50  64
ATOM     64  C   UNL     1     -10.823  -9.895   5.511  1.00  0.00     0.023 A 
ATOM     65  C   UNL     1      -9.819 -10.884   5.577  1.00  0.00     0.012 A 
ATOM     66  C   UNL     1     -11.681  -9.856   4.395  1.00  0.00     0.148 A 
ATOM     67  C   UNL     1      -9.650 -11.797   4.538  1.00  0.00     0.002 A 
ATOM     68  C   UNL     1     -11.533 -10.797   3.382  1.00  0.00     0.091 A 
ATOM     69  F   UNL     1     -12.616  -8.896   4.339  1.00  0.00    -0.205 F 
ATOM     70  C   UNL     1     -10.512 -11.760   3.447  1.00  0.00     0.022 A 
BRANCH  68  71
ATOM     71  S   UNL     1     -12.639 -10.883   1.968  1.00  0.00     0.127 S 
ATOM     72  O   UNL     1     -11.779 -10.395   0.891  1.00  0.00    -0.237 OA
ATOM     73  O   UNL     1     -12.946 -12.312   1.903  1.00  0.00    -0.237 OA
ATOM     74  O   UNL     1     -13.775 -10.034   2.297  1.00  0.00    -0.744 OA
ENDBRANCH  68  71
ENDBRANCH  50  64
BRANCH  51  75
ATOM     75  C   UNL     1     -11.653  -3.215  12.893  1.00  0.00     0.023 A 
ATOM     76  C   UNL     1     -11.520  -3.598  14.242  1.00  0.00     0.012 A 
ATOM     77  C   UNL     1     -11.900  -1.863  12.585  1.00  0.00     0.148 A 
ATOM     78  C   UNL     1     -11.664  -2.660  15.266  1.00  0.00     0.002 A 
ATOM     79  C   UNL     1     -11.989  -0.925  13.607  1.00  0.00     0.091 A 
ATOM     80  F   UNL     1     -12.038  -1.520  11.296  1.00  0.00    -0.205 F 
ATOM     81  C   UNL     1     -11.888  -1.324  14.948  1.00  0.00     0.022 A 
BRANCH  79  82
ATOM     82  S   UNL     1     -12.140   0.835  13.279  1.00  0.00     0.127 S 
ATOM     83  O   UNL     1     -13.548   1.076  13.579  1.00  0.00    -0.237 OA
ATOM     84  O   UNL     1     -11.197   1.408  14.241  1.00  0.00    -0.237 OA
ATOM     85  O   UNL     1     -11.745   1.003  11.886  1.00  0.00    -0.744 OA
ENDBRANCH  79  82
ENDBRANCH  51  75
BRANCH  63  86
ATOM     86  C   UNL     1     -15.344  -8.846  11.028  1.00  0.00     0.023 A 
ATOM     87  C   UNL     1     -16.598  -8.236  10.830  1.00  0.00     0.012 A 
ATOM     88  C   UNL     1     -15.275 -10.093  11.679  1.00  0.00     0.148 A 
ATOM     89  C   UNL     1     -17.762  -8.844  11.296  1.00  0.00     0.002 A 
ATOM     90  C   UNL     1     -16.445 -10.715  12.101  1.00  0.00     0.091 A 
ATOM     91  F   UNL     1     -14.070 -10.648  11.877  1.00  0.00    -0.205 F 
ATOM     92  C   UNL     1     -17.688 -10.087  11.919  1.00  0.00     0.022 A 
BRANCH  90  93
ATOM     93  S   UNL     1     -16.449 -12.357  12.829  1.00  0.00     0.127 S 
ATOM     94  O   UNL     1     -16.664 -12.056  14.243  1.00  0.00    -0.237 OA
ATOM     95  O   UNL     1     -17.585 -12.993  12.161  1.00  0.00    -0.237 OA
ATOM     96  O   UNL     1     -15.155 -12.941  12.502  1.00  0.00    -0.744 OA
ENDBRANCH  90  93
ENDBRANCH  63  86
ENDBRANCH  37  38
ENDBRANCH  29  32
ENDBRANCH  27  28
ENDBRANCH  26  27
ENDBRANCH   1  26
TORSDOF 17
