REMARK SMILES CCc1nnsc1C(=O)NC[C@@H](CC(C)C)C(=O)NCCCCNC(=O)c1ccc(-c2c3nc(c(-c4cccc(S(=O)(=O)[O-])c4F)c4ccc([nH]4)c(-c4cccc(S(=O)(=O)[O-])c4F)c4nc(c(-c5cccc(S(=O)(=O)[O-])c5F)c5ccc2[nH]5)C=C4)C=C3)cc1
REMARK SMILES IDX 21 1 20 2 19 3 17 4 18 5 12 7 11 8 10 9 8 10 9 11 7 13 3 14
REMARK SMILES IDX 4 15 5 16 6 17 2 18 1 19 13 20 14 21 15 22 16 23 22 24 23 25
REMARK SMILES IDX 24 26 25 27 26 29 27 30 28 31 89 32 29 33 88 34 30 35 31 36
REMARK SMILES IDX 32 37 82 38 33 39 87 40 81 41 83 42 34 43 86 44 80 45 79 46
REMARK SMILES IDX 35 48 67 49 47 50 66 51 48 52 51 53 65 54 84 55 49 56 50 57
REMARK SMILES IDX 64 59 85 60 52 61 36 62 37 63 45 64 38 65 40 66 46 67 39 68
REMARK SMILES IDX 41 69 42 70 43 71 44 72 68 73 69 74 77 75 70 76 72 77 78 78
REMARK SMILES IDX 71 79 73 80 74 81 75 82 76 83 53 84 54 85 62 86 55 87 57 88
REMARK SMILES IDX 63 89 56 90 58 91 59 92 60 93 61 94
REMARK H PARENT 19 6 10 12 24 28 83 47 51 58
REMARK Flexibility Score: inf
ROOT
ATOM      1  C   UNL     1       0.815   1.913  -4.111  1.00  0.00     0.023 C 
ENDROOT
BRANCH   1   2
ATOM      2  C   UNL     1       1.163   2.394  -2.711  1.00  0.00     0.116 C 
BRANCH   2   3
ATOM      3  N   UNL     1       0.133   2.102  -1.737  1.00  0.00    -0.356 N 
ATOM      4  C   UNL     1       0.214   1.872  -0.402  1.00  0.00     0.224 C 
ATOM      5  O   UNL     1      -0.840   1.897   0.240  1.00  0.00    -0.275 OA
ATOM      6  H   UNL     1      -0.780   2.063  -2.106  1.00  0.00     0.163 HD
BRANCH   4   7
ATOM      7  C   UNL     1       1.526   1.602   0.321  1.00  0.00     0.098 C 
BRANCH   7   8
ATOM      8  C   UNL     1       2.481   0.642  -0.409  1.00  0.00     0.129 C 
BRANCH   8   9
ATOM      9  N   UNL     1       3.113  -0.292   0.506  1.00  0.00    -0.350 N 
ATOM     10  C   UNL     1       3.186  -1.661   0.550  1.00  0.00     0.264 C 
ATOM     11  O   UNL     1       4.030  -2.081   1.351  1.00  0.00    -0.268 OA
ATOM     12  H   UNL     1       3.586   0.148   1.249  1.00  0.00     0.163 HD
BRANCH  10  13
ATOM     13  C   UNL     1       2.398  -2.553  -0.273  1.00  0.00     0.136 A 
ATOM     14  C   UNL     1       1.105  -2.627  -0.793  1.00  0.00     0.088 A 
ATOM     15  N   UNL     1       0.826  -3.816  -1.478  1.00  0.00    -0.142 NA
ATOM     16  N   UNL     1       1.838  -4.656  -1.478  1.00  0.00    -0.090 NA
ATOM     17  S   UNL     1       3.161  -4.062  -0.675  1.00  0.00    -0.006 S 
BRANCH  14  18
ATOM     18  C   UNL     1      -0.056  -1.690  -0.707  1.00  0.00     0.056 C 
ATOM     19  C   UNL     1      -0.544  -1.445   0.707  1.00  0.00     0.011 C 
ENDBRANCH  14  18
ENDBRANCH  10  13
ENDBRANCH   8   9
ENDBRANCH   7   8
BRANCH   7  20
ATOM     20  C   UNL     1       2.197   2.863   0.920  1.00  0.00     0.018 C 
BRANCH  20  21
ATOM     21  C   UNL     1       2.506   4.044  -0.021  1.00  0.00    -0.017 C 
ATOM     22  C   UNL     1       1.308   4.988  -0.184  1.00  0.00     0.007 C 
ATOM     23  C   UNL     1       3.681   4.868   0.520  1.00  0.00     0.007 C 
ENDBRANCH  20  21
ENDBRANCH   7  20
ENDBRANCH   4   7
ENDBRANCH   2   3
ENDBRANCH   1   2
BRANCH   1  24
ATOM     24  C   UNL     1      -0.324   2.675  -4.785  1.00  0.00     0.023 C 
BRANCH  24  25
ATOM     25  C   UNL     1      -0.240   4.196  -4.699  1.00  0.00     0.116 C 
BRANCH  25  26
ATOM     26  N   UNL     1       1.045   4.733  -5.132  1.00  0.00    -0.352 N 
ATOM     27  C   UNL     1       1.315   5.719  -6.053  1.00  0.00     0.251 C 
ATOM     28  H   UNL     1       1.835   4.331  -4.703  1.00  0.00     0.163 HD
ATOM     29  O   UNL     1       2.468   5.985  -6.353  1.00  0.00    -0.269 OA
BRANCH  27  30
ATOM     30  C   UNL     1       0.187   6.416  -6.702  1.00  0.00     0.039 A 
ATOM     31  C   UNL     1       0.137   6.456  -8.097  1.00  0.00     0.014 A 
ATOM     32  C   UNL     1      -0.849   6.951  -5.934  1.00  0.00     0.014 A 
ATOM     33  C   UNL     1      -1.005   6.954  -8.726  1.00  0.00     0.010 A 
ATOM     34  C   UNL     1      -2.016   7.369  -6.561  1.00  0.00     0.010 A 
ATOM     35  C   UNL     1      -2.109   7.367  -7.962  1.00  0.00    -0.014 A 
BRANCH  35  36
ATOM     36  C   UNL     1      -3.386   7.765  -8.605  1.00  0.00     0.031 A 
ATOM     37  C   UNL     1      -3.929   9.153  -8.416  1.00  0.00     0.074 A 
ATOM     38  C   UNL     1      -4.114   6.840  -9.263  1.00  0.00     0.049 A 
ATOM     39  N   UNL     1      -5.061   9.659  -8.830  1.00  0.00    -0.248 NA
ATOM     40  C   UNL     1      -3.108  10.086  -7.626  1.00  0.00     0.031 C 
ATOM     41  C   UNL     1      -3.745   5.431  -9.424  1.00  0.00     0.029 A 
ATOM     42  N   UNL     1      -5.333   6.936  -9.886  1.00  0.00    -0.354 N 
ATOM     43  C   UNL     1      -5.105  10.951  -8.325  1.00  0.00     0.074 A 
ATOM     44  C   UNL     1      -3.906  11.139  -7.538  1.00  0.00     0.031 C 
ATOM     45  C   UNL     1      -4.718   4.796 -10.095  1.00  0.00     0.029 A 
ATOM     46  C   UNL     1      -5.790   5.741 -10.391  1.00  0.00     0.049 A 
ATOM     47  H   UNL     1      -5.833   7.781  -9.964  1.00  0.00     0.167 HD
ATOM     48  C   UNL     1      -6.040  11.910  -8.527  1.00  0.00     0.034 A 
ATOM     49  C   UNL     1      -6.946   5.438 -11.013  1.00  0.00     0.034 A 
ATOM     50  C   UNL     1      -7.207  11.735  -9.348  1.00  0.00     0.049 A 
ATOM     51  C   UNL     1      -7.941   6.534 -11.282  1.00  0.00     0.074 A 
ATOM     52  C   UNL     1      -8.162  12.672  -9.698  1.00  0.00     0.029 A 
ATOM     53  N   UNL     1      -7.581  10.540  -9.944  1.00  0.00    -0.354 N 
ATOM     54  N   UNL     1      -7.879   7.800 -10.950  1.00  0.00    -0.248 NA
ATOM     55  C   UNL     1      -9.143   6.170 -12.046  1.00  0.00     0.031 C 
ATOM     56  C   UNL     1      -9.122  12.040 -10.496  1.00  0.00     0.029 A 
ATOM     57  C   UNL     1      -8.756  10.713 -10.656  1.00  0.00     0.049 A 
ATOM     58  H   UNL     1      -7.085   9.694  -9.872  1.00  0.00     0.167 HD
ATOM     59  C   UNL     1      -9.018   8.391 -11.485  1.00  0.00     0.074 A 
ATOM     60  C   UNL     1      -9.739   7.347 -12.185  1.00  0.00     0.031 C 
ATOM     61  C   UNL     1      -9.438   9.677 -11.389  1.00  0.00     0.034 A 
BRANCH  48  62
ATOM     62  C   UNL     1      -5.796  13.257  -7.898  1.00  0.00     0.023 A 
ATOM     63  C   UNL     1      -4.769  14.079  -8.405  1.00  0.00     0.012 A 
ATOM     64  C   UNL     1      -6.593  13.723  -6.835  1.00  0.00     0.148 A 
ATOM     65  C   UNL     1      -4.509  15.325  -7.837  1.00  0.00     0.002 A 
ATOM     66  C   UNL     1      -6.357  14.986  -6.303  1.00  0.00     0.091 A 
ATOM     67  F   UNL     1      -7.549  12.919  -6.348  1.00  0.00    -0.205 F 
ATOM     68  C   UNL     1      -5.308  15.783  -6.794  1.00  0.00     0.022 A 
BRANCH  66  69
ATOM     69  S   UNL     1      -7.382  15.693  -5.009  1.00  0.00     0.127 S 
ATOM     70  O   UNL     1      -6.522  15.543  -3.836  1.00  0.00    -0.237 OA
ATOM     71  O   UNL     1      -7.554  17.073  -5.466  1.00  0.00    -0.237 OA
ATOM     72  O   UNL     1      -8.607  14.905  -4.998  1.00  0.00    -0.744 OA
ENDBRANCH  66  69
ENDBRANCH  48  62
BRANCH  49  73
ATOM     73  C   UNL     1      -7.185   4.044 -11.483  1.00  0.00     0.023 A 
ATOM     74  C   UNL     1      -7.133   3.760 -12.861  1.00  0.00     0.012 A 
ATOM     75  C   UNL     1      -7.405   2.993 -10.572  1.00  0.00     0.148 A 
ATOM     76  C   UNL     1      -7.321   2.457 -13.325  1.00  0.00     0.002 A 
ATOM     77  C   UNL     1      -7.536   1.690 -11.037  1.00  0.00     0.091 A 
ATOM     78  F   UNL     1      -7.461   3.288  -9.265  1.00  0.00    -0.205 F 
ATOM     79  C   UNL     1      -7.510   1.422 -12.414  1.00  0.00     0.022 A 
BRANCH  77  80
ATOM     80  S   UNL     1      -7.640   0.280  -9.929  1.00  0.00     0.127 S 
ATOM     81  O   UNL     1      -9.033  -0.126 -10.090  1.00  0.00    -0.237 OA
ATOM     82  O   UNL     1      -6.659  -0.636 -10.512  1.00  0.00    -0.237 OA
ATOM     83  O   UNL     1      -7.274   0.788  -8.613  1.00  0.00    -0.744 OA
ENDBRANCH  77  80
ENDBRANCH  49  73
BRANCH  61  84
ATOM     84  C   UNL     1     -10.729  10.042 -12.072  1.00  0.00     0.023 A 
ATOM     85  C   UNL     1     -11.954   9.621 -11.517  1.00  0.00     0.012 A 
ATOM     86  C   UNL     1     -10.734  10.868 -13.213  1.00  0.00     0.148 A 
ATOM     87  C   UNL     1     -13.163   9.994 -12.103  1.00  0.00     0.002 A 
ATOM     88  C   UNL     1     -11.944  11.273 -13.765  1.00  0.00     0.091 A 
ATOM     89  F   UNL     1      -9.558  11.241 -13.738  1.00  0.00    -0.205 F 
ATOM     90  C   UNL     1     -13.158  10.829 -13.218  1.00  0.00     0.022 A 
BRANCH  88  91
ATOM     91  S   UNL     1     -12.034  12.421 -15.144  1.00  0.00     0.127 S 
ATOM     92  O   UNL     1     -12.414  11.536 -16.244  1.00  0.00    -0.237 OA
ATOM     93  O   UNL     1     -13.085  13.344 -14.713  1.00  0.00    -0.237 OA
ATOM     94  O   UNL     1     -10.712  13.023 -15.251  1.00  0.00    -0.744 OA
ENDBRANCH  88  91
ENDBRANCH  61  84
ENDBRANCH  35  36
ENDBRANCH  27  30
ENDBRANCH  25  26
ENDBRANCH  24  25
ENDBRANCH   1  24
TORSDOF 20
