REMARK SMILES Cc1cc(C(=O)NCCCCNC(=O)c2ccc(-c3c4nc(c(-c5cccc(S(=O)(=O)[O-])c5F)c5ccc([nH]5)c(-c5cccc(S(=O)(=O)[O-])c5F)c5nc(c(-c6cccc(S(=O)(=O)[O-])c6F)c6ccc3[nH]6)C=C5)C=C4)cc2)ccc1NS(=O)(=O)c1c(F)cccc1F
REMARK SMILES IDX 9 1 8 2 7 3 5 4 6 5 4 7 1 8 2 9 3 10 80 11 79 12 78 13 81 14
REMARK SMILES IDX 82 16 83 17 84 18 85 19 86 20 91 21 87 22 88 23 90 24 92 25
REMARK SMILES IDX 89 26 10 27 11 28 12 29 13 30 14 32 15 33 16 34 77 35 17 36
REMARK SMILES IDX 76 37 18 38 19 39 20 40 70 41 21 42 75 43 69 44 71 45 22 46
REMARK SMILES IDX 74 47 68 48 67 49 23 51 55 52 35 53 54 54 36 55 39 56 53 57
REMARK SMILES IDX 72 58 37 59 38 60 52 62 73 63 40 64 24 65 25 66 33 67 26 68
REMARK SMILES IDX 28 69 34 70 27 71 29 72 30 73 31 74 32 75 56 76 57 77 65 78
REMARK SMILES IDX 58 79 60 80 66 81 59 82 61 83 62 84 63 85 64 86 41 87 42 88
REMARK SMILES IDX 50 89 43 90 45 91 51 92 44 93 46 94 47 95 48 96 49 97
REMARK H PARENT 7 6 81 15 12 31 71 50 39 61
REMARK Flexibility Score: inf
ROOT
ATOM      1  C   UNL     1      -4.527  -1.137  -1.520  1.00  0.00     0.023 C 
ENDROOT
BRANCH   1   2
ATOM      2  C   UNL     1      -4.029  -1.442  -0.101  1.00  0.00     0.116 C 
BRANCH   2   3
ATOM      3  N   UNL     1      -2.999  -2.468  -0.049  1.00  0.00    -0.352 N 
ATOM      4  C   UNL     1      -1.640  -2.428   0.154  1.00  0.00     0.251 C 
ATOM      5  O   UNL     1      -1.005  -3.476   0.029  1.00  0.00    -0.269 OA
ATOM      6  H   UNL     1      -3.346  -3.379  -0.188  1.00  0.00     0.163 HD
BRANCH   4   7
ATOM      7  C   UNL     1      -0.892  -1.170   0.422  1.00  0.00     0.040 A 
ATOM      8  C   UNL     1       2.602   0.088  -0.339  1.00  0.00     0.046 C 
ATOM      9  C   UNL     1       1.134   0.118  -0.012  1.00  0.00    -0.026 A 
ATOM     10  C   UNL     1       0.423  -1.091  -0.052  1.00  0.00     0.019 A 
ATOM     11  C   UNL     1       0.461   1.278   0.402  1.00  0.00     0.052 A 
ATOM     12  C   UNL     1      -0.700   1.134   1.156  1.00  0.00     0.028 A 
ATOM     13  C   UNL     1      -1.378  -0.095   1.164  1.00  0.00     0.016 A 
BRANCH  11  14
ATOM     14  N   UNL     1       0.939   2.525  -0.099  1.00  0.00    -0.279 N 
ATOM     15  H   UNL     1       1.817   2.499  -0.545  1.00  0.00     0.180 HD
BRANCH  14  16
ATOM     16  S   UNL     1       0.205   4.027  -0.026  1.00  0.00     0.267 S 
ATOM     17  O   UNL     1       0.446   4.518   1.313  1.00  0.00    -0.201 OA
ATOM     18  O   UNL     1       0.724   4.743  -1.179  1.00  0.00    -0.201 OA
BRANCH  16  19
ATOM     19  C   UNL     1      -1.527   3.915  -0.259  1.00  0.00     0.158 A 
ATOM     20  C   UNL     1      -2.323   4.857   0.387  1.00  0.00     0.146 A 
ATOM     21  C   UNL     1      -2.139   2.882  -0.949  1.00  0.00     0.146 A 
ATOM     22  F   UNL     1      -1.787   5.944   0.958  1.00  0.00    -0.205 F 
ATOM     23  C   UNL     1      -3.708   4.710   0.446  1.00  0.00     0.041 A 
ATOM     24  C   UNL     1      -3.525   2.708  -0.873  1.00  0.00     0.041 A 
ATOM     25  F   UNL     1      -1.432   2.005  -1.673  1.00  0.00    -0.205 F 
ATOM     26  C   UNL     1      -4.310   3.608  -0.153  1.00  0.00     0.006 A 
ENDBRANCH  16  19
ENDBRANCH  14  16
ENDBRANCH  11  14
ENDBRANCH   4   7
ENDBRANCH   2   3
ENDBRANCH   1   2
BRANCH   1  27
ATOM     27  C   UNL     1      -5.317  -2.249  -2.216  1.00  0.00     0.023 C 
BRANCH  27  28
ATOM     28  C   UNL     1      -6.590  -2.647  -1.484  1.00  0.00     0.116 C 
BRANCH  28  29
ATOM     29  N   UNL     1      -7.711  -1.758  -1.704  1.00  0.00    -0.352 N 
ATOM     30  C   UNL     1      -9.024  -1.872  -1.280  1.00  0.00     0.251 C 
ATOM     31  H   UNL     1      -7.511  -0.952  -2.233  1.00  0.00     0.163 HD
ATOM     32  O   UNL     1      -9.865  -1.206  -1.881  1.00  0.00    -0.269 OA
BRANCH  30  33
ATOM     33  C   UNL     1      -9.387  -2.614  -0.035  1.00  0.00     0.039 A 
ATOM     34  C   UNL     1     -10.494  -2.136   0.686  1.00  0.00     0.014 A 
ATOM     35  C   UNL     1      -8.505  -3.489   0.586  1.00  0.00     0.014 A 
ATOM     36  C   UNL     1     -10.511  -2.227   2.073  1.00  0.00     0.010 A 
ATOM     37  C   UNL     1      -8.453  -3.496   1.955  1.00  0.00     0.010 A 
ATOM     38  C   UNL     1      -9.397  -2.770   2.686  1.00  0.00    -0.014 A 
BRANCH  38  39
ATOM     39  C   UNL     1      -9.041  -2.622   4.082  1.00  0.00     0.031 A 
ATOM     40  C   UNL     1      -9.347  -3.724   5.005  1.00  0.00     0.074 A 
ATOM     41  C   UNL     1      -8.054  -1.725   4.312  1.00  0.00     0.049 A 
ATOM     42  N   UNL     1      -9.090  -3.716   6.264  1.00  0.00    -0.248 NA
ATOM     43  C   UNL     1      -9.996  -4.951   4.553  1.00  0.00     0.031 C 
ATOM     44  C   UNL     1      -7.026  -1.781   5.339  1.00  0.00     0.029 A 
ATOM     45  N   UNL     1      -7.842  -0.484   3.694  1.00  0.00    -0.354 N 
ATOM     46  C   UNL     1      -9.183  -5.025   6.695  1.00  0.00     0.074 A 
ATOM     47  C   UNL     1      -9.909  -5.703   5.653  1.00  0.00     0.031 C 
ATOM     48  C   UNL     1      -6.475  -0.562   5.466  1.00  0.00     0.029 A 
ATOM     49  C   UNL     1      -7.296   0.349   4.685  1.00  0.00     0.049 A 
ATOM     50  H   UNL     1      -8.036  -0.246   2.758  1.00  0.00     0.167 HD
ATOM     51  C   UNL     1      -8.455  -5.398   7.787  1.00  0.00     0.034 A 
ATOM     52  C   UNL     1      -7.967   1.427   5.198  1.00  0.00     0.034 A 
ATOM     53  C   UNL     1      -7.845  -4.208   8.415  1.00  0.00     0.049 A 
ATOM     54  C   UNL     1      -8.280   1.268   6.682  1.00  0.00     0.074 A 
ATOM     55  C   UNL     1      -6.559  -3.693   8.414  1.00  0.00     0.029 A 
ATOM     56  N   UNL     1      -8.668  -3.197   8.905  1.00  0.00    -0.354 N 
ATOM     57  N   UNL     1      -8.055   0.177   7.364  1.00  0.00    -0.248 NA
ATOM     58  C   UNL     1      -8.876   2.310   7.515  1.00  0.00     0.031 C 
ATOM     59  C   UNL     1      -6.640  -2.318   8.780  1.00  0.00     0.029 A 
ATOM     60  C   UNL     1      -7.964  -2.009   9.048  1.00  0.00     0.049 A 
ATOM     61  H   UNL     1      -9.621  -3.310   9.121  1.00  0.00     0.167 HD
ATOM     62  C   UNL     1      -8.572   0.285   8.625  1.00  0.00     0.074 A 
ATOM     63  C   UNL     1      -9.001   1.673   8.695  1.00  0.00     0.031 C 
ATOM     64  C   UNL     1      -8.657  -0.790   9.472  1.00  0.00     0.034 A 
BRANCH  51  65
ATOM     65  C   UNL     1      -8.041  -6.823   8.162  1.00  0.00     0.023 A 
ATOM     66  C   UNL     1      -7.104  -6.955   9.215  1.00  0.00     0.012 A 
ATOM     67  C   UNL     1      -8.412  -8.038   7.531  1.00  0.00     0.148 A 
ATOM     68  C   UNL     1      -6.529  -8.181   9.575  1.00  0.00     0.002 A 
ATOM     69  C   UNL     1      -7.848  -9.268   7.894  1.00  0.00     0.091 A 
ATOM     70  F   UNL     1      -9.317  -8.044   6.557  1.00  0.00    -0.205 F 
ATOM     71  C   UNL     1      -6.894  -9.340   8.909  1.00  0.00     0.022 A 
BRANCH  69  72
ATOM     72  S   UNL     1      -8.278 -10.821   7.077  1.00  0.00     0.127 S 
ATOM     73  O   UNL     1      -6.982 -11.267   6.564  1.00  0.00    -0.237 OA
ATOM     74  O   UNL     1      -8.801 -11.621   8.184  1.00  0.00    -0.237 OA
ATOM     75  O   UNL     1      -9.255 -10.493   6.045  1.00  0.00    -0.744 OA
ENDBRANCH  69  72
ENDBRANCH  51  65
BRANCH  52  76
ATOM     76  C   UNL     1      -8.822   2.120   4.186  1.00  0.00     0.023 A 
ATOM     77  C   UNL     1      -8.140   2.769   3.127  1.00  0.00     0.012 A 
ATOM     78  C   UNL     1     -10.169   1.758   4.003  1.00  0.00     0.148 A 
ATOM     79  C   UNL     1      -8.728   2.897   1.867  1.00  0.00     0.002 A 
ATOM     80  C   UNL     1     -10.744   1.875   2.737  1.00  0.00     0.091 A 
ATOM     81  F   UNL     1     -10.827   1.211   5.032  1.00  0.00    -0.205 F 
ATOM     82  C   UNL     1     -10.012   2.404   1.661  1.00  0.00     0.022 A 
BRANCH  80  83
ATOM     83  S   UNL     1     -12.377   1.213   2.370  1.00  0.00     0.127 S 
ATOM     84  O   UNL     1     -13.195   2.420   2.390  1.00  0.00    -0.237 OA
ATOM     85  O   UNL     1     -12.184   0.625   1.046  1.00  0.00    -0.237 OA
ATOM     86  O   UNL     1     -12.635   0.241   3.422  1.00  0.00    -0.744 OA
ENDBRANCH  80  83
ENDBRANCH  52  76
BRANCH  64  87
ATOM     87  C   UNL     1      -9.428  -0.813  10.780  1.00  0.00     0.023 A 
ATOM     88  C   UNL     1     -10.490   0.071  11.049  1.00  0.00     0.012 A 
ATOM     89  C   UNL     1      -9.209  -1.848  11.727  1.00  0.00     0.148 A 
ATOM     90  C   UNL     1     -11.252  -0.022  12.219  1.00  0.00     0.002 A 
ATOM     91  C   UNL     1     -10.053  -2.015  12.821  1.00  0.00     0.091 A 
ATOM     92  F   UNL     1      -8.164  -2.677  11.585  1.00  0.00    -0.205 F 
ATOM     93  C   UNL     1     -11.053  -1.082  13.093  1.00  0.00     0.022 A 
BRANCH  91  94
ATOM     94  S   UNL     1      -9.999  -3.521  13.804  1.00  0.00     0.127 S 
ATOM     95  O   UNL     1      -9.100  -3.144  14.891  1.00  0.00    -0.237 OA
ATOM     96  O   UNL     1     -11.399  -3.689  14.200  1.00  0.00    -0.237 OA
ATOM     97  O   UNL     1      -9.514  -4.547  12.890  1.00  0.00    -0.744 OA
ENDBRANCH  91  94
ENDBRANCH  64  87
ENDBRANCH  38  39
ENDBRANCH  30  33
ENDBRANCH  28  29
ENDBRANCH  27  28
ENDBRANCH   1  27
TORSDOF 17
