REMARK SMILES CC(C)[C@H](NC(=O)[C@H]1CC(=O)N(c2ccc(F)cc2)C1)C(=O)N1CCC[C@@H]1C(=O)NCCCCNC(=O)c1ccc(-c2c3nc(c(-c4cccc(S(=O)(=O)[O-])c4F)c4ccc([nH]4)c(-c4cccc(S(=O)(=O)[O-])c4F)c4nc(c(-c5cccc(S(=O)(=O)[O-])c5F)c5ccc2[nH]5)C=C4)C=C3)cc1
REMARK SMILES IDX 31 1 30 2 28 3 29 4 27 6 23 7 24 8 25 9 26 10 21 11 22 12
REMARK SMILES IDX 4 13 2 14 1 15 3 16 5 17 6 18 7 20 8 21 9 22 20 23 10 24
REMARK SMILES IDX 12 25 11 26 13 27 14 28 19 29 15 30 18 31 16 32 17 33 32 34
REMARK SMILES IDX 33 35 34 36 35 37 36 38 37 40 38 41 39 42 100 43 40 44 99 45
REMARK SMILES IDX 41 46 42 47 43 48 93 49 44 50 98 51 92 52 94 53 45 54 97 55
REMARK SMILES IDX 91 56 90 57 46 59 78 60 58 61 77 62 59 63 62 64 76 65 95 66
REMARK SMILES IDX 60 67 61 68 75 70 96 71 63 72 47 73 48 74 56 75 49 76 51 77
REMARK SMILES IDX 57 78 50 79 52 80 53 81 54 82 55 83 79 84 80 85 88 86 81 87
REMARK SMILES IDX 83 88 89 89 82 90 84 91 85 92 86 93 87 94 64 95 65 96 73 97
REMARK SMILES IDX 66 98 68 99 74 100 67 101 69 102 70 103 71 104 72 105
REMARK H PARENT 30 5 5 19 35 39 94 58 62 69
REMARK Flexibility Score: inf
ROOT
ATOM      1  C   UNL     1      -3.912  -4.116   1.861  1.00  0.00     0.116 C 
ENDROOT
BRANCH   1   2
ATOM      2  N   UNL     1      -2.808  -4.720   1.152  1.00  0.00    -0.354 N 
ATOM      3  C   UNL     1      -2.478  -4.702  -0.172  1.00  0.00     0.242 C 
ATOM      4  O   UNL     1      -1.573  -5.465  -0.527  1.00  0.00    -0.273 OA
ATOM      5  H   UNL     1      -2.189  -5.231   1.720  1.00  0.00     0.163 HD
BRANCH   3   6
ATOM      6  C   UNL     1      -3.292  -3.921  -1.234  1.00  0.00     0.174 C 
ATOM      7  N   UNL     1      -3.607  -2.531  -0.898  1.00  0.00    -0.329 N 
ATOM      8  C   UNL     1      -5.004  -2.233  -1.148  1.00  0.00     0.120 C 
ATOM      9  C   UNL     1      -5.714  -3.576  -1.175  1.00  0.00     0.024 C 
ATOM     10  C   UNL     1      -4.636  -4.600  -1.519  1.00  0.00     0.037 C 
BRANCH   7  11
ATOM     11  C   UNL     1      -2.579  -1.606  -0.800  1.00  0.00     0.246 C 
ATOM     12  O   UNL     1      -1.427  -1.903  -1.127  1.00  0.00    -0.272 OA
BRANCH  11  13
ATOM     13  C   UNL     1      -2.818  -0.281  -0.016  1.00  0.00     0.174 C 
BRANCH  13  14
ATOM     14  C   UNL     1      -2.930  -0.641   1.492  1.00  0.00     0.015 C 
ATOM     15  C   UNL     1      -1.552  -0.584   2.162  1.00  0.00     0.010 C 
ATOM     16  C   UNL     1      -3.943   0.151   2.315  1.00  0.00     0.010 C 
ENDBRANCH  13  14
BRANCH  13  17
ATOM     17  N   UNL     1      -3.926   0.519  -0.524  1.00  0.00    -0.344 N 
ATOM     18  C   UNL     1      -3.920   1.413  -1.549  1.00  0.00     0.226 C 
ATOM     19  H   UNL     1      -4.789   0.398  -0.066  1.00  0.00     0.164 HD
ATOM     20  O   UNL     1      -4.938   2.079  -1.738  1.00  0.00    -0.275 OA
BRANCH  18  21
ATOM     21  C   UNL     1      -2.702   1.544  -2.438  1.00  0.00     0.107 C 
ATOM     22  C   UNL     1      -3.109   1.350  -3.896  1.00  0.00     0.116 C 
ATOM     23  C   UNL     1      -2.135   2.954  -2.377  1.00  0.00     0.139 C 
ATOM     24  C   UNL     1      -2.345   2.400  -4.651  1.00  0.00     0.227 C 
ATOM     25  N   UNL     1      -1.749   3.262  -3.733  1.00  0.00    -0.312 N 
ATOM     26  O   UNL     1      -2.275   2.426  -5.873  1.00  0.00    -0.274 OA
BRANCH  25  27
ATOM     27  C   UNL     1      -0.985   4.400  -4.075  1.00  0.00     0.044 A 
ATOM     28  C   UNL     1      -1.284   5.135  -5.231  1.00  0.00     0.029 A 
ATOM     29  C   UNL     1       0.098   4.803  -3.281  1.00  0.00     0.029 A 
ATOM     30  C   UNL     1      -0.523   6.252  -5.587  1.00  0.00     0.041 A 
ATOM     31  C   UNL     1       0.885   5.896  -3.659  1.00  0.00     0.041 A 
ATOM     32  C   UNL     1       0.563   6.614  -4.804  1.00  0.00     0.123 A 
ATOM     33  F   UNL     1       1.313   7.665  -5.161  1.00  0.00    -0.207 F 
ENDBRANCH  25  27
ENDBRANCH  18  21
ENDBRANCH  13  17
ENDBRANCH  11  13
ENDBRANCH   7  11
ENDBRANCH   3   6
ENDBRANCH   1   2
BRANCH   1  34
ATOM     34  C   UNL     1      -4.812  -5.143   2.534  1.00  0.00     0.023 C 
BRANCH  34  35
ATOM     35  C   UNL     1      -4.261  -5.675   3.857  1.00  0.00     0.023 C 
BRANCH  35  36
ATOM     36  C   UNL     1      -3.926  -4.616   4.907  1.00  0.00     0.116 C 
BRANCH  36  37
ATOM     37  N   UNL     1      -5.036  -3.722   5.213  1.00  0.00    -0.352 N 
ATOM     38  C   UNL     1      -5.384  -3.195   6.436  1.00  0.00     0.251 C 
ATOM     39  H   UNL     1      -5.606  -3.464   4.454  1.00  0.00     0.163 HD
ATOM     40  O   UNL     1      -6.404  -2.526   6.560  1.00  0.00    -0.269 OA
BRANCH  38  41
ATOM     41  C   UNL     1      -4.524  -3.482   7.602  1.00  0.00     0.039 A 
ATOM     42  C   UNL     1      -5.089  -4.072   8.734  1.00  0.00     0.014 A 
ATOM     43  C   UNL     1      -3.148  -3.246   7.533  1.00  0.00     0.014 A 
ATOM     44  C   UNL     1      -4.258  -4.495   9.773  1.00  0.00     0.010 A 
ATOM     45  C   UNL     1      -2.318  -3.733   8.537  1.00  0.00     0.010 A 
ATOM     46  C   UNL     1      -2.863  -4.368   9.664  1.00  0.00    -0.014 A 
BRANCH  46  47
ATOM     47  C   UNL     1      -1.954  -4.919  10.701  1.00  0.00     0.031 A 
ATOM     48  C   UNL     1      -1.052  -4.003  11.482  1.00  0.00     0.074 A 
ATOM     49  C   UNL     1      -1.877  -6.253  10.879  1.00  0.00     0.049 A 
ATOM     50  N   UNL     1      -0.152  -4.306  12.380  1.00  0.00    -0.248 NA
ATOM     51  C   UNL     1      -1.156  -2.562  11.200  1.00  0.00     0.031 C 
ATOM     52  C   UNL     1      -2.646  -7.251  10.132  1.00  0.00     0.029 A 
ATOM     53  N   UNL     1      -1.101  -7.003  11.729  1.00  0.00    -0.354 N 
ATOM     54  C   UNL     1       0.435  -3.103  12.750  1.00  0.00     0.074 A 
ATOM     55  C   UNL     1      -0.182  -2.068  11.950  1.00  0.00     0.031 C 
ATOM     56  C   UNL     1      -2.315  -8.477  10.565  1.00  0.00     0.029 A 
ATOM     57  C   UNL     1      -1.287  -8.360  11.596  1.00  0.00     0.049 A 
ATOM     58  H   UNL     1      -0.471  -6.606  12.373  1.00  0.00     0.167 HD
ATOM     59  C   UNL     1       1.378  -2.875  13.694  1.00  0.00     0.034 A 
ATOM     60  C   UNL     1      -0.697  -9.394  12.228  1.00  0.00     0.034 A 
ATOM     61  C   UNL     1       1.957  -3.902  14.517  1.00  0.00     0.049 A 
ATOM     62  C   UNL     1       0.329  -9.113  13.292  1.00  0.00     0.074 A 
ATOM     63  C   UNL     1       2.863  -3.759  15.553  1.00  0.00     0.029 A 
ATOM     64  N   UNL     1       1.692  -5.257  14.400  1.00  0.00    -0.354 N 
ATOM     65  N   UNL     1       0.770  -7.956  13.725  1.00  0.00    -0.248 NA
ATOM     66  C   UNL     1       0.915 -10.273  13.980  1.00  0.00     0.031 C 
ATOM     67  C   UNL     1       3.165  -5.030  16.047  1.00  0.00     0.029 A 
ATOM     68  C   UNL     1       2.422  -5.963  15.340  1.00  0.00     0.049 A 
ATOM     69  H   UNL     1       1.076  -5.658  13.745  1.00  0.00     0.167 HD
ATOM     70  C   UNL     1       1.658  -8.246  14.755  1.00  0.00     0.074 A 
ATOM     71  C   UNL     1       1.679  -9.688  14.894  1.00  0.00     0.031 C 
ATOM     72  C   UNL     1       2.396  -7.394  15.507  1.00  0.00     0.034 A 
BRANCH  59  73
ATOM     73  C   UNL     1       1.800  -1.450  13.941  1.00  0.00     0.023 A 
ATOM     74  C   UNL     1       0.906  -0.567  14.580  1.00  0.00     0.012 A 
ATOM     75  C   UNL     1       3.101  -1.012  13.627  1.00  0.00     0.148 A 
ATOM     76  C   UNL     1       1.291   0.739  14.881  1.00  0.00     0.002 A 
ATOM     77  C   UNL     1       3.493   0.276  13.973  1.00  0.00     0.091 A 
ATOM     78  F   UNL     1       3.928  -1.861  13.001  1.00  0.00    -0.205 F 
ATOM     79  C   UNL     1       2.587   1.155  14.590  1.00  0.00     0.022 A 
BRANCH  77  80
ATOM     80  S   UNL     1       5.165   0.883  13.720  1.00  0.00     0.127 S 
ATOM     81  O   UNL     1       4.957   1.891  12.681  1.00  0.00    -0.237 OA
ATOM     82  O   UNL     1       5.496   1.425  15.038  1.00  0.00    -0.237 OA
ATOM     83  O   UNL     1       5.956  -0.271  13.319  1.00  0.00    -0.744 OA
ENDBRANCH  77  80
ENDBRANCH  59  73
BRANCH  60  84
ATOM     84  C   UNL     1      -1.129 -10.788  11.922  1.00  0.00     0.023 A 
ATOM     85  C   UNL     1      -1.874 -11.503  12.881  1.00  0.00     0.012 A 
ATOM     86  C   UNL     1      -0.866 -11.383  10.673  1.00  0.00     0.148 A 
ATOM     87  C   UNL     1      -2.332 -12.792  12.609  1.00  0.00     0.002 A 
ATOM     88  C   UNL     1      -1.376 -12.644  10.387  1.00  0.00     0.091 A 
ATOM     89  F   UNL     1      -0.148 -10.689   9.779  1.00  0.00    -0.205 F 
ATOM     90  C   UNL     1      -2.095 -13.357  11.359  1.00  0.00     0.022 A 
BRANCH  88  91
ATOM     91  S   UNL     1      -1.246 -13.393   8.759  1.00  0.00     0.127 S 
ATOM     92  O   UNL     1      -0.370 -14.532   9.022  1.00  0.00    -0.237 OA
ATOM     93  O   UNL     1      -2.640 -13.738   8.477  1.00  0.00    -0.237 OA
ATOM     94  O   UNL     1      -0.695 -12.361   7.892  1.00  0.00    -0.744 OA
ENDBRANCH  88  91
ENDBRANCH  60  84
BRANCH  72  95
ATOM     95  C   UNL     1       3.281  -7.975  16.579  1.00  0.00     0.023 A 
ATOM     96  C   UNL     1       4.468  -8.643  16.221  1.00  0.00     0.012 A 
ATOM     97  C   UNL     1       2.998  -7.747  17.942  1.00  0.00     0.148 A 
ATOM     98  C   UNL     1       5.352  -9.091  17.202  1.00  0.00     0.002 A 
ATOM     99  C   UNL     1       3.909  -8.151  18.911  1.00  0.00     0.091 A 
ATOM    100  F   UNL     1       1.855  -7.124  18.261  1.00  0.00    -0.205 F 
ATOM    101  C   UNL     1       5.080  -8.832  18.543  1.00  0.00     0.022 A 
BRANCH  99 102
ATOM    102  S   UNL     1       3.698  -7.768  20.654  1.00  0.00     0.127 S 
ATOM    103  O   UNL     1       3.424  -9.088  21.218  1.00  0.00    -0.237 OA
ATOM    104  O   UNL     1       5.004  -7.212  21.008  1.00  0.00    -0.237 OA
ATOM    105  O   UNL     1       2.595  -6.819  20.727  1.00  0.00    -0.744 OA
ENDBRANCH  99 102
ENDBRANCH  72  95
ENDBRANCH  46  47
ENDBRANCH  38  41
ENDBRANCH  36  37
ENDBRANCH  35  36
ENDBRANCH  34  35
ENDBRANCH   1  34
TORSDOF 20
