REMARK SMILES O=C(Cc1ccccc1Cl)Nc1ccc(C(=O)NCCCCNC(=O)c2ccc(-c3c4nc(c(-c5cccc(S(=O)(=O)[O-])c5F)c5ccc([nH]5)c(-c5cccc(S(=O)(=O)[O-])c5F)c5nc(c(-c6cccc(S(=O)(=O)[O-])c6F)c6ccc3[nH]6)C=C5)C=C4)cc2)cc1
REMARK SMILES IDX 20 1 19 2 18 3 16 4 17 5 15 7 12 8 13 9 90 10 14 11 89 12
REMARK SMILES IDX 11 13 1 14 2 15 3 17 4 18 5 19 9 20 6 21 8 22 10 23 7 24
REMARK SMILES IDX 21 25 22 26 23 27 24 28 25 30 26 31 27 32 88 33 28 34 87 35
REMARK SMILES IDX 29 36 30 37 31 38 81 39 32 40 86 41 80 42 82 43 33 44 85 45
REMARK SMILES IDX 79 46 78 47 34 49 66 50 46 51 65 52 47 53 50 54 64 55 83 56
REMARK SMILES IDX 48 57 49 58 63 60 84 61 51 62 35 63 36 64 44 65 37 66 39 67
REMARK SMILES IDX 45 68 38 69 40 70 41 71 42 72 43 73 67 74 68 75 76 76 69 77
REMARK SMILES IDX 71 78 77 79 70 80 72 81 73 82 74 83 75 84 52 85 53 86 61 87
REMARK SMILES IDX 54 88 56 89 62 90 55 91 57 92 58 93 59 94 60 95
REMARK H PARENT 18 6 11 16 23 29 82 48 50 59
REMARK Flexibility Score: inf
ROOT
ATOM      1  C   UNL     1      -1.619   5.941   2.607  1.00  0.00     0.023 C 
ENDROOT
BRANCH   1   2
ATOM      2  C   UNL     1      -1.823   5.756   1.102  1.00  0.00     0.116 C 
BRANCH   2   3
ATOM      3  N   UNL     1      -0.880   6.572   0.368  1.00  0.00    -0.352 N 
ATOM      4  C   UNL     1       0.367   6.301  -0.130  1.00  0.00     0.251 C 
ATOM      5  O   UNL     1       0.965   7.214  -0.703  1.00  0.00    -0.269 OA
ATOM      6  H   UNL     1      -1.192   7.489   0.194  1.00  0.00     0.163 HD
BRANCH   4   7
ATOM      7  C   UNL     1       1.004   4.952  -0.075  1.00  0.00     0.039 A 
ATOM      8  C   UNL     1       2.237   2.417  -0.231  1.00  0.00     0.041 A 
ATOM      9  C   UNL     1       2.584   3.429  -1.128  1.00  0.00     0.027 A 
ATOM     10  C   UNL     1       1.324   2.693   0.782  1.00  0.00     0.027 A 
ATOM     11  C   UNL     1       1.958   4.676  -1.064  1.00  0.00     0.016 A 
ATOM     12  C   UNL     1       0.744   3.965   0.880  1.00  0.00     0.016 A 
BRANCH   8  13
ATOM     13  N   UNL     1       2.894   1.185  -0.364  1.00  0.00    -0.326 N 
ATOM     14  O   UNL     1       1.453  -0.275   0.710  1.00  0.00    -0.274 OA
ATOM     15  C   UNL     1       2.536  -0.029   0.182  1.00  0.00     0.228 C 
ATOM     16  H   UNL     1       3.710   1.188  -0.915  1.00  0.00     0.169 HD
BRANCH  15  17
ATOM     17  C   UNL     1       3.650  -1.070   0.179  1.00  0.00     0.137 C 
BRANCH  17  18
ATOM     18  C   UNL     1       4.252  -1.434  -1.165  1.00  0.00    -0.020 A 
ATOM     19  C   UNL     1       3.866  -2.644  -1.771  1.00  0.00     0.006 A 
ATOM     20  C   UNL     1       5.220  -0.653  -1.821  1.00  0.00     0.044 A 
ATOM     21  C   UNL     1       4.420  -3.050  -2.989  1.00  0.00     0.000 A 
ATOM     22  C   UNL     1       5.739  -1.039  -3.061  1.00  0.00     0.021 A 
ATOM     23  Cl  UNL     1       5.855   0.802  -1.136  1.00  0.00    -0.084 Cl
ATOM     24  C   UNL     1       5.345  -2.241  -3.642  1.00  0.00     0.002 A 
ENDBRANCH  17  18
ENDBRANCH  15  17
ENDBRANCH   8  13
ENDBRANCH   4   7
ENDBRANCH   2   3
ENDBRANCH   1   2
BRANCH   1  25
ATOM     25  C   UNL     1      -2.288   7.196   3.173  1.00  0.00     0.023 C 
BRANCH  25  26
ATOM     26  C   UNL     1      -3.809   7.197   3.082  1.00  0.00     0.116 C 
BRANCH  26  27
ATOM     27  N   UNL     1      -4.424   6.055   3.743  1.00  0.00    -0.352 N 
ATOM     28  C   UNL     1      -5.671   5.980   4.317  1.00  0.00     0.251 C 
ATOM     29  H   UNL     1      -3.879   5.236   3.785  1.00  0.00     0.163 HD
ATOM     30  O   UNL     1      -6.015   4.982   4.933  1.00  0.00    -0.269 OA
BRANCH  28  31
ATOM     31  C   UNL     1      -6.569   7.148   4.211  1.00  0.00     0.039 A 
ATOM     32  C   UNL     1      -7.121   7.678   5.378  1.00  0.00     0.014 A 
ATOM     33  C   UNL     1      -6.807   7.748   2.973  1.00  0.00     0.014 A 
ATOM     34  C   UNL     1      -7.866   8.856   5.310  1.00  0.00     0.010 A 
ATOM     35  C   UNL     1      -7.489   8.958   2.917  1.00  0.00     0.010 A 
ATOM     36  C   UNL     1      -8.026   9.523   4.084  1.00  0.00    -0.014 A 
BRANCH  36  37
ATOM     37  C   UNL     1      -8.737  10.822   4.002  1.00  0.00     0.031 A 
ATOM     38  C   UNL     1     -10.004  10.940   3.201  1.00  0.00     0.074 A 
ATOM     39  C   UNL     1      -8.185  11.916   4.564  1.00  0.00     0.049 A 
ATOM     40  N   UNL     1     -10.732  12.000   2.964  1.00  0.00    -0.248 NA
ATOM     41  C   UNL     1     -10.504   9.713   2.556  1.00  0.00     0.031 C 
ATOM     42  C   UNL     1      -6.909  11.946   5.284  1.00  0.00     0.029 A 
ATOM     43  N   UNL     1      -8.610  13.221   4.591  1.00  0.00    -0.354 N 
ATOM     44  C   UNL     1     -11.747  11.580   2.114  1.00  0.00     0.074 A 
ATOM     45  C   UNL     1     -11.527  10.175   1.851  1.00  0.00     0.031 C 
ATOM     46  C   UNL     1      -6.655  13.205   5.677  1.00  0.00     0.029 A 
ATOM     47  C   UNL     1      -7.735  14.074   5.221  1.00  0.00     0.049 A 
ATOM     48  H   UNL     1      -9.462  13.518   4.196  1.00  0.00     0.167 HD
ATOM     49  C   UNL     1     -12.786  12.293   1.620  1.00  0.00     0.034 A 
ATOM     50  C   UNL     1      -7.794  15.408   5.407  1.00  0.00     0.034 A 
ATOM     51  C   UNL     1     -13.033  13.674   1.933  1.00  0.00     0.049 A 
ATOM     52  C   UNL     1      -8.999  16.160   4.909  1.00  0.00     0.074 A 
ATOM     53  C   UNL     1     -14.117  14.456   1.575  1.00  0.00     0.029 A 
ATOM     54  N   UNL     1     -12.184  14.481   2.673  1.00  0.00    -0.354 N 
ATOM     55  N   UNL     1     -10.045  15.706   4.262  1.00  0.00    -0.248 NA
ATOM     56  C   UNL     1      -9.053  17.600   5.201  1.00  0.00     0.031 C 
ATOM     57  C   UNL     1     -13.915  15.742   2.086  1.00  0.00     0.029 A 
ATOM     58  C   UNL     1     -12.715  15.755   2.778  1.00  0.00     0.049 A 
ATOM     59  H   UNL     1     -11.330  14.191   3.066  1.00  0.00     0.167 HD
ATOM     60  C   UNL     1     -10.896  16.793   4.102  1.00  0.00     0.074 A 
ATOM     61  C   UNL     1     -10.253  17.924   4.739  1.00  0.00     0.031 C 
ATOM     62  C   UNL     1     -12.093  16.854   3.469  1.00  0.00     0.034 A 
BRANCH  49  63
ATOM     63  C   UNL     1     -13.776  11.577   0.741  1.00  0.00     0.023 A 
ATOM     64  C   UNL     1     -14.669  10.649   1.315  1.00  0.00     0.012 A 
ATOM     65  C   UNL     1     -13.873  11.871  -0.633  1.00  0.00     0.148 A 
ATOM     66  C   UNL     1     -15.625  10.005   0.531  1.00  0.00     0.002 A 
ATOM     67  C   UNL     1     -14.856  11.257  -1.400  1.00  0.00     0.091 A 
ATOM     68  F   UNL     1     -13.000  12.739  -1.165  1.00  0.00    -0.205 F 
ATOM     69  C   UNL     1     -15.725  10.316  -0.822  1.00  0.00     0.022 A 
BRANCH  67  70
ATOM     70  S   UNL     1     -15.120  11.647  -3.133  1.00  0.00     0.127 S 
ATOM     71  O   UNL     1     -14.660  10.421  -3.785  1.00  0.00    -0.237 OA
ATOM     72  O   UNL     1     -16.567  11.858  -3.184  1.00  0.00    -0.237 OA
ATOM     73  O   UNL     1     -14.323  12.835  -3.404  1.00  0.00    -0.744 OA
ENDBRANCH  67  70
ENDBRANCH  49  63
BRANCH  50  74
ATOM     74  C   UNL     1      -6.713  16.105   6.159  1.00  0.00     0.023 A 
ATOM     75  C   UNL     1      -6.983  16.610   7.446  1.00  0.00     0.012 A 
ATOM     76  C   UNL     1      -5.419  16.249   5.623  1.00  0.00     0.148 A 
ATOM     77  C   UNL     1      -5.994  17.277   8.171  1.00  0.00     0.002 A 
ATOM     78  C   UNL     1      -4.424  16.866   6.373  1.00  0.00     0.091 A 
ATOM     79  F   UNL     1      -5.184  15.775   4.391  1.00  0.00    -0.205 F 
ATOM     80  C   UNL     1      -4.713  17.396   7.639  1.00  0.00     0.022 A 
BRANCH  78  81
ATOM     81  S   UNL     1      -2.717  16.942   5.818  1.00  0.00     0.127 S 
ATOM     82  O   UNL     1      -2.596  18.339   5.410  1.00  0.00    -0.237 OA
ATOM     83  O   UNL     1      -1.984  16.590   7.036  1.00  0.00    -0.237 OA
ATOM     84  O   UNL     1      -2.611  15.954   4.753  1.00  0.00    -0.744 OA
ENDBRANCH  78  81
ENDBRANCH  50  74
BRANCH  62  85
ATOM     85  C   UNL     1     -12.813  18.176   3.459  1.00  0.00     0.023 A 
ATOM     86  C   UNL     1     -12.346  19.220   2.636  1.00  0.00     0.012 A 
ATOM     87  C   UNL     1     -13.998  18.355   4.199  1.00  0.00     0.148 A 
ATOM     88  C   UNL     1     -13.032  20.431   2.572  1.00  0.00     0.002 A 
ATOM     89  C   UNL     1     -14.703  19.548   4.093  1.00  0.00     0.091 A 
ATOM     90  F   UNL     1     -14.415  17.356   4.991  1.00  0.00    -0.205 F 
ATOM     91  C   UNL     1     -14.215  20.591   3.289  1.00  0.00     0.022 A 
BRANCH  89  92
ATOM     92  S   UNL     1     -16.285  19.803   4.904  1.00  0.00     0.127 S 
ATOM     93  O   UNL     1     -15.917  20.698   6.000  1.00  0.00    -0.237 OA
ATOM     94  O   UNL     1     -17.081  20.428   3.847  1.00  0.00    -0.237 OA
ATOM     95  O   UNL     1     -16.748  18.480   5.303  1.00  0.00    -0.744 OA
ENDBRANCH  89  92
ENDBRANCH  62  85
ENDBRANCH  36  37
ENDBRANCH  28  31
ENDBRANCH  26  27
ENDBRANCH  25  26
ENDBRANCH   1  25
TORSDOF 17
