REMARK SMILES C=CC[NH2+]CC(=O)N1CC[C@@H](CC(=O)NCCCCNC(=O)c2ccc(-c3c4nc(c(-c5cccc(S(=O)(=O)[O-])c5F)c5ccc([nH]5)c(-c5cccc(S(=O)(=O)[O-])c5F)c5nc(c(-c6cccc(S(=O)(=O)[O-])c6F)c6ccc3[nH]6)C=C5)C=C4)cc2)C1
REMARK SMILES IDX 16 1 15 2 13 3 14 4 12 6 11 7 8 8 9 9 86 10 10 11 6 12 7 13
REMARK SMILES IDX 5 14 4 15 3 18 2 19 1 20 17 21 18 22 19 23 20 24 21 25 22 27
REMARK SMILES IDX 23 28 24 29 85 30 25 31 84 32 26 33 27 34 28 35 78 36 29 37
REMARK SMILES IDX 83 38 77 39 79 40 30 41 82 42 76 43 75 44 31 46 63 47 43 48
REMARK SMILES IDX 62 49 44 50 47 51 61 52 80 53 45 54 46 55 60 57 81 58 48 59
REMARK SMILES IDX 32 60 33 61 41 62 34 63 36 64 42 65 35 66 37 67 38 68 39 69
REMARK SMILES IDX 40 70 64 71 65 72 73 73 66 74 68 75 74 76 67 77 69 78 70 79
REMARK SMILES IDX 71 80 72 81 49 82 50 83 58 84 51 85 53 86 59 87 52 88 54 89
REMARK SMILES IDX 55 90 56 91 57 92
REMARK H PARENT 15 5 4 16 4 17 20 26 79 45 47 56
REMARK Flexibility Score: inf
ROOT
ATOM      1  C   UNL     1      -2.125   1.127   3.145  1.00  0.00     0.116 C 
ENDROOT
BRANCH   1   2
ATOM      2  N   UNL     1      -3.278   0.668   3.902  1.00  0.00    -0.356 N 
ATOM      3  C   UNL     1      -3.896  -0.548   3.886  1.00  0.00     0.220 C 
ATOM      4  O   UNL     1      -4.951  -0.699   4.502  1.00  0.00    -0.275 OA
ATOM      5  H   UNL     1      -3.669   1.331   4.516  1.00  0.00     0.163 HD
BRANCH   3   6
ATOM      6  C   UNL     1      -3.271  -1.701   3.127  1.00  0.00     0.105 C 
BRANCH   6   7
ATOM      7  C   UNL     1      -4.115  -2.216   1.948  1.00  0.00     0.019 C 
ATOM      8  N   UNL     1      -3.671  -0.957  -0.029  1.00  0.00    -0.338 N 
ATOM      9  C   UNL     1      -2.660  -1.992   0.047  1.00  0.00     0.120 C 
ATOM     10  C   UNL     1      -4.678  -1.143   1.012  1.00  0.00     0.123 C 
ATOM     11  C   UNL     1      -3.249  -3.042   0.981  1.00  0.00     0.027 C 
BRANCH   8  12
ATOM     12  C   UNL     1      -3.780   0.083  -0.935  1.00  0.00     0.277 C 
ATOM     13  O   UNL     1      -4.627   0.968  -0.782  1.00  0.00    -0.268 OA
BRANCH  12  14
ATOM     14  C   UNL     1      -2.875   0.112  -2.175  1.00  0.00     0.362 C 
BRANCH  14  15
ATOM     15  N   UNL     1      -1.615   0.855  -2.007  1.00  0.00    -0.335 N 
ATOM     16  H   UNL     1      -1.286   1.146  -2.927  1.00  0.00     0.347 HD
ATOM     17  H   UNL     1      -1.813   1.651  -1.400  1.00  0.00     0.347 HD
BRANCH  15  18
ATOM     18  C   UNL     1      -0.574   0.077  -1.370  1.00  0.00     0.289 C 
BRANCH  18  19
ATOM     19  C   UNL     1       0.774   0.698  -1.534  1.00  0.00     0.025 C 
ATOM     20  C   UNL     1       1.691   0.737  -0.557  1.00  0.00     0.010 C 
ENDBRANCH  18  19
ENDBRANCH  15  18
ENDBRANCH  14  15
ENDBRANCH  12  14
ENDBRANCH   8  12
ENDBRANCH   6   7
ENDBRANCH   3   6
ENDBRANCH   1   2
BRANCH   1  21
ATOM     21  C   UNL     1      -2.550   1.711   1.804  1.00  0.00     0.023 C 
BRANCH  21  22
ATOM     22  C   UNL     1      -2.813   3.208   1.798  1.00  0.00     0.023 C 
BRANCH  22  23
ATOM     23  C   UNL     1      -1.569   4.060   1.978  1.00  0.00     0.116 C 
BRANCH  23  24
ATOM     24  N   UNL     1      -0.562   3.873   0.939  1.00  0.00    -0.352 N 
ATOM     25  C   UNL     1       0.203   4.828   0.308  1.00  0.00     0.251 C 
ATOM     26  H   UNL     1      -0.410   2.943   0.652  1.00  0.00     0.163 HD
ATOM     27  O   UNL     1       0.968   4.513  -0.600  1.00  0.00    -0.269 OA
BRANCH  25  28
ATOM     28  C   UNL     1       0.062   6.244   0.706  1.00  0.00     0.039 A 
ATOM     29  C   UNL     1      -0.115   7.214  -0.283  1.00  0.00     0.014 A 
ATOM     30  C   UNL     1       0.019   6.597   2.056  1.00  0.00     0.014 A 
ATOM     31  C   UNL     1      -0.430   8.523   0.088  1.00  0.00     0.010 A 
ATOM     32  C   UNL     1      -0.403   7.870   2.417  1.00  0.00     0.010 A 
ATOM     33  C   UNL     1      -0.629   8.850   1.440  1.00  0.00    -0.014 A 
BRANCH  33  34
ATOM     34  C   UNL     1      -1.093  10.199   1.858  1.00  0.00     0.031 A 
ATOM     35  C   UNL     1      -0.267  11.019   2.815  1.00  0.00     0.074 A 
ATOM     36  C   UNL     1      -2.311  10.634   1.475  1.00  0.00     0.049 A 
ATOM     37  N   UNL     1      -0.543  12.177   3.357  1.00  0.00    -0.248 NA
ATOM     38  C   UNL     1       1.017  10.447   3.259  1.00  0.00     0.031 C 
ATOM     39  C   UNL     1      -3.264   9.883   0.652  1.00  0.00     0.029 A 
ATOM     40  N   UNL     1      -2.973  11.805   1.755  1.00  0.00    -0.354 N 
ATOM     41  C   UNL     1       0.495  12.440   4.242  1.00  0.00     0.074 A 
ATOM     42  C   UNL     1       1.394  11.309   4.191  1.00  0.00     0.031 C 
ATOM     43  C   UNL     1      -4.379  10.613   0.487  1.00  0.00     0.029 A 
ATOM     44  C   UNL     1      -4.235  11.873   1.208  1.00  0.00     0.049 A 
ATOM     45  H   UNL     1      -2.582  12.528   2.296  1.00  0.00     0.167 HD
ATOM     46  C   UNL     1       0.704  13.541   5.001  1.00  0.00     0.034 A 
ATOM     47  C   UNL     1      -5.169  12.842   1.280  1.00  0.00     0.034 A 
ATOM     48  C   UNL     1      -0.136  14.705   4.972  1.00  0.00     0.049 A 
ATOM     49  C   UNL     1      -4.851  14.105   2.033  1.00  0.00     0.074 A 
ATOM     50  C   UNL     1       0.069  15.928   5.586  1.00  0.00     0.029 A 
ATOM     51  N   UNL     1      -1.337  14.796   4.289  1.00  0.00    -0.354 N 
ATOM     52  N   UNL     1      -3.765  14.419   2.696  1.00  0.00    -0.248 NA
ATOM     53  C   UNL     1      -5.869  15.167   2.013  1.00  0.00     0.031 C 
ATOM     54  C   UNL     1      -1.014  16.756   5.280  1.00  0.00     0.029 A 
ATOM     55  C   UNL     1      -1.888  16.052   4.468  1.00  0.00     0.049 A 
ATOM     56  H   UNL     1      -1.739  14.073   3.754  1.00  0.00     0.167 HD
ATOM     57  C   UNL     1      -3.955  15.721   3.145  1.00  0.00     0.074 A 
ATOM     58  C   UNL     1      -5.247  16.149   2.652  1.00  0.00     0.031 C 
ATOM     59  C   UNL     1      -3.144  16.485   3.916  1.00  0.00     0.034 A 
BRANCH  46  60
ATOM     60  C   UNL     1       1.934  13.582   5.867  1.00  0.00     0.023 A 
ATOM     61  C   UNL     1       3.197  13.765   5.269  1.00  0.00     0.012 A 
ATOM     62  C   UNL     1       1.833  13.530   7.271  1.00  0.00     0.148 A 
ATOM     63  C   UNL     1       4.345  13.872   6.051  1.00  0.00     0.002 A 
ATOM     64  C   UNL     1       2.977  13.679   8.047  1.00  0.00     0.091 A 
ATOM     65  F   UNL     1       0.625  13.336   7.819  1.00  0.00    -0.205 F 
ATOM     66  C   UNL     1       4.233  13.842   7.439  1.00  0.00     0.022 A 
BRANCH  64  67
ATOM     67  S   UNL     1       2.936  13.731   9.842  1.00  0.00     0.127 S 
ATOM     68  O   UNL     1       3.632  12.492  10.188  1.00  0.00    -0.237 OA
ATOM     69  O   UNL     1       3.688  14.953  10.130  1.00  0.00    -0.237 OA
ATOM     70  O   UNL     1       1.529  13.778  10.213  1.00  0.00    -0.744 OA
ENDBRANCH  64  67
ENDBRANCH  46  60
BRANCH  47  71
ATOM     71  C   UNL     1      -6.462  12.695   0.552  1.00  0.00     0.023 A 
ATOM     72  C   UNL     1      -6.709  13.497  -0.580  1.00  0.00     0.012 A 
ATOM     73  C   UNL     1      -7.441  11.772   0.963  1.00  0.00     0.148 A 
ATOM     74  C   UNL     1      -7.923  13.412  -1.264  1.00  0.00     0.002 A 
ATOM     75  C   UNL     1      -8.627  11.654   0.246  1.00  0.00     0.091 A 
ATOM     76  F   UNL     1      -7.200  11.028   2.052  1.00  0.00    -0.205 F 
ATOM     77  C   UNL     1      -8.878  12.485  -0.857  1.00  0.00     0.022 A 
BRANCH  75  78
ATOM     78  S   UNL     1      -9.847  10.393   0.635  1.00  0.00     0.127 S 
ATOM     79  O   UNL     1     -10.813  11.144   1.431  1.00  0.00    -0.237 OA
ATOM     80  O   UNL     1     -10.319   9.996  -0.692  1.00  0.00    -0.237 OA
ATOM     81  O   UNL     1      -9.104   9.354   1.337  1.00  0.00    -0.744 OA
ENDBRANCH  75  78
ENDBRANCH  47  71
BRANCH  59  82
ATOM     82  C   UNL     1      -3.610  17.874   4.257  1.00  0.00     0.023 A 
ATOM     83  C   UNL     1      -4.641  18.049   5.200  1.00  0.00     0.012 A 
ATOM     84  C   UNL     1      -2.975  19.005   3.706  1.00  0.00     0.148 A 
ATOM     85  C   UNL     1      -5.055  19.327   5.568  1.00  0.00     0.002 A 
ATOM     86  C   UNL     1      -3.362  20.276   4.113  1.00  0.00     0.091 A 
ATOM     87  F   UNL     1      -2.009  18.818   2.795  1.00  0.00    -0.205 F 
ATOM     88  C   UNL     1      -4.408  20.440   5.035  1.00  0.00     0.022 A 
BRANCH  86  89
ATOM     89  S   UNL     1      -2.515  21.756   3.548  1.00  0.00     0.127 S 
ATOM     90  O   UNL     1      -3.442  22.266   2.540  1.00  0.00    -0.237 OA
ATOM     91  O   UNL     1      -2.439  22.561   4.769  1.00  0.00    -0.237 OA
ATOM     92  O   UNL     1      -1.223  21.306   3.046  1.00  0.00    -0.744 OA
ENDBRANCH  86  89
ENDBRANCH  59  82
ENDBRANCH  33  34
ENDBRANCH  25  28
ENDBRANCH  23  24
ENDBRANCH  22  23
ENDBRANCH  21  22
ENDBRANCH   1  21
TORSDOF 20
