REMARK SMILES Cc1cc(C(=O)Nc2c(Cl)cc(Cl)cc2C(=O)NCCCCNC(=O)c2ccc(-c3c4nc(c(-c5cccc(S(=O)(=O)[O-])c5F)c5ccc([nH]5)c(-c5cccc(S(=O)(=O)[O-])c5F)c5nc(c(-c6cccc(S(=O)(=O)[O-])c6F)c6ccc3[nH]6)C=C5)C=C4)cc2)c(C)s1
REMARK SMILES IDX 21 1 20 2 19 3 18 4 16 5 17 6 15 8 8 9 9 10 10 11 11 12
REMARK SMILES IDX 14 13 12 14 13 15 7 16 5 17 6 18 4 20 1 21 2 22 3 23 91 24
REMARK SMILES IDX 89 25 90 26 22 27 23 28 24 29 25 31 26 32 27 33 88 34 28 35
REMARK SMILES IDX 87 36 29 37 30 38 31 39 81 40 32 41 86 42 80 43 82 44 33 45
REMARK SMILES IDX 85 46 79 47 78 48 34 50 66 51 46 52 65 53 47 54 50 55 64 56
REMARK SMILES IDX 83 57 48 58 49 59 63 61 84 62 51 63 35 64 36 65 44 66 37 67
REMARK SMILES IDX 39 68 45 69 38 70 40 71 41 72 42 73 43 74 67 75 68 76 76 77
REMARK SMILES IDX 69 78 71 79 77 80 70 81 72 82 73 83 74 84 75 85 52 86 53 87
REMARK SMILES IDX 61 88 54 89 56 90 62 91 55 92 57 93 58 94 59 95 60 96
REMARK H PARENT 18 7 7 19 23 30 82 49 50 60
REMARK Flexibility Score: inf
ROOT
ATOM      1  C   UNL     1       3.794  -4.778   3.018  1.00  0.00     0.023 C 
ENDROOT
BRANCH   1   2
ATOM      2  C   UNL     1       2.679  -3.788   2.689  1.00  0.00     0.023 C 
BRANCH   2   3
ATOM      3  C   UNL     1       1.698  -4.180   1.595  1.00  0.00     0.116 C 
BRANCH   3   4
ATOM      4  N   UNL     1       0.923  -5.379   1.792  1.00  0.00    -0.352 N 
ATOM      5  C   UNL     1      -0.268  -5.783   1.238  1.00  0.00     0.253 C 
ATOM      6  O   UNL     1      -0.672  -6.908   1.543  1.00  0.00    -0.269 OA
ATOM      7  H   UNL     1       1.314  -6.018   2.431  1.00  0.00     0.163 HD
BRANCH   5   8
ATOM      8  C   UNL     1      -1.158  -4.967   0.347  1.00  0.00     0.066 A 
ATOM      9  C   UNL     1      -0.807  -4.129  -0.733  1.00  0.00     0.073 A 
ATOM     10  C   UNL     1      -1.831  -3.604  -1.565  1.00  0.00     0.066 A 
ATOM     11  Cl  UNL     1      -1.477  -2.726  -3.020  1.00  0.00    -0.082 Cl
ATOM     12  C   UNL     1      -3.179  -3.783  -1.257  1.00  0.00     0.043 A 
ATOM     13  C   UNL     1      -2.533  -5.134   0.633  1.00  0.00     0.036 A 
ATOM     14  C   UNL     1      -3.522  -4.527  -0.141  1.00  0.00     0.043 A 
ATOM     15  Cl  UNL     1      -5.179  -4.710   0.279  1.00  0.00    -0.084 Cl
BRANCH   9  16
ATOM     16  N   UNL     1       0.526  -3.816  -1.023  1.00  0.00    -0.320 N 
ATOM     17  C   UNL     1       1.164  -2.577  -0.999  1.00  0.00     0.256 C 
ATOM     18  O   UNL     1       2.347  -2.584  -1.349  1.00  0.00    -0.269 OA
ATOM     19  H   UNL     1       1.093  -4.578  -1.280  1.00  0.00     0.170 HD
BRANCH  17  20
ATOM     20  C   UNL     1       0.521  -1.347  -0.465  1.00  0.00     0.054 A 
ATOM     21  C   UNL     1      -2.561   0.678   0.410  1.00  0.00     0.056 C 
ATOM     22  C   UNL     1      -1.189   0.148   0.180  1.00  0.00     0.003 A 
ATOM     23  C   UNL     1      -0.799  -1.168   0.082  1.00  0.00     0.029 A 
ATOM     24  S   UNL     1       0.141   1.181   0.005  1.00  0.00    -0.145 S 
ATOM     25  C   UNL     1       1.203  -0.136  -0.313  1.00  0.00     0.014 A 
ATOM     26  C   UNL     1       2.665   0.173  -0.416  1.00  0.00     0.057 C 
ENDBRANCH  17  20
ENDBRANCH   9  16
ENDBRANCH   5   8
ENDBRANCH   3   4
ENDBRANCH   2   3
ENDBRANCH   1   2
BRANCH   1  27
ATOM     27  C   UNL     1       4.506  -5.460   1.852  1.00  0.00     0.116 C 
BRANCH  27  28
ATOM     28  N   UNL     1       5.174  -4.555   0.925  1.00  0.00    -0.352 N 
ATOM     29  C   UNL     1       6.503  -4.434   0.586  1.00  0.00     0.251 C 
ATOM     30  H   UNL     1       4.574  -3.925   0.464  1.00  0.00     0.163 HD
ATOM     31  O   UNL     1       6.842  -3.555  -0.208  1.00  0.00    -0.269 OA
BRANCH  29  32
ATOM     32  C   UNL     1       7.543  -5.300   1.193  1.00  0.00     0.039 A 
ATOM     33  C   UNL     1       8.739  -4.709   1.612  1.00  0.00     0.014 A 
ATOM     34  C   UNL     1       7.362  -6.674   1.360  1.00  0.00     0.014 A 
ATOM     35  C   UNL     1       9.697  -5.470   2.290  1.00  0.00     0.010 A 
ATOM     36  C   UNL     1       8.273  -7.410   2.120  1.00  0.00     0.010 A 
ATOM     37  C   UNL     1       9.447  -6.816   2.606  1.00  0.00    -0.014 A 
BRANCH  37  38
ATOM     38  C   UNL     1      10.380  -7.587   3.476  1.00  0.00     0.031 A 
ATOM     39  C   UNL     1      11.051  -8.841   2.977  1.00  0.00     0.074 A 
ATOM     40  C   UNL     1      10.566  -7.197   4.755  1.00  0.00     0.049 A 
ATOM     41  N   UNL     1      11.868  -9.645   3.610  1.00  0.00    -0.248 NA
ATOM     42  C   UNL     1      10.746  -9.265   1.601  1.00  0.00     0.031 C 
ATOM     43  C   UNL     1       9.898  -6.063   5.400  1.00  0.00     0.029 A 
ATOM     44  N   UNL     1      11.353  -7.722   5.751  1.00  0.00    -0.354 N 
ATOM     45  C   UNL     1      12.157 -10.675   2.722  1.00  0.00     0.074 A 
ATOM     46  C   UNL     1      11.391 -10.421   1.521  1.00  0.00     0.031 C 
ATOM     47  C   UNL     1      10.309  -5.973   6.675  1.00  0.00     0.029 A 
ATOM     48  C   UNL     1      11.250  -7.053   6.950  1.00  0.00     0.049 A 
ATOM     49  H   UNL     1      11.937  -8.504   5.619  1.00  0.00     0.167 HD
ATOM     50  C   UNL     1      13.013 -11.715   2.871  1.00  0.00     0.034 A 
ATOM     51  C   UNL     1      11.844  -7.282   8.138  1.00  0.00     0.034 A 
ATOM     52  C   UNL     1      13.808 -11.947   4.047  1.00  0.00     0.049 A 
ATOM     53  C   UNL     1      12.835  -8.409   8.256  1.00  0.00     0.074 A 
ATOM     54  C   UNL     1      14.753 -12.935   4.266  1.00  0.00     0.029 A 
ATOM     55  N   UNL     1      13.757 -11.183   5.202  1.00  0.00    -0.354 N 
ATOM     56  N   UNL     1      13.214  -9.273   7.346  1.00  0.00    -0.248 NA
ATOM     57  C   UNL     1      13.512  -8.565   9.552  1.00  0.00     0.031 C 
ATOM     58  C   UNL     1      15.267 -12.773   5.557  1.00  0.00     0.029 A 
ATOM     59  C   UNL     1      14.656 -11.674   6.135  1.00  0.00     0.049 A 
ATOM     60  H   UNL     1      13.169 -10.406   5.339  1.00  0.00     0.167 HD
ATOM     61  C   UNL     1      14.194 -10.053   7.948  1.00  0.00     0.074 A 
ATOM     62  C   UNL     1      14.375  -9.537   9.289  1.00  0.00     0.031 C 
ATOM     63  C   UNL     1      14.868 -11.117   7.446  1.00  0.00     0.034 A 
BRANCH  50  64
ATOM     64  C   UNL     1      13.200 -12.642   1.697  1.00  0.00     0.023 A 
ATOM     65  C   UNL     1      13.910 -12.182   0.569  1.00  0.00     0.012 A 
ATOM     66  C   UNL     1      12.753 -13.977   1.735  1.00  0.00     0.148 A 
ATOM     67  C   UNL     1      14.148 -13.025  -0.516  1.00  0.00     0.002 A 
ATOM     68  C   UNL     1      13.030 -14.825   0.667  1.00  0.00     0.091 A 
ATOM     69  F   UNL     1      12.067 -14.392   2.809  1.00  0.00    -0.205 F 
ATOM     70  C   UNL     1      13.718 -14.348  -0.462  1.00  0.00     0.022 A 
BRANCH  68  71
ATOM     71  S   UNL     1      12.590 -16.567   0.664  1.00  0.00     0.127 S 
ATOM     72  O   UNL     1      11.574 -16.612  -0.386  1.00  0.00    -0.237 OA
ATOM     73  O   UNL     1      13.860 -17.203   0.313  1.00  0.00    -0.237 OA
ATOM     74  O   UNL     1      12.110 -16.864   2.006  1.00  0.00    -0.744 OA
ENDBRANCH  68  71
ENDBRANCH  50  64
BRANCH  51  75
ATOM     75  C   UNL     1      11.570  -6.386   9.299  1.00  0.00     0.023 A 
ATOM     76  C   UNL     1      12.585  -5.532   9.773  1.00  0.00     0.012 A 
ATOM     77  C   UNL     1      10.313  -6.371   9.932  1.00  0.00     0.148 A 
ATOM     78  C   UNL     1      12.368  -4.713  10.882  1.00  0.00     0.002 A 
ATOM     79  C   UNL     1      10.084  -5.509  11.000  1.00  0.00     0.091 A 
ATOM     80  F   UNL     1       9.361  -7.201   9.481  1.00  0.00    -0.205 F 
ATOM     81  C   UNL     1      11.116  -4.694  11.489  1.00  0.00     0.022 A 
BRANCH  79  82
ATOM     82  S   UNL     1       8.459  -5.327  11.744  1.00  0.00     0.127 S 
ATOM     83  O   UNL     1       8.602  -6.103  12.972  1.00  0.00    -0.237 OA
ATOM     84  O   UNL     1       8.370  -3.878  11.936  1.00  0.00    -0.237 OA
ATOM     85  O   UNL     1       7.524  -5.853  10.759  1.00  0.00    -0.744 OA
ENDBRANCH  79  82
ENDBRANCH  51  75
BRANCH  63  86
ATOM     86  C   UNL     1      15.884 -11.781   8.338  1.00  0.00     0.023 A 
ATOM     87  C   UNL     1      15.453 -12.548   9.438  1.00  0.00     0.012 A 
ATOM     88  C   UNL     1      17.262 -11.686   8.059  1.00  0.00     0.148 A 
ATOM     89  C   UNL     1      16.377 -13.177  10.271  1.00  0.00     0.002 A 
ATOM     90  C   UNL     1      18.175 -12.356   8.866  1.00  0.00     0.091 A 
ATOM     91  F   UNL     1      17.656 -10.936   7.020  1.00  0.00    -0.205 F 
ATOM     92  C   UNL     1      17.736 -13.090   9.979  1.00  0.00     0.022 A 
BRANCH  90  93
ATOM     93  S   UNL     1      19.936 -12.374   8.510  1.00  0.00     0.127 S 
ATOM     94  O   UNL     1      20.452 -11.444   9.512  1.00  0.00    -0.237 OA
ATOM     95  O   UNL     1      20.287 -13.776   8.741  1.00  0.00    -0.237 OA
ATOM     96  O   UNL     1      20.067 -11.943   7.125  1.00  0.00    -0.744 OA
ENDBRANCH  90  93
ENDBRANCH  63  86
ENDBRANCH  37  38
ENDBRANCH  29  32
ENDBRANCH  27  28
ENDBRANCH   1  27
TORSDOF 16
