REMARK SMILES Cc1cc([N+](=O)[O-])ccc1NC(=O)[C@@H]1[C@@H](C(=O)NCCCCNC(=O)c2ccc(-c3c4nc(c(-c5cccc(S(=O)(=O)[O-])c5F)c5ccc([nH]5)c(-c5cccc(S(=O)(=O)[O-])c5F)c5nc(c(-c6cccc(S(=O)(=O)[O-])c6F)c6ccc3[nH]6)C=C5)C=C4)cc2)[C@H]2C=C[C@@H]1C2
REMARK SMILES IDX 20 1 19 2 18 3 16 4 17 5 15 7 14 8 92 9 89 10 91 11 93 12
REMARK SMILES IDX 90 13 12 14 11 15 13 17 10 18 1 19 2 20 3 21 4 22 9 23 8 24
REMARK SMILES IDX 5 25 6 26 7 27 21 28 22 29 23 30 24 31 25 33 26 34 27 35
REMARK SMILES IDX 88 36 28 37 87 38 29 39 30 40 31 41 81 42 32 43 86 44 80 45
REMARK SMILES IDX 82 46 33 47 85 48 79 49 78 50 34 52 66 53 46 54 65 55 47 56
REMARK SMILES IDX 50 57 64 58 83 59 48 60 49 61 63 63 84 64 51 65 35 66 36 67
REMARK SMILES IDX 44 68 37 69 39 70 45 71 38 72 40 73 41 74 42 75 43 76 67 77
REMARK SMILES IDX 68 78 76 79 69 80 71 81 77 82 70 83 72 84 73 85 74 86 75 87
REMARK SMILES IDX 52 88 53 89 61 90 54 91 56 92 62 93 55 94 57 95 58 96 59 97
REMARK SMILES IDX 60 98
REMARK H PARENT 18 6 11 16 23 32 82 51 50 62
REMARK Flexibility Score: inf
ROOT
ATOM      1  C   UNL     1      -2.835   9.274   0.243  1.00  0.00     0.023 C 
ENDROOT
BRANCH   1   2
ATOM      2  C   UNL     1      -3.317   7.864   0.589  1.00  0.00     0.116 C 
BRANCH   2   3
ATOM      3  N   UNL     1      -3.227   6.939  -0.524  1.00  0.00    -0.356 N 
ATOM      4  C   UNL     1      -2.593   5.741  -0.638  1.00  0.00     0.224 C 
ATOM      5  O   UNL     1      -2.619   5.199  -1.746  1.00  0.00    -0.275 OA
ATOM      6  H   UNL     1      -3.705   7.227  -1.335  1.00  0.00     0.163 HD
BRANCH   4   7
ATOM      7  C   UNL     1      -1.808   5.155   0.530  1.00  0.00     0.098 C 
ATOM      8  C   UNL     1      -1.342   3.673   0.224  1.00  0.00     0.099 C 
ATOM      9  C   UNL     1      -1.800   2.912   1.497  1.00  0.00     0.025 C 
ATOM     10  C   UNL     1      -2.613   4.958   1.844  1.00  0.00     0.025 C 
ATOM     11  C   UNL     1      -3.305   2.807   1.421  1.00  0.00    -0.027 C 
ATOM     12  C   UNL     1      -1.692   3.983   2.579  1.00  0.00     0.017 C 
ATOM     13  C   UNL     1      -3.792   4.042   1.611  1.00  0.00    -0.027 C 
BRANCH   8  14
ATOM     14  C   UNL     1       0.142   3.499  -0.041  1.00  0.00     0.228 C 
ATOM     15  N   UNL     1       0.695   2.268  -0.295  1.00  0.00    -0.326 N 
ATOM     16  H   UNL     1       1.667   2.304  -0.453  1.00  0.00     0.169 HD
ATOM     17  O   UNL     1       0.920   4.458   0.004  1.00  0.00    -0.274 OA
BRANCH  15  18
ATOM     18  C   UNL     1       0.167   0.959  -0.380  1.00  0.00     0.044 A 
ATOM     19  C   UNL     1       2.497  -0.060   0.105  1.00  0.00     0.047 C 
ATOM     20  C   UNL     1       1.006  -0.145  -0.101  1.00  0.00    -0.021 A 
ATOM     21  C   UNL     1       0.442  -1.438  -0.009  1.00  0.00     0.091 A 
ATOM     22  C   UNL     1      -0.927  -1.637  -0.210  1.00  0.00     0.269 A 
ATOM     23  C   UNL     1      -1.175   0.704  -0.699  1.00  0.00     0.033 A 
ATOM     24  C   UNL     1      -1.735  -0.573  -0.589  1.00  0.00     0.088 A 
BRANCH  22  25
ATOM     25  N   UNL     1      -1.513  -2.968  -0.022  1.00  0.00     0.062 N 
ATOM     26  O   UNL     1      -0.735  -3.923   0.118  1.00  0.00    -0.258 OA
ATOM     27  O   UNL     1      -2.748  -3.057  -0.000  1.00  0.00    -0.258 OA
ENDBRANCH  22  25
ENDBRANCH  15  18
ENDBRANCH   8  14
ENDBRANCH   4   7
ENDBRANCH   2   3
ENDBRANCH   1   2
BRANCH   1  28
ATOM     28  C   UNL     1      -3.447   9.905  -1.005  1.00  0.00     0.023 C 
BRANCH  28  29
ATOM     29  C   UNL     1      -4.961  10.029  -0.982  1.00  0.00     0.116 C 
BRANCH  29  30
ATOM     30  N   UNL     1      -5.449  11.178  -0.246  1.00  0.00    -0.352 N 
ATOM     31  C   UNL     1      -6.739  11.649  -0.086  1.00  0.00     0.251 C 
ATOM     32  H   UNL     1      -4.754  11.705   0.211  1.00  0.00     0.163 HD
ATOM     33  O   UNL     1      -6.877  12.774   0.390  1.00  0.00    -0.269 OA
BRANCH  31  34
ATOM     34  C   UNL     1      -7.923  10.781  -0.345  1.00  0.00     0.039 A 
ATOM     35  C   UNL     1      -9.045  10.941   0.486  1.00  0.00     0.014 A 
ATOM     36  C   UNL     1      -7.884   9.707  -1.228  1.00  0.00     0.014 A 
ATOM     37  C   UNL     1      -9.966   9.903   0.626  1.00  0.00     0.010 A 
ATOM     38  C   UNL     1      -8.746   8.649  -1.045  1.00  0.00     0.010 A 
ATOM     39  C   UNL     1      -9.727   8.718  -0.055  1.00  0.00    -0.014 A 
BRANCH  39  40
ATOM     40  C   UNL     1     -10.340   7.438   0.256  1.00  0.00     0.031 A 
ATOM     41  C   UNL     1     -11.525   6.967  -0.473  1.00  0.00     0.074 A 
ATOM     42  C   UNL     1      -9.603   6.595   1.012  1.00  0.00     0.049 A 
ATOM     43  N   UNL     1     -12.249   5.963  -0.115  1.00  0.00    -0.248 NA
ATOM     44  C   UNL     1     -11.993   7.628  -1.680  1.00  0.00     0.031 C 
ATOM     45  C   UNL     1      -9.696   5.145   1.088  1.00  0.00     0.029 A 
ATOM     46  N   UNL     1      -8.703   6.936   2.027  1.00  0.00    -0.354 N 
ATOM     47  C   UNL     1     -13.066   5.652  -1.184  1.00  0.00     0.074 A 
ATOM     48  C   UNL     1     -12.948   6.782  -2.075  1.00  0.00     0.031 C 
ATOM     49  C   UNL     1      -9.121   4.740   2.233  1.00  0.00     0.029 A 
ATOM     50  C   UNL     1      -8.832   5.938   3.006  1.00  0.00     0.049 A 
ATOM     51  H   UNL     1      -8.102   7.715   2.050  1.00  0.00     0.167 HD
ATOM     52  C   UNL     1     -13.597   4.396  -1.263  1.00  0.00     0.034 A 
ATOM     53  C   UNL     1      -9.279   6.192   4.273  1.00  0.00     0.034 A 
ATOM     54  C   UNL     1     -13.271   3.617  -0.054  1.00  0.00     0.049 A 
ATOM     55  C   UNL     1     -10.534   5.411   4.623  1.00  0.00     0.074 A 
ATOM     56  C   UNL     1     -12.304   2.660   0.213  1.00  0.00     0.029 A 
ATOM     57  N   UNL     1     -13.797   3.993   1.178  1.00  0.00    -0.354 N 
ATOM     58  N   UNL     1     -11.217   4.702   3.768  1.00  0.00    -0.248 NA
ATOM     59  C   UNL     1     -11.140   5.400   5.952  1.00  0.00     0.031 C 
ATOM     60  C   UNL     1     -12.175   2.547   1.623  1.00  0.00     0.029 A 
ATOM     61  C   UNL     1     -13.085   3.406   2.215  1.00  0.00     0.049 A 
ATOM     62  H   UNL     1     -14.569   4.592   1.298  1.00  0.00     0.167 HD
ATOM     63  C   UNL     1     -12.389   4.286   4.340  1.00  0.00     0.074 A 
ATOM     64  C   UNL     1     -12.250   4.671   5.734  1.00  0.00     0.031 C 
ATOM     65  C   UNL     1     -13.400   3.730   3.604  1.00  0.00     0.034 A 
BRANCH  52  66
ATOM     66  C   UNL     1     -14.107   3.737  -2.544  1.00  0.00     0.023 A 
ATOM     67  C   UNL     1     -14.178   2.324  -2.559  1.00  0.00     0.012 A 
ATOM     68  C   UNL     1     -14.447   4.372  -3.761  1.00  0.00     0.148 A 
ATOM     69  C   UNL     1     -14.446   1.589  -3.721  1.00  0.00     0.002 A 
ATOM     70  C   UNL     1     -14.653   3.643  -4.939  1.00  0.00     0.091 A 
ATOM     71  F   UNL     1     -14.673   5.686  -3.789  1.00  0.00    -0.205 F 
ATOM     72  C   UNL     1     -14.645   2.248  -4.923  1.00  0.00     0.022 A 
BRANCH  70  73
ATOM     73  S   UNL     1     -14.864   4.438  -6.544  1.00  0.00     0.127 S 
ATOM     74  O   UNL     1     -13.881   3.733  -7.370  1.00  0.00    -0.237 OA
ATOM     75  O   UNL     1     -16.256   4.133  -6.864  1.00  0.00    -0.237 OA
ATOM     76  O   UNL     1     -14.562   5.850  -6.339  1.00  0.00    -0.744 OA
ENDBRANCH  70  73
ENDBRANCH  52  66
BRANCH  53  77
ATOM     77  C   UNL     1      -8.967   7.575   4.747  1.00  0.00     0.023 A 
ATOM     78  C   UNL     1      -7.598   7.920   4.860  1.00  0.00     0.012 A 
ATOM     79  C   UNL     1      -9.920   8.607   4.676  1.00  0.00     0.148 A 
ATOM     80  C   UNL     1      -7.181   9.248   4.752  1.00  0.00     0.002 A 
ATOM     81  C   UNL     1      -9.495   9.932   4.576  1.00  0.00     0.091 A 
ATOM     82  F   UNL     1     -11.218   8.281   4.623  1.00  0.00    -0.205 F 
ATOM     83  C   UNL     1      -8.128  10.250   4.570  1.00  0.00     0.022 A 
BRANCH  81  84
ATOM     84  S   UNL     1     -10.671  11.268   4.316  1.00  0.00     0.127 S 
ATOM     85  O   UNL     1     -10.952  11.681   5.687  1.00  0.00    -0.237 OA
ATOM     86  O   UNL     1      -9.898  12.229   3.531  1.00  0.00    -0.237 OA
ATOM     87  O   UNL     1     -11.769  10.653   3.584  1.00  0.00    -0.744 OA
ENDBRANCH  81  84
ENDBRANCH  53  77
BRANCH  65  88
ATOM     88  C   UNL     1     -14.795   3.460   4.126  1.00  0.00     0.023 A 
ATOM     89  C   UNL     1     -15.364   4.217   5.168  1.00  0.00     0.012 A 
ATOM     90  C   UNL     1     -15.642   2.527   3.475  1.00  0.00     0.148 A 
ATOM     91  C   UNL     1     -16.681   4.015   5.594  1.00  0.00     0.002 A 
ATOM     92  C   UNL     1     -16.983   2.405   3.833  1.00  0.00     0.091 A 
ATOM     93  F   UNL     1     -15.145   1.736   2.512  1.00  0.00    -0.205 F 
ATOM     94  C   UNL     1     -17.498   3.124   4.913  1.00  0.00     0.022 A 
BRANCH  92  95
ATOM     95  S   UNL     1     -18.121   1.439   2.829  1.00  0.00     0.127 S 
ATOM     96  O   UNL     1     -18.060   0.129   3.472  1.00  0.00    -0.237 OA
ATOM     97  O   UNL     1     -19.389   2.148   3.014  1.00  0.00    -0.237 OA
ATOM     98  O   UNL     1     -17.589   1.519   1.475  1.00  0.00    -0.744 OA
ENDBRANCH  92  95
ENDBRANCH  65  88
ENDBRANCH  39  40
ENDBRANCH  31  34
ENDBRANCH  29  30
ENDBRANCH  28  29
ENDBRANCH   1  28
TORSDOF 17
