REMARK SMILES O=C(NCCCCNC(=O)[C@@H](c1ccsc1)[NH+]1CCC(Oc2cccnc2)CC1)c1ccc(-c2c3nc(c(-c4cccc(S(=O)(=O)[O-])c4F)c4ccc([nH]4)c(-c4cccc(S(=O)(=O)[O-])c4F)c4nc(c(-c5cccc(S(=O)(=O)[O-])c5F)c5ccc2[nH]5)C=C4)C=C3)cc1
REMARK SMILES IDX 5 1 4 2 3 3 1 4 2 5 30 7 31 8 92 9 32 10 91 11 33 12 34 13
REMARK SMILES IDX 35 14 85 15 36 16 90 17 84 18 86 19 37 20 89 21 83 22 82 23
REMARK SMILES IDX 38 25 70 26 50 27 69 28 51 29 54 30 68 31 87 32 52 33 53 34
REMARK SMILES IDX 67 36 88 37 55 38 39 39 40 40 48 41 41 42 43 43 49 44 42 45
REMARK SMILES IDX 44 46 45 47 46 48 47 49 71 50 72 51 80 52 73 53 75 54 81 55
REMARK SMILES IDX 74 56 76 57 77 58 78 59 79 60 56 61 57 62 65 63 58 64 60 65
REMARK SMILES IDX 66 66 59 67 61 68 62 69 63 70 64 71 6 72 7 73 8 74 9 75
REMARK SMILES IDX 10 77 11 78 12 79 13 80 16 81 14 82 15 83 17 84 18 85 29 86
REMARK SMILES IDX 19 88 28 89 20 90 21 91 22 92 23 93 27 94 24 95 26 96 25 97
REMARK H PARENT 3 6 86 24 54 35 8 76 17 87
REMARK Flexibility Score: inf
ROOT
ATOM      1  C   UNL     1       4.845  -2.365   0.672  1.00  0.00     0.023 C 
ENDROOT
BRANCH   1   2
ATOM      2  C   UNL     1       4.521  -0.997   0.083  1.00  0.00     0.116 C 
BRANCH   2   3
ATOM      3  N   UNL     1       3.112  -0.826  -0.246  1.00  0.00    -0.352 N 
ATOM      4  O   UNL     1       1.113   0.235  -0.260  1.00  0.00    -0.269 OA
ATOM      5  C   UNL     1       2.316   0.275  -0.020  1.00  0.00     0.251 C 
ATOM      6  H   UNL     1       2.675  -1.591  -0.685  1.00  0.00     0.163 HD
BRANCH   5   7
ATOM      7  C   UNL     1       2.938   1.484   0.554  1.00  0.00     0.039 A 
ATOM      8  C   UNL     1       4.107   1.996  -0.013  1.00  0.00     0.014 A 
ATOM      9  C   UNL     1       2.408   2.042   1.719  1.00  0.00     0.014 A 
ATOM     10  C   UNL     1       4.841   2.947   0.682  1.00  0.00     0.010 A 
ATOM     11  C   UNL     1       3.104   3.065   2.367  1.00  0.00     0.010 A 
ATOM     12  C   UNL     1       4.352   3.490   1.883  1.00  0.00    -0.014 A 
BRANCH  12  13
ATOM     13  C   UNL     1       5.155   4.520   2.590  1.00  0.00     0.031 A 
ATOM     14  C   UNL     1       5.705   4.274   3.969  1.00  0.00     0.074 A 
ATOM     15  C   UNL     1       5.410   5.682   1.957  1.00  0.00     0.049 A 
ATOM     16  N   UNL     1       6.464   5.051   4.700  1.00  0.00    -0.248 NA
ATOM     17  C   UNL     1       5.355   3.001   4.621  1.00  0.00     0.031 C 
ATOM     18  C   UNL     1       4.898   6.046   0.634  1.00  0.00     0.029 A 
ATOM     19  N   UNL     1       6.170   6.761   2.328  1.00  0.00    -0.354 N 
ATOM     20  C   UNL     1       6.635   4.393   5.912  1.00  0.00     0.074 A 
ATOM     21  C   UNL     1       5.904   3.147   5.820  1.00  0.00     0.031 C 
ATOM     22  C   UNL     1       5.396   7.239   0.283  1.00  0.00     0.029 A 
ATOM     23  C   UNL     1       6.217   7.750   1.374  1.00  0.00     0.049 A 
ATOM     24  H   UNL     1       6.636   6.821   3.193  1.00  0.00     0.167 HD
ATOM     25  C   UNL     1       7.347   4.784   6.997  1.00  0.00     0.034 A 
ATOM     26  C   UNL     1       6.848   8.939   1.376  1.00  0.00     0.034 A 
ATOM     27  C   UNL     1       8.122   5.995   7.059  1.00  0.00     0.049 A 
ATOM     28  C   UNL     1       7.678   9.318   2.568  1.00  0.00     0.074 A 
ATOM     29  C   UNL     1       8.935   6.446   8.085  1.00  0.00     0.029 A 
ATOM     30  N   UNL     1       8.184   6.949   6.054  1.00  0.00    -0.354 N 
ATOM     31  N   UNL     1       7.922   8.626   3.654  1.00  0.00    -0.248 NA
ATOM     32  C   UNL     1       8.338  10.629   2.525  1.00  0.00     0.031 C 
ATOM     33  C   UNL     1       9.481   7.676   7.704  1.00  0.00     0.029 A 
ATOM     34  C   UNL     1       9.018   7.987   6.436  1.00  0.00     0.049 A 
ATOM     35  H   UNL     1       7.706   6.896   5.196  1.00  0.00     0.167 HD
ATOM     36  C   UNL     1       8.786   9.404   4.413  1.00  0.00     0.074 A 
ATOM     37  C   UNL     1       9.041  10.610   3.649  1.00  0.00     0.031 C 
ATOM     38  C   UNL     1       9.306   9.153   5.639  1.00  0.00     0.034 A 
BRANCH  25  39
ATOM     39  C   UNL     1       7.356   3.876   8.200  1.00  0.00     0.023 A 
ATOM     40  C   UNL     1       8.122   2.693   8.175  1.00  0.00     0.012 A 
ATOM     41  C   UNL     1       6.662   4.224   9.376  1.00  0.00     0.148 A 
ATOM     42  C   UNL     1       8.175   1.858   9.291  1.00  0.00     0.002 A 
ATOM     43  C   UNL     1       6.750   3.405  10.497  1.00  0.00     0.091 A 
ATOM     44  F   UNL     1       5.917   5.339   9.375  1.00  0.00    -0.205 F 
ATOM     45  C   UNL     1       7.499   2.218  10.454  1.00  0.00     0.022 A 
BRANCH  43  46
ATOM     46  S   UNL     1       5.970   3.833  12.059  1.00  0.00     0.127 S 
ATOM     47  O   UNL     1       4.774   2.994  12.032  1.00  0.00    -0.237 OA
ATOM     48  O   UNL     1       6.979   3.423  13.037  1.00  0.00    -0.237 OA
ATOM     49  O   UNL     1       5.739   5.269  12.002  1.00  0.00    -0.744 OA
ENDBRANCH  43  46
ENDBRANCH  25  39
BRANCH  26  50
ATOM     50  C   UNL     1       6.774   9.810   0.171  1.00  0.00     0.023 A 
ATOM     51  C   UNL     1       7.919   9.974  -0.632  1.00  0.00     0.012 A 
ATOM     52  C   UNL     1       5.564  10.413  -0.225  1.00  0.00     0.148 A 
ATOM     53  C   UNL     1       7.865  10.735  -1.799  1.00  0.00     0.002 A 
ATOM     54  C   UNL     1       5.503  11.120  -1.420  1.00  0.00     0.091 A 
ATOM     55  F   UNL     1       4.490  10.261   0.562  1.00  0.00    -0.205 F 
ATOM     56  C   UNL     1       6.655  11.295  -2.201  1.00  0.00     0.022 A 
BRANCH  54  57
ATOM     57  S   UNL     1       3.951  11.738  -2.083  1.00  0.00     0.127 S 
ATOM     58  O   UNL     1       4.056  13.168  -1.807  1.00  0.00    -0.237 OA
ATOM     59  O   UNL     1       4.055  11.372  -3.497  1.00  0.00    -0.237 OA
ATOM     60  O   UNL     1       2.909  11.022  -1.359  1.00  0.00    -0.744 OA
ENDBRANCH  54  57
ENDBRANCH  26  50
BRANCH  38  61
ATOM     61  C   UNL     1      10.226  10.189   6.224  1.00  0.00     0.023 A 
ATOM     62  C   UNL     1       9.691  11.391   6.728  1.00  0.00     0.012 A 
ATOM     63  C   UNL     1      11.610   9.950   6.326  1.00  0.00     0.148 A 
ATOM     64  C   UNL     1      10.524  12.353   7.297  1.00  0.00     0.002 A 
ATOM     65  C   UNL     1      12.428  10.895   6.933  1.00  0.00     0.091 A 
ATOM     66  F   UNL     1      12.104   8.812   5.816  1.00  0.00    -0.205 F 
ATOM     67  C   UNL     1      11.890  12.101   7.410  1.00  0.00     0.022 A 
BRANCH  65  68
ATOM     68  S   UNL     1      14.181  10.602   7.194  1.00  0.00     0.127 S 
ATOM     69  O   UNL     1      14.777  11.335   6.080  1.00  0.00    -0.237 OA
ATOM     70  O   UNL     1      14.411  11.201   8.510  1.00  0.00    -0.237 OA
ATOM     71  O   UNL     1      14.345   9.154   7.161  1.00  0.00    -0.744 OA
ENDBRANCH  65  68
ENDBRANCH  38  61
ENDBRANCH  12  13
ENDBRANCH   5   7
ENDBRANCH   2   3
ENDBRANCH   1   2
BRANCH   1  72
ATOM     72  C   UNL     1       4.499  -3.549  -0.227  1.00  0.00     0.023 C 
BRANCH  72  73
ATOM     73  C   UNL     1       5.239  -3.553  -1.561  1.00  0.00     0.116 C 
BRANCH  73  74
ATOM     74  N   UNL     1       6.617  -3.973  -1.404  1.00  0.00    -0.351 N 
ATOM     75  C   UNL     1       7.275  -5.044  -1.939  1.00  0.00     0.283 C 
ATOM     76  H   UNL     1       7.164  -3.396  -0.823  1.00  0.00     0.163 HD
ATOM     77  O   UNL     1       8.482  -5.144  -1.680  1.00  0.00    -0.268 OA
BRANCH  75  78
ATOM     78  C   UNL     1       6.583  -6.118  -2.831  1.00  0.00     0.306 C 
BRANCH  78  79
ATOM     79  C   UNL     1       5.788  -7.071  -1.943  1.00  0.00     0.030 A 
ATOM     80  C   UNL     1       4.447  -6.892  -1.452  1.00  0.00     0.022 A 
ATOM     81  C   UNL     1       6.300  -8.268  -1.466  1.00  0.00     0.075 A 
ATOM     82  C   UNL     1       4.051  -7.878  -0.576  1.00  0.00     0.065 A 
ATOM     83  S   UNL     1       5.237  -9.092  -0.411  1.00  0.00    -0.152 S 
ENDBRANCH  78  79
BRANCH  78  84
ATOM     84  N   UNL     1       5.758  -5.570  -3.952  1.00  0.00    -0.321 N 
ATOM     85  C   UNL     1       6.436  -4.461  -4.654  1.00  0.00     0.267 C 
ATOM     86  C   UNL     1       5.448  -6.633  -4.933  1.00  0.00     0.267 C 
ATOM     87  H   UNL     1       4.899  -5.211  -3.535  1.00  0.00     0.349 HD
ATOM     88  C   UNL     1       5.472  -3.828  -5.655  1.00  0.00     0.107 C 
ATOM     89  C   UNL     1       4.491  -6.129  -6.015  1.00  0.00     0.107 C 
ATOM     90  C   UNL     1       5.019  -4.856  -6.687  1.00  0.00     0.184 C 
BRANCH  90  91
ATOM     91  O   UNL     1       4.170  -4.278  -7.699  1.00  0.00    -0.488 OA
BRANCH  91  92
ATOM     92  C   UNL     1       2.845  -4.196  -7.392  1.00  0.00     0.138 A 
ATOM     93  C   UNL     1       2.331  -3.168  -6.612  1.00  0.00     0.050 A 
ATOM     94  C   UNL     1       1.955  -5.107  -7.944  1.00  0.00     0.157 A 
ATOM     95  C   UNL     1       0.964  -3.134  -6.348  1.00  0.00     0.024 A 
ATOM     96  N   UNL     1       0.621  -5.102  -7.708  1.00  0.00    -0.261 NA
ATOM     97  C   UNL     1       0.160  -4.116  -6.907  1.00  0.00     0.111 A 
ENDBRANCH  91  92
ENDBRANCH  90  91
ENDBRANCH  78  84
ENDBRANCH  75  78
ENDBRANCH  73  74
ENDBRANCH  72  73
ENDBRANCH   1  72
TORSDOF 18
