REMARK SMILES [NH3+][C@@]1(C(=O)NCCCCNC(=O)c2ccc(-c3c4nc(c(-c5cccc(S(=O)(=O)[O-])c5F)c5ccc([nH]5)c(-c5cccc(S(=O)(=O)[O-])c5F)c5nc(c(-c6cccc(S(=O)(=O)[O-])c6F)c6ccc3[nH]6)C=C5)C=C4)cc2)CC[C@H](Oc2ccccc2[N+](=O)[O-])C1
REMARK SMILES IDX 7 1 6 2 5 3 3 4 4 5 2 7 76 8 89 9 77 10 78 11 1 12 79 16
REMARK SMILES IDX 80 17 81 18 85 19 82 20 84 21 83 22 86 23 87 24 88 25 8 26
REMARK SMILES IDX 9 27 10 28 11 29 12 31 13 32 14 33 75 34 15 35 74 36 16 37
REMARK SMILES IDX 17 38 18 39 68 40 19 41 73 42 67 43 69 44 20 45 72 46 66 47
REMARK SMILES IDX 65 48 21 50 53 51 33 52 52 53 34 54 37 55 51 56 70 57 35 58
REMARK SMILES IDX 36 59 50 61 71 62 38 63 22 64 23 65 31 66 24 67 26 68 32 69
REMARK SMILES IDX 25 70 27 71 28 72 29 73 30 74 54 75 55 76 63 77 56 78 58 79
REMARK SMILES IDX 64 80 57 81 59 82 60 83 61 84 62 85 39 86 40 87 48 88 41 89
REMARK SMILES IDX 43 90 49 91 42 92 44 93 45 94 46 95 47 96
REMARK H PARENT 5 6 1 13 1 14 1 15 10 30 69 49 37 60
REMARK Flexibility Score: inf
ROOT
ATOM      1  C   UNL     1       1.189   2.938  -4.569  1.00  0.00     0.023 C 
ENDROOT
BRANCH   1   2
ATOM      2  C   UNL     1       0.219   2.107  -3.745  1.00  0.00     0.116 C 
BRANCH   2   3
ATOM      3  N   UNL     1       0.761   0.849  -3.301  1.00  0.00    -0.351 N 
ATOM      4  C   UNL     1       0.905   0.334  -2.052  1.00  0.00     0.281 C 
ATOM      5  O   UNL     1       1.329  -0.830  -1.991  1.00  0.00    -0.268 OA
ATOM      6  H   UNL     1       1.081   0.263  -4.024  1.00  0.00     0.163 HD
BRANCH   4   7
ATOM      7  C   UNL     1       0.545   1.099  -0.717  1.00  0.00     0.177 C 
ATOM      8  C   UNL     1      -0.953   1.331  -0.526  1.00  0.00     0.083 C 
ATOM      9  C   UNL     1       1.218   2.463  -0.542  1.00  0.00     0.124 C 
ATOM     10  C   UNL     1      -1.203   2.815  -0.755  1.00  0.00     0.052 C 
ATOM     11  C   UNL     1       0.115   3.543  -0.468  1.00  0.00     0.180 C 
BRANCH   7  12
ATOM     12  N   UNL     1       0.999   0.215   0.400  1.00  0.00    -0.345 N 
ATOM     13  H   UNL     1       0.563  -0.703   0.306  1.00  0.00     0.345 HD
ATOM     14  H   UNL     1       0.731   0.629   1.292  1.00  0.00     0.345 HD
ATOM     15  H   UNL     1       2.014   0.115   0.363  1.00  0.00     0.345 HD
ENDBRANCH   7  12
BRANCH  11  16
ATOM     16  O   UNL     1       0.559   4.572  -1.357  1.00  0.00    -0.483 OA
BRANCH  16  17
ATOM     17  C   UNL     1      -0.188   5.517  -1.977  1.00  0.00     0.197 A 
ATOM     18  C   UNL     1      -1.554   5.706  -1.789  1.00  0.00     0.054 A 
ATOM     19  C   UNL     1       0.456   6.310  -2.949  1.00  0.00     0.310 A 
ATOM     20  C   UNL     1      -2.279   6.557  -2.635  1.00  0.00     0.004 A 
ATOM     21  C   UNL     1      -0.264   7.158  -3.804  1.00  0.00     0.090 A 
ATOM     22  C   UNL     1      -1.643   7.258  -3.658  1.00  0.00     0.007 A 
BRANCH  19  23
ATOM     23  N   UNL     1       1.911   6.265  -3.113  1.00  0.00     0.066 N 
ATOM     24  O   UNL     1       2.353   6.361  -4.268  1.00  0.00    -0.258 OA
ATOM     25  O   UNL     1       2.614   6.190  -2.095  1.00  0.00    -0.258 OA
ENDBRANCH  19  23
ENDBRANCH  16  17
ENDBRANCH  11  16
ENDBRANCH   4   7
ENDBRANCH   2   3
ENDBRANCH   1   2
BRANCH   1  26
ATOM     26  C   UNL     1       1.179   2.659  -6.064  1.00  0.00     0.023 C 
BRANCH  26  27
ATOM     27  C   UNL     1      -0.183   2.776  -6.744  1.00  0.00     0.116 C 
BRANCH  27  28
ATOM     28  N   UNL     1      -0.892   4.029  -6.487  1.00  0.00    -0.352 N 
ATOM     29  C   UNL     1      -1.542   4.852  -7.386  1.00  0.00     0.251 C 
ATOM     30  H   UNL     1      -0.907   4.326  -5.549  1.00  0.00     0.163 HD
ATOM     31  O   UNL     1      -2.054   5.899  -7.025  1.00  0.00    -0.269 OA
BRANCH  29  32
ATOM     32  C   UNL     1      -1.560   4.453  -8.811  1.00  0.00     0.039 A 
ATOM     33  C   UNL     1      -1.017   5.319  -9.762  1.00  0.00     0.014 A 
ATOM     34  C   UNL     1      -1.976   3.169  -9.169  1.00  0.00     0.014 A 
ATOM     35  C   UNL     1      -0.769   4.847 -11.053  1.00  0.00     0.010 A 
ATOM     36  C   UNL     1      -1.648   2.678 -10.426  1.00  0.00     0.010 A 
ATOM     37  C   UNL     1      -1.015   3.501 -11.372  1.00  0.00    -0.014 A 
BRANCH  37  38
ATOM     38  C   UNL     1      -0.557   2.898 -12.651  1.00  0.00     0.031 A 
ATOM     39  C   UNL     1      -1.551   2.258 -13.579  1.00  0.00     0.074 A 
ATOM     40  C   UNL     1       0.765   2.791 -12.901  1.00  0.00     0.049 A 
ATOM     41  N   UNL     1      -1.334   1.544 -14.653  1.00  0.00    -0.248 NA
ATOM     42  C   UNL     1      -2.974   2.406 -13.233  1.00  0.00     0.031 C 
ATOM     43  C   UNL     1       1.837   3.287 -12.033  1.00  0.00     0.029 A 
ATOM     44  N   UNL     1       1.435   2.192 -13.940  1.00  0.00    -0.354 N 
ATOM     45  C   UNL     1      -2.584   1.115 -15.079  1.00  0.00     0.074 A 
ATOM     46  C   UNL     1      -3.553   1.625 -14.134  1.00  0.00     0.031 C 
ATOM     47  C   UNL     1       3.025   2.974 -12.574  1.00  0.00     0.029 A 
ATOM     48  C   UNL     1       2.805   2.224 -13.806  1.00  0.00     0.049 A 
ATOM     49  H   UNL     1       0.979   1.779 -14.708  1.00  0.00     0.167 HD
ATOM     50  C   UNL     1      -2.902   0.388 -16.176  1.00  0.00     0.034 A 
ATOM     51  C   UNL     1       3.776   1.698 -14.579  1.00  0.00     0.034 A 
ATOM     52  C   UNL     1      -1.947  -0.051 -17.155  1.00  0.00     0.049 A 
ATOM     53  C   UNL     1       3.394   0.944 -15.823  1.00  0.00     0.074 A 
ATOM     54  C   UNL     1      -2.184  -0.677 -18.366  1.00  0.00     0.029 A 
ATOM     55  N   UNL     1      -0.573   0.089 -17.038  1.00  0.00    -0.354 N 
ATOM     56  N   UNL     1       2.198   0.699 -16.302  1.00  0.00    -0.248 NA
ATOM     57  C   UNL     1       4.491   0.414 -16.646  1.00  0.00     0.031 C 
ATOM     58  C   UNL     1      -0.950  -0.923 -18.978  1.00  0.00     0.029 A 
ATOM     59  C   UNL     1       0.053  -0.447 -18.149  1.00  0.00     0.049 A 
ATOM     60  H   UNL     1      -0.111   0.509 -16.276  1.00  0.00     0.167 HD
ATOM     61  C   UNL     1       2.399   0.008 -17.491  1.00  0.00     0.074 A 
ATOM     62  C   UNL     1       3.831  -0.106 -17.673  1.00  0.00     0.031 C 
ATOM     63  C   UNL     1       1.479  -0.506 -18.343  1.00  0.00     0.034 A 
BRANCH  50  64
ATOM     64  C   UNL     1      -4.357   0.091 -16.417  1.00  0.00     0.023 A 
ATOM     65  C   UNL     1      -5.205   1.124 -16.861  1.00  0.00     0.012 A 
ATOM     66  C   UNL     1      -4.873  -1.209 -16.254  1.00  0.00     0.148 A 
ATOM     67  C   UNL     1      -6.554   0.877 -17.112  1.00  0.00     0.002 A 
ATOM     68  C   UNL     1      -6.211  -1.456 -16.542  1.00  0.00     0.091 A 
ATOM     69  F   UNL     1      -4.056  -2.172 -15.805  1.00  0.00    -0.205 F 
ATOM     70  C   UNL     1      -7.053  -0.413 -16.962  1.00  0.00     0.022 A 
BRANCH  68  71
ATOM     71  S   UNL     1      -6.931  -3.099 -16.444  1.00  0.00     0.127 S 
ATOM     72  O   UNL     1      -7.699  -3.010 -15.203  1.00  0.00    -0.237 OA
ATOM     73  O   UNL     1      -7.742  -3.157 -17.660  1.00  0.00    -0.237 OA
ATOM     74  O   UNL     1      -5.806  -4.024 -16.423  1.00  0.00    -0.744 OA
ENDBRANCH  68  71
ENDBRANCH  50  64
BRANCH  51  75
ATOM     75  C   UNL     1       5.208   1.926 -14.233  1.00  0.00     0.023 A 
ATOM     76  C   UNL     1       5.970   2.810 -15.022  1.00  0.00     0.012 A 
ATOM     77  C   UNL     1       5.808   1.310 -13.119  1.00  0.00     0.148 A 
ATOM     78  C   UNL     1       7.309   3.059 -14.721  1.00  0.00     0.002 A 
ATOM     79  C   UNL     1       7.130   1.600 -12.795  1.00  0.00     0.091 A 
ATOM     80  F   UNL     1       5.074   0.456 -12.391  1.00  0.00    -0.205 F 
ATOM     81  C   UNL     1       7.886   2.464 -13.602  1.00  0.00     0.022 A 
BRANCH  79  82
ATOM     82  S   UNL     1       7.906   0.975 -11.300  1.00  0.00     0.127 S 
ATOM     83  O   UNL     1       8.743  -0.100 -11.825  1.00  0.00    -0.237 OA
ATOM     84  O   UNL     1       8.638   2.148 -10.820  1.00  0.00    -0.237 OA
ATOM     85  O   UNL     1       6.805   0.566 -10.438  1.00  0.00    -0.744 OA
ENDBRANCH  79  82
ENDBRANCH  51  75
BRANCH  63  86
ATOM     86  C   UNL     1       1.981  -1.234 -19.561  1.00  0.00     0.023 A 
ATOM     87  C   UNL     1       2.488  -2.540 -19.421  1.00  0.00     0.012 A 
ATOM     88  C   UNL     1       1.858  -0.669 -20.845  1.00  0.00     0.148 A 
ATOM     89  C   UNL     1       2.881  -3.270 -20.541  1.00  0.00     0.002 A 
ATOM     90  C   UNL     1       2.215  -1.417 -21.961  1.00  0.00     0.091 A 
ATOM     91  F   UNL     1       1.389   0.582 -20.951  1.00  0.00    -0.205 F 
ATOM     92  C   UNL     1       2.733  -2.714 -21.810  1.00  0.00     0.022 A 
BRANCH  90  93
ATOM     93  S   UNL     1       1.976  -0.820 -23.638  1.00  0.00     0.127 S 
ATOM     94  O   UNL     1       3.351  -0.556 -24.059  1.00  0.00    -0.237 OA
ATOM     95  O   UNL     1       1.348  -1.969 -24.291  1.00  0.00    -0.237 OA
ATOM     96  O   UNL     1       1.120   0.353 -23.528  1.00  0.00    -0.744 OA
ENDBRANCH  90  93
ENDBRANCH  63  86
ENDBRANCH  37  38
ENDBRANCH  29  32
ENDBRANCH  27  28
ENDBRANCH  26  27
ENDBRANCH   1  26
TORSDOF 18
