REMARK SMILES O=C(COc1ccc2c(c1)CCC2)N[C@@H](CO)C(=O)NCCCCNC(=O)c1ccc(-c2c3nc(c(-c4cccc(S(=O)(=O)[O-])c4F)c4ccc([nH]4)c(-c4cccc(S(=O)(=O)[O-])c4F)c4nc(c(-c5cccc(S(=O)(=O)[O-])c5F)c5ccc2[nH]5)C=C4)C=C3)cc1
REMARK SMILES IDX 22 1 21 2 20 3 18 4 19 5 15 7 14 8 1 9 2 10 3 12 4 13 5 14
REMARK SMILES IDX 6 15 10 16 7 17 9 18 8 19 11 20 13 21 12 22 16 23 17 24
REMARK SMILES IDX 23 26 24 27 25 28 26 29 27 31 28 32 29 33 90 34 30 35 89 36
REMARK SMILES IDX 31 37 32 38 33 39 83 40 34 41 88 42 82 43 84 44 35 45 87 46
REMARK SMILES IDX 81 47 80 48 36 50 68 51 48 52 67 53 49 54 52 55 66 56 85 57
REMARK SMILES IDX 50 58 51 59 65 61 86 62 53 63 37 64 38 65 46 66 39 67 41 68
REMARK SMILES IDX 47 69 40 70 42 71 43 72 44 73 45 74 69 75 70 76 78 77 71 78
REMARK SMILES IDX 73 79 79 80 72 81 74 82 75 83 76 84 77 85 54 86 55 87 63 88
REMARK SMILES IDX 56 89 58 90 64 91 57 92 59 93 60 94 61 95 62 96
REMARK H PARENT 20 6 14 11 17 25 25 30 84 49 52 60
REMARK Flexibility Score: inf
ROOT
ATOM      1  C   UNL     1       6.163   2.444  -0.647  1.00  0.00     0.023 C 
ENDROOT
BRANCH   1   2
ATOM      2  C   UNL     1       5.197   3.036   0.374  1.00  0.00     0.116 C 
BRANCH   2   3
ATOM      3  N   UNL     1       4.030   3.642  -0.241  1.00  0.00    -0.354 N 
ATOM      4  C   UNL     1       2.702   3.426  -0.011  1.00  0.00     0.244 C 
ATOM      5  O   UNL     1       1.902   4.267  -0.432  1.00  0.00    -0.273 OA
ATOM      6  H   UNL     1       4.227   4.314  -0.933  1.00  0.00     0.163 HD
BRANCH   4   7
ATOM      7  C   UNL     1       2.199   2.222   0.802  1.00  0.00     0.197 C 
BRANCH   7   8
ATOM      8  N   UNL     1       2.848   0.986   0.370  1.00  0.00    -0.339 N 
ATOM      9  O   UNL     1       1.238  -0.443   1.146  1.00  0.00    -0.271 OA
ATOM     10  C   UNL     1       2.210  -0.230   0.427  1.00  0.00     0.258 C 
ATOM     11  H   UNL     1       3.771   1.025   0.028  1.00  0.00     0.164 HD
BRANCH  10  12
ATOM     12  C   UNL     1       2.811  -1.294  -0.499  1.00  0.00     0.329 C 
BRANCH  12  13
ATOM     13  O   UNL     1       3.710  -0.793  -1.488  1.00  0.00    -0.484 OA
BRANCH  13  14
ATOM     14  C   UNL     1       3.120  -0.473  -2.686  1.00  0.00     0.120 A 
ATOM     15  C   UNL     1       2.048   0.430  -2.795  1.00  0.00     0.047 A 
ATOM     16  C   UNL     1       3.713  -1.004  -3.834  1.00  0.00     0.050 A 
ATOM     17  C   UNL     1       1.557   0.810  -4.046  1.00  0.00     0.008 A 
ATOM     18  C   UNL     1       3.212  -0.628  -5.071  1.00  0.00    -0.041 A 
ATOM     19  C   UNL     1       2.152   0.278  -5.175  1.00  0.00    -0.045 A 
ATOM     20  C   UNL     1       3.643  -1.088  -6.429  1.00  0.00     0.036 C 
ATOM     21  C   UNL     1       1.797   0.534  -6.606  1.00  0.00     0.036 C 
ATOM     22  C   UNL     1       3.050   0.012  -7.322  1.00  0.00     0.010 C 
ENDBRANCH  13  14
ENDBRANCH  12  13
ENDBRANCH  10  12
ENDBRANCH   7   8
BRANCH   7  23
ATOM     23  C   UNL     1       2.218   2.487   2.312  1.00  0.00     0.191 C 
BRANCH  23  24
ATOM     24  O   UNL     1       3.485   2.237   2.918  1.00  0.00    -0.394 OA
ATOM     25  H   UNL     1       3.716   1.301   2.811  1.00  0.00     0.210 HD
ENDBRANCH  23  24
ENDBRANCH   7  23
ENDBRANCH   4   7
ENDBRANCH   2   3
ENDBRANCH   1   2
BRANCH   1  26
ATOM     26  C   UNL     1       6.834   3.458  -1.571  1.00  0.00     0.023 C 
BRANCH  26  27
ATOM     27  C   UNL     1       7.544   4.612  -0.873  1.00  0.00     0.116 C 
BRANCH  27  28
ATOM     28  N   UNL     1       8.577   4.178   0.061  1.00  0.00    -0.352 N 
ATOM     29  C   UNL     1       9.848   4.682   0.222  1.00  0.00     0.251 C 
ATOM     30  H   UNL     1       8.335   3.429   0.651  1.00  0.00     0.163 HD
ATOM     31  O   UNL     1      10.643   4.146   0.987  1.00  0.00    -0.269 OA
BRANCH  29  32
ATOM     32  C   UNL     1      10.252   5.858  -0.574  1.00  0.00     0.039 A 
ATOM     33  C   UNL     1      11.396   5.780  -1.373  1.00  0.00     0.014 A 
ATOM     34  C   UNL     1       9.444   6.997  -0.596  1.00  0.00     0.014 A 
ATOM     35  C   UNL     1      11.680   6.813  -2.268  1.00  0.00     0.010 A 
ATOM     36  C   UNL     1       9.689   7.989  -1.537  1.00  0.00     0.010 A 
ATOM     37  C   UNL     1      10.801   7.901  -2.391  1.00  0.00    -0.014 A 
BRANCH  37  38
ATOM     38  C   UNL     1      10.985   8.949  -3.427  1.00  0.00     0.031 A 
ATOM     39  C   UNL     1      11.183  10.380  -3.016  1.00  0.00     0.074 A 
ATOM     40  C   UNL     1      10.820   8.636  -4.728  1.00  0.00     0.049 A 
ATOM     41  N   UNL     1      11.194  11.458  -3.755  1.00  0.00    -0.248 NA
ATOM     42  C   UNL     1      11.352  10.635  -1.576  1.00  0.00     0.031 C 
ATOM     43  C   UNL     1      10.532   7.298  -5.247  1.00  0.00     0.029 A 
ATOM     44  N   UNL     1      10.823   9.432  -5.847  1.00  0.00    -0.354 N 
ATOM     45  C   UNL     1      11.318  12.521  -2.869  1.00  0.00     0.074 A 
ATOM     46  C   UNL     1      11.351  11.959  -1.536  1.00  0.00     0.031 C 
ATOM     47  C   UNL     1      10.367   7.368  -6.577  1.00  0.00     0.029 A 
ATOM     48  C   UNL     1      10.508   8.757  -7.003  1.00  0.00     0.049 A 
ATOM     49  H   UNL     1      11.030  10.395  -5.824  1.00  0.00     0.167 HD
ATOM     50  C   UNL     1      11.426  13.843  -3.141  1.00  0.00     0.034 A 
ATOM     51  C   UNL     1      10.335   9.206  -8.262  1.00  0.00     0.034 A 
ATOM     52  C   UNL     1      11.451  14.392  -4.469  1.00  0.00     0.049 A 
ATOM     53  C   UNL     1      10.535  10.668  -8.551  1.00  0.00     0.074 A 
ATOM     54  C   UNL     1      11.653  15.704  -4.856  1.00  0.00     0.029 A 
ATOM     55  N   UNL     1      11.270  13.656  -5.630  1.00  0.00    -0.354 N 
ATOM     56  N   UNL     1      10.813  11.641  -7.717  1.00  0.00    -0.248 NA
ATOM     57  C   UNL     1      10.438  11.091  -9.956  1.00  0.00     0.031 C 
ATOM     58  C   UNL     1      11.591  15.763  -6.253  1.00  0.00     0.029 A 
ATOM     59  C   UNL     1      11.358  14.485  -6.736  1.00  0.00     0.049 A 
ATOM     60  H   UNL     1      11.102  12.686  -5.664  1.00  0.00     0.167 HD
ATOM     61  C   UNL     1      10.954  12.784  -8.495  1.00  0.00     0.074 A 
ATOM     62  C   UNL     1      10.749  12.379  -9.871  1.00  0.00     0.031 C 
ATOM     63  C   UNL     1      11.213  14.056  -8.104  1.00  0.00     0.034 A 
BRANCH  50  64
ATOM     64  C   UNL     1      11.591  14.776  -1.970  1.00  0.00     0.023 A 
ATOM     65  C   UNL     1      12.809  14.781  -1.259  1.00  0.00     0.012 A 
ATOM     66  C   UNL     1      10.564  15.657  -1.585  1.00  0.00     0.148 A 
ATOM     67  C   UNL     1      12.986  15.614  -0.155  1.00  0.00     0.002 A 
ATOM     68  C   UNL     1      10.763  16.517  -0.509  1.00  0.00     0.091 A 
ATOM     69  F   UNL     1       9.402  15.623  -2.252  1.00  0.00    -0.205 F 
ATOM     70  C   UNL     1      11.967  16.487   0.214  1.00  0.00     0.022 A 
BRANCH  68  71
ATOM     71  S   UNL     1       9.532  17.728  -0.015  1.00  0.00     0.127 S 
ATOM     72  O   UNL     1       8.887  17.053   1.110  1.00  0.00    -0.237 OA
ATOM     73  O   UNL     1      10.355  18.880   0.358  1.00  0.00    -0.237 OA
ATOM     74  O   UNL     1       8.700  17.941  -1.191  1.00  0.00    -0.744 OA
ENDBRANCH  68  71
ENDBRANCH  50  64
BRANCH  51  75
ATOM     75  C   UNL     1      10.023   8.236  -9.350  1.00  0.00     0.023 A 
ATOM     76  C   UNL     1      11.026   7.902 -10.280  1.00  0.00     0.012 A 
ATOM     77  C   UNL     1       8.772   7.593  -9.426  1.00  0.00     0.148 A 
ATOM     78  C   UNL     1      10.783   6.960 -11.280  1.00  0.00     0.002 A 
ATOM     79  C   UNL     1       8.554   6.617 -10.393  1.00  0.00     0.091 A 
ATOM     80  F   UNL     1       7.829   7.932  -8.536  1.00  0.00    -0.205 F 
ATOM     81  C   UNL     1       9.553   6.309 -11.329  1.00  0.00     0.022 A 
BRANCH  79  82
ATOM     82  S   UNL     1       7.053   5.631 -10.448  1.00  0.00     0.127 S 
ATOM     83  O   UNL     1       6.414   6.125 -11.665  1.00  0.00    -0.237 OA
ATOM     84  O   UNL     1       7.588   4.272 -10.542  1.00  0.00    -0.237 OA
ATOM     85  O   UNL     1       6.350   5.913  -9.204  1.00  0.00    -0.744 OA
ENDBRANCH  79  82
ENDBRANCH  51  75
BRANCH  63  86
ATOM     86  C   UNL     1      11.322  15.110  -9.173  1.00  0.00     0.023 A 
ATOM     87  C   UNL     1      10.155  15.594  -9.796  1.00  0.00     0.012 A 
ATOM     88  C   UNL     1      12.568  15.684  -9.494  1.00  0.00     0.148 A 
ATOM     89  C   UNL     1      10.228  16.620 -10.737  1.00  0.00     0.002 A 
ATOM     90  C   UNL     1      12.628  16.735 -10.402  1.00  0.00     0.091 A 
ATOM     91  F   UNL     1      13.669  15.194  -8.907  1.00  0.00    -0.205 F 
ATOM     92  C   UNL     1      11.460  17.199 -11.030  1.00  0.00     0.022 A 
BRANCH  90  93
ATOM     93  S   UNL     1      14.161  17.598 -10.769  1.00  0.00     0.127 S 
ATOM     94  O   UNL     1      14.496  17.063 -12.087  1.00  0.00    -0.237 OA
ATOM     95  O   UNL     1      13.740  19.000 -10.768  1.00  0.00    -0.237 OA
ATOM     96  O   UNL     1      15.081  17.247  -9.695  1.00  0.00    -0.744 OA
ENDBRANCH  90  93
ENDBRANCH  63  86
ENDBRANCH  37  38
ENDBRANCH  29  32
ENDBRANCH  27  28
ENDBRANCH  26  27
ENDBRANCH   1  26
TORSDOF 20
