REMARK SMILES C[N@@H+](CC(=O)NCCCCNC(=O)c1ccc(-c2c3nc(c(-c4cccc(S(=O)(=O)[O-])c4F)c4ccc([nH]4)c(-c4cccc(S(=O)(=O)[O-])c4F)c4nc(c(-c5cccc(S(=O)(=O)[O-])c5F)c5ccc2[nH]5)C=C4)C=C3)cc1)Cc1cccc2c1OCCO2
REMARK SMILES IDX 8 1 7 2 6 3 4 4 5 5 3 7 2 8 1 9 77 11 78 12 79 13 83 14
REMARK SMILES IDX 80 15 82 16 84 17 81 18 87 19 85 20 86 21 9 22 10 23 11 24
REMARK SMILES IDX 12 25 13 27 14 28 15 29 76 30 16 31 75 32 17 33 18 34 19 35
REMARK SMILES IDX 69 36 20 37 74 38 68 39 70 40 21 41 73 42 67 43 66 44 22 46
REMARK SMILES IDX 54 47 34 48 53 49 35 50 38 51 52 52 71 53 36 54 37 55 51 57
REMARK SMILES IDX 72 58 39 59 23 60 24 61 32 62 25 63 27 64 33 65 26 66 28 67
REMARK SMILES IDX 29 68 30 69 31 70 55 71 56 72 64 73 57 74 59 75 65 76 58 77
REMARK SMILES IDX 60 78 61 79 62 80 63 81 40 82 41 83 49 84 42 85 44 86 50 87
REMARK SMILES IDX 43 88 45 89 46 90 47 91 48 92
REMARK H PARENT 6 6 2 10 11 26 70 45 38 56
REMARK Flexibility Score: inf
ROOT
ATOM      1  C   UNL     1       0.837  -2.419  -0.696  1.00  0.00     0.023 C 
ENDROOT
BRANCH   1   2
ATOM      2  C   UNL     1      -0.476  -1.664  -0.935  1.00  0.00     0.116 C 
BRANCH   2   3
ATOM      3  N   UNL     1      -1.207  -1.290   0.256  1.00  0.00    -0.351 N 
ATOM      4  C   UNL     1      -1.423  -0.054   0.809  1.00  0.00     0.275 C 
ATOM      5  O   UNL     1      -2.187   0.018   1.777  1.00  0.00    -0.269 OA
ATOM      6  H   UNL     1      -1.613  -2.040   0.747  1.00  0.00     0.163 HD
BRANCH   4   7
ATOM      7  C   UNL     1      -0.799   1.200   0.206  1.00  0.00     0.363 C 
BRANCH   7   8
ATOM      8  N   UNL     1       0.501   1.575   0.744  1.00  0.00    -0.326 N 
ATOM      9  C   UNL     1       1.692   0.975   0.204  1.00  0.00     0.333 C 
ATOM     10  H   UNL     1       0.545   2.438   0.201  1.00  0.00     0.348 HD
BRANCH   8  11
ATOM     11  C   UNL     1       0.577   2.177   2.064  1.00  0.00     0.303 C 
BRANCH  11  12
ATOM     12  C   UNL     1       0.609   1.407   3.373  1.00  0.00     0.052 A 
ATOM     13  C   UNL     1       0.457   2.200   4.537  1.00  0.00     0.014 A 
ATOM     14  C   UNL     1       0.839   0.045   3.589  1.00  0.00     0.170 A 
ATOM     15  C   UNL     1       0.612   1.681   5.828  1.00  0.00     0.005 A 
ATOM     16  C   UNL     1       1.107  -0.457   4.887  1.00  0.00     0.161 A 
ATOM     17  O   UNL     1       0.680  -0.852   2.560  1.00  0.00    -0.486 OA
ATOM     18  C   UNL     1       0.991   0.359   6.001  1.00  0.00     0.050 A 
ATOM     19  O   UNL     1       1.405  -1.777   5.150  1.00  0.00    -0.486 OA
ATOM     20  C   UNL     1       0.124  -2.045   3.138  1.00  0.00     0.271 C 
ATOM     21  C   UNL     1       1.207  -2.630   4.015  1.00  0.00     0.271 C 
ENDBRANCH  11  12
ENDBRANCH   8  11
ENDBRANCH   7   8
ENDBRANCH   4   7
ENDBRANCH   2   3
ENDBRANCH   1   2
BRANCH   1  22
ATOM     22  C   UNL     1       0.816  -3.791  -0.021  1.00  0.00     0.023 C 
BRANCH  22  23
ATOM     23  C   UNL     1      -0.283  -4.750  -0.448  1.00  0.00     0.116 C 
BRANCH  23  24
ATOM     24  N   UNL     1       0.271  -5.796  -1.284  1.00  0.00    -0.352 N 
ATOM     25  C   UNL     1       0.790  -7.016  -0.931  1.00  0.00     0.251 C 
ATOM     26  H   UNL     1       0.275  -5.602  -2.249  1.00  0.00     0.163 HD
ATOM     27  O   UNL     1       1.597  -7.542  -1.696  1.00  0.00    -0.269 OA
BRANCH  25  28
ATOM     28  C   UNL     1       0.384  -7.727   0.312  1.00  0.00     0.039 A 
ATOM     29  C   UNL     1       1.252  -8.695   0.835  1.00  0.00     0.014 A 
ATOM     30  C   UNL     1      -0.889  -7.590   0.871  1.00  0.00     0.014 A 
ATOM     31  C   UNL     1       0.822  -9.556   1.851  1.00  0.00     0.010 A 
ATOM     32  C   UNL     1      -1.275  -8.369   1.963  1.00  0.00     0.010 A 
ATOM     33  C   UNL     1      -0.462  -9.422   2.401  1.00  0.00    -0.014 A 
BRANCH  33  34
ATOM     34  C   UNL     1      -1.032 -10.469   3.294  1.00  0.00     0.031 A 
ATOM     35  C   UNL     1      -2.253 -11.245   2.844  1.00  0.00     0.074 A 
ATOM     36  C   UNL     1      -0.490 -10.716   4.501  1.00  0.00     0.049 A 
ATOM     37  N   UNL     1      -2.934 -12.165   3.480  1.00  0.00    -0.248 NA
ATOM     38  C   UNL     1      -2.809 -10.914   1.520  1.00  0.00     0.031 C 
ATOM     39  C   UNL     1       0.641  -9.994   5.086  1.00  0.00     0.029 A 
ATOM     40  N   UNL     1      -0.829 -11.637   5.461  1.00  0.00    -0.354 N 
ATOM     41  C   UNL     1      -4.021 -12.469   2.665  1.00  0.00     0.074 A 
ATOM     42  C   UNL     1      -3.939 -11.604   1.512  1.00  0.00     0.031 C 
ATOM     43  C   UNL     1       0.913 -10.510   6.296  1.00  0.00     0.029 A 
ATOM     44  C   UNL     1      -0.032 -11.586   6.581  1.00  0.00     0.049 A 
ATOM     45  H   UNL     1      -1.572 -12.274   5.357  1.00  0.00     0.167 HD
ATOM     46  C   UNL     1      -4.978 -13.414   2.830  1.00  0.00     0.034 A 
ATOM     47  C   UNL     1      -0.055 -12.334   7.702  1.00  0.00     0.034 A 
ATOM     48  C   UNL     1      -4.997 -14.344   3.925  1.00  0.00     0.049 A 
ATOM     49  C   UNL     1      -1.054 -13.456   7.809  1.00  0.00     0.074 A 
ATOM     50  C   UNL     1      -5.862 -15.400   4.145  1.00  0.00     0.029 A 
ATOM     51  N   UNL     1      -4.090 -14.341   4.973  1.00  0.00    -0.354 N 
ATOM     52  N   UNL     1      -1.990 -13.813   6.963  1.00  0.00    -0.248 NA
ATOM     53  C   UNL     1      -0.966 -14.313   9.001  1.00  0.00     0.031 C 
ATOM     54  C   UNL     1      -5.476 -16.038   5.330  1.00  0.00     0.029 A 
ATOM     55  C   UNL     1      -4.362 -15.387   5.836  1.00  0.00     0.049 A 
ATOM     56  H   UNL     1      -3.361 -13.690   5.087  1.00  0.00     0.167 HD
ATOM     57  C   UNL     1      -2.572 -14.958   7.497  1.00  0.00     0.074 A 
ATOM     58  C   UNL     1      -1.868 -15.246   8.730  1.00  0.00     0.031 C 
ATOM     59  C   UNL     1      -3.604 -15.697   7.019  1.00  0.00     0.034 A 
BRANCH  46  60
ATOM     60  C   UNL     1      -6.038 -13.537   1.763  1.00  0.00     0.023 A 
ATOM     61  C   UNL     1      -5.691 -14.034   0.489  1.00  0.00     0.012 A 
ATOM     62  C   UNL     1      -7.381 -13.201   2.027  1.00  0.00     0.148 A 
ATOM     63  C   UNL     1      -6.650 -14.151  -0.516  1.00  0.00     0.002 A 
ATOM     64  C   UNL     1      -8.341 -13.368   1.034  1.00  0.00     0.091 A 
ATOM     65  F   UNL     1      -7.693 -12.713   3.236  1.00  0.00    -0.205 F 
ATOM     66  C   UNL     1      -7.975 -13.828  -0.241  1.00  0.00     0.022 A 
BRANCH  64  67
ATOM     67  S   UNL     1     -10.089 -13.060   1.313  1.00  0.00     0.127 S 
ATOM     68  O   UNL     1     -10.301 -11.838   0.537  1.00  0.00    -0.237 OA
ATOM     69  O   UNL     1     -10.708 -14.258   0.743  1.00  0.00    -0.237 OA
ATOM     70  O   UNL     1     -10.248 -12.923   2.753  1.00  0.00    -0.744 OA
ENDBRANCH  64  67
ENDBRANCH  46  60
BRANCH  47  71
ATOM     71  C   UNL     1       0.969 -12.115   8.763  1.00  0.00     0.023 A 
ATOM     72  C   UNL     1       1.986 -13.072   8.948  1.00  0.00     0.012 A 
ATOM     73  C   UNL     1       0.965 -10.956   9.563  1.00  0.00     0.148 A 
ATOM     74  C   UNL     1       2.960 -12.898   9.932  1.00  0.00     0.002 A 
ATOM     75  C   UNL     1       1.970 -10.763  10.506  1.00  0.00     0.091 A 
ATOM     76  F   UNL     1      -0.016 -10.062   9.381  1.00  0.00    -0.205 F 
ATOM     77  C   UNL     1       2.957 -11.740  10.704  1.00  0.00     0.022 A 
BRANCH  75  78
ATOM     78  S   UNL     1       2.118  -9.239  11.447  1.00  0.00     0.127 S 
ATOM     79  O   UNL     1       1.672  -9.665  12.774  1.00  0.00    -0.237 OA
ATOM     80  O   UNL     1       3.553  -8.958  11.344  1.00  0.00    -0.237 OA
ATOM     81  O   UNL     1       1.269  -8.277  10.768  1.00  0.00    -0.744 OA
ENDBRANCH  75  78
ENDBRANCH  47  71
BRANCH  59  82
ATOM     82  C   UNL     1      -4.005 -16.922   7.797  1.00  0.00     0.023 A 
ATOM     83  C   UNL     1      -4.685 -16.785   9.022  1.00  0.00     0.012 A 
ATOM     84  C   UNL     1      -3.769 -18.209   7.275  1.00  0.00     0.148 A 
ATOM     85  C   UNL     1      -5.092 -17.912   9.735  1.00  0.00     0.002 A 
ATOM     86  C   UNL     1      -4.221 -19.326   7.967  1.00  0.00     0.091 A 
ATOM     87  F   UNL     1      -3.102 -18.320   6.117  1.00  0.00    -0.205 F 
ATOM     88  C   UNL     1      -4.871 -19.180   9.203  1.00  0.00     0.022 A 
BRANCH  86  89
ATOM     89  S   UNL     1      -4.063 -20.986   7.299  1.00  0.00     0.127 S 
ATOM     90  O   UNL     1      -2.904 -21.494   8.031  1.00  0.00    -0.237 OA
ATOM     91  O   UNL     1      -5.338 -21.600   7.674  1.00  0.00    -0.237 OA
ATOM     92  O   UNL     1      -3.880 -20.817   5.863  1.00  0.00    -0.744 OA
ENDBRANCH  86  89
ENDBRANCH  59  82
ENDBRANCH  33  34
ENDBRANCH  25  28
ENDBRANCH  23  24
ENDBRANCH  22  23
ENDBRANCH   1  22
TORSDOF 17
