REMARK SMILES COc1ccc2c(CC(=O)NCCCCNC(=O)c3ccc(-c4c5nc(c(-c6cccc(S(=O)(=O)[O-])c6F)c6ccc([nH]6)c(-c6cccc(S(=O)(=O)[O-])c6F)c6nc(c(-c7cccc(S(=O)(=O)[O-])c7F)c7ccc4[nH]7)C=C6)C=C5)cc3)c(C(=O)c3cc(C)ccn3)[nH]c2c1
REMARK SMILES IDX 13 1 12 2 11 3 9 4 10 5 8 7 7 8 3 9 4 10 94 11 5 12 93 13
REMARK SMILES IDX 6 14 92 15 82 16 2 18 1 19 83 20 84 21 85 22 86 23 91 24
REMARK SMILES IDX 87 25 90 26 88 27 89 28 14 29 15 30 16 31 17 32 18 34 19 35
REMARK SMILES IDX 20 36 81 37 21 38 80 39 22 40 23 41 24 42 74 43 25 44 79 45
REMARK SMILES IDX 73 46 75 47 26 48 78 49 72 50 71 51 27 53 59 54 39 55 58 56
REMARK SMILES IDX 40 57 43 58 57 59 76 60 41 61 42 62 56 64 77 65 44 66 28 67
REMARK SMILES IDX 29 68 37 69 30 70 32 71 38 72 31 73 33 74 34 75 35 76 36 77
REMARK SMILES IDX 60 78 61 79 69 80 62 81 64 82 70 83 63 84 65 85 66 86 67 87
REMARK SMILES IDX 68 88 45 89 46 90 54 91 47 92 49 93 55 94 48 95 50 96 51 97
REMARK SMILES IDX 52 98 53 99
REMARK H PARENT 11 6 92 17 16 33 75 52 43 63
REMARK Flexibility Score: inf
ROOT
ATOM      1  C   UNL     1       2.197  -6.462  -3.116  1.00  0.00     0.023 C 
ENDROOT
BRANCH   1   2
ATOM      2  C   UNL     1       3.433  -5.938  -3.844  1.00  0.00     0.116 C 
BRANCH   2   3
ATOM      3  N   UNL     1       3.380  -6.163  -5.273  1.00  0.00    -0.356 N 
ATOM      4  C   UNL     1       3.155  -5.275  -6.287  1.00  0.00     0.224 C 
ATOM      5  O   UNL     1       3.372  -5.668  -7.436  1.00  0.00    -0.275 OA
ATOM      6  H   UNL     1       3.527  -7.094  -5.556  1.00  0.00     0.163 HD
BRANCH   4   7
ATOM      7  C   UNL     1       2.793  -3.820  -6.006  1.00  0.00     0.138 C 
BRANCH   7   8
ATOM      8  C   UNL     1       1.563  -3.616  -5.162  1.00  0.00    -0.002 A 
ATOM      9  C   UNL     1       0.821  -1.897  -1.384  1.00  0.00     0.120 A 
ATOM     10  C   UNL     1       2.135  -1.802  -1.833  1.00  0.00     0.047 A 
ATOM     11  C   UNL     1      -0.147  -2.562  -2.144  1.00  0.00     0.073 A 
ATOM     12  C   UNL     1       2.501  -2.330  -3.078  1.00  0.00     0.014 A 
ATOM     13  C   UNL     1       0.234  -3.067  -3.394  1.00  0.00     0.050 A 
ATOM     14  C   UNL     1       1.532  -2.967  -3.881  1.00  0.00     0.004 A 
ATOM     15  N   UNL     1      -0.501  -3.734  -4.343  1.00  0.00    -0.351 N 
ATOM     16  C   UNL     1       0.248  -3.961  -5.480  1.00  0.00     0.093 A 
ATOM     17  H   UNL     1      -1.439  -4.013  -4.228  1.00  0.00     0.167 HD
BRANCH   9  18
ATOM     18  O   UNL     1       0.390  -1.406  -0.179  1.00  0.00    -0.497 OA
ATOM     19  C   UNL     1       0.941  -0.137   0.161  1.00  0.00     0.278 C 
ENDBRANCH   9  18
BRANCH  16  20
ATOM     20  C   UNL     1      -0.271  -4.481  -6.741  1.00  0.00     0.227 C 
ATOM     21  O   UNL     1       0.406  -4.562  -7.765  1.00  0.00    -0.285 OA
BRANCH  20  22
ATOM     22  C   UNL     1      -1.711  -4.833  -6.841  1.00  0.00     0.113 A 
ATOM     23  C   UNL     1      -2.669  -3.824  -6.793  1.00  0.00     0.036 A 
ATOM     24  N   UNL     1      -2.003  -6.145  -6.998  1.00  0.00    -0.253 NA
ATOM     25  C   UNL     1      -4.014  -4.180  -6.913  1.00  0.00    -0.047 A 
ATOM     26  C   UNL     1      -3.305  -6.462  -7.143  1.00  0.00     0.112 A 
ATOM     27  C   UNL     1      -5.098  -3.147  -6.871  1.00  0.00     0.044 C 
ATOM     28  C   UNL     1      -4.331  -5.528  -7.105  1.00  0.00     0.023 A 
ENDBRANCH  20  22
ENDBRANCH  16  20
ENDBRANCH   7   8
ENDBRANCH   4   7
ENDBRANCH   2   3
ENDBRANCH   1   2
BRANCH   1  29
ATOM     29  C   UNL     1       2.066  -7.987  -3.074  1.00  0.00     0.023 C 
BRANCH  29  30
ATOM     30  C   UNL     1       3.250  -8.738  -2.472  1.00  0.00     0.116 C 
BRANCH  30  31
ATOM     31  N   UNL     1       3.573  -8.319  -1.115  1.00  0.00    -0.352 N 
ATOM     32  C   UNL     1       3.996  -9.085  -0.055  1.00  0.00     0.251 C 
ATOM     33  H   UNL     1       3.476  -7.356  -0.932  1.00  0.00     0.163 HD
ATOM     34  O   UNL     1       4.136  -8.576   1.056  1.00  0.00    -0.269 OA
BRANCH  32  35
ATOM     35  C   UNL     1       4.244 -10.531  -0.243  1.00  0.00     0.039 A 
ATOM     36  C   UNL     1       3.681 -11.434   0.663  1.00  0.00     0.014 A 
ATOM     37  C   UNL     1       5.001 -10.997  -1.321  1.00  0.00     0.014 A 
ATOM     38  C   UNL     1       3.811 -12.808   0.445  1.00  0.00     0.010 A 
ATOM     39  C   UNL     1       5.079 -12.365  -1.570  1.00  0.00     0.010 A 
ATOM     40  C   UNL     1       4.478 -13.284  -0.696  1.00  0.00    -0.014 A 
BRANCH  40  41
ATOM     41  C   UNL     1       4.519 -14.733  -1.021  1.00  0.00     0.031 A 
ATOM     42  C   UNL     1       5.829 -15.470  -1.053  1.00  0.00     0.074 A 
ATOM     43  C   UNL     1       3.385 -15.358  -1.396  1.00  0.00     0.049 A 
ATOM     44  N   UNL     1       6.068 -16.710  -1.391  1.00  0.00    -0.248 NA
ATOM     45  C   UNL     1       7.031 -14.707  -0.679  1.00  0.00     0.031 C 
ATOM     46  C   UNL     1       2.064 -14.731  -1.487  1.00  0.00     0.029 A 
ATOM     47  N   UNL     1       3.167 -16.650  -1.805  1.00  0.00    -0.354 N 
ATOM     48  C   UNL     1       7.446 -16.868  -1.308  1.00  0.00     0.074 A 
ATOM     49  C   UNL     1       7.994 -15.589  -0.910  1.00  0.00     0.031 C 
ATOM     50  C   UNL     1       1.176 -15.637  -1.928  1.00  0.00     0.029 A 
ATOM     51  C   UNL     1       1.865 -16.899  -2.175  1.00  0.00     0.049 A 
ATOM     52  H   UNL     1       3.874 -17.334  -1.830  1.00  0.00     0.167 HD
ATOM     53  C   UNL     1       8.185 -17.984  -1.515  1.00  0.00     0.034 A 
ATOM     54  C   UNL     1       1.292 -18.015  -2.667  1.00  0.00     0.034 A 
ATOM     55  C   UNL     1       7.634 -19.267  -1.860  1.00  0.00     0.049 A 
ATOM     56  C   UNL     1       2.130 -19.252  -2.844  1.00  0.00     0.074 A 
ATOM     57  C   UNL     1       8.290 -20.478  -1.991  1.00  0.00     0.029 A 
ATOM     58  N   UNL     1       6.297 -19.505  -2.136  1.00  0.00    -0.354 N 
ATOM     59  N   UNL     1       3.404 -19.428  -2.591  1.00  0.00    -0.248 NA
ATOM     60  C   UNL     1       1.445 -20.454  -3.342  1.00  0.00     0.031 C 
ATOM     61  C   UNL     1       7.350 -21.448  -2.358  1.00  0.00     0.029 A 
ATOM     62  C   UNL     1       6.107 -20.841  -2.445  1.00  0.00     0.049 A 
ATOM     63  H   UNL     1       5.586 -18.824  -2.115  1.00  0.00     0.167 HD
ATOM     64  C   UNL     1       3.668 -20.764  -2.871  1.00  0.00     0.074 A 
ATOM     65  C   UNL     1       2.414 -21.358  -3.289  1.00  0.00     0.031 C 
ATOM     66  C   UNL     1       4.845 -21.433  -2.807  1.00  0.00     0.034 A 
BRANCH  53  67
ATOM     67  C   UNL     1       9.673 -17.884  -1.303  1.00  0.00     0.023 A 
ATOM     68  C   UNL     1      10.177 -17.791   0.010  1.00  0.00     0.012 A 
ATOM     69  C   UNL     1      10.571 -17.942  -2.386  1.00  0.00     0.148 A 
ATOM     70  C   UNL     1      11.550 -17.727   0.242  1.00  0.00     0.002 A 
ATOM     71  C   UNL     1      11.941 -17.916  -2.145  1.00  0.00     0.091 A 
ATOM     72  F   UNL     1      10.074 -18.006  -3.630  1.00  0.00    -0.205 F 
ATOM     73  C   UNL     1      12.431 -17.800  -0.833  1.00  0.00     0.022 A 
BRANCH  71  74
ATOM     74  S   UNL     1      13.157 -18.077  -3.458  1.00  0.00     0.127 S 
ATOM     75  O   UNL     1      13.652 -16.707  -3.570  1.00  0.00    -0.237 OA
ATOM     76  O   UNL     1      14.112 -19.025  -2.882  1.00  0.00    -0.237 OA
ATOM     77  O   UNL     1      12.430 -18.580  -4.615  1.00  0.00    -0.744 OA
ENDBRANCH  71  74
ENDBRANCH  53  67
BRANCH  54  78
ATOM     78  C   UNL     1      -0.171 -18.034  -2.953  1.00  0.00     0.023 A 
ATOM     79  C   UNL     1      -1.024 -18.772  -2.111  1.00  0.00     0.012 A 
ATOM     80  C   UNL     1      -0.725 -17.302  -4.021  1.00  0.00     0.148 A 
ATOM     81  C   UNL     1      -2.400 -18.804  -2.342  1.00  0.00     0.002 A 
ATOM     82  C   UNL     1      -2.102 -17.295  -4.214  1.00  0.00     0.091 A 
ATOM     83  F   UNL     1       0.104 -16.618  -4.822  1.00  0.00    -0.205 F 
ATOM     84  C   UNL     1      -2.940 -18.058  -3.385  1.00  0.00     0.022 A 
BRANCH  82  85
ATOM     85  S   UNL     1      -2.893 -16.257  -5.449  1.00  0.00     0.127 S 
ATOM     86  O   UNL     1      -3.256 -17.233  -6.473  1.00  0.00    -0.237 OA
ATOM     87  O   UNL     1      -4.021 -15.698  -4.703  1.00  0.00    -0.237 OA
ATOM     88  O   UNL     1      -1.887 -15.275  -5.832  1.00  0.00    -0.744 OA
ENDBRANCH  82  85
ENDBRANCH  54  78
BRANCH  66  89
ATOM     89  C   UNL     1       4.840 -22.892  -3.182  1.00  0.00     0.023 A 
ATOM     90  C   UNL     1       4.735 -23.259  -4.538  1.00  0.00     0.012 A 
ATOM     91  C   UNL     1       5.013 -23.892  -2.205  1.00  0.00     0.148 A 
ATOM     92  C   UNL     1       4.776 -24.600  -4.915  1.00  0.00     0.002 A 
ATOM     93  C   UNL     1       5.097 -25.225  -2.592  1.00  0.00     0.091 A 
ATOM     94  F   UNL     1       5.090 -23.525  -0.918  1.00  0.00    -0.205 F 
ATOM     95  C   UNL     1       4.969 -25.581  -3.945  1.00  0.00     0.022 A 
BRANCH  93  96
ATOM     96  S   UNL     1       5.433 -26.544  -1.420  1.00  0.00     0.127 S 
ATOM     97  O   UNL     1       4.113 -27.152  -1.268  1.00  0.00    -0.237 OA
ATOM     98  O   UNL     1       6.404 -27.367  -2.143  1.00  0.00    -0.237 OA
ATOM     99  O   UNL     1       5.967 -25.893  -0.231  1.00  0.00    -0.744 OA
ENDBRANCH  93  96
ENDBRANCH  66  89
ENDBRANCH  40  41
ENDBRANCH  32  35
ENDBRANCH  30  31
ENDBRANCH  29  30
ENDBRANCH   1  29
TORSDOF 18
