REMARK SMILES C[C@@H]1[C@H](C(=O)NCCCCNC(=O)c2ccc(-c3c4nc(c(-c5cccc(S(=O)(=O)[O-])c5F)c5ccc([nH]5)c(-c5cccc(S(=O)(=O)[O-])c5F)c5nc(c(-c6cccc(S(=O)(=O)[O-])c6F)c6ccc3[nH]6)C=C5)C=C4)cc2)CC[N@@H+]1Cc1cnn(-c2ccccc2)c1
REMARK SMILES IDX 8 1 7 2 6 3 4 4 5 5 3 7 1 8 2 9 79 10 77 11 78 12 80 14
REMARK SMILES IDX 81 15 82 16 91 17 83 18 84 19 85 20 86 21 90 22 87 23 89 24
REMARK SMILES IDX 88 25 9 26 10 27 11 28 12 29 13 31 14 32 15 33 76 34 16 35
REMARK SMILES IDX 75 36 17 37 18 38 19 39 69 40 20 41 74 42 68 43 70 44 21 45
REMARK SMILES IDX 73 46 67 47 66 48 22 50 54 51 34 52 53 53 35 54 38 55 52 56
REMARK SMILES IDX 71 57 36 58 37 59 51 61 72 62 39 63 23 64 24 65 32 66 25 67
REMARK SMILES IDX 27 68 33 69 26 70 28 71 29 72 30 73 31 74 55 75 56 76 64 77
REMARK SMILES IDX 57 78 59 79 65 80 58 81 60 82 61 83 62 84 63 85 40 86 41 87
REMARK SMILES IDX 49 88 42 89 44 90 50 91 43 92 45 93 46 94 47 95 48 96
REMARK H PARENT 6 6 79 13 11 30 70 49 38 60
REMARK Flexibility Score: inf
ROOT
ATOM      1  C   UNL     1       2.803   1.536   2.324  1.00  0.00     0.023 C 
ENDROOT
BRANCH   1   2
ATOM      2  C   UNL     1       1.356   1.878   1.984  1.00  0.00     0.116 C 
BRANCH   2   3
ATOM      3  N   UNL     1       1.265   2.665   0.775  1.00  0.00    -0.356 N 
ATOM      4  C   UNL     1       0.693   2.380  -0.422  1.00  0.00     0.229 C 
ATOM      5  O   UNL     1       0.829   3.215  -1.322  1.00  0.00    -0.275 OA
ATOM      6  H   UNL     1       1.686   3.553   0.829  1.00  0.00     0.163 HD
BRANCH   4   7
ATOM      7  C   UNL     1      -0.110   1.115  -0.694  1.00  0.00     0.142 C 
ATOM      8  C   UNL     1       2.096  -0.316  -0.513  1.00  0.00     0.076 C 
ATOM      9  C   UNL     1       0.604  -0.249  -0.788  1.00  0.00     0.193 C 
ATOM     10  N   UNL     1      -0.250  -1.139  -0.014  1.00  0.00    -0.328 N 
ATOM     11  C   UNL     1      -1.330   0.901   0.206  1.00  0.00     0.081 C 
ATOM     12  C   UNL     1      -1.578  -0.596   0.143  1.00  0.00     0.263 C 
ATOM     13  H   UNL     1      -0.114  -2.038  -0.477  1.00  0.00     0.348 HD
BRANCH  10  14
ATOM     14  C   UNL     1       0.189  -2.286   0.738  1.00  0.00     0.302 C 
BRANCH  14  15
ATOM     15  C   UNL     1       0.564  -1.944   2.144  1.00  0.00     0.045 A 
ATOM     16  C   UNL     1      -0.284  -1.586   3.213  1.00  0.00     0.145 A 
ATOM     17  C   UNL     1       1.815  -1.975   2.733  1.00  0.00     0.124 A 
ATOM     18  N   UNL     1       0.361  -1.437   4.369  1.00  0.00    -0.176 NA
ATOM     19  N   UNL     1       1.667  -1.638   4.064  1.00  0.00    -0.240 N 
BRANCH  19  20
ATOM     20  C   UNL     1       2.685  -1.453   5.038  1.00  0.00     0.065 A 
ATOM     21  C   UNL     1       2.346  -1.460   6.397  1.00  0.00     0.028 A 
ATOM     22  C   UNL     1       4.012  -1.204   4.658  1.00  0.00     0.028 A 
ATOM     23  C   UNL     1       3.327  -1.230   7.365  1.00  0.00     0.002 A 
ATOM     24  C   UNL     1       4.977  -0.923   5.630  1.00  0.00     0.002 A 
ATOM     25  C   UNL     1       4.636  -0.946   6.981  1.00  0.00     0.000 A 
ENDBRANCH  19  20
ENDBRANCH  14  15
ENDBRANCH  10  14
ENDBRANCH   4   7
ENDBRANCH   2   3
ENDBRANCH   1   2
BRANCH   1  26
ATOM     26  C   UNL     1       3.631   2.635   2.958  1.00  0.00     0.023 C 
BRANCH  26  27
ATOM     27  C   UNL     1       3.019   3.277   4.187  1.00  0.00     0.116 C 
BRANCH  27  28
ATOM     28  N   UNL     1       2.620   2.341   5.233  1.00  0.00    -0.352 N 
ATOM     29  C   UNL     1       2.875   2.433   6.585  1.00  0.00     0.251 C 
ATOM     30  H   UNL     1       2.110   1.553   4.939  1.00  0.00     0.163 HD
ATOM     31  O   UNL     1       2.389   1.665   7.399  1.00  0.00    -0.269 OA
BRANCH  29  32
ATOM     32  C   UNL     1       3.759   3.510   7.043  1.00  0.00     0.039 A 
ATOM     33  C   UNL     1       4.968   3.199   7.670  1.00  0.00     0.014 A 
ATOM     34  C   UNL     1       3.397   4.828   6.768  1.00  0.00     0.014 A 
ATOM     35  C   UNL     1       5.841   4.232   8.008  1.00  0.00     0.010 A 
ATOM     36  C   UNL     1       4.311   5.837   7.006  1.00  0.00     0.010 A 
ATOM     37  C   UNL     1       5.518   5.554   7.668  1.00  0.00    -0.014 A 
BRANCH  37  38
ATOM     38  C   UNL     1       6.341   6.707   8.089  1.00  0.00     0.031 A 
ATOM     39  C   UNL     1       5.713   7.716   9.011  1.00  0.00     0.074 A 
ATOM     40  C   UNL     1       7.557   6.915   7.552  1.00  0.00     0.049 A 
ATOM     41  N   UNL     1       6.122   8.912   9.334  1.00  0.00    -0.248 NA
ATOM     42  C   UNL     1       4.410   7.347   9.600  1.00  0.00     0.031 C 
ATOM     43  C   UNL     1       8.233   6.026   6.606  1.00  0.00     0.029 A 
ATOM     44  N   UNL     1       8.419   7.971   7.694  1.00  0.00    -0.354 N 
ATOM     45  C   UNL     1       5.099   9.461  10.099  1.00  0.00     0.074 A 
ATOM     46  C   UNL     1       4.035   8.486  10.157  1.00  0.00     0.031 C 
ATOM     47  C   UNL     1       9.403   6.580   6.244  1.00  0.00     0.029 A 
ATOM     48  C   UNL     1       9.537   7.877   6.900  1.00  0.00     0.049 A 
ATOM     49  H   UNL     1       8.253   8.725   8.305  1.00  0.00     0.167 HD
ATOM     50  C   UNL     1       5.063  10.661  10.723  1.00  0.00     0.034 A 
ATOM     51  C   UNL     1      10.543   8.753   6.714  1.00  0.00     0.034 A 
ATOM     52  C   UNL     1       6.162  11.584  10.713  1.00  0.00     0.049 A 
ATOM     53  C   UNL     1      10.514  10.053   7.476  1.00  0.00     0.074 A 
ATOM     54  C   UNL     1       6.284  12.787  11.382  1.00  0.00     0.029 A 
ATOM     55  N   UNL     1       7.336  11.397   9.998  1.00  0.00    -0.354 N 
ATOM     56  N   UNL     1       9.595  10.512   8.292  1.00  0.00    -0.248 NA
ATOM     57  C   UNL     1      11.676  10.939   7.321  1.00  0.00     0.031 C 
ATOM     58  C   UNL     1       7.529  13.336  11.058  1.00  0.00     0.029 A 
ATOM     59  C   UNL     1       8.193  12.460  10.213  1.00  0.00     0.049 A 
ATOM     60  H   UNL     1       7.530  10.622   9.423  1.00  0.00     0.167 HD
ATOM     61  C   UNL     1      10.086  11.716   8.783  1.00  0.00     0.074 A 
ATOM     62  C   UNL     1      11.391  11.907   8.181  1.00  0.00     0.031 C 
ATOM     63  C   UNL     1       9.511  12.590   9.646  1.00  0.00     0.034 A 
BRANCH  50  64
ATOM     64  C   UNL     1       3.820  11.007  11.501  1.00  0.00     0.023 A 
ATOM     65  C   UNL     1       3.503  10.290  12.674  1.00  0.00     0.012 A 
ATOM     66  C   UNL     1       2.976  12.056  11.087  1.00  0.00     0.148 A 
ATOM     67  C   UNL     1       2.343  10.576  13.393  1.00  0.00     0.002 A 
ATOM     68  C   UNL     1       1.851  12.372  11.840  1.00  0.00     0.091 A 
ATOM     69  F   UNL     1       3.277  12.712   9.958  1.00  0.00    -0.205 F 
ATOM     70  C   UNL     1       1.524  11.623  12.983  1.00  0.00     0.022 A 
BRANCH  68  71
ATOM     71  S   UNL     1       0.778  13.758  11.446  1.00  0.00     0.127 S 
ATOM     72  O   UNL     1      -0.435  13.075  10.999  1.00  0.00    -0.237 OA
ATOM     73  O   UNL     1       0.658  14.429  12.741  1.00  0.00    -0.237 OA
ATOM     74  O   UNL     1       1.475  14.528  10.425  1.00  0.00    -0.744 OA
ENDBRANCH  68  71
ENDBRANCH  50  64
BRANCH  51  75
ATOM     75  C   UNL     1      11.691   8.398   5.833  1.00  0.00     0.023 A 
ATOM     76  C   UNL     1      12.945   8.125   6.416  1.00  0.00     0.012 A 
ATOM     77  C   UNL     1      11.547   8.290   4.436  1.00  0.00     0.148 A 
ATOM     78  C   UNL     1      14.041   7.784   5.623  1.00  0.00     0.002 A 
ATOM     79  C   UNL     1      12.630   7.896   3.657  1.00  0.00     0.091 A 
ATOM     80  F   UNL     1      10.349   8.559   3.899  1.00  0.00    -0.205 F 
ATOM     81  C   UNL     1      13.882   7.660   4.246  1.00  0.00     0.022 A 
BRANCH  79  82
ATOM     82  S   UNL     1      12.489   7.582   1.894  1.00  0.00     0.127 S 
ATOM     83  O   UNL     1      13.267   8.682   1.330  1.00  0.00    -0.237 OA
ATOM     84  O   UNL     1      13.109   6.262   1.773  1.00  0.00    -0.237 OA
ATOM     85  O   UNL     1      11.062   7.603   1.603  1.00  0.00    -0.744 OA
ENDBRANCH  79  82
ENDBRANCH  51  75
BRANCH  63  86
ATOM     86  C   UNL     1      10.309  13.803  10.042  1.00  0.00     0.023 A 
ATOM     87  C   UNL     1      10.498  14.855   9.126  1.00  0.00     0.012 A 
ATOM     88  C   UNL     1      10.799  13.930  11.357  1.00  0.00     0.148 A 
ATOM     89  C   UNL     1      11.193  16.003   9.503  1.00  0.00     0.002 A 
ATOM     90  C   UNL     1      11.443  15.098  11.741  1.00  0.00     0.091 A 
ATOM     91  F   UNL     1      10.623  12.908  12.207  1.00  0.00    -0.205 F 
ATOM     92  C   UNL     1      11.653  16.130  10.812  1.00  0.00     0.022 A 
BRANCH  90  93
ATOM     93  S   UNL     1      11.975  15.389  13.432  1.00  0.00     0.127 S 
ATOM     94  O   UNL     1      13.426  15.255  13.315  1.00  0.00    -0.237 OA
ATOM     95  O   UNL     1      11.505  16.753  13.674  1.00  0.00    -0.237 OA
ATOM     96  O   UNL     1      11.315  14.372  14.240  1.00  0.00    -0.744 OA
ENDBRANCH  90  93
ENDBRANCH  63  86
ENDBRANCH  37  38
ENDBRANCH  29  32
ENDBRANCH  27  28
ENDBRANCH  26  27
ENDBRANCH   1  26
TORSDOF 17
