REMARK SMILES COC(=O)[C@H]1CCN(S(=O)(=O)N2CCC[C@H](C(=O)NCCCCNC(=O)c3ccc(-c4c5nc(c(-c6cccc(S(=O)(=O)[O-])c6F)c6ccc([nH]6)c(-c6cccc(S(=O)(=O)[O-])c6F)c6nc(c(-c7cccc(S(=O)(=O)[O-])c7F)c7ccc4[nH]7)C=C6)C=C5)cc3)C2)C1
REMARK SMILES IDX 21 1 20 2 19 3 17 4 18 5 16 7 12 8 13 9 90 10 14 11 15 12
REMARK SMILES IDX 9 13 10 14 11 15 8 16 5 17 6 18 91 19 7 20 3 21 4 22 2 23
REMARK SMILES IDX 1 24 22 25 23 26 24 27 25 28 26 30 27 31 28 32 89 33 29 34
REMARK SMILES IDX 88 35 30 36 31 37 32 38 82 39 33 40 87 41 81 42 83 43 34 44
REMARK SMILES IDX 86 45 80 46 79 47 35 49 67 50 47 51 66 52 48 53 51 54 65 55
REMARK SMILES IDX 84 56 49 57 50 58 64 60 85 61 52 62 36 63 37 64 45 65 38 66
REMARK SMILES IDX 40 67 46 68 39 69 41 70 42 71 43 72 44 73 68 74 69 75 77 76
REMARK SMILES IDX 70 77 72 78 78 79 71 80 73 81 74 82 75 83 76 84 53 85 54 86
REMARK SMILES IDX 62 87 55 88 57 89 63 90 56 91 58 92 59 93 60 94 61 95
REMARK H PARENT 19 6 24 29 83 48 51 59
REMARK Flexibility Score: inf
ROOT
ATOM      1  C   UNL     1      -3.949  -9.700  -4.984  1.00  0.00     0.023 C 
ENDROOT
BRANCH   1   2
ATOM      2  C   UNL     1      -3.645  -9.238  -3.563  1.00  0.00     0.116 C 
BRANCH   2   3
ATOM      3  N   UNL     1      -3.273 -10.336  -2.703  1.00  0.00    -0.356 N 
ATOM      4  C   UNL     1      -2.080 -10.685  -2.167  1.00  0.00     0.224 C 
ATOM      5  O   UNL     1      -2.073 -11.672  -1.421  1.00  0.00    -0.275 OA
ATOM      6  H   UNL     1      -4.016 -10.936  -2.465  1.00  0.00     0.163 HD
BRANCH   4   7
ATOM      7  C   UNL     1      -0.767  -9.941  -2.422  1.00  0.00     0.094 C 
ATOM      8  N   UNL     1      -1.022  -7.478  -2.841  1.00  0.00    -0.188 NA
ATOM      9  C   UNL     1      -0.382  -7.546  -4.162  1.00  0.00     0.103 C 
ATOM     10  C   UNL     1      -0.719  -8.534  -1.850  1.00  0.00     0.117 C 
ATOM     11  C   UNL     1      -0.459  -8.941  -4.776  1.00  0.00     0.018 C 
ATOM     12  C   UNL     1      -0.163 -10.083  -3.814  1.00  0.00     0.016 C 
BRANCH   8  13
ATOM     13  S   UNL     1      -1.597  -6.008  -2.272  1.00  0.00     0.282 S 
ATOM     14  O   UNL     1      -2.057  -6.196  -0.917  1.00  0.00    -0.195 OA
ATOM     15  O   UNL     1      -2.465  -5.440  -3.279  1.00  0.00    -0.195 OA
BRANCH  13  16
ATOM     16  N   UNL     1      -0.222  -5.016  -2.206  1.00  0.00    -0.188 NA
ATOM     17  C   UNL     1       0.669  -3.852  -0.258  1.00  0.00     0.116 C 
ATOM     18  C   UNL     1       1.154  -5.293  -0.317  1.00  0.00     0.033 C 
ATOM     19  C   UNL     1      -0.439  -3.799  -1.317  1.00  0.00     0.118 C 
ATOM     20  C   UNL     1       1.073  -5.583  -1.788  1.00  0.00     0.104 C 
BRANCH  17  21
ATOM     21  C   UNL     1       0.267  -3.510   1.153  1.00  0.00     0.310 C 
ATOM     22  O   UNL     1       0.678  -4.117   2.137  1.00  0.00    -0.252 OA
BRANCH  21  23
ATOM     23  O   UNL     1      -0.467  -2.368   1.210  1.00  0.00    -0.469 OA
ATOM     24  C   UNL     1      -0.719  -1.941   2.553  1.00  0.00     0.282 C 
ENDBRANCH  21  23
ENDBRANCH  17  21
ENDBRANCH  13  16
ENDBRANCH   8  13
ENDBRANCH   4   7
ENDBRANCH   2   3
ENDBRANCH   1   2
BRANCH   1  25
ATOM     25  C   UNL     1      -5.400 -10.092  -5.208  1.00  0.00     0.023 C 
BRANCH  25  26
ATOM     26  C   UNL     1      -6.400  -8.985  -4.909  1.00  0.00     0.116 C 
BRANCH  26  27
ATOM     27  N   UNL     1      -6.171  -7.758  -5.668  1.00  0.00    -0.352 N 
ATOM     28  C   UNL     1      -7.119  -6.960  -6.269  1.00  0.00     0.251 C 
ATOM     29  H   UNL     1      -5.235  -7.470  -5.760  1.00  0.00     0.163 HD
ATOM     30  O   UNL     1      -6.802  -6.015  -6.982  1.00  0.00    -0.269 OA
BRANCH  28  31
ATOM     31  C   UNL     1      -8.537  -7.306  -6.056  1.00  0.00     0.039 A 
ATOM     32  C   UNL     1      -9.356  -7.543  -7.160  1.00  0.00     0.014 A 
ATOM     33  C   UNL     1      -8.993  -7.543  -4.757  1.00  0.00     0.014 A 
ATOM     34  C   UNL     1     -10.619  -8.099  -6.959  1.00  0.00     0.010 A 
ATOM     35  C   UNL     1     -10.198  -8.202  -4.573  1.00  0.00     0.010 A 
ATOM     36  C   UNL     1     -11.031  -8.476  -5.669  1.00  0.00    -0.014 A 
BRANCH  36  37
ATOM     37  C   UNL     1     -12.333  -9.149  -5.436  1.00  0.00     0.031 A 
ATOM     38  C   UNL     1     -13.355  -8.506  -4.538  1.00  0.00     0.074 A 
ATOM     39  C   UNL     1     -12.562 -10.371  -5.957  1.00  0.00     0.049 A 
ATOM     40  N   UNL     1     -14.533  -8.945  -4.182  1.00  0.00    -0.248 NA
ATOM     41  C   UNL     1     -12.989  -7.216  -3.928  1.00  0.00     0.031 C 
ATOM     42  C   UNL     1     -11.619 -11.135  -6.777  1.00  0.00     0.029 A 
ATOM     43  N   UNL     1     -13.658 -11.192  -5.862  1.00  0.00    -0.354 N 
ATOM     44  C   UNL     1     -15.027  -8.011  -3.280  1.00  0.00     0.074 A 
ATOM     45  C   UNL     1     -13.998  -7.013  -3.098  1.00  0.00     0.031 C 
ATOM     46  C   UNL     1     -12.191 -12.295  -7.139  1.00  0.00     0.029 A 
ATOM     47  C   UNL     1     -13.522 -12.376  -6.548  1.00  0.00     0.049 A 
ATOM     48  H   UNL     1     -14.465 -10.955  -5.350  1.00  0.00     0.167 HD
ATOM     49  C   UNL     1     -16.241  -7.963  -2.683  1.00  0.00     0.034 A 
ATOM     50  C   UNL     1     -14.378 -13.407  -6.688  1.00  0.00     0.034 A 
ATOM     51  C   UNL     1     -17.272  -8.941  -2.894  1.00  0.00     0.049 A 
ATOM     52  C   UNL     1     -15.729 -13.327  -6.029  1.00  0.00     0.074 A 
ATOM     53  C   UNL     1     -18.569  -8.943  -2.415  1.00  0.00     0.029 A 
ATOM     54  N   UNL     1     -17.116 -10.103  -3.636  1.00  0.00    -0.354 N 
ATOM     55  N   UNL     1     -16.241 -12.358  -5.310  1.00  0.00    -0.248 NA
ATOM     56  C   UNL     1     -16.631 -14.470  -6.228  1.00  0.00     0.031 C 
ATOM     57  C   UNL     1     -19.184 -10.128  -2.831  1.00  0.00     0.029 A 
ATOM     58  C   UNL     1     -18.286 -10.842  -3.610  1.00  0.00     0.049 A 
ATOM     59  H   UNL     1     -16.295 -10.363  -4.112  1.00  0.00     0.167 HD
ATOM     60  C   UNL     1     -17.540 -12.753  -5.006  1.00  0.00     0.074 A 
ATOM     61  C   UNL     1     -17.737 -14.045  -5.632  1.00  0.00     0.031 C 
ATOM     62  C   UNL     1     -18.481 -12.108  -4.272  1.00  0.00     0.034 A 
BRANCH  49  63
ATOM     63  C   UNL     1     -16.515  -6.795  -1.769  1.00  0.00     0.023 A 
ATOM     64  C   UNL     1     -16.602  -5.490  -2.301  1.00  0.00     0.012 A 
ATOM     65  C   UNL     1     -16.687  -6.985  -0.385  1.00  0.00     0.148 A 
ATOM     66  C   UNL     1     -16.790  -4.390  -1.465  1.00  0.00     0.002 A 
ATOM     67  C   UNL     1     -16.931  -5.890   0.435  1.00  0.00     0.091 A 
ATOM     68  F   UNL     1     -16.581  -8.226   0.111  1.00  0.00    -0.205 F 
ATOM     69  C   UNL     1     -16.963  -4.591  -0.099  1.00  0.00     0.022 A 
BRANCH  67  70
ATOM     70  S   UNL     1     -17.256  -6.055   2.194  1.00  0.00     0.127 S 
ATOM     71  O   UNL     1     -16.013  -5.549   2.773  1.00  0.00    -0.237 OA
ATOM     72  O   UNL     1     -18.414  -5.178   2.376  1.00  0.00    -0.237 OA
ATOM     73  O   UNL     1     -17.526  -7.468   2.420  1.00  0.00    -0.744 OA
ENDBRANCH  67  70
ENDBRANCH  49  63
BRANCH  50  74
ATOM     74  C   UNL     1     -14.020 -14.560  -7.563  1.00  0.00     0.023 A 
ATOM     75  C   UNL     1     -14.694 -14.722  -8.790  1.00  0.00     0.012 A 
ATOM     76  C   UNL     1     -13.002 -15.467  -7.213  1.00  0.00     0.148 A 
ATOM     77  C   UNL     1     -14.381 -15.784  -9.640  1.00  0.00     0.002 A 
ATOM     78  C   UNL     1     -12.660 -16.493  -8.088  1.00  0.00     0.091 A 
ATOM     79  F   UNL     1     -12.376 -15.296  -6.041  1.00  0.00    -0.205 F 
ATOM     80  C   UNL     1     -13.359 -16.663  -9.294  1.00  0.00     0.022 A 
BRANCH  78  81
ATOM     81  S   UNL     1     -11.281 -17.604  -7.789  1.00  0.00     0.127 S 
ATOM     82  O   UNL     1     -11.957 -18.893  -7.663  1.00  0.00    -0.237 OA
ATOM     83  O   UNL     1     -10.494 -17.437  -9.011  1.00  0.00    -0.237 OA
ATOM     84  O   UNL     1     -10.633 -17.116  -6.580  1.00  0.00    -0.744 OA
ENDBRANCH  78  81
ENDBRANCH  50  74
BRANCH  62  85
ATOM     85  C   UNL     1     -19.831 -12.762  -4.136  1.00  0.00     0.023 A 
ATOM     86  C   UNL     1     -19.982 -13.918  -3.344  1.00  0.00     0.012 A 
ATOM     87  C   UNL     1     -20.967 -12.182  -4.736  1.00  0.00     0.148 A 
ATOM     88  C   UNL     1     -21.236 -14.506  -3.182  1.00  0.00     0.002 A 
ATOM     89  C   UNL     1     -22.221 -12.741  -4.523  1.00  0.00     0.091 A 
ATOM     90  F   UNL     1     -20.801 -11.092  -5.499  1.00  0.00    -0.205 F 
ATOM     91  C   UNL     1     -22.355 -13.912  -3.760  1.00  0.00     0.022 A 
BRANCH  89  92
ATOM     92  S   UNL     1     -23.730 -11.988  -5.141  1.00  0.00     0.127 S 
ATOM     93  O   UNL     1     -24.134 -12.936  -6.177  1.00  0.00    -0.237 OA
ATOM     94  O   UNL     1     -24.582 -11.984  -3.951  1.00  0.00    -0.237 OA
ATOM     95  O   UNL     1     -23.354 -10.665  -5.620  1.00  0.00    -0.744 OA
ENDBRANCH  89  92
ENDBRANCH  62  85
ENDBRANCH  36  37
ENDBRANCH  28  31
ENDBRANCH  26  27
ENDBRANCH  25  26
ENDBRANCH   1  25
TORSDOF 18
