REMARK SMILES O=C(NCCCCNC(=O)c1ccc(-c2c3nc(c(-c4cccc(S(=O)(=O)[O-])c4F)c4ccc([nH]4)c(-c4cccc(S(=O)(=O)[O-])c4F)c4nc(c(-c5cccc(S(=O)(=O)[O-])c5F)c5ccc2[nH]5)C=C4)C=C3)cc1)C1=C[C@H]2C(=N1)C=CC(Cl)=C2Cl
REMARK SMILES IDX 7 1 6 2 5 3 4 4 3 5 1 6 2 7 74 9 75 10 78 11 76 12 77 13
REMARK SMILES IDX 83 14 79 15 81 16 84 17 80 18 82 19 8 20 9 21 10 23 11 24
REMARK SMILES IDX 12 25 73 26 13 27 72 28 14 29 15 30 16 31 66 32 17 33 71 34
REMARK SMILES IDX 65 35 67 36 18 37 70 38 64 39 63 40 19 42 51 43 31 44 50 45
REMARK SMILES IDX 32 46 35 47 49 48 68 49 33 50 34 51 48 53 69 54 36 55 20 56
REMARK SMILES IDX 21 57 29 58 22 59 24 60 30 61 23 62 25 63 26 64 27 65 28 66
REMARK SMILES IDX 52 67 53 68 61 69 54 70 56 71 62 72 55 73 57 74 58 75 59 76
REMARK SMILES IDX 60 77 37 78 38 79 46 80 39 81 41 82 47 83 40 84 42 85 43 86
REMARK SMILES IDX 44 87 45 88
REMARK H PARENT 3 8 8 22 67 41 35 52
REMARK Flexibility Score: inf
ROOT
ATOM      1  C   UNL     1       4.829  -1.360  -3.785  1.00  0.00     0.116 C 
ENDROOT
BRANCH   1   2
ATOM      2  C   UNL     1       4.403  -2.187  -2.573  1.00  0.00     0.023 C 
BRANCH   2   3
ATOM      3  C   UNL     1       4.950  -1.744  -1.210  1.00  0.00     0.023 C 
BRANCH   3   4
ATOM      4  C   UNL     1       4.702  -0.287  -0.820  1.00  0.00     0.116 C 
BRANCH   4   5
ATOM      5  N   UNL     1       3.299   0.071  -0.807  1.00  0.00    -0.351 N 
ATOM      6  O   UNL     1       1.383   0.920  -0.002  1.00  0.00    -0.268 OA
ATOM      7  C   UNL     1       2.528   0.527   0.219  1.00  0.00     0.269 C 
ATOM      8  H   UNL     1       2.833  -0.031  -1.668  1.00  0.00     0.163 HD
BRANCH   7   9
ATOM      9  C   UNL     1       3.034   0.465   1.615  1.00  0.00     0.125 C 
ATOM     10  C   UNL     1       2.544  -0.491   2.414  1.00  0.00     0.023 C 
ATOM     11  N   UNL     1       3.663   1.501   2.278  1.00  0.00    -0.247 NA
ATOM     12  C   UNL     1       2.880  -0.152   3.814  1.00  0.00     0.106 C 
ATOM     13  C   UNL     1       3.494   1.209   3.531  1.00  0.00     0.054 C 
ATOM     14  C   UNL     1       1.813   0.038   4.846  1.00  0.00     0.050 C 
ATOM     15  C   UNL     1       3.812   2.080   4.688  1.00  0.00     0.026 C 
ATOM     16  C   UNL     1       2.124   0.791   5.918  1.00  0.00     0.056 C 
ATOM     17  Cl  UNL     1       0.157   0.132   4.299  1.00  0.00    -0.086 Cl
ATOM     18  C   UNL     1       3.168   1.803   5.835  1.00  0.00     0.023 C 
ATOM     19  Cl  UNL     1       1.851   0.096   7.488  1.00  0.00    -0.083 Cl
ENDBRANCH   7   9
ENDBRANCH   4   5
ENDBRANCH   3   4
ENDBRANCH   2   3
ENDBRANCH   1   2
BRANCH   1  20
ATOM     20  N   UNL     1       6.270  -1.333  -3.991  1.00  0.00    -0.352 N 
ATOM     21  C   UNL     1       7.006  -1.594  -5.122  1.00  0.00     0.251 C 
ATOM     22  H   UNL     1       6.799  -1.089  -3.198  1.00  0.00     0.163 HD
ATOM     23  O   UNL     1       8.239  -1.611  -5.044  1.00  0.00    -0.269 OA
BRANCH  21  24
ATOM     24  C   UNL     1       6.352  -1.887  -6.419  1.00  0.00     0.039 A 
ATOM     25  C   UNL     1       6.854  -2.930  -7.206  1.00  0.00     0.014 A 
ATOM     26  C   UNL     1       5.263  -1.141  -6.876  1.00  0.00     0.014 A 
ATOM     27  C   UNL     1       6.217  -3.275  -8.404  1.00  0.00     0.010 A 
ATOM     28  C   UNL     1       4.587  -1.532  -8.033  1.00  0.00     0.010 A 
ATOM     29  C   UNL     1       5.050  -2.607  -8.808  1.00  0.00    -0.014 A 
BRANCH  29  30
ATOM     30  C   UNL     1       4.282  -3.036 -10.011  1.00  0.00     0.031 A 
ATOM     31  C   UNL     1       4.086  -2.094 -11.170  1.00  0.00     0.074 A 
ATOM     32  C   UNL     1       3.668  -4.238 -10.017  1.00  0.00     0.049 A 
ATOM     33  N   UNL     1       3.371  -2.257 -12.254  1.00  0.00    -0.248 NA
ATOM     34  C   UNL     1       4.763  -0.788 -11.094  1.00  0.00     0.031 C 
ATOM     35  C   UNL     1       3.719  -5.221  -8.931  1.00  0.00     0.029 A 
ATOM     36  N   UNL     1       2.847  -4.824 -10.951  1.00  0.00    -0.354 N 
ATOM     37  C   UNL     1       3.467  -1.064 -12.960  1.00  0.00     0.074 A 
ATOM     38  C   UNL     1       4.304  -0.179 -12.179  1.00  0.00     0.031 C 
ATOM     39  C   UNL     1       2.960  -6.279  -9.257  1.00  0.00     0.029 A 
ATOM     40  C   UNL     1       2.333  -6.038 -10.553  1.00  0.00     0.049 A 
ATOM     41  H   UNL     1       2.645  -4.415 -11.823  1.00  0.00     0.167 HD
ATOM     42  C   UNL     1       2.920  -0.738 -14.155  1.00  0.00     0.034 A 
ATOM     43  C   UNL     1       1.441  -6.856 -11.148  1.00  0.00     0.034 A 
ATOM     44  C   UNL     1       2.130  -1.635 -14.956  1.00  0.00     0.049 A 
ATOM     45  C   UNL     1       0.875  -6.475 -12.491  1.00  0.00     0.074 A 
ATOM     46  C   UNL     1       1.633  -1.431 -16.232  1.00  0.00     0.029 A 
ATOM     47  N   UNL     1       1.703  -2.890 -14.556  1.00  0.00    -0.354 N 
ATOM     48  N   UNL     1       1.124  -5.415 -13.221  1.00  0.00    -0.248 NA
ATOM     49  C   UNL     1      -0.070  -7.418 -13.109  1.00  0.00     0.031 C 
ATOM     50  C   UNL     1       0.868  -2.545 -16.586  1.00  0.00     0.029 A 
ATOM     51  C   UNL     1       0.928  -3.462 -15.550  1.00  0.00     0.049 A 
ATOM     52  H   UNL     1       1.919  -3.312 -13.694  1.00  0.00     0.167 HD
ATOM     53  C   UNL     1       0.405  -5.587 -14.399  1.00  0.00     0.074 A 
ATOM     54  C   UNL     1      -0.275  -6.860 -14.294  1.00  0.00     0.031 C 
ATOM     55  C   UNL     1       0.307  -4.758 -15.466  1.00  0.00     0.034 A 
BRANCH  42  56
ATOM     56  C   UNL     1       3.174   0.641 -14.705  1.00  0.00     0.023 A 
ATOM     57  C   UNL     1       4.446   0.974 -15.210  1.00  0.00     0.012 A 
ATOM     58  C   UNL     1       2.118   1.568 -14.821  1.00  0.00     0.148 A 
ATOM     59  C   UNL     1       4.671   2.217 -15.801  1.00  0.00     0.002 A 
ATOM     60  C   UNL     1       2.338   2.786 -15.453  1.00  0.00     0.091 A 
ATOM     61  F   UNL     1       0.920   1.237 -14.320  1.00  0.00    -0.205 F 
ATOM     62  C   UNL     1       3.615   3.116 -15.934  1.00  0.00     0.022 A 
BRANCH  60  63
ATOM     63  S   UNL     1       1.024   3.974 -15.754  1.00  0.00     0.127 S 
ATOM     64  O   UNL     1       1.430   5.085 -14.891  1.00  0.00    -0.237 OA
ATOM     65  O   UNL     1       1.169   4.233 -17.187  1.00  0.00    -0.237 OA
ATOM     66  O   UNL     1      -0.214   3.314 -15.373  1.00  0.00    -0.744 OA
ENDBRANCH  60  63
ENDBRANCH  42  56
BRANCH  43  67
ATOM     67  C   UNL     1       1.040  -8.140 -10.501  1.00  0.00     0.023 A 
ATOM     68  C   UNL     1       1.407  -9.362 -11.099  1.00  0.00     0.012 A 
ATOM     69  C   UNL     1       0.284  -8.159  -9.314  1.00  0.00     0.148 A 
ATOM     70  C   UNL     1       0.985 -10.576 -10.556  1.00  0.00     0.002 A 
ATOM     71  C   UNL     1      -0.082  -9.373  -8.745  1.00  0.00     0.091 A 
ATOM     72  F   UNL     1      -0.068  -6.988  -8.764  1.00  0.00    -0.205 F 
ATOM     73  C   UNL     1       0.248 -10.582  -9.376  1.00  0.00     0.022 A 
BRANCH  71  74
ATOM     74  S   UNL     1      -0.918  -9.476  -7.158  1.00  0.00     0.127 S 
ATOM     75  O   UNL     1      -2.267  -9.874  -7.556  1.00  0.00    -0.237 OA
ATOM     76  O   UNL     1      -0.146 -10.517  -6.476  1.00  0.00    -0.237 OA
ATOM     77  O   UNL     1      -0.794  -8.154  -6.564  1.00  0.00    -0.744 OA
ENDBRANCH  71  74
ENDBRANCH  43  67
BRANCH  55  78
ATOM     78  C   UNL     1      -0.513  -5.215 -16.645  1.00  0.00     0.023 A 
ATOM     79  C   UNL     1      -1.918  -5.262 -16.556  1.00  0.00     0.012 A 
ATOM     80  C   UNL     1       0.113  -5.516 -17.872  1.00  0.00     0.148 A 
ATOM     81  C   UNL     1      -2.685  -5.632 -17.660  1.00  0.00     0.002 A 
ATOM     82  C   UNL     1      -0.661  -5.830 -18.982  1.00  0.00     0.091 A 
ATOM     83  F   UNL     1       1.452  -5.482 -17.932  1.00  0.00    -0.205 F 
ATOM     84  C   UNL     1      -2.059  -5.902 -18.875  1.00  0.00     0.022 A 
BRANCH  82  85
ATOM     85  S   UNL     1       0.051  -6.093 -20.611  1.00  0.00     0.127 S 
ATOM     86  O   UNL     1      -0.168  -7.526 -20.804  1.00  0.00    -0.237 OA
ATOM     87  O   UNL     1      -0.779  -5.231 -21.453  1.00  0.00    -0.237 OA
ATOM     88  O   UNL     1       1.445  -5.684 -20.513  1.00  0.00    -0.744 OA
ENDBRANCH  82  85
ENDBRANCH  55  78
ENDBRANCH  29  30
ENDBRANCH  21  24
ENDBRANCH   1  20
TORSDOF 14
