REMARK SMILES C[C@@H](C(=O)NCCCCNC(=O)c1ccc(-c2c3nc(c(-c4cccc(S(=O)(=O)[O-])c4F)c4ccc([nH]4)c(-c4cccc(S(=O)(=O)[O-])c4F)c4nc(c(-c5cccc(S(=O)(=O)[O-])c5F)c5ccc2[nH]5)C=C4)C=C3)cc1)c1ccc(C[C@@H]2CCC[C@@H]2O)cc1Br
REMARK SMILES IDX 7 1 6 2 5 3 3 4 4 5 2 7 1 8 76 9 77 10 88 11 78 12 87 13
REMARK SMILES IDX 89 14 79 15 80 16 81 17 82 18 85 19 83 20 84 21 86 22 8 24
REMARK SMILES IDX 9 25 10 26 11 27 12 29 13 30 14 31 75 32 15 33 74 34 16 35
REMARK SMILES IDX 17 36 18 37 68 38 19 39 73 40 67 41 69 42 20 43 72 44 66 45
REMARK SMILES IDX 65 46 21 48 53 49 33 50 52 51 34 52 37 53 51 54 70 55 35 56
REMARK SMILES IDX 36 57 50 59 71 60 38 61 22 62 23 63 31 64 24 65 26 66 32 67
REMARK SMILES IDX 25 68 27 69 28 70 29 71 30 72 54 73 55 74 63 75 56 76 58 77
REMARK SMILES IDX 64 78 57 79 59 80 60 81 61 82 62 83 39 84 40 85 48 86 41 87
REMARK SMILES IDX 43 88 49 89 42 90 44 91 45 92 46 93 47 94
REMARK H PARENT 5 6 86 23 10 28 69 47 37 58
REMARK Flexibility Score: inf
ROOT
ATOM      1  C   UNL     1     -11.502   6.010   7.420  1.00  0.00     0.023 C 
ENDROOT
BRANCH   1   2
ATOM      2  C   UNL     1     -11.305   4.497   7.340  1.00  0.00     0.116 C 
BRANCH   2   3
ATOM      3  N   UNL     1     -11.837   3.949   6.110  1.00  0.00    -0.356 N 
ATOM      4  C   UNL     1     -11.205   3.526   4.977  1.00  0.00     0.227 C 
ATOM      5  O   UNL     1     -11.916   3.015   4.109  1.00  0.00    -0.274 OA
ATOM      6  H   UNL     1     -12.818   3.868   6.088  1.00  0.00     0.163 HD
BRANCH   4   7
ATOM      7  C   UNL     1      -9.674   3.594   4.868  1.00  0.00     0.106 C 
ATOM      8  C   UNL     1      -9.068   4.997   5.005  1.00  0.00     0.023 C 
BRANCH   7   9
ATOM      9  C   UNL     1      -9.139   2.895   3.615  1.00  0.00    -0.022 A 
ATOM     10  C   UNL     1      -8.449   1.679   3.797  1.00  0.00     0.006 A 
ATOM     11  C   UNL     1      -9.260   3.386   2.303  1.00  0.00     0.022 A 
ATOM     12  C   UNL     1      -7.840   1.019   2.728  1.00  0.00     0.004 A 
ATOM     13  C   UNL     1      -8.621   2.733   1.240  1.00  0.00     0.019 A 
ATOM     14  Br  UNL     1     -10.259   4.934   1.833  1.00  0.00    -0.051 Br
ATOM     15  C   UNL     1      -7.872   1.569   1.446  1.00  0.00    -0.047 A 
BRANCH  15  16
ATOM     16  C   UNL     1      -7.111   0.950   0.303  1.00  0.00     0.041 C 
BRANCH  16  17
ATOM     17  C   UNL     1      -5.585   1.196   0.236  1.00  0.00     0.022 C 
ATOM     18  C   UNL     1      -4.781   0.562   1.377  1.00  0.00     0.007 C 
ATOM     19  C   UNL     1      -5.093   2.648   0.251  1.00  0.00     0.117 C 
ATOM     20  C   UNL     1      -4.479   1.680   2.379  1.00  0.00     0.003 C 
ATOM     21  C   UNL     1      -4.914   2.987   1.724  1.00  0.00     0.032 C 
BRANCH  19  22
ATOM     22  O   UNL     1      -5.947   3.563  -0.400  1.00  0.00    -0.393 OA
ATOM     23  H   UNL     1      -6.813   3.562   0.037  1.00  0.00     0.210 HD
ENDBRANCH  19  22
ENDBRANCH  16  17
ENDBRANCH  15  16
ENDBRANCH   7   9
ENDBRANCH   4   7
ENDBRANCH   2   3
ENDBRANCH   1   2
BRANCH   1  24
ATOM     24  C   UNL     1     -12.965   6.462   7.476  1.00  0.00     0.023 C 
BRANCH  24  25
ATOM     25  C   UNL     1     -13.796   5.866   8.609  1.00  0.00     0.116 C 
BRANCH  25  26
ATOM     26  N   UNL     1     -13.244   6.143   9.929  1.00  0.00    -0.352 N 
ATOM     27  C   UNL     1     -13.905   6.519  11.075  1.00  0.00     0.251 C 
ATOM     28  H   UNL     1     -12.268   6.047  10.011  1.00  0.00     0.163 HD
ATOM     29  O   UNL     1     -13.273   6.821  12.083  1.00  0.00    -0.269 OA
BRANCH  27  30
ATOM     30  C   UNL     1     -15.381   6.593  11.069  1.00  0.00     0.039 A 
ATOM     31  C   UNL     1     -15.999   7.776  11.481  1.00  0.00     0.014 A 
ATOM     32  C   UNL     1     -16.144   5.519  10.605  1.00  0.00     0.014 A 
ATOM     33  C   UNL     1     -17.383   7.917  11.342  1.00  0.00     0.010 A 
ATOM     34  C   UNL     1     -17.514   5.679  10.419  1.00  0.00     0.010 A 
ATOM     35  C   UNL     1     -18.143   6.886  10.766  1.00  0.00    -0.014 A 
BRANCH  35  36
ATOM     36  C   UNL     1     -19.580   7.069  10.436  1.00  0.00     0.031 A 
ATOM     37  C   UNL     1     -20.628   6.225  11.103  1.00  0.00     0.074 A 
ATOM     38  C   UNL     1     -19.919   7.896   9.426  1.00  0.00     0.049 A 
ATOM     39  N   UNL     1     -21.910   6.158  10.853  1.00  0.00    -0.248 NA
ATOM     40  C   UNL     1     -20.177   5.319  12.172  1.00  0.00     0.031 C 
ATOM     41  C   UNL     1     -18.981   8.702   8.640  1.00  0.00     0.029 A 
ATOM     42  N   UNL     1     -21.139   8.157   8.851  1.00  0.00    -0.354 N 
ATOM     43  C   UNL     1     -22.411   5.173  11.695  1.00  0.00     0.074 A 
ATOM     44  C   UNL     1     -21.294   4.664  12.461  1.00  0.00     0.031 C 
ATOM     45  C   UNL     1     -19.654   9.344   7.673  1.00  0.00     0.029 A 
ATOM     46  C   UNL     1     -21.064   8.977   7.748  1.00  0.00     0.049 A 
ATOM     47  H   UNL     1     -21.987   7.793   9.195  1.00  0.00     0.167 HD
ATOM     48  C   UNL     1     -23.689   4.748  11.830  1.00  0.00     0.034 A 
ATOM     49  C   UNL     1     -22.016   9.370   6.878  1.00  0.00     0.034 A 
ATOM     50  C   UNL     1     -24.805   5.303  11.114  1.00  0.00     0.049 A 
ATOM     51  C   UNL     1     -23.434   8.912   7.086  1.00  0.00     0.074 A 
ATOM     52  C   UNL     1     -26.153   5.045  11.296  1.00  0.00     0.029 A 
ATOM     53  N   UNL     1     -24.707   6.209  10.072  1.00  0.00    -0.354 N 
ATOM     54  N   UNL     1     -23.921   8.145   8.030  1.00  0.00    -0.248 NA
ATOM     55  C   UNL     1     -24.438   9.396   6.127  1.00  0.00     0.031 C 
ATOM     56  C   UNL     1     -26.869   5.781  10.346  1.00  0.00     0.029 A 
ATOM     57  C   UNL     1     -25.968   6.502   9.582  1.00  0.00     0.049 A 
ATOM     58  H   UNL     1     -23.865   6.589   9.731  1.00  0.00     0.167 HD
ATOM     59  C   UNL     1     -25.289   8.072   7.793  1.00  0.00     0.074 A 
ATOM     60  C   UNL     1     -25.558   8.897   6.633  1.00  0.00     0.031 C 
ATOM     61  C   UNL     1     -26.233   7.366   8.462  1.00  0.00     0.034 A 
BRANCH  48  62
ATOM     62  C   UNL     1     -23.974   3.668  12.837  1.00  0.00     0.023 A 
ATOM     63  C   UNL     1     -24.000   3.991  14.208  1.00  0.00     0.012 A 
ATOM     64  C   UNL     1     -24.320   2.366  12.422  1.00  0.00     0.148 A 
ATOM     65  C   UNL     1     -24.352   3.030  15.155  1.00  0.00     0.002 A 
ATOM     66  C   UNL     1     -24.702   1.424  13.370  1.00  0.00     0.091 A 
ATOM     67  F   UNL     1     -24.269   2.078  11.114  1.00  0.00    -0.205 F 
ATOM     68  C   UNL     1     -24.713   1.752  14.735  1.00  0.00     0.022 A 
BRANCH  66  69
ATOM     69  S   UNL     1     -25.252  -0.229  12.929  1.00  0.00     0.127 S 
ATOM     70  O   UNL     1     -24.150  -1.049  13.430  1.00  0.00    -0.237 OA
ATOM     71  O   UNL     1     -26.497  -0.351  13.688  1.00  0.00    -0.237 OA
ATOM     72  O   UNL     1     -25.419  -0.225  11.482  1.00  0.00    -0.744 OA
ENDBRANCH  66  69
ENDBRANCH  48  62
BRANCH  49  73
ATOM     73  C   UNL     1     -21.667  10.279   5.750  1.00  0.00     0.023 A 
ATOM     74  C   UNL     1     -22.124  11.611   5.771  1.00  0.00     0.012 A 
ATOM     75  C   UNL     1     -20.875   9.842   4.671  1.00  0.00     0.148 A 
ATOM     76  C   UNL     1     -21.825  12.482   4.722  1.00  0.00     0.002 A 
ATOM     77  C   UNL     1     -20.535  10.731   3.657  1.00  0.00     0.091 A 
ATOM     78  F   UNL     1     -20.466   8.565   4.655  1.00  0.00    -0.205 F 
ATOM     79  C   UNL     1     -21.022  12.046   3.671  1.00  0.00     0.022 A 
BRANCH  77  80
ATOM     80  S   UNL     1     -19.391  10.274   2.349  1.00  0.00     0.127 S 
ATOM     81  O   UNL     1     -20.301   9.912   1.267  1.00  0.00    -0.237 OA
ATOM     82  O   UNL     1     -18.646  11.515   2.138  1.00  0.00    -0.237 OA
ATOM     83  O   UNL     1     -18.592   9.192   2.910  1.00  0.00    -0.744 OA
ENDBRANCH  77  80
ENDBRANCH  49  73
BRANCH  61  84
ATOM     84  C   UNL     1     -27.652   7.454   7.971  1.00  0.00     0.023 A 
ATOM     85  C   UNL     1     -28.022   6.764   6.800  1.00  0.00     0.012 A 
ATOM     86  C   UNL     1     -28.635   8.141   8.710  1.00  0.00     0.148 A 
ATOM     87  C   UNL     1     -29.344   6.773   6.360  1.00  0.00     0.002 A 
ATOM     88  C   UNL     1     -29.960   8.109   8.290  1.00  0.00     0.091 A 
ATOM     89  F   UNL     1     -28.259   8.806   9.812  1.00  0.00    -0.205 F 
ATOM     90  C   UNL     1     -30.314   7.434   7.110  1.00  0.00     0.022 A 
BRANCH  88  91
ATOM     91  S   UNL     1     -31.290   8.854   9.240  1.00  0.00     0.127 S 
ATOM     92  O   UNL     1     -31.617  10.025   8.428  1.00  0.00    -0.237 OA
ATOM     93  O   UNL     1     -32.307   7.802   9.231  1.00  0.00    -0.237 OA
ATOM     94  O   UNL     1     -30.732   9.141  10.554  1.00  0.00    -0.744 OA
ENDBRANCH  88  91
ENDBRANCH  61  84
ENDBRANCH  35  36
ENDBRANCH  27  30
ENDBRANCH  25  26
ENDBRANCH  24  25
ENDBRANCH   1  24
TORSDOF 18
