REMARK SMILES [NH3+][C@H]1C=C[C@@H](C(=O)NC2(CC(=O)NCCCCNC(=O)c3ccc(-c4c5nc(c(-c6cccc(S(=O)(=O)[O-])c6F)c6ccc([nH]6)c(-c6cccc(S(=O)(=O)[O-])c6F)c6nc(c(-c7cccc(S(=O)(=O)[O-])c7F)c7ccc4[nH]7)C=C6)C=C5)cc3)CCC2)C1
REMARK SMILES IDX 15 1 14 2 13 3 11 4 12 5 10 7 9 8 84 9 86 10 85 11 8 12 6 13
REMARK SMILES IDX 7 14 5 16 2 17 3 18 87 19 4 20 1 21 16 25 17 26 18 27 19 28
REMARK SMILES IDX 20 30 21 31 22 32 83 33 23 34 82 35 24 36 25 37 26 38 76 39
REMARK SMILES IDX 27 40 81 41 75 42 77 43 28 44 80 45 74 46 73 47 29 49 61 50
REMARK SMILES IDX 41 51 60 52 42 53 45 54 59 55 78 56 43 57 44 58 58 60 79 61
REMARK SMILES IDX 46 62 30 63 31 64 39 65 32 66 34 67 40 68 33 69 35 70 36 71
REMARK SMILES IDX 37 72 38 73 62 74 63 75 71 76 64 77 66 78 72 79 65 80 67 81
REMARK SMILES IDX 68 82 69 83 70 84 47 85 48 86 56 87 49 88 51 89 57 90 50 91
REMARK SMILES IDX 52 92 53 93 54 94 55 95
REMARK H PARENT 13 6 8 15 1 22 1 23 1 24 18 29 77 48 45 59
REMARK Flexibility Score: inf
ROOT
ATOM      1  C   UNL     1       1.714  -3.065   1.737  1.00  0.00     0.023 C 
ENDROOT
BRANCH   1   2
ATOM      2  C   UNL     1       3.119  -3.369   2.256  1.00  0.00     0.116 C 
BRANCH   2   3
ATOM      3  N   UNL     1       3.679  -4.503   1.554  1.00  0.00    -0.356 N 
ATOM      4  C   UNL     1       4.336  -4.525   0.362  1.00  0.00     0.222 C 
ATOM      5  O   UNL     1       4.534  -5.611  -0.186  1.00  0.00    -0.275 OA
ATOM      6  H   UNL     1       3.571  -5.375   1.997  1.00  0.00     0.163 HD
BRANCH   4   7
ATOM      7  C   UNL     1       4.824  -3.248  -0.288  1.00  0.00     0.128 C 
BRANCH   7   8
ATOM      8  C   UNL     1       3.846  -2.525  -1.249  1.00  0.00     0.049 C 
ATOM      9  C   UNL     1       4.600  -1.563  -2.223  1.00  0.00     0.029 C 
ATOM     10  C   UNL     1       3.220  -1.260  -0.623  1.00  0.00     0.029 C 
ATOM     11  C   UNL     1       4.349  -0.419  -1.232  1.00  0.00     0.005 C 
BRANCH   8  12
ATOM     12  N   UNL     1       3.011  -3.513  -1.972  1.00  0.00    -0.350 N 
ATOM     13  C   UNL     1       1.859  -3.560  -2.690  1.00  0.00     0.227 C 
ATOM     14  O   UNL     1       1.619  -4.668  -3.199  1.00  0.00    -0.274 OA
ATOM     15  H   UNL     1       3.416  -4.409  -1.916  1.00  0.00     0.164 HD
BRANCH  13  16
ATOM     16  C   UNL     1       0.829  -2.447  -2.915  1.00  0.00     0.107 C 
ATOM     17  C   UNL     1      -0.366  -0.595  -1.849  1.00  0.00     0.205 C 
ATOM     18  C   UNL     1       0.630  -0.117  -2.857  1.00  0.00     0.033 C 
ATOM     19  C   UNL     1      -0.027  -2.088  -1.697  1.00  0.00     0.087 C 
ATOM     20  C   UNL     1       1.297  -1.126  -3.431  1.00  0.00    -0.012 C 
BRANCH  17  21
ATOM     21  N   UNL     1      -0.266   0.147  -0.604  1.00  0.00    -0.352 N 
ATOM     22  H   UNL     1      -0.501   1.125  -0.770  1.00  0.00     0.345 HD
ATOM     23  H   UNL     1       0.688   0.083  -0.246  1.00  0.00     0.345 HD
ATOM     24  H   UNL     1      -0.912  -0.247   0.080  1.00  0.00     0.345 HD
ENDBRANCH  17  21
ENDBRANCH  13  16
ENDBRANCH   8  12
ENDBRANCH   7   8
ENDBRANCH   4   7
ENDBRANCH   2   3
ENDBRANCH   1   2
BRANCH   1  25
ATOM     25  C   UNL     1       0.597  -3.907   2.348  1.00  0.00     0.023 C 
BRANCH  25  26
ATOM     26  C   UNL     1       0.367  -3.657   3.830  1.00  0.00     0.116 C 
BRANCH  26  27
ATOM     27  N   UNL     1       0.008  -2.280   4.141  1.00  0.00    -0.352 N 
ATOM     28  C   UNL     1      -0.744  -1.817   5.195  1.00  0.00     0.251 C 
ATOM     29  H   UNL     1       0.346  -1.596   3.519  1.00  0.00     0.163 HD
ATOM     30  O   UNL     1      -1.040  -0.627   5.261  1.00  0.00    -0.269 OA
BRANCH  28  31
ATOM     31  C   UNL     1      -1.222  -2.770   6.221  1.00  0.00     0.039 A 
ATOM     32  C   UNL     1      -2.549  -2.694   6.652  1.00  0.00     0.014 A 
ATOM     33  C   UNL     1      -0.374  -3.753   6.733  1.00  0.00     0.014 A 
ATOM     34  C   UNL     1      -3.032  -3.635   7.563  1.00  0.00     0.010 A 
ATOM     35  C   UNL     1      -0.883  -4.749   7.556  1.00  0.00     0.010 A 
ATOM     36  C   UNL     1      -2.208  -4.684   8.006  1.00  0.00    -0.014 A 
BRANCH  36  37
ATOM     37  C   UNL     1      -2.697  -5.694   8.977  1.00  0.00     0.031 A 
ATOM     38  C   UNL     1      -2.031  -5.827  10.322  1.00  0.00     0.074 A 
ATOM     39  C   UNL     1      -3.684  -6.541   8.625  1.00  0.00     0.049 A 
ATOM     40  N   UNL     1      -2.297  -6.658  11.296  1.00  0.00    -0.248 NA
ATOM     41  C   UNL     1      -0.887  -4.939  10.594  1.00  0.00     0.031 C 
ATOM     42  C   UNL     1      -4.336  -6.586   7.314  1.00  0.00     0.029 A 
ATOM     43  N   UNL     1      -4.298  -7.541   9.334  1.00  0.00    -0.354 N 
ATOM     44  C   UNL     1      -1.333  -6.422  12.270  1.00  0.00     0.074 A 
ATOM     45  C   UNL     1      -0.444  -5.410  11.749  1.00  0.00     0.031 C 
ATOM     46  C   UNL     1      -5.269  -7.552   7.319  1.00  0.00     0.029 A 
ATOM     47  C   UNL     1      -5.272  -8.204   8.625  1.00  0.00     0.049 A 
ATOM     48  H   UNL     1      -4.063  -7.764  10.264  1.00  0.00     0.167 HD
ATOM     49  C   UNL     1      -1.220  -6.966  13.505  1.00  0.00     0.034 A 
ATOM     50  C   UNL     1      -6.084  -9.214   8.993  1.00  0.00     0.034 A 
ATOM     51  C   UNL     1      -2.146  -7.923  14.043  1.00  0.00     0.049 A 
ATOM     52  C   UNL     1      -6.008  -9.729  10.406  1.00  0.00     0.074 A 
ATOM     53  C   UNL     1      -2.186  -8.464  15.315  1.00  0.00     0.029 A 
ATOM     54  N   UNL     1      -3.202  -8.480  13.337  1.00  0.00    -0.354 N 
ATOM     55  N   UNL     1      -5.199  -9.370  11.373  1.00  0.00    -0.248 NA
ATOM     56  C   UNL     1      -6.992 -10.750  10.793  1.00  0.00     0.031 C 
ATOM     57  C   UNL     1      -3.261  -9.359  15.374  1.00  0.00     0.029 A 
ATOM     58  C   UNL     1      -3.904  -9.355  14.146  1.00  0.00     0.049 A 
ATOM     59  H   UNL     1      -3.420  -8.281  12.398  1.00  0.00     0.167 HD
ATOM     60  C   UNL     1      -5.602 -10.088  12.494  1.00  0.00     0.074 A 
ATOM     61  C   UNL     1      -6.741 -10.886  12.088  1.00  0.00     0.031 C 
ATOM     62  C   UNL     1      -5.071 -10.097  13.742  1.00  0.00     0.034 A 
BRANCH  49  63
ATOM     63  C   UNL     1      -0.088  -6.484  14.377  1.00  0.00     0.023 A 
ATOM     64  C   UNL     1      -0.112  -5.167  14.883  1.00  0.00     0.012 A 
ATOM     65  C   UNL     1       0.980  -7.334  14.720  1.00  0.00     0.148 A 
ATOM     66  C   UNL     1       0.931  -4.689  15.675  1.00  0.00     0.002 A 
ATOM     67  C   UNL     1       1.991  -6.866  15.552  1.00  0.00     0.091 A 
ATOM     68  F   UNL     1       1.000  -8.575  14.212  1.00  0.00    -0.205 F 
ATOM     69  C   UNL     1       1.976  -5.541  16.017  1.00  0.00     0.022 A 
BRANCH  67  70
ATOM     70  S   UNL     1       3.339  -7.911  16.117  1.00  0.00     0.127 S 
ATOM     71  O   UNL     1       4.461  -7.393  15.336  1.00  0.00    -0.237 OA
ATOM     72  O   UNL     1       3.394  -7.598  17.545  1.00  0.00    -0.237 OA
ATOM     73  O   UNL     1       2.940  -9.278  15.812  1.00  0.00    -0.744 OA
ENDBRANCH  67  70
ENDBRANCH  49  63
BRANCH  50  74
ATOM     74  C   UNL     1      -7.110  -9.726   8.041  1.00  0.00     0.023 A 
ATOM     75  C   UNL     1      -8.469  -9.432   8.267  1.00  0.00     0.012 A 
ATOM     76  C   UNL     1      -6.748 -10.467   6.901  1.00  0.00     0.148 A 
ATOM     77  C   UNL     1      -9.453  -9.895   7.393  1.00  0.00     0.002 A 
ATOM     78  C   UNL     1      -7.728 -10.880   6.005  1.00  0.00     0.091 A 
ATOM     79  F   UNL     1      -5.450 -10.741   6.707  1.00  0.00    -0.205 F 
ATOM     80  C   UNL     1      -9.082 -10.610   6.258  1.00  0.00     0.022 A 
BRANCH  78  81
ATOM     81  S   UNL     1      -7.334 -11.691   4.451  1.00  0.00     0.127 S 
ATOM     82  O   UNL     1      -7.817 -13.048   4.692  1.00  0.00    -0.237 OA
ATOM     83  O   UNL     1      -8.127 -10.915   3.497  1.00  0.00    -0.237 OA
ATOM     84  O   UNL     1      -5.894 -11.550   4.289  1.00  0.00    -0.744 OA
ENDBRANCH  78  81
ENDBRANCH  50  74
BRANCH  62  85
ATOM     85  C   UNL     1      -5.742 -10.959  14.778  1.00  0.00     0.023 A 
ATOM     86  C   UNL     1      -5.630 -12.362  14.707  1.00  0.00     0.012 A 
ATOM     87  C   UNL     1      -6.435 -10.374  15.856  1.00  0.00     0.148 A 
ATOM     88  C   UNL     1      -6.232 -13.170  15.671  1.00  0.00     0.002 A 
ATOM     89  C   UNL     1      -6.988 -11.184  16.840  1.00  0.00     0.091 A 
ATOM     90  F   UNL     1      -6.550  -9.039  15.896  1.00  0.00    -0.205 F 
ATOM     91  C   UNL     1      -6.901 -12.582  16.742  1.00  0.00     0.022 A 
BRANCH  89  92
ATOM     92  S   UNL     1      -7.776 -10.500  18.302  1.00  0.00     0.127 S 
ATOM     93  O   UNL     1      -9.192 -10.626  17.966  1.00  0.00    -0.237 OA
ATOM     94  O   UNL     1      -7.318 -11.403  19.359  1.00  0.00    -0.237 OA
ATOM     95  O   UNL     1      -7.272  -9.138  18.420  1.00  0.00    -0.744 OA
ENDBRANCH  89  92
ENDBRANCH  62  85
ENDBRANCH  36  37
ENDBRANCH  28  31
ENDBRANCH  26  27
ENDBRANCH  25  26
ENDBRANCH   1  25
TORSDOF 18
