REMARK SMILES O=C(NCCCCNC(=O)[C@H]1CN(C(=O)C[C@H]2NC(=O)c3ccccc32)C[C@@H]1c1ccc(F)cc1)c1ccc(-c2c3nc(c(-c4cccc(S(=O)(=O)[O-])c4F)c4ccc([nH]4)c(-c4cccc(S(=O)(=O)[O-])c4F)c4nc(c(-c5cccc(S(=O)(=O)[O-])c5F)c5ccc2[nH]5)C=C4)C=C3)cc1
REMARK SMILES IDX 5 1 4 2 3 3 1 4 2 5 36 7 37 8 98 9 38 10 97 11 39 12 40 13
REMARK SMILES IDX 41 14 91 15 42 16 96 17 90 18 92 19 43 20 95 21 89 22 88 23
REMARK SMILES IDX 44 25 76 26 56 27 75 28 57 29 60 30 74 31 93 32 58 33 59 34
REMARK SMILES IDX 73 36 94 37 61 38 45 39 46 40 54 41 47 42 49 43 55 44 48 45
REMARK SMILES IDX 50 46 51 47 52 48 53 49 77 50 78 51 86 52 79 53 81 54 87 55
REMARK SMILES IDX 80 56 82 57 83 58 84 59 85 60 62 61 63 62 71 63 64 64 66 65
REMARK SMILES IDX 72 66 65 67 67 68 68 69 69 70 70 71 6 72 7 73 8 74 9 75
REMARK SMILES IDX 10 77 11 78 12 79 28 80 13 81 27 82 29 83 30 84 35 85 31 86
REMARK SMILES IDX 34 87 32 88 33 89 14 90 15 91 16 92 17 93 18 94 26 95 19 96
REMARK SMILES IDX 21 98 25 99 20 100 22 101 24 102 23 103
REMARK H PARENT 3 6 92 24 60 35 8 76 18 97
REMARK Flexibility Score: inf
ROOT
ATOM      1  C   UNL     1       5.738 -11.677   3.857  1.00  0.00     0.023 C 
ENDROOT
BRANCH   1   2
ATOM      2  C   UNL     1       6.296 -10.573   4.743  1.00  0.00     0.116 C 
BRANCH   2   3
ATOM      3  N   UNL     1       6.686  -9.348   4.047  1.00  0.00    -0.352 N 
ATOM      4  O   UNL     1       6.829  -7.090   3.808  1.00  0.00    -0.269 OA
ATOM      5  C   UNL     1       6.529  -8.051   4.504  1.00  0.00     0.251 C 
ATOM      6  H   UNL     1       7.103  -9.456   3.162  1.00  0.00     0.163 HD
BRANCH   5   7
ATOM      7  C   UNL     1       5.934  -7.886   5.844  1.00  0.00     0.039 A 
ATOM      8  C   UNL     1       6.466  -8.630   6.896  1.00  0.00     0.014 A 
ATOM      9  C   UNL     1       4.719  -7.214   5.979  1.00  0.00     0.014 A 
ATOM     10  C   UNL     1       5.657  -8.917   7.981  1.00  0.00     0.010 A 
ATOM     11  C   UNL     1       3.978  -7.383   7.152  1.00  0.00     0.010 A 
ATOM     12  C   UNL     1       4.409  -8.288   8.135  1.00  0.00    -0.014 A 
BRANCH  12  13
ATOM     13  C   UNL     1       3.612  -8.566   9.359  1.00  0.00     0.031 A 
ATOM     14  C   UNL     1       2.206  -9.105   9.291  1.00  0.00     0.074 A 
ATOM     15  C   UNL     1       4.196  -8.345  10.555  1.00  0.00     0.049 A 
ATOM     16  N   UNL     1       1.389  -9.376  10.277  1.00  0.00    -0.248 NA
ATOM     17  C   UNL     1       1.635  -9.373   7.960  1.00  0.00     0.031 C 
ATOM     18  C   UNL     1       5.546  -7.802  10.743  1.00  0.00     0.029 A 
ATOM     19  N   UNL     1       3.746  -8.549  11.834  1.00  0.00    -0.354 N 
ATOM     20  C   UNL     1       0.197  -9.789   9.692  1.00  0.00     0.074 A 
ATOM     21  C   UNL     1       0.395  -9.742   8.260  1.00  0.00     0.031 C 
ATOM     22  C   UNL     1       5.831  -7.761  12.049  1.00  0.00     0.029 A 
ATOM     23  C   UNL     1       4.653  -8.173  12.797  1.00  0.00     0.049 A 
ATOM     24  H   UNL     1       2.861  -8.928  12.042  1.00  0.00     0.167 HD
ATOM     25  C   UNL     1      -0.949 -10.180  10.298  1.00  0.00     0.034 A 
ATOM     26  C   UNL     1       4.543  -8.116  14.137  1.00  0.00     0.034 A 
ATOM     27  C   UNL     1      -1.116 -10.269  11.725  1.00  0.00     0.049 A 
ATOM     28  C   UNL     1       3.257  -8.551  14.772  1.00  0.00     0.074 A 
ATOM     29  C   UNL     1      -2.220 -10.719  12.430  1.00  0.00     0.029 A 
ATOM     30  N   UNL     1      -0.168  -9.895  12.665  1.00  0.00    -0.354 N 
ATOM     31  N   UNL     1       2.183  -9.036  14.201  1.00  0.00    -0.248 NA
ATOM     32  C   UNL     1       3.171  -8.447  16.234  1.00  0.00     0.031 C 
ATOM     33  C   UNL     1      -1.955 -10.578  13.793  1.00  0.00     0.029 A 
ATOM     34  C   UNL     1      -0.670 -10.083  13.941  1.00  0.00     0.049 A 
ATOM     35  H   UNL     1       0.729  -9.548  12.455  1.00  0.00     0.167 HD
ATOM     36  C   UNL     1       1.298  -9.312  15.233  1.00  0.00     0.074 A 
ATOM     37  C   UNL     1       1.975  -8.972  16.468  1.00  0.00     0.031 C 
ATOM     38  C   UNL     1       0.031  -9.784  15.163  1.00  0.00     0.034 A 
BRANCH  25  39
ATOM     39  C   UNL     1      -2.126 -10.584   9.445  1.00  0.00     0.023 A 
ATOM     40  C   UNL     1      -2.121 -11.831   8.792  1.00  0.00     0.012 A 
ATOM     41  C   UNL     1      -3.299  -9.799   9.429  1.00  0.00     0.148 A 
ATOM     42  C   UNL     1      -3.260 -12.290   8.131  1.00  0.00     0.002 A 
ATOM     43  C   UNL     1      -4.444 -10.283   8.806  1.00  0.00     0.091 A 
ATOM     44  F   UNL     1      -3.279  -8.611  10.049  1.00  0.00    -0.205 F 
ATOM     45  C   UNL     1      -4.424 -11.525   8.151  1.00  0.00     0.022 A 
BRANCH  43  46
ATOM     46  S   UNL     1      -6.019  -9.420   8.853  1.00  0.00     0.127 S 
ATOM     47  O   UNL     1      -6.237  -9.130   7.436  1.00  0.00    -0.237 OA
ATOM     48  O   UNL     1      -6.908 -10.439   9.410  1.00  0.00    -0.237 OA
ATOM     49  O   UNL     1      -5.817  -8.252   9.697  1.00  0.00    -0.744 OA
ENDBRANCH  43  46
ENDBRANCH  25  39
BRANCH  26  50
ATOM     50  C   UNL     1       5.690  -7.624  14.949  1.00  0.00     0.023 A 
ATOM     51  C   UNL     1       6.370  -8.512  15.803  1.00  0.00     0.012 A 
ATOM     52  C   UNL     1       6.144  -6.294  14.835  1.00  0.00     0.148 A 
ATOM     53  C   UNL     1       7.466  -8.076  16.548  1.00  0.00     0.002 A 
ATOM     54  C   UNL     1       7.277  -5.887  15.526  1.00  0.00     0.091 A 
ATOM     55  F   UNL     1       5.476  -5.462  14.023  1.00  0.00    -0.205 F 
ATOM     56  C   UNL     1       7.928  -6.771  16.400  1.00  0.00     0.022 A 
BRANCH  54  57
ATOM     57  S   UNL     1       8.030  -4.277  15.273  1.00  0.00     0.127 S 
ATOM     58  O   UNL     1       7.747  -3.613  16.542  1.00  0.00    -0.237 OA
ATOM     59  O   UNL     1       9.433  -4.631  15.060  1.00  0.00    -0.237 OA
ATOM     60  O   UNL     1       7.370  -3.714  14.102  1.00  0.00    -0.744 OA
ENDBRANCH  54  57
ENDBRANCH  26  50
BRANCH  38  61
ATOM     61  C   UNL     1      -0.716  -9.987  16.453  1.00  0.00     0.023 A 
ATOM     62  C   UNL     1      -1.182  -8.869  17.171  1.00  0.00     0.012 A 
ATOM     63  C   UNL     1      -1.054 -11.283  16.888  1.00  0.00     0.148 A 
ATOM     64  C   UNL     1      -1.960  -9.039  18.315  1.00  0.00     0.002 A 
ATOM     65  C   UNL     1      -1.876 -11.443  17.996  1.00  0.00     0.091 A 
ATOM     66  F   UNL     1      -0.586 -12.331  16.195  1.00  0.00    -0.205 F 
ATOM     67  C   UNL     1      -2.320 -10.323  18.718  1.00  0.00     0.022 A 
BRANCH  65  68
ATOM     68  S   UNL     1      -2.480 -13.049  18.527  1.00  0.00     0.127 S 
ATOM     69  O   UNL     1      -1.828 -13.196  19.828  1.00  0.00    -0.237 OA
ATOM     70  O   UNL     1      -3.924 -12.828  18.589  1.00  0.00    -0.237 OA
ATOM     71  O   UNL     1      -2.052 -14.000  17.511  1.00  0.00    -0.744 OA
ENDBRANCH  65  68
ENDBRANCH  38  61
ENDBRANCH  12  13
ENDBRANCH   5   7
ENDBRANCH   2   3
ENDBRANCH   1   2
BRANCH   1  72
ATOM     72  C   UNL     1       6.655 -12.078   2.717  1.00  0.00     0.023 C 
BRANCH  72  73
ATOM     73  C   UNL     1       8.060 -12.490   3.154  1.00  0.00     0.116 C 
BRANCH  73  74
ATOM     74  N   UNL     1       8.236 -13.923   3.243  1.00  0.00    -0.356 N 
ATOM     75  C   UNL     1       9.028 -14.784   2.561  1.00  0.00     0.225 C 
ATOM     76  H   UNL     1       7.675 -14.353   3.928  1.00  0.00     0.163 HD
ATOM     77  O   UNL     1       9.261 -15.865   3.117  1.00  0.00    -0.275 OA
BRANCH  75  78
ATOM     78  C   UNL     1       9.573 -14.567   1.154  1.00  0.00     0.107 C 
ATOM     79  C   UNL     1       9.074 -13.398   0.339  1.00  0.00     0.133 C 
ATOM     80  C   UNL     1      11.111 -14.405   1.078  1.00  0.00     0.053 C 
ATOM     81  N   UNL     1      10.023 -12.322   0.563  1.00  0.00    -0.341 N 
ATOM     82  C   UNL     1      11.254 -12.860   1.138  1.00  0.00     0.128 C 
BRANCH  80  83
ATOM     83  C   UNL     1      11.787 -14.972  -0.184  1.00  0.00    -0.042 A 
ATOM     84  C   UNL     1      13.157 -14.715  -0.397  1.00  0.00     0.007 A 
ATOM     85  C   UNL     1      11.117 -15.743  -1.152  1.00  0.00     0.007 A 
ATOM     86  C   UNL     1      13.803 -15.144  -1.561  1.00  0.00     0.039 A 
ATOM     87  C   UNL     1      11.764 -16.176  -2.314  1.00  0.00     0.039 A 
ATOM     88  C   UNL     1      13.097 -15.861  -2.514  1.00  0.00     0.123 A 
ATOM     89  F   UNL     1      13.707 -16.256  -3.639  1.00  0.00    -0.207 F 
ENDBRANCH  80  83
BRANCH  81  90
ATOM     90  C   UNL     1       9.848 -10.961   0.387  1.00  0.00     0.225 C 
ATOM     91  O   UNL     1      10.772 -10.172   0.587  1.00  0.00    -0.275 OA
BRANCH  90  92
ATOM     92  C   UNL     1       8.446 -10.436   0.067  1.00  0.00     0.130 C 
BRANCH  92  93
ATOM     93  C   UNL     1       8.129 -10.089  -1.382  1.00  0.00     0.123 C 
ATOM     94  N   UNL     1       8.991  -9.057  -1.901  1.00  0.00    -0.345 N 
ATOM     95  C   UNL     1       8.403 -11.234  -2.307  1.00  0.00    -0.012 A 
ATOM     96  C   UNL     1       9.887  -9.536  -2.829  1.00  0.00     0.252 C 
ATOM     97  H   UNL     1       8.944  -8.114  -1.622  1.00  0.00     0.164 HD
ATOM     98  C   UNL     1       9.550 -10.948  -3.047  1.00  0.00     0.045 A 
ATOM     99  C   UNL     1       7.772 -12.461  -2.428  1.00  0.00     0.007 A 
ATOM    100  O   UNL     1      10.757  -8.909  -3.405  1.00  0.00    -0.269 OA
ATOM    101  C   UNL     1      10.190 -11.900  -3.810  1.00  0.00     0.014 A 
ATOM    102  C   UNL     1       8.399 -13.441  -3.207  1.00  0.00     0.000 A 
ATOM    103  C   UNL     1       9.617 -13.172  -3.861  1.00  0.00     0.001 A 
ENDBRANCH  92  93
ENDBRANCH  90  92
ENDBRANCH  81  90
ENDBRANCH  75  78
ENDBRANCH  73  74
ENDBRANCH  72  73
ENDBRANCH   1  72
TORSDOF 18
