REMARK SMILES C[N@H+]([C@H]1CCC[C@]([NH3+])(C(=O)NCCCCNC(=O)c2ccc(-c3c4nc(c(-c5cccc(S(=O)(=O)[O-])c5F)c5ccc([nH]5)c(-c5cccc(S(=O)(=O)[O-])c5F)c5nc(c(-c6cccc(S(=O)(=O)[O-])c6F)c6ccc3[nH]6)C=C5)C=C4)cc2)C1)[C@H]1CC[C@H](C)CC1
REMARK SMILES IDX 14 1 13 2 12 3 11 4 9 5 10 6 7 8 3 9 4 10 82 11 5 12 6 13
REMARK SMILES IDX 2 14 1 15 83 17 87 18 86 19 85 20 88 21 84 22 89 23 8 24
REMARK SMILES IDX 15 28 16 29 17 30 18 32 19 33 20 34 81 35 21 36 80 37 22 38
REMARK SMILES IDX 23 39 24 40 74 41 25 42 79 43 73 44 75 45 26 46 78 47 72 48
REMARK SMILES IDX 71 49 27 51 59 52 39 53 58 54 40 55 43 56 57 57 76 58 41 59
REMARK SMILES IDX 42 60 56 62 77 63 44 64 28 65 29 66 37 67 30 68 32 69 38 70
REMARK SMILES IDX 31 71 33 72 34 73 35 74 36 75 60 76 61 77 69 78 62 79 64 80
REMARK SMILES IDX 70 81 63 82 65 83 66 84 67 85 68 86 45 87 46 88 54 89 47 90
REMARK SMILES IDX 49 91 55 92 48 93 50 94 51 95 52 96 53 97
REMARK H PARENT 11 7 2 16 8 25 8 26 8 27 16 31 75 50 43 61
REMARK Flexibility Score: inf
ROOT
ATOM      1  C   UNL     1      -2.744  -4.108   8.212  1.00  0.00     0.023 C 
ENDROOT
BRANCH   1   2
ATOM      2  C   UNL     1      -3.171  -2.939   7.336  1.00  0.00     0.023 C 
BRANCH   2   3
ATOM      3  C   UNL     1      -2.020  -2.180   6.681  1.00  0.00     0.116 C 
BRANCH   3   4
ATOM      4  N   UNL     1      -1.448  -2.842   5.514  1.00  0.00    -0.351 N 
ATOM      5  C   UNL     1      -1.620  -2.555   4.169  1.00  0.00     0.281 C 
ATOM      6  O   UNL     1      -0.994  -3.211   3.334  1.00  0.00    -0.268 OA
ATOM      7  H   UNL     1      -0.854  -3.603   5.710  1.00  0.00     0.163 HD
BRANCH   5   8
ATOM      8  C   UNL     1      -2.551  -1.353   3.777  1.00  0.00     0.179 C 
ATOM      9  C   UNL     1      -3.525   0.120   1.837  1.00  0.00     0.190 C 
ATOM     10  C   UNL     1      -2.535   1.251   2.145  1.00  0.00     0.065 C 
ATOM     11  C   UNL     1      -2.863  -1.239   2.271  1.00  0.00     0.144 C 
ATOM     12  C   UNL     1      -2.090   1.290   3.597  1.00  0.00     0.013 C 
ATOM     13  C   UNL     1      -1.722  -0.079   4.171  1.00  0.00     0.079 C 
BRANCH   9  14
ATOM     14  N   UNL     1      -4.944   0.377   2.249  1.00  0.00    -0.332 N 
ATOM     15  C   UNL     1      -5.160   0.758   3.657  1.00  0.00     0.333 C 
ATOM     16  H   UNL     1      -5.328  -0.553   2.082  1.00  0.00     0.348 HD
BRANCH  14  17
ATOM     17  C   UNL     1      -5.657   1.416   1.440  1.00  0.00     0.184 C 
ATOM     18  C   UNL     1      -8.366   3.911  -0.889  1.00  0.00     0.007 C 
ATOM     19  C   UNL     1      -7.740   2.636  -0.328  1.00  0.00    -0.014 C 
ATOM     20  C   UNL     1      -7.868   2.634   1.192  1.00  0.00     0.009 C 
ATOM     21  C   UNL     1      -6.275   2.502  -0.762  1.00  0.00     0.009 C 
ATOM     22  C   UNL     1      -7.168   1.432   1.805  1.00  0.00     0.065 C 
ATOM     23  C   UNL     1      -5.554   1.321  -0.095  1.00  0.00     0.065 C 
ENDBRANCH  14  17
ENDBRANCH   9  14
BRANCH   8  24
ATOM     24  N   UNL     1      -3.838  -1.699   4.415  1.00  0.00    -0.345 N 
ATOM     25  H   UNL     1      -3.704  -1.791   5.422  1.00  0.00     0.345 HD
ATOM     26  H   UNL     1      -4.179  -2.581   4.035  1.00  0.00     0.345 HD
ATOM     27  H   UNL     1      -4.518  -0.962   4.228  1.00  0.00     0.345 HD
ENDBRANCH   8  24
ENDBRANCH   5   8
ENDBRANCH   3   4
ENDBRANCH   2   3
ENDBRANCH   1   2
BRANCH   1  28
ATOM     28  C   UNL     1      -1.665  -3.783   9.235  1.00  0.00     0.116 C 
BRANCH  28  29
ATOM     29  N   UNL     1      -1.992  -2.658  10.104  1.00  0.00    -0.352 N 
ATOM     30  C   UNL     1      -1.710  -2.509  11.442  1.00  0.00     0.251 C 
ATOM     31  H   UNL     1      -2.475  -1.913   9.680  1.00  0.00     0.163 HD
ATOM     32  O   UNL     1      -2.126  -1.533  12.060  1.00  0.00    -0.269 OA
BRANCH  30  33
ATOM     33  C   UNL     1      -0.941  -3.564  12.132  1.00  0.00     0.039 A 
ATOM     34  C   UNL     1      -1.452  -4.109  13.310  1.00  0.00     0.014 A 
ATOM     35  C   UNL     1       0.232  -4.072  11.566  1.00  0.00     0.014 A 
ATOM     36  C   UNL     1      -0.829  -5.221  13.877  1.00  0.00     0.010 A 
ATOM     37  C   UNL     1       0.798  -5.232  12.082  1.00  0.00     0.010 A 
ATOM     38  C   UNL     1       0.273  -5.821  13.242  1.00  0.00    -0.014 A 
BRANCH  38  39
ATOM     39  C   UNL     1       0.853  -7.087  13.757  1.00  0.00     0.031 A 
ATOM     40  C   UNL     1       2.282  -7.143  14.223  1.00  0.00     0.074 A 
ATOM     41  C   UNL     1       0.110  -8.212  13.729  1.00  0.00     0.049 A 
ATOM     42  N   UNL     1       2.948  -8.157  14.710  1.00  0.00    -0.248 NA
ATOM     43  C   UNL     1       3.075  -5.908  14.101  1.00  0.00     0.031 C 
ATOM     44  C   UNL     1      -1.252  -8.314  13.198  1.00  0.00     0.029 A 
ATOM     45  N   UNL     1       0.400  -9.489  14.139  1.00  0.00    -0.354 N 
ATOM     46  C   UNL     1       4.241  -7.695  14.925  1.00  0.00     0.074 A 
ATOM     47  C   UNL     1       4.278  -6.321  14.476  1.00  0.00     0.031 C 
ATOM     48  C   UNL     1      -1.684  -9.578  13.331  1.00  0.00     0.029 A 
ATOM     49  C   UNL     1      -0.626 -10.382  13.934  1.00  0.00     0.049 A 
ATOM     50  H   UNL     1       1.262  -9.742  14.542  1.00  0.00     0.167 HD
ATOM     51  C   UNL     1       5.294  -8.344  15.477  1.00  0.00     0.034 A 
ATOM     52  C   UNL     1      -0.708 -11.699  14.206  1.00  0.00     0.034 A 
ATOM     53  C   UNL     1       5.242  -9.698  15.959  1.00  0.00     0.049 A 
ATOM     54  C   UNL     1       0.454 -12.378  14.878  1.00  0.00     0.074 A 
ATOM     55  C   UNL     1       6.223 -10.412  16.625  1.00  0.00     0.029 A 
ATOM     56  N   UNL     1       4.156 -10.547  15.819  1.00  0.00    -0.354 N 
ATOM     57  N   UNL     1       1.606 -11.872  15.246  1.00  0.00    -0.248 NA
ATOM     58  C   UNL     1       0.287 -13.800  15.212  1.00  0.00     0.031 C 
ATOM     59  C   UNL     1       5.737 -11.702  16.866  1.00  0.00     0.029 A 
ATOM     60  C   UNL     1       4.444 -11.783  16.374  1.00  0.00     0.049 A 
ATOM     61  H   UNL     1       3.304 -10.308  15.387  1.00  0.00     0.167 HD
ATOM     62  C   UNL     1       2.290 -12.903  15.878  1.00  0.00     0.074 A 
ATOM     63  C   UNL     1       1.408 -14.053  15.873  1.00  0.00     0.031 C 
ATOM     64  C   UNL     1       3.543 -12.906  16.398  1.00  0.00     0.034 A 
BRANCH  51  65
ATOM     65  C   UNL     1       6.577  -7.572  15.647  1.00  0.00     0.023 A 
ATOM     66  C   UNL     1       6.647  -6.544  16.610  1.00  0.00     0.012 A 
ATOM     67  C   UNL     1       7.726  -7.897  14.900  1.00  0.00     0.148 A 
ATOM     68  C   UNL     1       7.828  -5.828  16.803  1.00  0.00     0.002 A 
ATOM     69  C   UNL     1       8.913  -7.210  15.130  1.00  0.00     0.091 A 
ATOM     70  F   UNL     1       7.636  -8.862  13.973  1.00  0.00    -0.205 F 
ATOM     71  C   UNL     1       8.962  -6.168  16.072  1.00  0.00     0.022 A 
BRANCH  69  72
ATOM     72  S   UNL     1      10.450  -7.623  14.299  1.00  0.00     0.127 S 
ATOM     73  O   UNL     1      10.621  -6.476  13.407  1.00  0.00    -0.237 OA
ATOM     74  O   UNL     1      11.398  -7.676  15.412  1.00  0.00    -0.237 OA
ATOM     75  O   UNL     1      10.219  -8.900  13.638  1.00  0.00    -0.744 OA
ENDBRANCH  69  72
ENDBRANCH  51  65
BRANCH  52  76
ATOM     76  C   UNL     1      -1.966 -12.442  13.914  1.00  0.00     0.023 A 
ATOM     77  C   UNL     1      -2.775 -12.880  14.982  1.00  0.00     0.012 A 
ATOM     78  C   UNL     1      -2.381 -12.692  12.592  1.00  0.00     0.148 A 
ATOM     79  C   UNL     1      -3.955 -13.582  14.739  1.00  0.00     0.002 A 
ATOM     80  C   UNL     1      -3.587 -13.342  12.357  1.00  0.00     0.091 A 
ATOM     81  F   UNL     1      -1.593 -12.278  11.590  1.00  0.00    -0.205 F 
ATOM     82  C   UNL     1      -4.367 -13.804  13.428  1.00  0.00     0.022 A 
BRANCH  80  83
ATOM     83  S   UNL     1      -4.261 -13.549  10.704  1.00  0.00     0.127 S 
ATOM     84  O   UNL     1      -4.096 -14.984  10.492  1.00  0.00    -0.237 OA
ATOM     85  O   UNL     1      -5.645 -13.108  10.885  1.00  0.00    -0.237 OA
ATOM     86  O   UNL     1      -3.464 -12.684   9.846  1.00  0.00    -0.744 OA
ENDBRANCH  80  83
ENDBRANCH  52  76
BRANCH  64  87
ATOM     87  C   UNL     1       4.029 -14.189  17.023  1.00  0.00     0.023 A 
ATOM     88  C   UNL     1       4.328 -15.296  16.204  1.00  0.00     0.012 A 
ATOM     89  C   UNL     1       4.232 -14.284  18.414  1.00  0.00     0.148 A 
ATOM     90  C   UNL     1       4.776 -16.492  16.763  1.00  0.00     0.002 A 
ATOM     91  C   UNL     1       4.728 -15.463  18.959  1.00  0.00     0.091 A 
ATOM     92  F   UNL     1       3.925 -13.228  19.181  1.00  0.00    -0.205 F 
ATOM     93  C   UNL     1       4.986 -16.573  18.137  1.00  0.00     0.022 A 
BRANCH  91  94
ATOM     94  S   UNL     1       5.117 -15.621  20.705  1.00  0.00     0.127 S 
ATOM     95  O   UNL     1       3.986 -16.407  21.194  1.00  0.00    -0.237 OA
ATOM     96  O   UNL     1       6.392 -16.339  20.678  1.00  0.00    -0.237 OA
ATOM     97  O   UNL     1       5.206 -14.260  21.217  1.00  0.00    -0.744 OA
ENDBRANCH  91  94
ENDBRANCH  64  87
ENDBRANCH  38  39
ENDBRANCH  30  33
ENDBRANCH  28  29
ENDBRANCH   1  28
TORSDOF 17
