REMARK SMILES CC(C)N1C[C@H](C(=O)N[C@@H]2C=C[C@@H](C(=O)NCCCCNC(=O)c3ccc(-c4c5nc(c(-c6cccc(S(=O)(=O)[O-])c6F)c6ccc([nH]6)c(-c6cccc(S(=O)(=O)[O-])c6F)c6nc(c(-c7cccc(S(=O)(=O)[O-])c7F)c7ccc4[nH]7)C=C6)C=C5)cc3)C2)CC1=O
REMARK SMILES IDX 18 1 17 2 16 3 14 4 15 5 13 7 10 8 11 9 87 10 12 11 9 12
REMARK SMILES IDX 7 13 8 14 6 16 4 17 5 18 89 19 88 20 90 21 2 22 1 23 3 24
REMARK SMILES IDX 19 25 20 26 21 27 22 28 23 30 24 31 25 32 86 33 26 34 85 35
REMARK SMILES IDX 27 36 28 37 29 38 79 39 30 40 84 41 78 42 80 43 31 44 83 45
REMARK SMILES IDX 77 46 76 47 32 49 64 50 44 51 63 52 45 53 48 54 62 55 81 56
REMARK SMILES IDX 46 57 47 58 61 60 82 61 49 62 33 63 34 64 42 65 35 66 37 67
REMARK SMILES IDX 43 68 36 69 38 70 39 71 40 72 41 73 65 74 66 75 74 76 67 77
REMARK SMILES IDX 69 78 75 79 68 80 70 81 71 82 72 83 73 84 50 85 51 86 59 87
REMARK SMILES IDX 52 88 54 89 60 90 53 91 55 92 56 93 57 94 58 95
REMARK H PARENT 16 6 9 15 21 29 80 48 48 59
REMARK Flexibility Score: inf
ROOT
ATOM      1  C   UNL     1      -6.364   2.429  -4.097  1.00  0.00     0.023 C 
ENDROOT
BRANCH   1   2
ATOM      2  C   UNL     1      -6.718   3.196  -2.819  1.00  0.00     0.116 C 
BRANCH   2   3
ATOM      3  N   UNL     1      -8.136   3.151  -2.522  1.00  0.00    -0.356 N 
ATOM      4  C   UNL     1      -8.811   2.492  -1.541  1.00  0.00     0.227 C 
ATOM      5  O   UNL     1     -10.028   2.678  -1.456  1.00  0.00    -0.274 OA
ATOM      6  H   UNL     1      -8.701   3.682  -3.128  1.00  0.00     0.163 HD
BRANCH   4   7
ATOM      7  C   UNL     1      -8.117   1.528  -0.577  1.00  0.00     0.103 C 
ATOM      8  C   UNL     1      -6.101   0.129  -0.424  1.00  0.00     0.106 C 
ATOM      9  C   UNL     1      -6.025   1.341   0.459  1.00  0.00    -0.006 C 
ATOM     10  C   UNL     1      -7.317   0.446  -1.286  1.00  0.00     0.047 C 
ATOM     11  C   UNL     1      -7.116   2.115   0.365  1.00  0.00    -0.016 C 
BRANCH   8  12
ATOM     12  N   UNL     1      -6.168  -1.047   0.415  1.00  0.00    -0.350 N 
ATOM     13  C   UNL     1      -6.335  -2.357   0.059  1.00  0.00     0.225 C 
ATOM     14  O   UNL     1      -5.902  -3.220   0.822  1.00  0.00    -0.275 OA
ATOM     15  H   UNL     1      -6.080  -0.881   1.382  1.00  0.00     0.164 HD
BRANCH  13  16
ATOM     16  C   UNL     1      -7.088  -2.699  -1.218  1.00  0.00     0.107 C 
ATOM     17  N   UNL     1      -8.142  -4.795  -1.005  1.00  0.00    -0.339 N 
ATOM     18  C   UNL     1      -6.988  -4.161  -1.612  1.00  0.00     0.133 C 
ATOM     19  C   UNL     1      -9.112  -3.863  -0.667  1.00  0.00     0.223 C 
ATOM     20  C   UNL     1      -8.587  -2.502  -1.000  1.00  0.00     0.115 C 
ATOM     21  O   UNL     1     -10.232  -4.051  -0.227  1.00  0.00    -0.275 OA
BRANCH  17  22
ATOM     22  C   UNL     1      -8.321  -6.252  -1.020  1.00  0.00     0.078 C 
ATOM     23  C   UNL     1      -7.074  -6.964  -0.489  1.00  0.00     0.031 C 
ATOM     24  C   UNL     1      -9.542  -6.745  -0.240  1.00  0.00     0.031 C 
ENDBRANCH  17  22
ENDBRANCH  13  16
ENDBRANCH   8  12
ENDBRANCH   4   7
ENDBRANCH   2   3
ENDBRANCH   1   2
BRANCH   1  25
ATOM     25  C   UNL     1      -6.832   3.090  -5.387  1.00  0.00     0.023 C 
BRANCH  25  26
ATOM     26  C   UNL     1      -6.404   4.538  -5.534  1.00  0.00     0.116 C 
BRANCH  26  27
ATOM     27  N   UNL     1      -4.965   4.719  -5.382  1.00  0.00    -0.352 N 
ATOM     28  C   UNL     1      -4.136   5.538  -6.108  1.00  0.00     0.251 C 
ATOM     29  H   UNL     1      -4.536   4.189  -4.672  1.00  0.00     0.163 HD
ATOM     30  O   UNL     1      -2.920   5.485  -5.961  1.00  0.00    -0.269 OA
BRANCH  28  31
ATOM     31  C   UNL     1      -4.744   6.454  -7.090  1.00  0.00     0.039 A 
ATOM     32  C   UNL     1      -4.262   6.460  -8.399  1.00  0.00     0.014 A 
ATOM     33  C   UNL     1      -5.849   7.232  -6.729  1.00  0.00     0.014 A 
ATOM     34  C   UNL     1      -4.933   7.208  -9.366  1.00  0.00     0.010 A 
ATOM     35  C   UNL     1      -6.569   7.893  -7.713  1.00  0.00     0.010 A 
ATOM     36  C   UNL     1      -6.112   7.899  -9.039  1.00  0.00    -0.014 A 
BRANCH  36  37
ATOM     37  C   UNL     1      -6.881   8.638 -10.070  1.00  0.00     0.031 A 
ATOM     38  C   UNL     1      -7.083  10.122  -9.934  1.00  0.00     0.074 A 
ATOM     39  C   UNL     1      -7.459   7.963 -11.083  1.00  0.00     0.049 A 
ATOM     40  N   UNL     1      -7.764  10.934 -10.698  1.00  0.00    -0.248 NA
ATOM     41  C   UNL     1      -6.461  10.778  -8.770  1.00  0.00     0.031 C 
ATOM     42  C   UNL     1      -7.406   6.511 -11.275  1.00  0.00     0.029 A 
ATOM     43  N   UNL     1      -8.226   8.406 -12.131  1.00  0.00    -0.354 N 
ATOM     44  C   UNL     1      -7.674  12.184 -10.099  1.00  0.00     0.074 A 
ATOM     45  C   UNL     1      -6.918  12.016  -8.879  1.00  0.00     0.031 C 
ATOM     46  C   UNL     1      -8.104   6.186 -12.375  1.00  0.00     0.029 A 
ATOM     47  C   UNL     1      -8.682   7.398 -12.947  1.00  0.00     0.049 A 
ATOM     48  H   UNL     1      -8.431   9.357 -12.284  1.00  0.00     0.167 HD
ATOM     49  C   UNL     1      -8.145  13.374 -10.542  1.00  0.00     0.034 A 
ATOM     50  C   UNL     1      -9.487   7.444 -14.027  1.00  0.00     0.034 A 
ATOM     51  C   UNL     1      -8.871  13.540 -11.770  1.00  0.00     0.049 A 
ATOM     52  C   UNL     1      -9.982   8.781 -14.508  1.00  0.00     0.074 A 
ATOM     53  C   UNL     1      -9.336  14.711 -12.342  1.00  0.00     0.029 A 
ATOM     54  N   UNL     1      -9.246  12.506 -12.614  1.00  0.00    -0.354 N 
ATOM     55  N   UNL     1      -9.761   9.973 -14.008  1.00  0.00    -0.248 NA
ATOM     56  C   UNL     1     -10.806   8.786 -15.725  1.00  0.00     0.031 C 
ATOM     57  C   UNL     1     -10.017  14.381 -13.518  1.00  0.00     0.029 A 
ATOM     58  C   UNL     1      -9.942  13.009 -13.699  1.00  0.00     0.049 A 
ATOM     59  H   UNL     1      -9.047  11.554 -12.463  1.00  0.00     0.167 HD
ATOM     60  C   UNL     1     -10.383  10.869 -14.868  1.00  0.00     0.074 A 
ATOM     61  C   UNL     1     -10.970  10.084 -15.934  1.00  0.00     0.031 C 
ATOM     62  C   UNL     1     -10.473  12.219 -14.779  1.00  0.00     0.034 A 
BRANCH  49  63
ATOM     63  C   UNL     1      -7.835  14.597  -9.718  1.00  0.00     0.023 A 
ATOM     64  C   UNL     1      -6.508  15.072  -9.652  1.00  0.00     0.012 A 
ATOM     65  C   UNL     1      -8.856  15.306  -9.056  1.00  0.00     0.148 A 
ATOM     66  C   UNL     1      -6.196  16.210  -8.910  1.00  0.00     0.002 A 
ATOM     67  C   UNL     1      -8.544  16.468  -8.360  1.00  0.00     0.091 A 
ATOM     68  F   UNL     1     -10.107  14.829  -9.114  1.00  0.00    -0.205 F 
ATOM     69  C   UNL     1      -7.215  16.913  -8.274  1.00  0.00     0.022 A 
BRANCH  67  70
ATOM     70  S   UNL     1      -9.791  17.492  -7.573  1.00  0.00     0.127 S 
ATOM     71  O   UNL     1      -9.475  17.306  -6.157  1.00  0.00    -0.237 OA
ATOM     72  O   UNL     1      -9.472  18.820  -8.099  1.00  0.00    -0.237 OA
ATOM     73  O   UNL     1     -11.078  16.960  -7.998  1.00  0.00    -0.744 OA
ENDBRANCH  67  70
ENDBRANCH  49  63
BRANCH  50  74
ATOM     74  C   UNL     1      -9.842   6.191 -14.753  1.00  0.00     0.023 A 
ATOM     75  C   UNL     1      -9.351   5.976 -16.056  1.00  0.00     0.012 A 
ATOM     76  C   UNL     1     -10.661   5.212 -14.159  1.00  0.00     0.148 A 
ATOM     77  C   UNL     1      -9.706   4.831 -16.770  1.00  0.00     0.002 A 
ATOM     78  C   UNL     1     -10.960   4.045 -14.853  1.00  0.00     0.091 A 
ATOM     79  F   UNL     1     -11.126   5.437 -12.922  1.00  0.00    -0.205 F 
ATOM     80  C   UNL     1     -10.502   3.863 -16.167  1.00  0.00     0.022 A 
BRANCH  78  81
ATOM     81  S   UNL     1     -11.866   2.688 -14.103  1.00  0.00     0.127 S 
ATOM     82  O   UNL     1     -13.142   2.753 -14.810  1.00  0.00    -0.237 OA
ATOM     83  O   UNL     1     -11.027   1.539 -14.448  1.00  0.00    -0.237 OA
ATOM     84  O   UNL     1     -11.913   2.987 -12.678  1.00  0.00    -0.744 OA
ENDBRANCH  78  81
ENDBRANCH  50  74
BRANCH  62  85
ATOM     85  C   UNL     1     -11.190  12.946 -15.887  1.00  0.00     0.023 A 
ATOM     86  C   UNL     1     -12.589  12.844 -16.011  1.00  0.00     0.012 A 
ATOM     87  C   UNL     1     -10.476  13.786 -16.766  1.00  0.00     0.148 A 
ATOM     88  C   UNL     1     -13.263  13.537 -17.016  1.00  0.00     0.002 A 
ATOM     89  C   UNL     1     -11.161  14.515 -17.729  1.00  0.00     0.091 A 
ATOM     90  F   UNL     1      -9.143  13.856 -16.642  1.00  0.00    -0.205 F 
ATOM     91  C   UNL     1     -12.552  14.381 -17.866  1.00  0.00     0.022 A 
BRANCH  89  92
ATOM     92  S   UNL     1     -10.343  15.701 -18.802  1.00  0.00     0.127 S 
ATOM     93  O   UNL     1     -10.417  15.030 -20.099  1.00  0.00    -0.237 OA
ATOM     94  O   UNL     1     -11.203  16.877 -18.674  1.00  0.00    -0.237 OA
ATOM     95  O   UNL     1      -9.000  15.871 -18.265  1.00  0.00    -0.744 OA
ENDBRANCH  89  92
ENDBRANCH  62  85
ENDBRANCH  36  37
ENDBRANCH  28  31
ENDBRANCH  26  27
ENDBRANCH  25  26
ENDBRANCH   1  25
TORSDOF 17
