REMARK SMILES O=C(NCCCCNC(=O)c1ccc(OC[C@H]2C[C@H]3CC[C@@H]2C3)c(Cl)c1)c1ccc(-c2c3nc(c(-c4cccc(S(=O)(=O)[O-])c4F)c4ccc([nH]4)c(-c4cccc(S(=O)(=O)[O-])c4F)c4nc(c(-c5cccc(S(=O)(=O)[O-])c5F)c5ccc2[nH]5)C=C4)C=C3)cc1
REMARK SMILES IDX 5 1 4 2 3 3 1 4 2 5 27 7 28 8 89 9 29 10 88 11 30 12 31 13
REMARK SMILES IDX 32 14 82 15 33 16 87 17 81 18 83 19 34 20 86 21 80 22 79 23
REMARK SMILES IDX 35 25 67 26 47 27 66 28 48 29 51 30 65 31 84 32 49 33 50 34
REMARK SMILES IDX 64 36 85 37 52 38 36 39 37 40 45 41 38 42 40 43 46 44 39 45
REMARK SMILES IDX 41 46 42 47 43 48 44 49 68 50 69 51 77 52 70 53 72 54 78 55
REMARK SMILES IDX 71 56 73 57 74 58 75 59 76 60 53 61 54 62 62 63 55 64 57 65
REMARK SMILES IDX 63 66 56 67 58 68 59 69 60 70 61 71 6 72 7 73 8 74 9 75
REMARK SMILES IDX 10 77 11 78 12 79 26 80 13 81 24 82 14 83 25 84 15 85 16 86
REMARK SMILES IDX 17 87 18 88 22 89 19 90 21 91 23 92 20 93
REMARK H PARENT 3 6 83 24 51 35 8 76
REMARK Flexibility Score: inf
ROOT
ATOM      1  C   UNL     1      -0.024  14.278  12.836  1.00  0.00     0.023 C 
ENDROOT
BRANCH   1   2
ATOM      2  C   UNL     1      -1.432  13.906  13.286  1.00  0.00     0.116 C 
BRANCH   2   3
ATOM      3  N   UNL     1      -1.446  12.892  14.326  1.00  0.00    -0.352 N 
ATOM      4  O   UNL     1      -2.051  11.950  16.279  1.00  0.00    -0.269 OA
ATOM      5  C   UNL     1      -2.260  12.812  15.431  1.00  0.00     0.251 C 
ATOM      6  H   UNL     1      -0.787  12.168  14.226  1.00  0.00     0.163 HD
BRANCH   5   7
ATOM      7  C   UNL     1      -3.359  13.787  15.602  1.00  0.00     0.039 A 
ATOM      8  C   UNL     1      -4.229  14.079  14.547  1.00  0.00     0.014 A 
ATOM      9  C   UNL     1      -3.525  14.408  16.843  1.00  0.00     0.014 A 
ATOM     10  C   UNL     1      -5.202  15.063  14.704  1.00  0.00     0.010 A 
ATOM     11  C   UNL     1      -4.539  15.353  17.016  1.00  0.00     0.010 A 
ATOM     12  C   UNL     1      -5.374  15.700  15.943  1.00  0.00    -0.014 A 
BRANCH  12  13
ATOM     13  C   UNL     1      -6.508  16.637  16.133  1.00  0.00     0.031 A 
ATOM     14  C   UNL     1      -6.285  18.103  16.368  1.00  0.00     0.074 A 
ATOM     15  C   UNL     1      -7.757  16.133  16.122  1.00  0.00     0.049 A 
ATOM     16  N   UNL     1      -7.174  19.049  16.529  1.00  0.00    -0.248 NA
ATOM     17  C   UNL     1      -4.892  18.573  16.441  1.00  0.00     0.031 C 
ATOM     18  C   UNL     1      -8.087  14.713  15.967  1.00  0.00     0.029 A 
ATOM     19  N   UNL     1      -8.976  16.744  16.259  1.00  0.00    -0.354 N 
ATOM     20  C   UNL     1      -6.457  20.216  16.757  1.00  0.00     0.074 A 
ATOM     21  C   UNL     1      -5.053  19.863  16.713  1.00  0.00     0.031 C 
ATOM     22  C   UNL     1      -9.418  14.563  16.014  1.00  0.00     0.029 A 
ATOM     23  C   UNL     1     -10.034  15.866  16.236  1.00  0.00     0.049 A 
ATOM     24  H   UNL     1      -9.084  17.717  16.363  1.00  0.00     0.167 HD
ATOM     25  C   UNL     1      -6.929  21.468  16.964  1.00  0.00     0.034 A 
ATOM     26  C   UNL     1     -11.355  16.081  16.392  1.00  0.00     0.034 A 
ATOM     27  C   UNL     1      -8.325  21.820  16.952  1.00  0.00     0.049 A 
ATOM     28  C   UNL     1     -11.844  17.484  16.595  1.00  0.00     0.074 A 
ATOM     29  C   UNL     1      -8.894  23.080  17.021  1.00  0.00     0.029 A 
ATOM     30  N   UNL     1      -9.370  20.913  16.885  1.00  0.00    -0.354 N 
ATOM     31  N   UNL     1     -11.155  18.599  16.616  1.00  0.00    -0.248 NA
ATOM     32  C   UNL     1     -13.291  17.665  16.775  1.00  0.00     0.031 C 
ATOM     33  C   UNL     1     -10.286  22.932  17.012  1.00  0.00     0.029 A 
ATOM     34  C   UNL     1     -10.581  21.581  16.938  1.00  0.00     0.049 A 
ATOM     35  H   UNL     1      -9.266  19.936  16.810  1.00  0.00     0.167 HD
ATOM     36  C   UNL     1     -12.083  19.615  16.806  1.00  0.00     0.074 A 
ATOM     37  C   UNL     1     -13.388  18.985  16.855  1.00  0.00     0.031 C 
ATOM     38  C   UNL     1     -11.872  20.945  16.953  1.00  0.00     0.034 A 
BRANCH  25  39
ATOM     39  C   UNL     1      -5.936  22.581  17.163  1.00  0.00     0.023 A 
ATOM     40  C   UNL     1      -5.299  23.142  16.039  1.00  0.00     0.012 A 
ATOM     41  C   UNL     1      -5.720  23.143  18.437  1.00  0.00     0.148 A 
ATOM     42  C   UNL     1      -4.457  24.245  16.179  1.00  0.00     0.002 A 
ATOM     43  C   UNL     1      -4.899  24.258  18.565  1.00  0.00     0.091 A 
ATOM     44  F   UNL     1      -6.321  22.579  19.494  1.00  0.00    -0.205 F 
ATOM     45  C   UNL     1      -4.266  24.808  17.438  1.00  0.00     0.022 A 
BRANCH  43  46
ATOM     46  S   UNL     1      -4.634  25.094  20.133  1.00  0.00     0.127 S 
ATOM     47  O   UNL     1      -3.244  24.742  20.422  1.00  0.00    -0.237 OA
ATOM     48  O   UNL     1      -4.845  26.497  19.775  1.00  0.00    -0.237 OA
ATOM     49  O   UNL     1      -5.621  24.546  21.052  1.00  0.00    -0.744 OA
ENDBRANCH  43  46
ENDBRANCH  25  39
BRANCH  26  50
ATOM     50  C   UNL     1     -12.298  14.932  16.317  1.00  0.00     0.023 A 
ATOM     51  C   UNL     1     -13.146  14.804  15.201  1.00  0.00     0.012 A 
ATOM     52  C   UNL     1     -12.314  13.934  17.310  1.00  0.00     0.148 A 
ATOM     53  C   UNL     1     -14.002  13.708  15.083  1.00  0.00     0.002 A 
ATOM     54  C   UNL     1     -13.128  12.817  17.157  1.00  0.00     0.091 A 
ATOM     55  F   UNL     1     -11.519  14.079  18.380  1.00  0.00    -0.205 F 
ATOM     56  C   UNL     1     -13.983  12.707  16.052  1.00  0.00     0.022 A 
BRANCH  54  57
ATOM     57  S   UNL     1     -13.015  11.436  18.301  1.00  0.00     0.127 S 
ATOM     58  O   UNL     1     -13.982  11.810  19.328  1.00  0.00    -0.237 OA
ATOM     59  O   UNL     1     -13.411  10.298  17.470  1.00  0.00    -0.237 OA
ATOM     60  O   UNL     1     -11.614  11.412  18.703  1.00  0.00    -0.744 OA
ENDBRANCH  54  57
ENDBRANCH  26  50
BRANCH  38  61
ATOM     61  C   UNL     1     -13.076  21.808  17.209  1.00  0.00     0.023 A 
ATOM     62  C   UNL     1     -13.656  21.808  18.493  1.00  0.00     0.012 A 
ATOM     63  C   UNL     1     -13.594  22.658  16.214  1.00  0.00     0.148 A 
ATOM     64  C   UNL     1     -14.748  22.624  18.777  1.00  0.00     0.002 A 
ATOM     65  C   UNL     1     -14.661  23.497  16.515  1.00  0.00     0.091 A 
ATOM     66  F   UNL     1     -13.043  22.626  14.991  1.00  0.00    -0.205 F 
ATOM     67  C   UNL     1     -15.243  23.476  17.793  1.00  0.00     0.022 A 
BRANCH  65  68
ATOM     68  S   UNL     1     -15.306  24.680  15.327  1.00  0.00     0.127 S 
ATOM     69  O   UNL     1     -16.500  23.994  14.839  1.00  0.00    -0.237 OA
ATOM     70  O   UNL     1     -15.575  25.853  16.161  1.00  0.00    -0.237 OA
ATOM     71  O   UNL     1     -14.244  24.874  14.348  1.00  0.00    -0.744 OA
ENDBRANCH  65  68
ENDBRANCH  38  61
ENDBRANCH  12  13
ENDBRANCH   5   7
ENDBRANCH   2   3
ENDBRANCH   1   2
BRANCH   1  72
ATOM     72  C   UNL     1       0.814  13.123  12.284  1.00  0.00     0.023 C 
BRANCH  72  73
ATOM     73  C   UNL     1       0.133  12.305  11.189  1.00  0.00     0.116 C 
BRANCH  73  74
ATOM     74  N   UNL     1      -0.147  13.099  10.002  1.00  0.00    -0.352 N 
ATOM     75  C   UNL     1       0.472  13.038   8.778  1.00  0.00     0.251 C 
ATOM     76  H   UNL     1      -0.870  13.762  10.088  1.00  0.00     0.163 HD
ATOM     77  O   UNL     1       0.123  13.728   7.832  1.00  0.00    -0.269 OA
BRANCH  75  78
ATOM     78  C   UNL     1       1.578  12.084   8.623  1.00  0.00     0.041 A 
ATOM     79  C   UNL     1       1.303  10.808   8.137  1.00  0.00     0.018 A 
ATOM     80  C   UNL     1       2.845  12.421   9.101  1.00  0.00     0.038 A 
ATOM     81  C   UNL     1       2.316   9.852   8.151  1.00  0.00     0.049 A 
ATOM     82  C   UNL     1       3.847  11.448   9.142  1.00  0.00     0.083 A 
ATOM     83  C   UNL     1       3.594  10.164   8.640  1.00  0.00     0.137 A 
ATOM     84  Cl  UNL     1       5.297  11.879   9.974  1.00  0.00    -0.080 Cl
BRANCH  83  85
ATOM     85  O   UNL     1       4.426   9.084   8.694  1.00  0.00    -0.492 OA
BRANCH  85  86
ATOM     86  C   UNL     1       5.741   9.185   8.142  1.00  0.00     0.233 C 
BRANCH  86  87
ATOM     87  C   UNL     1       5.794   9.604   6.666  1.00  0.00     0.030 C 
ATOM     88  C   UNL     1       6.204  11.082   6.448  1.00  0.00     0.011 C 
ATOM     89  C   UNL     1       6.872   8.853   5.836  1.00  0.00    -0.004 C 
ATOM     90  C   UNL     1       7.427  10.981   5.518  1.00  0.00    -0.010 C 
ATOM     91  C   UNL     1       8.258   8.948   6.496  1.00  0.00     0.004 C 
ATOM     92  C   UNL     1       7.052   9.791   4.640  1.00  0.00     0.007 C 
ATOM     93  C   UNL     1       8.617  10.429   6.324  1.00  0.00     0.004 C 
ENDBRANCH  86  87
ENDBRANCH  85  86
ENDBRANCH  83  85
ENDBRANCH  75  78
ENDBRANCH  73  74
ENDBRANCH  72  73
ENDBRANCH   1  72
TORSDOF 17
