REMARK SMILES CC(C)(C)OC(=O)[C@H](C(=O)NCCCCNC(=O)c1ccc(-c2c3nc(c(-c4cccc(S(=O)(=O)[O-])c4F)c4ccc([nH]4)c(-c4cccc(S(=O)(=O)[O-])c4F)c4nc(c(-c5cccc(S(=O)(=O)[O-])c5F)c5ccc2[nH]5)C=C4)C=C3)cc1)[C@@H]([NH3+])c1ccc(Br)cc1
REMARK SMILES IDX 13 1 12 2 11 3 9 4 10 5 8 7 6 8 7 9 5 10 2 11 1 12 3 13 4 14
REMARK SMILES IDX 82 15 83 16 84 20 85 21 90 22 86 23 89 24 87 25 88 26 14 27
REMARK SMILES IDX 15 28 16 29 17 30 18 32 19 33 20 34 81 35 21 36 80 37 22 38
REMARK SMILES IDX 23 39 24 40 74 41 25 42 79 43 73 44 75 45 26 46 78 47 72 48
REMARK SMILES IDX 71 49 27 51 59 52 39 53 58 54 40 55 43 56 57 57 76 58 41 59
REMARK SMILES IDX 42 60 56 62 77 63 44 64 28 65 29 66 37 67 30 68 32 69 38 70
REMARK SMILES IDX 31 71 33 72 34 73 35 74 36 75 60 76 61 77 69 78 62 79 64 80
REMARK SMILES IDX 70 81 63 82 65 83 66 84 67 85 68 86 45 87 46 88 54 89 47 90
REMARK SMILES IDX 49 91 55 92 48 93 50 94 51 95 52 96 53 97
REMARK H PARENT 11 6 83 17 83 18 83 19 16 31 75 50 43 61
REMARK Flexibility Score: inf
ROOT
ATOM      1  C   UNL     1       3.764   0.040  -1.646  1.00  0.00     0.023 C 
ENDROOT
BRANCH   1   2
ATOM      2  C   UNL     1       3.115   0.521  -2.939  1.00  0.00     0.116 C 
BRANCH   2   3
ATOM      3  N   UNL     1       1.687   0.773  -2.817  1.00  0.00    -0.355 N 
ATOM      4  C   UNL     1       0.813   1.713  -3.263  1.00  0.00     0.240 C 
ATOM      5  O   UNL     1      -0.376   1.436  -3.033  1.00  0.00    -0.274 OA
ATOM      6  H   UNL     1       1.239   0.086  -2.272  1.00  0.00     0.163 HD
BRANCH   4   7
ATOM      7  C   UNL     1       1.119   3.043  -3.989  1.00  0.00     0.250 C 
BRANCH   7   8
ATOM      8  C   UNL     1       0.403   4.146  -3.237  1.00  0.00     0.325 C 
ATOM      9  O   UNL     1      -0.297   4.982  -3.798  1.00  0.00    -0.251 OA
BRANCH   8  10
ATOM     10  O   UNL     1       0.658   4.112  -1.903  1.00  0.00    -0.459 OA
BRANCH  10  11
ATOM     11  C   UNL     1       0.104   5.093  -0.976  1.00  0.00     0.104 C 
ATOM     12  C   UNL     1       0.093   4.392   0.391  1.00  0.00     0.056 C 
ATOM     13  C   UNL     1      -1.331   5.546  -1.284  1.00  0.00     0.056 C 
ATOM     14  C   UNL     1       1.053   6.292  -0.917  1.00  0.00     0.056 C 
ENDBRANCH  10  11
ENDBRANCH   8  10
ENDBRANCH   7   8
BRANCH   7  15
ATOM     15  C   UNL     1       2.584   3.351  -4.390  1.00  0.00     0.236 C 
BRANCH  15  16
ATOM     16  N   UNL     1       2.941   2.351  -5.439  1.00  0.00    -0.350 N 
ATOM     17  H   UNL     1       2.396   2.533  -6.281  1.00  0.00     0.345 HD
ATOM     18  H   UNL     1       2.735   1.412  -5.097  1.00  0.00     0.345 HD
ATOM     19  H   UNL     1       3.935   2.424  -5.654  1.00  0.00     0.345 HD
ENDBRANCH  15  16
BRANCH  15  20
ATOM     20  C   UNL     1       3.112   4.725  -4.864  1.00  0.00     0.011 A 
ATOM     21  C   UNL     1       4.313   4.790  -5.615  1.00  0.00     0.011 A 
ATOM     22  C   UNL     1       2.576   5.960  -4.481  1.00  0.00     0.011 A 
ATOM     23  C   UNL     1       4.900   6.000  -6.003  1.00  0.00     0.016 A 
ATOM     24  C   UNL     1       3.155   7.180  -4.864  1.00  0.00     0.016 A 
ATOM     25  C   UNL     1       4.311   7.196  -5.629  1.00  0.00     0.018 A 
ATOM     26  Br  UNL     1       5.088   8.838  -6.141  1.00  0.00    -0.051 Br
ENDBRANCH  15  20
ENDBRANCH   7  15
ENDBRANCH   4   7
ENDBRANCH   2   3
ENDBRANCH   1   2
BRANCH   1  27
ATOM     27  C   UNL     1       3.432  -1.388  -1.226  1.00  0.00     0.023 C 
BRANCH  27  28
ATOM     28  C   UNL     1       3.638  -2.463  -2.290  1.00  0.00     0.116 C 
BRANCH  28  29
ATOM     29  N   UNL     1       4.961  -2.441  -2.900  1.00  0.00    -0.352 N 
ATOM     30  C   UNL     1       5.842  -3.474  -3.126  1.00  0.00     0.251 C 
ATOM     31  H   UNL     1       5.271  -1.555  -3.195  1.00  0.00     0.163 HD
ATOM     32  O   UNL     1       6.952  -3.234  -3.583  1.00  0.00    -0.269 OA
BRANCH  30  33
ATOM     33  C   UNL     1       5.462  -4.863  -2.778  1.00  0.00     0.039 A 
ATOM     34  C   UNL     1       6.377  -5.649  -2.076  1.00  0.00     0.014 A 
ATOM     35  C   UNL     1       4.207  -5.375  -3.110  1.00  0.00     0.014 A 
ATOM     36  C   UNL     1       6.000  -6.919  -1.633  1.00  0.00     0.010 A 
ATOM     37  C   UNL     1       3.802  -6.604  -2.594  1.00  0.00     0.010 A 
ATOM     38  C   UNL     1       4.692  -7.389  -1.848  1.00  0.00    -0.014 A 
BRANCH  38  39
ATOM     39  C   UNL     1       4.243  -8.680  -1.261  1.00  0.00     0.031 A 
ATOM     40  C   UNL     1       3.792  -9.813  -2.141  1.00  0.00     0.074 A 
ATOM     41  C   UNL     1       4.182  -8.806   0.081  1.00  0.00     0.049 A 
ATOM     42  N   UNL     1       3.384 -11.008  -1.799  1.00  0.00    -0.248 NA
ATOM     43  C   UNL     1       3.768  -9.569  -3.594  1.00  0.00     0.031 C 
ATOM     44  C   UNL     1       4.482  -7.745   1.046  1.00  0.00     0.029 A 
ATOM     45  N   UNL     1       3.829  -9.875   0.867  1.00  0.00    -0.354 N 
ATOM     46  C   UNL     1       3.039 -11.649  -2.983  1.00  0.00     0.074 A 
ATOM     47  C   UNL     1       3.237 -10.694  -4.051  1.00  0.00     0.031 C 
ATOM     48  C   UNL     1       4.314  -8.220   2.291  1.00  0.00     0.029 A 
ATOM     49  C   UNL     1       3.876  -9.609   2.216  1.00  0.00     0.049 A 
ATOM     50  H   UNL     1       3.566 -10.750   0.500  1.00  0.00     0.167 HD
ATOM     51  C   UNL     1       2.635 -12.928  -3.172  1.00  0.00     0.034 A 
ATOM     52  C   UNL     1       3.604 -10.396   3.275  1.00  0.00     0.034 A 
ATOM     53  C   UNL     1       2.473 -13.888  -2.112  1.00  0.00     0.049 A 
ATOM     54  C   UNL     1       3.223 -11.832   3.035  1.00  0.00     0.074 A 
ATOM     55  C   UNL     1       2.139 -15.227  -2.208  1.00  0.00     0.029 A 
ATOM     56  N   UNL     1       2.632 -13.612  -0.763  1.00  0.00    -0.354 N 
ATOM     57  N   UNL     1       3.072 -12.467   1.898  1.00  0.00    -0.248 NA
ATOM     58  C   UNL     1       3.021 -12.673   4.223  1.00  0.00     0.031 C 
ATOM     59  C   UNL     1       2.084 -15.758  -0.914  1.00  0.00     0.029 A 
ATOM     60  C   UNL     1       2.404 -14.755  -0.015  1.00  0.00     0.049 A 
ATOM     61  H   UNL     1       2.872 -12.732  -0.392  1.00  0.00     0.167 HD
ATOM     62  C   UNL     1       2.783 -13.784   2.233  1.00  0.00     0.074 A 
ATOM     63  C   UNL     1       2.820 -13.865   3.679  1.00  0.00     0.031 C 
ATOM     64  C   UNL     1       2.488 -14.830   1.420  1.00  0.00     0.034 A 
BRANCH  51  65
ATOM     65  C   UNL     1       2.414 -13.389  -4.590  1.00  0.00     0.023 A 
ATOM     66  C   UNL     1       3.529 -13.575  -5.433  1.00  0.00     0.012 A 
ATOM     67  C   UNL     1       1.127 -13.703  -5.068  1.00  0.00     0.148 A 
ATOM     68  C   UNL     1       3.367 -14.037  -6.738  1.00  0.00     0.002 A 
ATOM     69  C   UNL     1       0.977 -14.204  -6.357  1.00  0.00     0.091 A 
ATOM     70  F   UNL     1       0.077 -13.502  -4.259  1.00  0.00    -0.205 F 
ATOM     71  C   UNL     1       2.093 -14.362  -7.195  1.00  0.00     0.022 A 
BRANCH  69  72
ATOM     72  S   UNL     1      -0.609 -14.727  -7.020  1.00  0.00     0.127 S 
ATOM     73  O   UNL     1      -0.841 -13.720  -8.055  1.00  0.00    -0.237 OA
ATOM     74  O   UNL     1      -0.302 -16.064  -7.528  1.00  0.00    -0.237 OA
ATOM     75  O   UNL     1      -1.542 -14.697  -5.903  1.00  0.00    -0.744 OA
ENDBRANCH  69  72
ENDBRANCH  51  65
BRANCH  52  76
ATOM     76  C   UNL     1       3.751  -9.865   4.660  1.00  0.00     0.023 A 
ATOM     77  C   UNL     1       4.792 -10.339   5.482  1.00  0.00     0.012 A 
ATOM     78  C   UNL     1       2.877  -8.880   5.161  1.00  0.00     0.148 A 
ATOM     79  C   UNL     1       4.935  -9.874   6.789  1.00  0.00     0.002 A 
ATOM     80  C   UNL     1       3.063  -8.377   6.443  1.00  0.00     0.091 A 
ATOM     81  F   UNL     1       1.883  -8.450   4.371  1.00  0.00    -0.205 F 
ATOM     82  C   UNL     1       4.078  -8.887   7.267  1.00  0.00     0.022 A 
BRANCH  80  83
ATOM     83  S   UNL     1       2.094  -7.004   7.078  1.00  0.00     0.127 S 
ATOM     84  O   UNL     1       1.177  -7.681   7.992  1.00  0.00    -0.237 OA
ATOM     85  O   UNL     1       3.116  -6.182   7.727  1.00  0.00    -0.237 OA
ATOM     86  O   UNL     1       1.488  -6.385   5.907  1.00  0.00    -0.744 OA
ENDBRANCH  80  83
ENDBRANCH  52  76
BRANCH  64  87
ATOM     87  C   UNL     1       2.200 -16.155   2.077  1.00  0.00     0.023 A 
ATOM     88  C   UNL     1       1.000 -16.330   2.797  1.00  0.00     0.012 A 
ATOM     89  C   UNL     1       3.093 -17.236   1.950  1.00  0.00     0.148 A 
ATOM     90  C   UNL     1       0.717 -17.545   3.419  1.00  0.00     0.002 A 
ATOM     91  C   UNL     1       2.781 -18.459   2.531  1.00  0.00     0.091 A 
ATOM     92  F   UNL     1       4.239 -17.046   1.279  1.00  0.00    -0.205 F 
ATOM     93  C   UNL     1       1.601 -18.612   3.277  1.00  0.00     0.022 A 
BRANCH  91  94
ATOM     94  S   UNL     1       3.818 -19.911   2.321  1.00  0.00     0.127 S 
ATOM     95  O   UNL     1       4.501 -19.979   3.611  1.00  0.00    -0.237 OA
ATOM     96  O   UNL     1       2.833 -20.970   2.095  1.00  0.00    -0.237 OA
ATOM     97  O   UNL     1       4.668 -19.628   1.172  1.00  0.00    -0.744 OA
ENDBRANCH  91  94
ENDBRANCH  64  87
ENDBRANCH  38  39
ENDBRANCH  30  33
ENDBRANCH  28  29
ENDBRANCH  27  28
ENDBRANCH   1  27
TORSDOF 20
