REMARK SMILES CCN(CC)c1ccc(NC(=O)c2ccc(OC)cc2)cc1C(=O)NCCCCNC(=O)c1ccc(-c2c3nc(c(-c4cccc(S(=O)(=O)[O-])c4F)c4ccc([nH]4)c(-c4cccc(S(=O)(=O)[O-])c4F)c4nc(c(-c5cccc(S(=O)(=O)[O-])c5F)c5ccc2[nH]5)C=C4)C=C3)cc1
REMARK SMILES IDX 27 1 26 2 25 3 23 4 24 5 22 7 6 8 7 9 8 10 21 11 9 12 3 13
REMARK SMILES IDX 2 14 1 15 4 16 5 17 10 18 11 19 12 21 13 22 14 23 20 24
REMARK SMILES IDX 15 25 19 26 16 27 17 28 18 29 28 30 29 31 30 32 31 33 32 35
REMARK SMILES IDX 33 36 34 37 95 38 35 39 94 40 36 41 37 42 38 43 88 44 39 45
REMARK SMILES IDX 93 46 87 47 89 48 40 49 92 50 86 51 85 52 41 54 73 55 53 56
REMARK SMILES IDX 72 57 54 58 57 59 71 60 90 61 55 62 56 63 70 65 91 66 58 67
REMARK SMILES IDX 42 68 43 69 51 70 44 71 46 72 52 73 45 74 47 75 48 76 49 77
REMARK SMILES IDX 50 78 74 79 75 80 83 81 76 82 78 83 84 84 77 85 79 86 80 87
REMARK SMILES IDX 81 88 82 89 59 90 60 91 68 92 61 93 63 94 69 95 62 96 64 97
REMARK SMILES IDX 65 98 66 99 67 100
REMARK H PARENT 25 6 10 20 30 34 89 53 57 64
REMARK Flexibility Score: inf
ROOT
ATOM      1  C   UNL     1      -1.123  -2.344  -0.676  1.00  0.00     0.023 C 
ENDROOT
BRANCH   1   2
ATOM      2  C   UNL     1       0.169  -1.634  -1.054  1.00  0.00     0.116 C 
BRANCH   2   3
ATOM      3  N   UNL     1       1.280  -1.623  -0.138  1.00  0.00    -0.352 N 
ATOM      4  C   UNL     1       2.537  -1.070  -0.354  1.00  0.00     0.253 C 
ATOM      5  O   UNL     1       3.335  -1.075   0.586  1.00  0.00    -0.269 OA
ATOM      6  H   UNL     1       1.134  -2.054   0.735  1.00  0.00     0.163 HD
BRANCH   4   7
ATOM      7  C   UNL     1       3.014  -0.567  -1.699  1.00  0.00     0.065 A 
ATOM      8  C   UNL     1       2.241   0.078  -2.693  1.00  0.00     0.050 A 
ATOM      9  C   UNL     1       2.785   0.062  -3.980  1.00  0.00     0.029 A 
ATOM     10  C   UNL     1       4.054  -0.410  -4.261  1.00  0.00     0.028 A 
ATOM     11  C   UNL     1       4.394  -0.834  -1.967  1.00  0.00     0.042 A 
ATOM     12  C   UNL     1       4.941  -0.652  -3.241  1.00  0.00     0.042 A 
BRANCH   8  13
ATOM     13  N   UNL     1       1.025   0.732  -2.524  1.00  0.00    -0.371 N 
BRANCH  13  14
ATOM     14  C   UNL     1       0.934   1.974  -1.728  1.00  0.00     0.113 C 
ATOM     15  C   UNL     1       1.381   1.873  -0.277  1.00  0.00     0.027 C 
ENDBRANCH  13  14
BRANCH  13  16
ATOM     16  C   UNL     1      -0.103   0.415  -3.433  1.00  0.00     0.113 C 
ATOM     17  C   UNL     1      -0.166   1.202  -4.729  1.00  0.00     0.027 C 
ENDBRANCH  13  16
ENDBRANCH   8  13
BRANCH  12  18
ATOM     18  N   UNL     1       6.339  -0.697  -3.448  1.00  0.00    -0.322 N 
ATOM     19  C   UNL     1       7.117  -0.293  -4.531  1.00  0.00     0.255 C 
ATOM     20  H   UNL     1       6.850  -1.080  -2.699  1.00  0.00     0.170 HD
ATOM     21  O   UNL     1       8.331  -0.496  -4.534  1.00  0.00    -0.269 OA
BRANCH  19  22
ATOM     22  C   UNL     1       6.527   0.381  -5.716  1.00  0.00     0.040 A 
ATOM     23  C   UNL     1       6.556  -0.292  -6.942  1.00  0.00     0.017 A 
ATOM     24  C   UNL     1       5.829   1.593  -5.603  1.00  0.00     0.017 A 
ATOM     25  C   UNL     1       5.779   0.177  -8.007  1.00  0.00     0.047 A 
ATOM     26  C   UNL     1       5.032   2.042  -6.668  1.00  0.00     0.047 A 
ATOM     27  C   UNL     1       4.971   1.308  -7.855  1.00  0.00     0.118 A 
BRANCH  27  28
ATOM     28  O   UNL     1       4.171   1.601  -8.927  1.00  0.00    -0.497 OA
ATOM     29  C   UNL     1       2.969   2.308  -8.634  1.00  0.00     0.278 C 
ENDBRANCH  27  28
ENDBRANCH  19  22
ENDBRANCH  12  18
ENDBRANCH   4   7
ENDBRANCH   2   3
ENDBRANCH   1   2
BRANCH   1  30
ATOM     30  C   UNL     1      -1.903  -1.766   0.508  1.00  0.00     0.023 C 
BRANCH  30  31
ATOM     31  C   UNL     1      -2.109  -0.250   0.573  1.00  0.00     0.116 C 
BRANCH  31  32
ATOM     32  N   UNL     1      -2.986   0.308  -0.450  1.00  0.00    -0.352 N 
ATOM     33  C   UNL     1      -4.229   0.895  -0.348  1.00  0.00     0.251 C 
ATOM     34  H   UNL     1      -2.631   0.257  -1.366  1.00  0.00     0.163 HD
ATOM     35  O   UNL     1      -4.790   1.298  -1.367  1.00  0.00    -0.269 OA
BRANCH  33  36
ATOM     36  C   UNL     1      -4.922   1.000   0.958  1.00  0.00     0.039 A 
ATOM     37  C   UNL     1      -6.254   0.580   1.043  1.00  0.00     0.014 A 
ATOM     38  C   UNL     1      -4.279   1.485   2.097  1.00  0.00     0.014 A 
ATOM     39  C   UNL     1      -6.896   0.539   2.285  1.00  0.00     0.010 A 
ATOM     40  C   UNL     1      -4.889   1.361   3.346  1.00  0.00     0.010 A 
ATOM     41  C   UNL     1      -6.199   0.871   3.459  1.00  0.00    -0.014 A 
BRANCH  41  42
ATOM     42  C   UNL     1      -6.806   0.663   4.804  1.00  0.00     0.031 A 
ATOM     43  C   UNL     1      -7.004   1.816   5.752  1.00  0.00     0.074 A 
ATOM     44  C   UNL     1      -7.099  -0.590   5.214  1.00  0.00     0.049 A 
ATOM     45  N   UNL     1      -7.467   1.807   6.976  1.00  0.00    -0.248 NA
ATOM     46  C   UNL     1      -6.607   3.150   5.274  1.00  0.00     0.031 C 
ATOM     47  C   UNL     1      -6.878  -1.809   4.433  1.00  0.00     0.029 A 
ATOM     48  N   UNL     1      -7.618  -1.050   6.401  1.00  0.00    -0.354 N 
ATOM     49  C   UNL     1      -7.388   3.120   7.426  1.00  0.00     0.074 A 
ATOM     50  C   UNL     1      -6.798   3.893   6.354  1.00  0.00     0.031 C 
ATOM     51  C   UNL     1      -7.261  -2.873   5.156  1.00  0.00     0.029 A 
ATOM     52  C   UNL     1      -7.722  -2.421   6.465  1.00  0.00     0.049 A 
ATOM     53  H   UNL     1      -7.889  -0.455   7.137  1.00  0.00     0.167 HD
ATOM     54  C   UNL     1      -7.793   3.644   8.608  1.00  0.00     0.034 A 
ATOM     55  C   UNL     1      -8.130  -3.229   7.464  1.00  0.00     0.034 A 
ATOM     56  C   UNL     1      -8.408   2.882   9.664  1.00  0.00     0.049 A 
ATOM     57  C   UNL     1      -8.604  -2.620   8.756  1.00  0.00     0.074 A 
ATOM     58  C   UNL     1      -8.928   3.340  10.862  1.00  0.00     0.029 A 
ATOM     59  N   UNL     1      -8.574   1.507   9.657  1.00  0.00    -0.354 N 
ATOM     60  N   UNL     1      -8.671  -1.357   9.097  1.00  0.00    -0.248 NA
ATOM     61  C   UNL     1      -9.096  -3.546   9.787  1.00  0.00     0.031 C 
ATOM     62  C   UNL     1      -9.381   2.236  11.593  1.00  0.00     0.029 A 
ATOM     63  C   UNL     1      -9.178   1.096  10.834  1.00  0.00     0.049 A 
ATOM     64  H   UNL     1      -8.303   0.909   8.923  1.00  0.00     0.167 HD
ATOM     65  C   UNL     1      -9.245  -1.333  10.363  1.00  0.00     0.074 A 
ATOM     66  C   UNL     1      -9.527  -2.708  10.720  1.00  0.00     0.031 C 
ATOM     67  C   UNL     1      -9.502  -0.269  11.163  1.00  0.00     0.034 A 
BRANCH  54  68
ATOM     68  C   UNL     1      -7.628   5.130   8.808  1.00  0.00     0.023 A 
ATOM     69  C   UNL     1      -8.435   6.024   8.074  1.00  0.00     0.012 A 
ATOM     70  C   UNL     1      -6.724   5.640   9.760  1.00  0.00     0.148 A 
ATOM     71  C   UNL     1      -8.315   7.402   8.252  1.00  0.00     0.002 A 
ATOM     72  C   UNL     1      -6.644   7.013   9.967  1.00  0.00     0.091 A 
ATOM     73  F   UNL     1      -5.954   4.777  10.438  1.00  0.00    -0.205 F 
ATOM     74  C   UNL     1      -7.428   7.895   9.205  1.00  0.00     0.022 A 
BRANCH  72  75
ATOM     75  S   UNL     1      -5.595   7.746  11.227  1.00  0.00     0.127 S 
ATOM     76  O   UNL     1      -4.568   8.396  10.414  1.00  0.00    -0.237 OA
ATOM     77  O   UNL     1      -6.515   8.665  11.897  1.00  0.00    -0.237 OA
ATOM     78  O   UNL     1      -5.129   6.641  12.055  1.00  0.00    -0.744 OA
ENDBRANCH  72  75
ENDBRANCH  54  68
BRANCH  55  79
ATOM     79  C   UNL     1      -8.158  -4.707   7.263  1.00  0.00     0.023 A 
ATOM     80  C   UNL     1      -9.396  -5.373   7.179  1.00  0.00     0.012 A 
ATOM     81  C   UNL     1      -6.969  -5.450   7.135  1.00  0.00     0.148 A 
ATOM     82  C   UNL     1      -9.449  -6.757   7.007  1.00  0.00     0.002 A 
ATOM     83  C   UNL     1      -7.029  -6.819   6.905  1.00  0.00     0.091 A 
ATOM     84  F   UNL     1      -5.801  -4.799   7.228  1.00  0.00    -0.205 F 
ATOM     85  C   UNL     1      -8.268  -7.478   6.859  1.00  0.00     0.022 A 
BRANCH  83  86
ATOM     86  S   UNL     1      -5.566  -7.806   6.569  1.00  0.00     0.127 S 
ATOM     87  O   UNL     1      -5.482  -8.634   7.769  1.00  0.00    -0.237 OA
ATOM     88  O   UNL     1      -5.958  -8.519   5.353  1.00  0.00    -0.237 OA
ATOM     89  O   UNL     1      -4.482  -6.851   6.381  1.00  0.00    -0.744 OA
ENDBRANCH  83  86
ENDBRANCH  55  79
BRANCH  67  90
ATOM     90  C   UNL     1     -10.165  -0.533  12.491  1.00  0.00     0.023 A 
ATOM     91  C   UNL     1      -9.444  -1.157  13.529  1.00  0.00     0.012 A 
ATOM     92  C   UNL     1     -11.485  -0.101  12.731  1.00  0.00     0.148 A 
ATOM     93  C   UNL     1     -10.038  -1.378  14.772  1.00  0.00     0.002 A 
ATOM     94  C   UNL     1     -12.052  -0.277  13.988  1.00  0.00     0.091 A 
ATOM     95  F   UNL     1     -12.162   0.474  11.726  1.00  0.00    -0.205 F 
ATOM     96  C   UNL     1     -11.335  -0.928  15.004  1.00  0.00     0.022 A 
BRANCH  94  97
ATOM     97  S   UNL     1     -13.679   0.356  14.408  1.00  0.00     0.127 S 
ATOM     98  O   UNL     1     -14.463  -0.875  14.502  1.00  0.00    -0.237 OA
ATOM     99  O   UNL     1     -13.432   1.021  15.688  1.00  0.00    -0.237 OA
ATOM    100  O   UNL     1     -14.055   1.253  13.324  1.00  0.00    -0.744 OA
ENDBRANCH  94  97
ENDBRANCH  67  90
ENDBRANCH  41  42
ENDBRANCH  33  36
ENDBRANCH  31  32
ENDBRANCH  30  31
ENDBRANCH   1  30
TORSDOF 20
