REMARK SMILES CC[C@@H](C(=O)NCCCCNC(=O)c1ccc(-c2c3nc(c(-c4cccc(S(=O)(=O)[O-])c4F)c4ccc([nH]4)c(-c4cccc(S(=O)(=O)[O-])c4F)c4nc(c(-c5cccc(S(=O)(=O)[O-])c5F)c5ccc2[nH]5)C=C4)C=C3)cc1)c1cc(Br)ccc1F
REMARK SMILES IDX 9 1 8 2 7 3 6 4 4 5 5 6 3 8 2 9 1 10 77 11 78 12 83 13 79 14
REMARK SMILES IDX 82 15 84 16 80 17 81 18 10 19 11 20 12 21 13 23 14 24 15 25
REMARK SMILES IDX 76 26 16 27 75 28 17 29 18 30 19 31 69 32 20 33 74 34 68 35
REMARK SMILES IDX 70 36 21 37 73 38 67 39 66 40 22 42 54 43 34 44 53 45 35 46
REMARK SMILES IDX 38 47 52 48 71 49 36 50 37 51 51 53 72 54 39 55 23 56 24 57
REMARK SMILES IDX 32 58 25 59 27 60 33 61 26 62 28 63 29 64 30 65 31 66 55 67
REMARK SMILES IDX 56 68 64 69 57 70 59 71 65 72 58 73 60 74 61 75 62 76 63 77
REMARK SMILES IDX 40 78 41 79 49 80 42 81 44 82 50 83 43 84 45 85 46 86 47 87
REMARK SMILES IDX 48 88
REMARK H PARENT 6 7 11 22 70 41 38 52
REMARK Flexibility Score: inf
ROOT
ATOM      1  C   UNL     1       0.493   1.615   3.441  1.00  0.00     0.023 C 
ENDROOT
BRANCH   1   2
ATOM      2  C   UNL     1       0.943   1.107   2.074  1.00  0.00     0.023 C 
BRANCH   2   3
ATOM      3  C   UNL     1       1.597  -0.276   2.080  1.00  0.00     0.116 C 
BRANCH   3   4
ATOM      4  N   UNL     1       0.587  -1.302   2.228  1.00  0.00    -0.356 N 
ATOM      5  C   UNL     1       0.022  -2.126   1.302  1.00  0.00     0.227 C 
ATOM      6  O   UNL     1      -0.993  -2.737   1.652  1.00  0.00    -0.274 OA
ATOM      7  H   UNL     1       0.255  -1.425   3.146  1.00  0.00     0.163 HD
BRANCH   5   8
ATOM      8  C   UNL     1       0.647  -2.318  -0.096  1.00  0.00     0.111 C 
BRANCH   8   9
ATOM      9  C   UNL     1       0.127  -1.308  -1.147  1.00  0.00     0.015 C 
ATOM     10  C   UNL     1       0.882   0.007  -1.248  1.00  0.00     0.005 C 
ENDBRANCH   8   9
BRANCH   8  11
ATOM     11  C   UNL     1       0.365  -3.756  -0.559  1.00  0.00     0.001 A 
ATOM     12  C   UNL     1      -0.816  -4.099  -1.246  1.00  0.00     0.023 A 
ATOM     13  C   UNL     1       1.250  -4.787  -0.225  1.00  0.00     0.127 A 
ATOM     14  C   UNL     1      -1.067  -5.420  -1.618  1.00  0.00     0.018 A 
ATOM     15  C   UNL     1       0.994  -6.111  -0.584  1.00  0.00     0.041 A 
ATOM     16  F   UNL     1       2.371  -4.512   0.456  1.00  0.00    -0.207 F 
ATOM     17  Br  UNL     1      -2.647  -5.839  -2.570  1.00  0.00    -0.051 Br
ATOM     18  C   UNL     1      -0.166  -6.430  -1.290  1.00  0.00     0.019 A 
ENDBRANCH   8  11
ENDBRANCH   5   8
ENDBRANCH   3   4
ENDBRANCH   2   3
ENDBRANCH   1   2
BRANCH   1  19
ATOM     19  C   UNL     1       1.615   1.860   4.439  1.00  0.00     0.116 C 
BRANCH  19  20
ATOM     20  N   UNL     1       2.596   2.832   3.975  1.00  0.00    -0.352 N 
ATOM     21  C   UNL     1       3.147   3.892   4.655  1.00  0.00     0.251 C 
ATOM     22  H   UNL     1       2.907   2.714   3.048  1.00  0.00     0.163 HD
ATOM     23  O   UNL     1       3.881   4.686   4.073  1.00  0.00    -0.269 OA
BRANCH  21  24
ATOM     24  C   UNL     1       2.818   4.086   6.083  1.00  0.00     0.039 A 
ATOM     25  C   UNL     1       2.428   5.353   6.525  1.00  0.00     0.014 A 
ATOM     26  C   UNL     1       2.842   3.006   6.968  1.00  0.00     0.014 A 
ATOM     27  C   UNL     1       1.986   5.516   7.840  1.00  0.00     0.010 A 
ATOM     28  C   UNL     1       2.317   3.152   8.246  1.00  0.00     0.010 A 
ATOM     29  C   UNL     1       1.889   4.409   8.699  1.00  0.00    -0.014 A 
BRANCH  29  30
ATOM     30  C   UNL     1       1.341   4.533  10.073  1.00  0.00     0.031 A 
ATOM     31  C   UNL     1       2.202   4.187  11.259  1.00  0.00     0.074 A 
ATOM     32  C   UNL     1       0.043   4.851  10.250  1.00  0.00     0.049 A 
ATOM     33  N   UNL     1       1.884   4.149  12.526  1.00  0.00    -0.248 NA
ATOM     34  C   UNL     1       3.595   3.796  10.979  1.00  0.00     0.031 C 
ATOM     35  C   UNL     1      -0.919   5.115   9.178  1.00  0.00     0.029 A 
ATOM     36  N   UNL     1      -0.699   4.977  11.398  1.00  0.00    -0.354 N 
ATOM     37  C   UNL     1       3.016   3.688  13.187  1.00  0.00     0.074 A 
ATOM     38  C   UNL     1       4.017   3.422  12.178  1.00  0.00     0.031 C 
ATOM     39  C   UNL     1      -2.120   5.379   9.719  1.00  0.00     0.029 A 
ATOM     40  C   UNL     1      -2.022   5.280  11.171  1.00  0.00     0.049 A 
ATOM     41  H   UNL     1      -0.320   4.861  12.300  1.00  0.00     0.167 HD
ATOM     42  C   UNL     1       3.220   3.536  14.517  1.00  0.00     0.034 A 
ATOM     43  C   UNL     1      -3.039   5.459  12.037  1.00  0.00     0.034 A 
ATOM     44  C   UNL     1       2.247   3.867  15.520  1.00  0.00     0.049 A 
ATOM     45  C   UNL     1      -2.766   5.357  13.513  1.00  0.00     0.074 A 
ATOM     46  C   UNL     1       2.388   3.849  16.896  1.00  0.00     0.029 A 
ATOM     47  N   UNL     1       0.951   4.282  15.255  1.00  0.00    -0.354 N 
ATOM     48  N   UNL     1      -1.640   5.083  14.127  1.00  0.00    -0.248 NA
ATOM     49  C   UNL     1      -3.892   5.627  14.419  1.00  0.00     0.031 C 
ATOM     50  C   UNL     1       1.172   4.245  17.464  1.00  0.00     0.029 A 
ATOM     51  C   UNL     1       0.280   4.523  16.441  1.00  0.00     0.049 A 
ATOM     52  H   UNL     1       0.565   4.389  14.356  1.00  0.00     0.167 HD
ATOM     53  C   UNL     1      -1.912   5.182  15.486  1.00  0.00     0.074 A 
ATOM     54  C   UNL     1      -3.305   5.562  15.606  1.00  0.00     0.031 C 
ATOM     55  C   UNL     1      -1.089   4.960  16.541  1.00  0.00     0.034 A 
BRANCH  42  56
ATOM     56  C   UNL     1       4.577   3.056  14.963  1.00  0.00     0.023 A 
ATOM     57  C   UNL     1       5.686   3.921  14.855  1.00  0.00     0.012 A 
ATOM     58  C   UNL     1       4.751   1.777  15.526  1.00  0.00     0.148 A 
ATOM     59  C   UNL     1       6.952   3.508  15.263  1.00  0.00     0.002 A 
ATOM     60  C   UNL     1       6.010   1.389  15.972  1.00  0.00     0.091 A 
ATOM     61  F   UNL     1       3.691   0.959  15.599  1.00  0.00    -0.205 F 
ATOM     62  C   UNL     1       7.112   2.248  15.830  1.00  0.00     0.022 A 
BRANCH  60  63
ATOM     63  S   UNL     1       6.303  -0.185  16.786  1.00  0.00     0.127 S 
ATOM     64  O   UNL     1       7.006  -0.930  15.743  1.00  0.00    -0.237 OA
ATOM     65  O   UNL     1       7.138   0.205  17.923  1.00  0.00    -0.237 OA
ATOM     66  O   UNL     1       4.990  -0.699  17.148  1.00  0.00    -0.744 OA
ENDBRANCH  60  63
ENDBRANCH  42  56
BRANCH  43  67
ATOM     67  C   UNL     1      -4.387   5.845  11.531  1.00  0.00     0.023 A 
ATOM     68  C   UNL     1      -4.851   7.157  11.750  1.00  0.00     0.012 A 
ATOM     69  C   UNL     1      -5.194   4.942  10.812  1.00  0.00     0.148 A 
ATOM     70  C   UNL     1      -6.106   7.555  11.287  1.00  0.00     0.002 A 
ATOM     71  C   UNL     1      -6.421   5.362  10.308  1.00  0.00     0.091 A 
ATOM     72  F   UNL     1      -4.741   3.695  10.625  1.00  0.00    -0.205 F 
ATOM     73  C   UNL     1      -6.886   6.662  10.559  1.00  0.00     0.022 A 
BRANCH  71  74
ATOM     74  S   UNL     1      -7.431   4.320   9.249  1.00  0.00     0.127 S 
ATOM     75  O   UNL     1      -8.522   3.950  10.147  1.00  0.00    -0.237 OA
ATOM     76  O   UNL     1      -7.802   5.245   8.177  1.00  0.00    -0.237 OA
ATOM     77  O   UNL     1      -6.559   3.233   8.825  1.00  0.00    -0.744 OA
ENDBRANCH  71  74
ENDBRANCH  43  67
BRANCH  55  78
ATOM     78  C   UNL     1      -1.656   5.153  17.922  1.00  0.00     0.023 A 
ATOM     79  C   UNL     1      -2.546   4.197  18.450  1.00  0.00     0.012 A 
ATOM     80  C   UNL     1      -1.243   6.234  18.726  1.00  0.00     0.148 A 
ATOM     81  C   UNL     1      -3.038   4.329  19.747  1.00  0.00     0.002 A 
ATOM     82  C   UNL     1      -1.701   6.333  20.034  1.00  0.00     0.091 A 
ATOM     83  F   UNL     1      -0.411   7.144  18.197  1.00  0.00    -0.205 F 
ATOM     84  C   UNL     1      -2.606   5.388  20.543  1.00  0.00     0.022 A 
BRANCH  82  85
ATOM     85  S   UNL     1      -1.123   7.611  21.157  1.00  0.00     0.127 S 
ATOM     86  O   UNL     1      -2.268   8.520  21.190  1.00  0.00    -0.237 OA
ATOM     87  O   UNL     1      -0.902   6.863  22.395  1.00  0.00    -0.237 OA
ATOM     88  O   UNL     1       0.090   8.150  20.556  1.00  0.00    -0.744 OA
ENDBRANCH  82  85
ENDBRANCH  55  78
ENDBRANCH  29  30
ENDBRANCH  21  24
ENDBRANCH  19  20
ENDBRANCH   1  19
TORSDOF 16
