REMARK SMILES C[C@@H]1C[N@@H+](Cc2cccc(C(=O)NCCCCNC(=O)c3ccc(-c4c5nc(c(-c6cccc(S(=O)(=O)[O-])c6F)c6ccc([nH]6)c(-c6cccc(S(=O)(=O)[O-])c6F)c6nc(c(-c7cccc(S(=O)(=O)[O-])c7F)c7ccc4[nH]7)C=C6)C=C5)cc3)c2)CCN1C(=O)OC(C)(C)C
REMARK SMILES IDX 14 1 13 2 11 3 12 4 10 6 6 7 7 8 84 9 8 10 9 11 5 12 4 13
REMARK SMILES IDX 1 14 2 15 3 16 87 17 86 18 85 19 88 21 89 22 90 23 91 24
REMARK SMILES IDX 92 25 93 26 94 27 15 28 16 29 17 30 18 31 19 32 20 34 21 35
REMARK SMILES IDX 22 36 83 37 23 38 82 39 24 40 25 41 26 42 76 43 27 44 81 45
REMARK SMILES IDX 75 46 77 47 28 48 80 49 74 50 73 51 29 53 61 54 41 55 60 56
REMARK SMILES IDX 42 57 45 58 59 59 78 60 43 61 44 62 58 64 79 65 46 66 30 67
REMARK SMILES IDX 31 68 39 69 32 70 34 71 40 72 33 73 35 74 36 75 37 76 38 77
REMARK SMILES IDX 62 78 63 79 71 80 64 81 66 82 72 83 65 84 67 85 68 86 69 87
REMARK SMILES IDX 70 88 47 89 48 90 56 91 49 92 51 93 57 94 50 95 52 96 53 97
REMARK SMILES IDX 54 98 55 99
REMARK H PARENT 13 5 4 20 18 33 77 52 45 63
REMARK Flexibility Score: inf
ROOT
ATOM      1  C   UNL     1      -2.663   2.177   4.839  1.00  0.00     0.116 C 
ENDROOT
BRANCH   1   2
ATOM      2  N   UNL     1      -3.803   3.064   4.788  1.00  0.00    -0.352 N 
ATOM      3  C   UNL     1      -4.077   4.174   4.026  1.00  0.00     0.251 C 
ATOM      4  O   UNL     1      -5.196   4.676   4.145  1.00  0.00    -0.269 OA
ATOM      5  H   UNL     1      -4.520   2.829   5.420  1.00  0.00     0.163 HD
BRANCH   3   6
ATOM      6  C   UNL     1      -3.134   4.755   3.017  1.00  0.00     0.040 A 
ATOM      7  C   UNL     1      -0.945   4.996   1.933  1.00  0.00     0.007 A 
ATOM      8  C   UNL     1      -1.551   5.706   0.889  1.00  0.00     0.009 A 
ATOM      9  C   UNL     1      -1.740   4.633   3.043  1.00  0.00     0.023 A 
ATOM     10  C   UNL     1      -2.921   5.967   0.916  1.00  0.00     0.001 A 
ATOM     11  C   UNL     1      -3.710   5.462   1.952  1.00  0.00     0.014 A 
BRANCH   7  12
ATOM     12  C   UNL     1       0.522   4.571   1.835  1.00  0.00     0.299 C 
BRANCH  12  13
ATOM     13  N   UNL     1       0.802   3.136   1.533  1.00  0.00    -0.328 N 
ATOM     14  C   UNL     1       1.759   0.626  -0.485  1.00  0.00     0.037 C 
ATOM     15  C   UNL     1       0.378   1.187  -0.126  1.00  0.00     0.140 C 
ATOM     16  C   UNL     1       0.366   2.728   0.177  1.00  0.00     0.287 C 
ATOM     17  N   UNL     1      -0.188   0.424   0.998  1.00  0.00    -0.294 N 
ATOM     18  C   UNL     1       0.368   0.757   2.304  1.00  0.00     0.185 C 
ATOM     19  C   UNL     1       0.197   2.254   2.544  1.00  0.00     0.284 C 
ATOM     20  H   UNL     1       1.817   3.038   1.564  1.00  0.00     0.348 HD
BRANCH  17  21
ATOM     21  C   UNL     1      -1.210  -0.500   0.904  1.00  0.00     0.410 C 
ATOM     22  O   UNL     1      -1.710  -1.046   1.875  1.00  0.00    -0.224 OA
BRANCH  21  23
ATOM     23  O   UNL     1      -1.578  -0.732  -0.383  1.00  0.00    -0.444 OA
BRANCH  23  24
ATOM     24  C   UNL     1      -2.554  -1.761  -0.698  1.00  0.00     0.106 C 
ATOM     25  C   UNL     1      -2.040  -3.147  -0.288  1.00  0.00     0.056 C 
ATOM     26  C   UNL     1      -3.930  -1.458  -0.093  1.00  0.00     0.056 C 
ATOM     27  C   UNL     1      -2.678  -1.720  -2.229  1.00  0.00     0.056 C 
ENDBRANCH  23  24
ENDBRANCH  21  23
ENDBRANCH  17  21
ENDBRANCH  12  13
ENDBRANCH   7  12
ENDBRANCH   3   6
ENDBRANCH   1   2
BRANCH   1  28
ATOM     28  C   UNL     1      -1.720   2.544   5.986  1.00  0.00     0.023 C 
BRANCH  28  29
ATOM     29  C   UNL     1      -2.037   1.804   7.284  1.00  0.00     0.023 C 
BRANCH  29  30
ATOM     30  C   UNL     1      -1.832   0.296   7.210  1.00  0.00     0.116 C 
BRANCH  30  31
ATOM     31  N   UNL     1      -0.456  -0.090   6.930  1.00  0.00    -0.352 N 
ATOM     32  C   UNL     1       0.225  -1.185   7.410  1.00  0.00     0.251 C 
ATOM     33  H   UNL     1       0.047   0.503   6.326  1.00  0.00     0.163 HD
ATOM     34  O   UNL     1       1.421  -1.324   7.177  1.00  0.00    -0.269 OA
BRANCH  32  35
ATOM     35  C   UNL     1      -0.502  -2.163   8.245  1.00  0.00     0.039 A 
ATOM     36  C   UNL     1       0.044  -2.550   9.470  1.00  0.00     0.014 A 
ATOM     37  C   UNL     1      -1.752  -2.642   7.844  1.00  0.00     0.014 A 
ATOM     38  C   UNL     1      -0.689  -3.386  10.314  1.00  0.00     0.010 A 
ATOM     39  C   UNL     1      -2.519  -3.389   8.729  1.00  0.00     0.010 A 
ATOM     40  C   UNL     1      -1.987  -3.792   9.962  1.00  0.00    -0.014 A 
BRANCH  40  41
ATOM     41  C   UNL     1      -2.786  -4.674  10.852  1.00  0.00     0.031 A 
ATOM     42  C   UNL     1      -3.221  -6.032  10.365  1.00  0.00     0.074 A 
ATOM     43  C   UNL     1      -3.169  -4.237  12.068  1.00  0.00     0.049 A 
ATOM     44  N   UNL     1      -3.938  -6.937  10.979  1.00  0.00    -0.248 NA
ATOM     45  C   UNL     1      -2.825  -6.412   8.998  1.00  0.00     0.031 C 
ATOM     46  C   UNL     1      -2.883  -2.912  12.623  1.00  0.00     0.029 A 
ATOM     47  N   UNL     1      -3.900  -4.856  13.051  1.00  0.00    -0.354 N 
ATOM     48  C   UNL     1      -4.107  -7.971  10.065  1.00  0.00     0.074 A 
ATOM     49  C   UNL     1      -3.463  -7.561   8.838  1.00  0.00     0.031 C 
ATOM     50  C   UNL     1      -3.417  -2.824  13.852  1.00  0.00     0.029 A 
ATOM     51  C   UNL     1      -4.108  -4.072  14.162  1.00  0.00     0.049 A 
ATOM     52  H   UNL     1      -4.242  -5.775  12.969  1.00  0.00     0.167 HD
ATOM     53  C   UNL     1      -4.710  -9.170  10.238  1.00  0.00     0.034 A 
ATOM     54  C   UNL     1      -4.782  -4.329  15.300  1.00  0.00     0.034 A 
ATOM     55  C   UNL     1      -5.317  -9.590  11.471  1.00  0.00     0.049 A 
ATOM     56  C   UNL     1      -5.409  -5.686  15.484  1.00  0.00     0.074 A 
ATOM     57  C   UNL     1      -5.891 -10.811  11.776  1.00  0.00     0.029 A 
ATOM     58  N   UNL     1      -5.436  -8.798  12.602  1.00  0.00    -0.354 N 
ATOM     59  N   UNL     1      -5.434  -6.704  14.659  1.00  0.00    -0.248 NA
ATOM     60  C   UNL     1      -6.060  -5.945  16.776  1.00  0.00     0.031 C 
ATOM     61  C   UNL     1      -6.386 -10.746  13.083  1.00  0.00     0.029 A 
ATOM     62  C   UNL     1      -6.075  -9.502  13.608  1.00  0.00     0.049 A 
ATOM     63  H   UNL     1      -5.112  -7.871  12.680  1.00  0.00     0.167 HD
ATOM     64  C   UNL     1      -6.056  -7.739  15.349  1.00  0.00     0.074 A 
ATOM     65  C   UNL     1      -6.379  -7.226  16.664  1.00  0.00     0.031 C 
ATOM     66  C   UNL     1      -6.339  -8.998  14.930  1.00  0.00     0.034 A 
BRANCH  53  67
ATOM     67  C   UNL     1      -4.703 -10.130   9.075  1.00  0.00     0.023 A 
ATOM     68  C   UNL     1      -3.489 -10.715   8.658  1.00  0.00     0.012 A 
ATOM     69  C   UNL     1      -5.899 -10.487   8.424  1.00  0.00     0.148 A 
ATOM     70  C   UNL     1      -3.459 -11.604   7.584  1.00  0.00     0.002 A 
ATOM     71  C   UNL     1      -5.869 -11.415   7.390  1.00  0.00     0.091 A 
ATOM     72  F   UNL     1      -7.041  -9.907   8.820  1.00  0.00    -0.205 F 
ATOM     73  C   UNL     1      -4.649 -11.962   6.958  1.00  0.00     0.022 A 
BRANCH  71  74
ATOM     74  S   UNL     1      -7.356 -12.009   6.576  1.00  0.00     0.127 S 
ATOM     75  O   UNL     1      -7.211 -11.434   5.239  1.00  0.00    -0.237 OA
ATOM     76  O   UNL     1      -7.179 -13.460   6.638  1.00  0.00    -0.237 OA
ATOM     77  O   UNL     1      -8.474 -11.498   7.355  1.00  0.00    -0.744 OA
ENDBRANCH  71  74
ENDBRANCH  53  67
BRANCH  54  78
ATOM     78  C   UNL     1      -4.843  -3.307  16.383  1.00  0.00     0.023 A 
ATOM     79  C   UNL     1      -4.154  -3.532  17.592  1.00  0.00     0.012 A 
ATOM     80  C   UNL     1      -5.571  -2.113  16.221  1.00  0.00     0.148 A 
ATOM     81  C   UNL     1      -4.224  -2.607  18.634  1.00  0.00     0.002 A 
ATOM     82  C   UNL     1      -5.589  -1.170  17.241  1.00  0.00     0.091 A 
ATOM     83  F   UNL     1      -6.224  -1.921  15.066  1.00  0.00    -0.205 F 
ATOM     84  C   UNL     1      -4.934  -1.423  18.456  1.00  0.00     0.022 A 
BRANCH  82  85
ATOM     85  S   UNL     1      -6.371   0.436  17.055  1.00  0.00     0.127 S 
ATOM     86  O   UNL     1      -7.492   0.333  17.986  1.00  0.00    -0.237 OA
ATOM     87  O   UNL     1      -5.300   1.341  17.477  1.00  0.00    -0.237 OA
ATOM     88  O   UNL     1      -6.727   0.541  15.647  1.00  0.00    -0.744 OA
ENDBRANCH  82  85
ENDBRANCH  54  78
BRANCH  66  89
ATOM     89  C   UNL     1      -6.964  -9.941  15.925  1.00  0.00     0.023 A 
ATOM     90  C   UNL     1      -8.294  -9.754  16.349  1.00  0.00     0.012 A 
ATOM     91  C   UNL     1      -6.239 -11.053  16.396  1.00  0.00     0.148 A 
ATOM     92  C   UNL     1      -8.876 -10.632  17.264  1.00  0.00     0.002 A 
ATOM     93  C   UNL     1      -6.843 -11.956  17.262  1.00  0.00     0.091 A 
ATOM     94  F   UNL     1      -4.968 -11.206  15.996  1.00  0.00    -0.205 F 
ATOM     95  C   UNL     1      -8.155 -11.738  17.710  1.00  0.00     0.022 A 
BRANCH  93  96
ATOM     96  S   UNL     1      -6.026 -13.461  17.802  1.00  0.00     0.127 S 
ATOM     97  O   UNL     1      -5.703 -13.142  19.191  1.00  0.00    -0.237 OA
ATOM     98  O   UNL     1      -7.079 -14.463  17.635  1.00  0.00    -0.237 OA
ATOM     99  O   UNL     1      -4.882 -13.636  16.917  1.00  0.00    -0.744 OA
ENDBRANCH  93  96
ENDBRANCH  66  89
ENDBRANCH  40  41
ENDBRANCH  32  35
ENDBRANCH  30  31
ENDBRANCH  29  30
ENDBRANCH  28  29
ENDBRANCH   1  28
TORSDOF 19
