REMARK SMILES O=C(NCCCCNC(=O)[C@H](O)Cc1ccc(O)cc1)c1ccc(-c2c3nc(c(-c4cccc(S(=O)(=O)[O-])c4F)c4ccc([nH]4)c(-c4cccc(S(=O)(=O)[O-])c4F)c4nc(c(-c5cccc(S(=O)(=O)[O-])c5F)c5ccc2[nH]5)C=C4)C=C3)cc1
REMARK SMILES IDX 5 1 4 2 3 3 1 4 2 5 21 7 22 8 83 9 23 10 82 11 24 12 25 13
REMARK SMILES IDX 26 14 76 15 27 16 81 17 75 18 77 19 28 20 80 21 74 22 73 23
REMARK SMILES IDX 29 25 61 26 41 27 60 28 42 29 45 30 59 31 78 32 43 33 44 34
REMARK SMILES IDX 58 36 79 37 46 38 30 39 31 40 39 41 32 42 34 43 40 44 33 45
REMARK SMILES IDX 35 46 36 47 37 48 38 49 62 50 63 51 71 52 64 53 66 54 72 55
REMARK SMILES IDX 65 56 67 57 68 58 69 59 70 60 47 61 48 62 56 63 49 64 51 65
REMARK SMILES IDX 57 66 50 67 52 68 53 69 54 70 55 71 6 72 7 73 8 74 9 75
REMARK SMILES IDX 10 77 11 78 13 79 14 80 15 81 20 82 16 83 19 84 17 85 18 86
REMARK SMILES IDX 12 88
REMARK H PARENT 3 6 77 24 45 35 8 76 18 87 12 89
REMARK Flexibility Score: inf
ROOT
ATOM      1  C   UNL     1       4.412  -6.125   9.278  1.00  0.00     0.023 C 
ENDROOT
BRANCH   1   2
ATOM      2  C   UNL     1       2.942  -6.476   9.075  1.00  0.00     0.116 C 
BRANCH   2   3
ATOM      3  N   UNL     1       2.709  -7.910   9.073  1.00  0.00    -0.352 N 
ATOM      4  O   UNL     1       2.029  -9.899   9.868  1.00  0.00    -0.269 OA
ATOM      5  C   UNL     1       1.950  -8.674   9.927  1.00  0.00     0.251 C 
ATOM      6  H   UNL     1       3.160  -8.408   8.354  1.00  0.00     0.163 HD
BRANCH   5   7
ATOM      7  C   UNL     1       1.070  -8.026  10.923  1.00  0.00     0.039 A 
ATOM      8  C   UNL     1       0.244  -6.956  10.567  1.00  0.00     0.014 A 
ATOM      9  C   UNL     1       1.062  -8.512  12.233  1.00  0.00     0.014 A 
ATOM     10  C   UNL     1      -0.487  -6.286  11.545  1.00  0.00     0.010 A 
ATOM     11  C   UNL     1       0.269  -7.885  13.197  1.00  0.00     0.010 A 
ATOM     12  C   UNL     1      -0.487  -6.748  12.869  1.00  0.00    -0.014 A 
BRANCH  12  13
ATOM     13  C   UNL     1      -1.318  -6.079  13.901  1.00  0.00     0.031 A 
ATOM     14  C   UNL     1      -0.681  -5.421  15.093  1.00  0.00     0.074 A 
ATOM     15  C   UNL     1      -2.659  -6.125  13.793  1.00  0.00     0.049 A 
ATOM     16  N   UNL     1      -1.250  -4.881  16.139  1.00  0.00    -0.248 NA
ATOM     17  C   UNL     1       0.790  -5.375  15.119  1.00  0.00     0.031 C 
ATOM     18  C   UNL     1      -3.392  -6.763  12.698  1.00  0.00     0.029 A 
ATOM     19  N   UNL     1      -3.644  -5.663  14.630  1.00  0.00    -0.354 N 
ATOM     20  C   UNL     1      -0.214  -4.477  16.971  1.00  0.00     0.074 A 
ATOM     21  C   UNL     1       1.022  -4.836  16.308  1.00  0.00     0.031 C 
ATOM     22  C   UNL     1      -4.707  -6.671  12.938  1.00  0.00     0.029 A 
ATOM     23  C   UNL     1      -4.909  -6.019  14.228  1.00  0.00     0.049 A 
ATOM     24  H   UNL     1      -3.462  -5.129  15.437  1.00  0.00     0.167 HD
ATOM     25  C   UNL     1      -0.286  -3.858  18.175  1.00  0.00     0.034 A 
ATOM     26  C   UNL     1      -6.099  -5.880  14.844  1.00  0.00     0.034 A 
ATOM     27  C   UNL     1      -1.520  -3.487  18.816  1.00  0.00     0.049 A 
ATOM     28  C   UNL     1      -6.157  -5.190  16.176  1.00  0.00     0.074 A 
ATOM     29  C   UNL     1      -1.699  -2.790  19.998  1.00  0.00     0.029 A 
ATOM     30  N   UNL     1      -2.785  -3.801  18.343  1.00  0.00    -0.354 N 
ATOM     31  N   UNL     1      -5.174  -4.701  16.890  1.00  0.00    -0.248 NA
ATOM     32  C   UNL     1      -7.487  -5.003  16.773  1.00  0.00     0.031 C 
ATOM     33  C   UNL     1      -3.071  -2.716  20.258  1.00  0.00     0.029 A 
ATOM     34  C   UNL     1      -3.749  -3.328  19.216  1.00  0.00     0.049 A 
ATOM     35  H   UNL     1      -2.970  -4.289  17.508  1.00  0.00     0.167 HD
ATOM     36  C   UNL     1      -5.765  -4.114  18.003  1.00  0.00     0.074 A 
ATOM     37  C   UNL     1      -7.195  -4.306  17.864  1.00  0.00     0.031 C 
ATOM     38  C   UNL     1      -5.173  -3.478  19.043  1.00  0.00     0.034 A 
BRANCH  25  39
ATOM     39  C   UNL     1       1.010  -3.533  18.874  1.00  0.00     0.023 A 
ATOM     40  C   UNL     1       1.852  -2.523  18.363  1.00  0.00     0.012 A 
ATOM     41  C   UNL     1       1.378  -4.201  20.059  1.00  0.00     0.148 A 
ATOM     42  C   UNL     1       3.059  -2.218  18.991  1.00  0.00     0.002 A 
ATOM     43  C   UNL     1       2.560  -3.859  20.705  1.00  0.00     0.091 A 
ATOM     44  F   UNL     1       0.578  -5.172  20.522  1.00  0.00    -0.205 F 
ATOM     45  C   UNL     1       3.409  -2.879  20.166  1.00  0.00     0.022 A 
BRANCH  43  46
ATOM     46  S   UNL     1       3.051  -4.600  22.266  1.00  0.00     0.127 S 
ATOM     47  O   UNL     1       4.091  -5.533  21.836  1.00  0.00    -0.237 OA
ATOM     48  O   UNL     1       3.544  -3.445  23.018  1.00  0.00    -0.237 OA
ATOM     49  O   UNL     1       1.846  -5.206  22.815  1.00  0.00    -0.744 OA
ENDBRANCH  43  46
ENDBRANCH  25  39
BRANCH  26  50
ATOM     50  C   UNL     1      -7.324  -6.393  14.172  1.00  0.00     0.023 A 
ATOM     51  C   UNL     1      -8.242  -5.485  13.613  1.00  0.00     0.012 A 
ATOM     52  C   UNL     1      -7.532  -7.777  14.006  1.00  0.00     0.148 A 
ATOM     53  C   UNL     1      -9.355  -5.948  12.910  1.00  0.00     0.002 A 
ATOM     54  C   UNL     1      -8.609  -8.229  13.256  1.00  0.00     0.091 A 
ATOM     55  F   UNL     1      -6.643  -8.620  14.550  1.00  0.00    -0.205 F 
ATOM     56  C   UNL     1      -9.531  -7.316  12.720  1.00  0.00     0.022 A 
BRANCH  54  57
ATOM     57  S   UNL     1      -8.839  -9.960  12.836  1.00  0.00     0.127 S 
ATOM     58  O   UNL     1     -10.083 -10.274  13.534  1.00  0.00    -0.237 OA
ATOM     59  O   UNL     1      -8.947  -9.901  11.378  1.00  0.00    -0.237 OA
ATOM     60  O   UNL     1      -7.653 -10.649  13.327  1.00  0.00    -0.744 OA
ENDBRANCH  54  57
ENDBRANCH  26  50
BRANCH  38  61
ATOM     61  C   UNL     1      -6.060  -2.882  20.103  1.00  0.00     0.023 A 
ATOM     62  C   UNL     1      -6.694  -3.713  21.046  1.00  0.00     0.012 A 
ATOM     63  C   UNL     1      -6.166  -1.482  20.230  1.00  0.00     0.148 A 
ATOM     64  C   UNL     1      -7.433  -3.160  22.092  1.00  0.00     0.002 A 
ATOM     65  C   UNL     1      -6.862  -0.938  21.302  1.00  0.00     0.091 A 
ATOM     66  F   UNL     1      -5.570  -0.712  19.308  1.00  0.00    -0.205 F 
ATOM     67  C   UNL     1      -7.504  -1.775  22.228  1.00  0.00     0.022 A 
BRANCH  65  68
ATOM     68  S   UNL     1      -6.920   0.830  21.616  1.00  0.00     0.127 S 
ATOM     69  O   UNL     1      -8.331   1.129  21.372  1.00  0.00    -0.237 OA
ATOM     70  O   UNL     1      -6.513   0.907  23.019  1.00  0.00    -0.237 OA
ATOM     71  O   UNL     1      -5.986   1.440  20.679  1.00  0.00    -0.744 OA
ENDBRANCH  65  68
ENDBRANCH  38  61
ENDBRANCH  12  13
ENDBRANCH   5   7
ENDBRANCH   2   3
ENDBRANCH   1   2
BRANCH   1  72
ATOM     72  C   UNL     1       5.365  -6.648   8.200  1.00  0.00     0.023 C 
BRANCH  72  73
ATOM     73  C   UNL     1       4.985  -6.289   6.765  1.00  0.00     0.116 C 
BRANCH  73  74
ATOM     74  N   UNL     1       4.929  -4.855   6.552  1.00  0.00    -0.354 N 
ATOM     75  C   UNL     1       5.537  -4.100   5.589  1.00  0.00     0.249 C 
ATOM     76  H   UNL     1       4.374  -4.354   7.192  1.00  0.00     0.163 HD
ATOM     77  O   UNL     1       5.388  -2.878   5.630  1.00  0.00    -0.272 OA
BRANCH  75  78
ATOM     78  C   UNL     1       6.418  -4.784   4.527  1.00  0.00     0.207 C 
BRANCH  78  79
ATOM     79  C   UNL     1       5.528  -5.501   3.499  1.00  0.00     0.077 C 
BRANCH  79  80
ATOM     80  C   UNL     1       6.314  -6.456   2.625  1.00  0.00    -0.045 A 
ATOM     81  C   UNL     1       6.193  -7.844   2.778  1.00  0.00     0.007 A 
ATOM     82  C   UNL     1       7.190  -5.953   1.651  1.00  0.00     0.007 A 
ATOM     83  C   UNL     1       6.934  -8.711   1.968  1.00  0.00     0.046 A 
ATOM     84  C   UNL     1       7.936  -6.816   0.852  1.00  0.00     0.046 A 
ATOM     85  C   UNL     1       7.798  -8.188   1.011  1.00  0.00     0.115 A 
BRANCH  85  86
ATOM     86  O   UNL     1       8.533  -8.998   0.197  1.00  0.00    -0.508 OA
ATOM     87  H   UNL     1       8.465  -9.929   0.277  1.00  0.00     0.293 HD
ENDBRANCH  85  86
ENDBRANCH  79  80
ENDBRANCH  78  79
BRANCH  78  88
ATOM     88  O   UNL     1       7.243  -3.829   3.850  1.00  0.00    -0.383 OA
ATOM     89  H   UNL     1       6.681  -3.182   3.396  1.00  0.00     0.211 HD
ENDBRANCH  78  88
ENDBRANCH  75  78
ENDBRANCH  73  74
ENDBRANCH  72  73
ENDBRANCH   1  72
TORSDOF 18
