REMARK SMILES Cc1nn(C)c2c1nc(SCC(=O)NCCCCNC(=O)c1ccc(-c3c4nc(c(-c5cccc(S(=O)(=O)[O-])c5F)c5ccc([nH]5)c(-c5cccc(S(=O)(=O)[O-])c5F)c5nc(c(-c6cccc(S(=O)(=O)[O-])c6F)c6ccc3[nH]6)C=C5)C=C4)cc1)n2[C@H]1CC[N@@H+](C)C1
REMARK SMILES IDX 16 1 15 2 14 3 12 4 13 5 11 7 10 8 9 9 1 10 2 11 3 12 7 13
REMARK SMILES IDX 4 14 6 15 8 16 5 17 85 18 86 19 87 20 91 21 88 22 89 23
REMARK SMILES IDX 90 24 17 26 18 27 19 28 20 29 21 31 22 32 23 33 84 34 24 35
REMARK SMILES IDX 83 36 25 37 26 38 27 39 77 40 28 41 82 42 76 43 78 44 29 45
REMARK SMILES IDX 81 46 75 47 74 48 30 50 62 51 42 52 61 53 43 54 46 55 60 56
REMARK SMILES IDX 79 57 44 58 45 59 59 61 80 62 47 63 31 64 32 65 40 66 33 67
REMARK SMILES IDX 35 68 41 69 34 70 36 71 37 72 38 73 39 74 63 75 64 76 72 77
REMARK SMILES IDX 65 78 67 79 73 80 66 81 68 82 69 83 70 84 71 85 48 86 49 87
REMARK SMILES IDX 57 88 50 89 52 90 58 91 51 92 53 93 54 94 55 95 56 96
REMARK H PARENT 14 6 89 25 19 30 78 49 46 60
REMARK Flexibility Score: inf
ROOT
ATOM      1  C   UNL     1       1.125   0.799   1.752  1.00  0.00     0.023 C 
ENDROOT
BRANCH   1   2
ATOM      2  C   UNL     1       2.588   1.267   1.715  1.00  0.00     0.116 C 
BRANCH   2   3
ATOM      3  N   UNL     1       2.720   2.579   1.110  1.00  0.00    -0.355 N 
ATOM      4  C   UNL     1       2.877   3.816   1.668  1.00  0.00     0.230 C 
ATOM      5  O   UNL     1       2.869   4.784   0.903  1.00  0.00    -0.274 OA
ATOM      6  H   UNL     1       2.690   2.578   0.126  1.00  0.00     0.163 HD
BRANCH   4   7
ATOM      7  C   UNL     1       3.179   3.991   3.141  1.00  0.00     0.178 C 
BRANCH   7   8
ATOM      8  S   UNL     1       1.895   3.392   4.249  1.00  0.00    -0.078 SA
BRANCH   8   9
ATOM      9  C   UNL     1       0.542   4.450   4.007  1.00  0.00     0.171 A 
ATOM     10  C   UNL     1      -1.043   8.329   2.271  1.00  0.00     0.071 C 
ATOM     11  C   UNL     1      -1.451   7.124   3.017  1.00  0.00     0.087 A 
ATOM     12  N   UNL     1      -2.729   6.981   3.414  1.00  0.00    -0.174 NA
ATOM     13  C   UNL     1      -0.705   6.025   3.441  1.00  0.00     0.132 A 
ATOM     14  N   UNL     1      -2.762   5.776   4.039  1.00  0.00    -0.250 N 
ATOM     15  C   UNL     1      -1.531   5.191   4.116  1.00  0.00     0.159 A 
ATOM     16  N   UNL     1       0.571   5.602   3.368  1.00  0.00    -0.219 NA
ATOM     17  C   UNL     1      -4.056   5.335   4.499  1.00  0.00     0.176 C 
ATOM     18  N   UNL     1      -0.722   4.167   4.546  1.00  0.00    -0.295 N 
BRANCH  18  19
ATOM     19  C   UNL     1      -1.029   2.992   5.355  1.00  0.00     0.152 C 
ATOM     20  C   UNL     1      -0.194   2.861   6.647  1.00  0.00     0.093 C 
ATOM     21  C   UNL     1      -2.462   2.889   5.871  1.00  0.00     0.288 C 
ATOM     22  C   UNL     1      -1.188   2.901   7.793  1.00  0.00     0.264 C 
ATOM     23  N   UNL     1      -2.389   2.300   7.212  1.00  0.00    -0.336 N 
ATOM     24  C   UNL     1      -3.579   2.641   7.991  1.00  0.00     0.332 C 
ATOM     25  H   UNL     1      -2.348   1.281   7.197  1.00  0.00     0.347 HD
ENDBRANCH  18  19
ENDBRANCH   8   9
ENDBRANCH   7   8
ENDBRANCH   4   7
ENDBRANCH   2   3
ENDBRANCH   1   2
BRANCH   1  26
ATOM     26  C   UNL     1       0.416   0.711   0.390  1.00  0.00     0.023 C 
BRANCH  26  27
ATOM     27  C   UNL     1       1.019  -0.299  -0.576  1.00  0.00     0.116 C 
BRANCH  27  28
ATOM     28  N   UNL     1       0.850  -1.682  -0.129  1.00  0.00    -0.352 N 
ATOM     29  C   UNL     1       1.323  -2.833  -0.738  1.00  0.00     0.251 C 
ATOM     30  H   UNL     1       0.339  -1.810   0.703  1.00  0.00     0.163 HD
ATOM     31  O   UNL     1       0.814  -3.917  -0.510  1.00  0.00    -0.269 OA
BRANCH  29  32
ATOM     32  C   UNL     1       2.462  -2.714  -1.669  1.00  0.00     0.039 A 
ATOM     33  C   UNL     1       2.479  -3.402  -2.885  1.00  0.00     0.014 A 
ATOM     34  C   UNL     1       3.502  -1.857  -1.320  1.00  0.00     0.014 A 
ATOM     35  C   UNL     1       3.510  -3.145  -3.787  1.00  0.00     0.010 A 
ATOM     36  C   UNL     1       4.431  -1.495  -2.265  1.00  0.00     0.010 A 
ATOM     37  C   UNL     1       4.470  -2.166  -3.483  1.00  0.00    -0.014 A 
BRANCH  37  38
ATOM     38  C   UNL     1       5.443  -1.739  -4.487  1.00  0.00     0.031 A 
ATOM     39  C   UNL     1       4.846  -1.317  -5.785  1.00  0.00     0.074 A 
ATOM     40  C   UNL     1       6.749  -1.528  -4.213  1.00  0.00     0.049 A 
ATOM     41  N   UNL     1       4.933  -1.923  -6.923  1.00  0.00    -0.248 NA
ATOM     42  C   UNL     1       3.924  -0.171  -5.793  1.00  0.00     0.031 C 
ATOM     43  C   UNL     1       7.420  -1.590  -2.907  1.00  0.00     0.029 A 
ATOM     44  N   UNL     1       7.736  -1.065  -5.030  1.00  0.00    -0.354 N 
ATOM     45  C   UNL     1       4.289  -1.095  -7.842  1.00  0.00     0.074 A 
ATOM     46  C   UNL     1       3.514  -0.168  -7.063  1.00  0.00     0.031 C 
ATOM     47  C   UNL     1       8.599  -0.934  -2.973  1.00  0.00     0.029 A 
ATOM     48  C   UNL     1       8.851  -0.576  -4.354  1.00  0.00     0.049 A 
ATOM     49  H   UNL     1       7.667  -1.076  -6.012  1.00  0.00     0.167 HD
ATOM     50  C   UNL     1       4.664  -1.075  -9.153  1.00  0.00     0.034 A 
ATOM     51  C   UNL     1       9.893   0.106  -4.887  1.00  0.00     0.034 A 
ATOM     52  C   UNL     1       5.506  -2.204  -9.467  1.00  0.00     0.049 A 
ATOM     53  C   UNL     1       9.907  -0.192  -6.335  1.00  0.00     0.074 A 
ATOM     54  C   UNL     1       5.384  -3.577  -9.400  1.00  0.00     0.029 A 
ATOM     55  N   UNL     1       6.851  -1.948  -9.576  1.00  0.00    -0.354 N 
ATOM     56  N   UNL     1      10.169  -1.371  -6.824  1.00  0.00    -0.248 NA
ATOM     57  C   UNL     1       9.228   0.725  -7.232  1.00  0.00     0.031 C 
ATOM     58  C   UNL     1       6.673  -4.040  -9.000  1.00  0.00     0.029 A 
ATOM     59  C   UNL     1       7.524  -2.936  -8.914  1.00  0.00     0.049 A 
ATOM     60  H   UNL     1       7.259  -1.186 -10.049  1.00  0.00     0.167 HD
ATOM     61  C   UNL     1       9.283  -1.502  -7.883  1.00  0.00     0.074 A 
ATOM     62  C   UNL     1       8.832  -0.141  -8.168  1.00  0.00     0.031 C 
ATOM     63  C   UNL     1       8.779  -2.725  -8.226  1.00  0.00     0.034 A 
BRANCH  50  64
ATOM     64  C   UNL     1       4.638   0.141 -10.063  1.00  0.00     0.023 A 
ATOM     65  C   UNL     1       5.017  -0.064 -11.412  1.00  0.00     0.012 A 
ATOM     66  C   UNL     1       4.564   1.483  -9.624  1.00  0.00     0.148 A 
ATOM     67  C   UNL     1       5.390   0.996 -12.246  1.00  0.00     0.002 A 
ATOM     68  C   UNL     1       4.862   2.539 -10.480  1.00  0.00     0.091 A 
ATOM     69  F   UNL     1       4.331   1.760  -8.341  1.00  0.00    -0.205 F 
ATOM     70  C   UNL     1       5.312   2.300 -11.780  1.00  0.00     0.022 A 
BRANCH  68  71
ATOM     71  S   UNL     1       4.734   4.251  -9.947  1.00  0.00     0.127 S 
ATOM     72  O   UNL     1       6.140   4.627  -9.838  1.00  0.00    -0.237 OA
ATOM     73  O   UNL     1       4.013   4.857 -11.067  1.00  0.00    -0.237 OA
ATOM     74  O   UNL     1       3.979   4.218  -8.700  1.00  0.00    -0.744 OA
ENDBRANCH  68  71
ENDBRANCH  50  64
BRANCH  51  75
ATOM     75  C   UNL     1      10.760   1.154  -4.304  1.00  0.00     0.023 A 
ATOM     76  C   UNL     1      12.012   1.425  -4.893  1.00  0.00     0.012 A 
ATOM     77  C   UNL     1      10.243   2.084  -3.377  1.00  0.00     0.148 A 
ATOM     78  C   UNL     1      12.704   2.608  -4.607  1.00  0.00     0.002 A 
ATOM     79  C   UNL     1      10.936   3.258  -3.094  1.00  0.00     0.091 A 
ATOM     80  F   UNL     1       9.032   1.861  -2.848  1.00  0.00    -0.205 F 
ATOM     81  C   UNL     1      12.160   3.530  -3.719  1.00  0.00     0.022 A 
BRANCH  79  82
ATOM     82  S   UNL     1      10.285   4.512  -1.982  1.00  0.00     0.127 S 
ATOM     83  O   UNL     1      11.437   4.780  -1.120  1.00  0.00    -0.237 OA
ATOM     84  O   UNL     1       9.950   5.590  -2.908  1.00  0.00    -0.237 OA
ATOM     85  O   UNL     1       9.159   3.888  -1.298  1.00  0.00    -0.744 OA
ENDBRANCH  79  82
ENDBRANCH  51  75
BRANCH  63  86
ATOM     86  C   UNL     1       9.432  -3.952  -7.641  1.00  0.00     0.023 A 
ATOM     87  C   UNL     1       9.448  -4.223  -6.257  1.00  0.00     0.012 A 
ATOM     88  C   UNL     1       9.896  -4.935  -8.530  1.00  0.00     0.148 A 
ATOM     89  C   UNL     1       9.938  -5.440  -5.772  1.00  0.00     0.002 A 
ATOM     90  C   UNL     1      10.336  -6.161  -8.049  1.00  0.00     0.091 A 
ATOM     91  F   UNL     1       9.874  -4.662  -9.844  1.00  0.00    -0.205 F 
ATOM     92  C   UNL     1      10.369  -6.414  -6.669  1.00  0.00     0.022 A 
BRANCH  90  93
ATOM     93  S   UNL     1      10.780  -7.496  -9.161  1.00  0.00     0.127 S 
ATOM     94  O   UNL     1      12.238  -7.489  -9.080  1.00  0.00    -0.237 OA
ATOM     95  O   UNL     1      10.137  -8.654  -8.537  1.00  0.00    -0.237 OA
ATOM     96  O   UNL     1      10.221  -7.137 -10.459  1.00  0.00    -0.744 OA
ENDBRANCH  90  93
ENDBRANCH  63  86
ENDBRANCH  37  38
ENDBRANCH  29  32
ENDBRANCH  27  28
ENDBRANCH  26  27
ENDBRANCH   1  26
TORSDOF 17
