REMARK SMILES CC(C)C[C@H](NC(=O)[C@H](Cc1ccccc1)NC(=O)CNC(=O)CNC(=O)OCc1ccccc1)C(=O)NCCCCNC(=O)c1ccc(-c2c3nc(c(-c4cccc(S(=O)(=O)[O-])c4F)c4ccc([nH]4)c(-c4cccc(S(=O)(=O)[O-])c4F)c4nc(c(-c5cccc(S(=O)(=O)[O-])c5F)c5ccc2[nH]5)C=C4)C=C3)cc1
REMARK SMILES IDX 5 1 4 2 2 3 1 4 3 5 36 6 37 7 38 8 39 10 40 11 41 12 42 13
REMARK SMILES IDX 43 14 44 15 45 17 46 18 47 19 108 20 48 21 107 22 49 23
REMARK SMILES IDX 50 24 51 25 101 26 52 27 106 28 100 29 102 30 53 31 105 32
REMARK SMILES IDX 99 33 98 34 54 36 86 37 66 38 85 39 67 40 70 41 84 42 103 43
REMARK SMILES IDX 68 44 69 45 83 47 104 48 71 49 55 50 56 51 64 52 57 53 59 54
REMARK SMILES IDX 65 55 58 56 60 57 61 58 62 59 63 60 87 61 88 62 96 63 89 64
REMARK SMILES IDX 91 65 97 66 90 67 92 68 93 69 94 70 95 71 72 72 73 73 81 74
REMARK SMILES IDX 74 75 76 76 82 77 75 78 77 79 78 80 79 81 80 82 6 83 7 84
REMARK SMILES IDX 8 86 9 87 17 88 18 89 19 91 20 92 21 93 22 94 23 96 24 97
REMARK SMILES IDX 25 98 26 99 27 101 28 102 29 103 30 104 31 105 35 106 32 107
REMARK SMILES IDX 34 108 33 109 10 110 11 111 12 112 16 113 13 114 15 115
REMARK SMILES IDX 14 116
REMARK H PARENT 38 9 43 16 102 35 70 46 6 85 17 90 21 95 25 100
REMARK Flexibility Score: inf
ROOT
ATOM      1  C   UNL     1      -5.981   2.112  -4.382  1.00  0.00     0.171 C 
ENDROOT
BRANCH   1   2
ATOM      2  C   UNL     1      -4.637   1.395  -4.588  1.00  0.00     0.038 C 
BRANCH   2   3
ATOM      3  C   UNL     1      -3.346   1.887  -3.896  1.00  0.00    -0.015 C 
ATOM      4  C   UNL     1      -3.480   2.331  -2.449  1.00  0.00     0.007 C 
ATOM      5  C   UNL     1      -2.256   0.809  -3.980  1.00  0.00     0.007 C 
ENDBRANCH   2   3
ENDBRANCH   1   2
BRANCH   1   6
ATOM      6  C   UNL     1      -6.061   3.613  -4.037  1.00  0.00     0.242 C 
ATOM      7  O   UNL     1      -6.919   4.013  -3.245  1.00  0.00    -0.273 OA
ATOM      8  N   UNL     1      -5.354   4.573  -4.676  1.00  0.00    -0.354 N 
ATOM      9  H   UNL     1      -5.376   5.455  -4.238  1.00  0.00     0.163 HD
BRANCH   8  10
ATOM     10  C   UNL     1      -4.575   4.528  -5.889  1.00  0.00     0.116 C 
BRANCH  10  11
ATOM     11  C   UNL     1      -4.474   5.905  -6.541  1.00  0.00     0.023 C 
BRANCH  11  12
ATOM     12  C   UNL     1      -3.781   6.981  -5.692  1.00  0.00     0.023 C 
BRANCH  12  13
ATOM     13  C   UNL     1      -2.460   6.568  -5.048  1.00  0.00     0.116 C 
BRANCH  13  14
ATOM     14  N   UNL     1      -1.499   6.067  -6.022  1.00  0.00    -0.352 N 
ATOM     15  C   UNL     1      -0.317   6.615  -6.451  1.00  0.00     0.251 C 
ATOM     16  H   UNL     1      -1.734   5.204  -6.434  1.00  0.00     0.163 HD
ATOM     17  O   UNL     1       0.273   6.128  -7.410  1.00  0.00    -0.269 OA
BRANCH  15  18
ATOM     18  C   UNL     1       0.229   7.802  -5.766  1.00  0.00     0.039 A 
ATOM     19  C   UNL     1       0.599   8.911  -6.529  1.00  0.00     0.014 A 
ATOM     20  C   UNL     1       0.364   7.818  -4.375  1.00  0.00     0.014 A 
ATOM     21  C   UNL     1       1.047  10.067  -5.887  1.00  0.00     0.010 A 
ATOM     22  C   UNL     1       0.747   8.993  -3.735  1.00  0.00     0.010 A 
ATOM     23  C   UNL     1       1.095  10.127  -4.485  1.00  0.00    -0.014 A 
BRANCH  23  24
ATOM     24  C   UNL     1       1.496  11.374  -3.787  1.00  0.00     0.031 A 
ATOM     25  C   UNL     1       2.750  11.408  -2.958  1.00  0.00     0.074 A 
ATOM     26  C   UNL     1       0.689  12.452  -3.838  1.00  0.00     0.049 A 
ATOM     27  N   UNL     1       3.245  12.394  -2.256  1.00  0.00    -0.248 NA
ATOM     28  C   UNL     1       3.537  10.166  -2.886  1.00  0.00     0.031 C 
ATOM     29  C   UNL     1      -0.598  12.512  -4.536  1.00  0.00     0.029 A 
ATOM     30  N   UNL     1       0.817  13.695  -3.271  1.00  0.00    -0.354 N 
ATOM     31  C   UNL     1       4.380  11.886  -1.637  1.00  0.00     0.074 A 
ATOM     32  C   UNL     1       4.481  10.493  -2.015  1.00  0.00     0.031 C 
ATOM     33  C   UNL     1      -1.137  13.729  -4.358  1.00  0.00     0.029 A 
ATOM     34  C   UNL     1      -0.248  14.528  -3.520  1.00  0.00     0.049 A 
ATOM     35  H   UNL     1       1.599  13.965  -2.737  1.00  0.00     0.167 HD
ATOM     36  C   UNL     1       5.278  12.528  -0.852  1.00  0.00     0.034 A 
ATOM     37  C   UNL     1      -0.481  15.793  -3.119  1.00  0.00     0.034 A 
ATOM     38  C   UNL     1       5.201  13.924  -0.518  1.00  0.00     0.049 A 
ATOM     39  C   UNL     1       0.560  16.501  -2.295  1.00  0.00     0.074 A 
ATOM     40  C   UNL     1       6.107  14.690   0.194  1.00  0.00     0.029 A 
ATOM     41  N   UNL     1       4.156  14.764  -0.872  1.00  0.00    -0.354 N 
ATOM     42  N   UNL     1       1.713  16.053  -1.862  1.00  0.00    -0.248 NA
ATOM     43  C   UNL     1       0.287  17.901  -1.938  1.00  0.00     0.031 C 
ATOM     44  C   UNL     1       5.603  15.992   0.281  1.00  0.00     0.029 A 
ATOM     45  C   UNL     1       4.392  16.040  -0.390  1.00  0.00     0.049 A 
ATOM     46  H   UNL     1       3.364  14.494  -1.389  1.00  0.00     0.167 HD
ATOM     47  C   UNL     1       2.319  17.122  -1.212  1.00  0.00     0.074 A 
ATOM     48  C   UNL     1       1.414  18.247  -1.328  1.00  0.00     0.031 C 
ATOM     49  C   UNL     1       3.508  17.165  -0.563  1.00  0.00     0.034 A 
BRANCH  36  50
ATOM     50  C   UNL     1       6.461  11.739  -0.358  1.00  0.00     0.023 A 
ATOM     51  C   UNL     1       7.477  11.378  -1.267  1.00  0.00     0.012 A 
ATOM     52  C   UNL     1       6.597  11.399   1.001  1.00  0.00     0.148 A 
ATOM     53  C   UNL     1       8.594  10.662  -0.838  1.00  0.00     0.002 A 
ATOM     54  C   UNL     1       7.734  10.722   1.429  1.00  0.00     0.091 A 
ATOM     55  F   UNL     1       5.611  11.730   1.846  1.00  0.00    -0.205 F 
ATOM     56  C   UNL     1       8.727  10.344   0.510  1.00  0.00     0.022 A 
BRANCH  54  57
ATOM     57  S   UNL     1       8.033  10.330   3.157  1.00  0.00     0.127 S 
ATOM     58  O   UNL     1       7.801   8.887   3.176  1.00  0.00    -0.237 OA
ATOM     59  O   UNL     1       9.432  10.724   3.326  1.00  0.00    -0.237 OA
ATOM     60  O   UNL     1       7.083  11.129   3.918  1.00  0.00    -0.744 OA
ENDBRANCH  54  57
ENDBRANCH  36  50
BRANCH  37  61
ATOM     61  C   UNL     1      -1.718  16.497  -3.562  1.00  0.00     0.023 A 
ATOM     62  C   UNL     1      -1.620  17.535  -4.509  1.00  0.00     0.012 A 
ATOM     63  C   UNL     1      -2.988  16.123  -3.082  1.00  0.00     0.148 A 
ATOM     64  C   UNL     1      -2.760  18.210  -4.946  1.00  0.00     0.002 A 
ATOM     65  C   UNL     1      -4.125  16.763  -3.562  1.00  0.00     0.091 A 
ATOM     66  F   UNL     1      -3.060  15.142  -2.171  1.00  0.00    -0.205 F 
ATOM     67  C   UNL     1      -4.013  17.817  -4.482  1.00  0.00     0.022 A 
BRANCH  65  68
ATOM     68  S   UNL     1      -5.783  16.232  -3.119  1.00  0.00     0.127 S 
ATOM     69  O   UNL     1      -6.201  17.289  -2.203  1.00  0.00    -0.237 OA
ATOM     70  O   UNL     1      -6.460  16.236  -4.417  1.00  0.00    -0.237 OA
ATOM     71  O   UNL     1      -5.622  14.907  -2.535  1.00  0.00    -0.744 OA
ENDBRANCH  65  68
ENDBRANCH  37  61
BRANCH  49  72
ATOM     72  C   UNL     1       3.922  18.475   0.052  1.00  0.00     0.023 A 
ATOM     73  C   UNL     1       3.288  18.924   1.227  1.00  0.00     0.012 A 
ATOM     74  C   UNL     1       4.992  19.218  -0.485  1.00  0.00     0.148 A 
ATOM     75  C   UNL     1       3.694  20.108   1.842  1.00  0.00     0.002 A 
ATOM     76  C   UNL     1       5.421  20.372   0.159  1.00  0.00     0.091 A 
ATOM     77  F   UNL     1       5.569  18.784  -1.615  1.00  0.00    -0.205 F 
ATOM     78  C   UNL     1       4.766  20.824   1.316  1.00  0.00     0.022 A 
BRANCH  76  79
ATOM     79  S   UNL     1       6.853  21.304  -0.395  1.00  0.00     0.127 S 
ATOM     80  O   UNL     1       6.229  22.472  -1.013  1.00  0.00    -0.237 OA
ATOM     81  O   UNL     1       7.552  21.579   0.862  1.00  0.00    -0.237 OA
ATOM     82  O   UNL     1       7.575  20.423  -1.303  1.00  0.00    -0.744 OA
ENDBRANCH  76  79
ENDBRANCH  49  72
ENDBRANCH  23  24
ENDBRANCH  15  18
ENDBRANCH  13  14
ENDBRANCH  12  13
ENDBRANCH  11  12
ENDBRANCH  10  11
ENDBRANCH   8  10
ENDBRANCH   1   6
BRANCH   1  83
ATOM     83  N   UNL     1      -6.912   1.889  -5.493  1.00  0.00    -0.343 N 
ATOM     84  C   UNL     1      -8.233   1.560  -5.419  1.00  0.00     0.243 C 
ATOM     85  H   UNL     1      -6.539   1.988  -6.398  1.00  0.00     0.164 HD
ATOM     86  O   UNL     1      -8.980   2.206  -6.164  1.00  0.00    -0.273 OA
BRANCH  84  87
ATOM     87  C   UNL     1      -8.800   0.429  -4.481  1.00  0.00     0.175 C 
BRANCH  87  88
ATOM     88  N   UNL     1      -9.473   1.078  -3.345  1.00  0.00    -0.342 N 
ATOM     89  C   UNL     1      -9.765   0.734  -2.061  1.00  0.00     0.240 C 
ATOM     90  H   UNL     1      -9.790   1.983  -3.568  1.00  0.00     0.164 HD
ATOM     91  O   UNL     1     -10.558   1.464  -1.456  1.00  0.00    -0.273 OA
BRANCH  89  92
ATOM     92  C   UNL     1      -9.206  -0.510  -1.319  1.00  0.00     0.216 C 
BRANCH  92  93
ATOM     93  N   UNL     1      -8.334  -1.475  -1.980  1.00  0.00    -0.346 N 
ATOM     94  C   UNL     1      -6.982  -1.672  -1.850  1.00  0.00     0.239 C 
ATOM     95  H   UNL     1      -8.783  -2.077  -2.617  1.00  0.00     0.164 HD
ATOM     96  O   UNL     1      -6.525  -2.754  -2.223  1.00  0.00    -0.273 OA
BRANCH  94  97
ATOM     97  C   UNL     1      -6.086  -0.620  -1.168  1.00  0.00     0.219 C 
BRANCH  97  98
ATOM     98  N   UNL     1      -6.645   0.687  -1.407  1.00  0.00    -0.312 N 
ATOM     99  C   UNL     1      -6.635   1.798  -0.641  1.00  0.00     0.407 C 
ATOM    100  H   UNL     1      -7.110   0.784  -2.269  1.00  0.00     0.167 HD
ATOM    101  O   UNL     1      -7.545   2.610  -0.776  1.00  0.00    -0.225 OA
BRANCH  99 102
ATOM    102  O   UNL     1      -5.596   1.900   0.207  1.00  0.00    -0.445 OA
BRANCH 102 103
ATOM    103  C   UNL     1      -5.613   3.128   0.954  1.00  0.00     0.270 C 
BRANCH 103 104
ATOM    104  C   UNL     1      -4.917   4.263   0.236  1.00  0.00    -0.011 A 
ATOM    105  C   UNL     1      -3.526   4.413   0.319  1.00  0.00     0.007 A 
ATOM    106  C   UNL     1      -5.646   5.194  -0.521  1.00  0.00     0.007 A 
ATOM    107  C   UNL     1      -2.886   5.482  -0.316  1.00  0.00     0.000 A 
ATOM    108  C   UNL     1      -5.005   6.264  -1.154  1.00  0.00     0.000 A 
ATOM    109  C   UNL     1      -3.626   6.411  -1.046  1.00  0.00     0.000 A 
ENDBRANCH 103 104
ENDBRANCH 102 103
ENDBRANCH  99 102
ENDBRANCH  97  98
ENDBRANCH  94  97
ENDBRANCH  92  93
ENDBRANCH  89  92
ENDBRANCH  87  88
BRANCH  87 110
ATOM    110  C   UNL     1      -9.790  -0.327  -5.439  1.00  0.00     0.070 C 
BRANCH 110 111
ATOM    111  C   UNL     1     -10.715  -1.476  -5.093  1.00  0.00    -0.045 A 
ATOM    112  C   UNL     1     -11.207  -2.252  -6.161  1.00  0.00     0.004 A 
ATOM    113  C   UNL     1     -11.269  -1.712  -3.838  1.00  0.00     0.004 A 
ATOM    114  C   UNL     1     -12.176  -3.241  -5.965  1.00  0.00     0.000 A 
ATOM    115  C   UNL     1     -12.210  -2.725  -3.624  1.00  0.00     0.000 A 
ATOM    116  C   UNL     1     -12.667  -3.489  -4.690  1.00  0.00     0.000 A 
ENDBRANCH 110 111
ENDBRANCH  87 110
ENDBRANCH  84  87
ENDBRANCH   1  83
TORSDOF 28
