REMARK SMILES CCC[C@@H]1CCc2nc3c(F)cccc3c(C(=O)NCCCCNC(=O)c3ccc(-c4c5nc(c(-c6cccc(S(=O)(=O)[O-])c6F)c6ccc([nH]6)c(-c6cccc(S(=O)(=O)[O-])c6F)c6nc(c(-c7cccc(S(=O)(=O)[O-])c7F)c7ccc4[nH]7)C=C6)C=C5)cc3)c2C1
REMARK SMILES IDX 22 1 21 2 20 3 19 4 17 5 18 6 16 8 4 9 5 10 91 11 6 12 90 13
REMARK SMILES IDX 7 14 8 15 15 16 9 17 14 18 10 19 13 20 11 21 12 22 3 23 2 24
REMARK SMILES IDX 1 25 23 26 24 27 25 28 26 30 27 31 28 32 89 33 29 34 88 35
REMARK SMILES IDX 30 36 31 37 32 38 82 39 33 40 87 41 81 42 83 43 34 44 86 45
REMARK SMILES IDX 80 46 79 47 35 49 67 50 47 51 66 52 48 53 51 54 65 55 84 56
REMARK SMILES IDX 49 57 50 58 64 60 85 61 52 62 36 63 37 64 45 65 38 66 40 67
REMARK SMILES IDX 46 68 39 69 41 70 42 71 43 72 44 73 68 74 69 75 77 76 70 77
REMARK SMILES IDX 72 78 78 79 71 80 73 81 74 82 75 83 76 84 53 85 54 86 62 87
REMARK SMILES IDX 55 88 57 89 63 90 56 91 58 92 59 93 60 94 61 95
REMARK H PARENT 19 7 24 29 83 48 51 59
REMARK Flexibility Score: inf
ROOT
ATOM      1  C   UNL     1       6.064   7.397   4.148  1.00  0.00     0.023 C 
ENDROOT
BRANCH   1   2
ATOM      2  C   UNL     1       4.609   7.350   3.704  1.00  0.00     0.023 C 
BRANCH   2   3
ATOM      3  C   UNL     1       4.322   6.519   2.441  1.00  0.00     0.116 C 
BRANCH   3   4
ATOM      4  N   UNL     1       4.078   5.142   2.832  1.00  0.00    -0.352 N 
ATOM      5  C   UNL     1       2.952   4.469   3.250  1.00  0.00     0.252 C 
ATOM      6  O   UNL     1       3.157   3.529   4.017  1.00  0.00    -0.269 OA
ATOM      7  H   UNL     1       4.881   4.574   2.788  1.00  0.00     0.163 HD
BRANCH   5   8
ATOM      8  C   UNL     1       1.550   4.729   2.758  1.00  0.00     0.054 A 
ATOM      9  C   UNL     1       0.145   1.098   2.404  1.00  0.00    -0.006 C 
ATOM     10  C   UNL     1      -0.979   1.434   1.427  1.00  0.00     0.010 C 
ATOM     11  C   UNL     1       1.257   2.171   2.383  1.00  0.00     0.042 C 
ATOM     12  C   UNL     1      -1.553   2.802   1.735  1.00  0.00     0.057 C 
ATOM     13  C   UNL     1       0.769   3.610   2.361  1.00  0.00    -0.013 A 
ATOM     14  C   UNL     1      -0.508   3.875   1.866  1.00  0.00     0.045 A 
ATOM     15  N   UNL     1      -0.960   5.119   1.612  1.00  0.00    -0.249 NA
ATOM     16  C   UNL     1       0.954   6.026   2.729  1.00  0.00     0.016 A 
ATOM     17  C   UNL     1      -0.249   6.176   2.021  1.00  0.00     0.107 A 
ATOM     18  C   UNL     1       1.422   7.173   3.410  1.00  0.00     0.011 A 
ATOM     19  C   UNL     1      -0.751   7.460   1.796  1.00  0.00     0.149 A 
ATOM     20  C   UNL     1       0.907   8.452   3.191  1.00  0.00     0.004 A 
ATOM     21  F   UNL     1      -1.862   7.625   1.058  1.00  0.00    -0.205 F 
ATOM     22  C   UNL     1      -0.164   8.600   2.334  1.00  0.00     0.041 A 
BRANCH   9  23
ATOM     23  C   UNL     1       0.714  -0.332   2.249  1.00  0.00     0.003 C 
BRANCH  23  24
ATOM     24  C   UNL     1       0.670  -0.979   0.860  1.00  0.00    -0.003 C 
ATOM     25  C   UNL     1       1.568  -0.323  -0.176  1.00  0.00     0.004 C 
ENDBRANCH  23  24
ENDBRANCH   9  23
ENDBRANCH   5   8
ENDBRANCH   3   4
ENDBRANCH   2   3
ENDBRANCH   1   2
BRANCH   1  26
ATOM     26  C   UNL     1       6.974   8.190   3.231  1.00  0.00     0.116 C 
BRANCH  26  27
ATOM     27  N   UNL     1       6.538   9.570   3.036  1.00  0.00    -0.352 N 
ATOM     28  C   UNL     1       7.312  10.706   3.044  1.00  0.00     0.251 C 
ATOM     29  H   UNL     1       5.575   9.703   2.881  1.00  0.00     0.163 HD
ATOM     30  O   UNL     1       6.810  11.820   2.951  1.00  0.00    -0.269 OA
BRANCH  28  31
ATOM     31  C   UNL     1       8.765  10.537   3.207  1.00  0.00     0.039 A 
ATOM     32  C   UNL     1       9.396  11.118   4.309  1.00  0.00     0.014 A 
ATOM     33  C   UNL     1       9.452   9.675   2.346  1.00  0.00     0.014 A 
ATOM     34  C   UNL     1      10.716  10.773   4.591  1.00  0.00     0.010 A 
ATOM     35  C   UNL     1      10.737   9.275   2.675  1.00  0.00     0.010 A 
ATOM     36  C   UNL     1      11.379   9.825   3.795  1.00  0.00    -0.014 A 
BRANCH  36  37
ATOM     37  C   UNL     1      12.771   9.421   4.085  1.00  0.00     0.031 A 
ATOM     38  C   UNL     1      13.854   9.793   3.116  1.00  0.00     0.074 A 
ATOM     39  C   UNL     1      13.043   8.664   5.164  1.00  0.00     0.049 A 
ATOM     40  N   UNL     1      15.123   9.492   3.148  1.00  0.00    -0.248 NA
ATOM     41  C   UNL     1      13.449  10.584   1.940  1.00  0.00     0.031 C 
ATOM     42  C   UNL     1      12.057   8.182   6.134  1.00  0.00     0.029 A 
ATOM     43  N   UNL     1      14.233   8.155   5.617  1.00  0.00    -0.354 N 
ATOM     44  C   UNL     1      15.662  10.033   1.990  1.00  0.00     0.074 A 
ATOM     45  C   UNL     1      14.578  10.639   1.252  1.00  0.00     0.031 C 
ATOM     46  C   UNL     1      12.686   7.460   7.076  1.00  0.00     0.029 A 
ATOM     47  C   UNL     1      14.114   7.418   6.771  1.00  0.00     0.049 A 
ATOM     48  H   UNL     1      15.091   8.303   5.159  1.00  0.00     0.167 HD
ATOM     49  C   UNL     1      16.955  10.066   1.598  1.00  0.00     0.034 A 
ATOM     50  C   UNL     1      15.054   6.793   7.505  1.00  0.00     0.034 A 
ATOM     51  C   UNL     1      18.037   9.520   2.363  1.00  0.00     0.049 A 
ATOM     52  C   UNL     1      16.493   6.881   7.077  1.00  0.00     0.074 A 
ATOM     53  C   UNL     1      19.391   9.561   2.089  1.00  0.00     0.029 A 
ATOM     54  N   UNL     1      17.886   8.842   3.563  1.00  0.00    -0.354 N 
ATOM     55  N   UNL     1      17.003   7.497   6.037  1.00  0.00    -0.248 NA
ATOM     56  C   UNL     1      17.488   6.218   7.931  1.00  0.00     0.031 C 
ATOM     57  C   UNL     1      20.062   8.914   3.132  1.00  0.00     0.029 A 
ATOM     58  C   UNL     1      19.123   8.467   4.050  1.00  0.00     0.049 A 
ATOM     59  H   UNL     1      17.025   8.655   4.002  1.00  0.00     0.167 HD
ATOM     60  C   UNL     1      18.378   7.315   6.121  1.00  0.00     0.074 A 
ATOM     61  C   UNL     1      18.623   6.540   7.321  1.00  0.00     0.031 C 
ATOM     62  C   UNL     1      19.346   7.739   5.273  1.00  0.00     0.034 A 
BRANCH  49  63
ATOM     63  C   UNL     1      17.261  10.802   0.326  1.00  0.00     0.023 A 
ATOM     64  C   UNL     1      17.264  12.212   0.343  1.00  0.00     0.012 A 
ATOM     65  C   UNL     1      17.546  10.119  -0.870  1.00  0.00     0.148 A 
ATOM     66  C   UNL     1      17.519  12.934  -0.821  1.00  0.00     0.002 A 
ATOM     67  C   UNL     1      17.828  10.847  -2.020  1.00  0.00     0.091 A 
ATOM     68  F   UNL     1      17.505   8.779  -0.867  1.00  0.00    -0.205 F 
ATOM     69  C   UNL     1      17.808  12.252  -1.999  1.00  0.00     0.022 A 
BRANCH  67  70
ATOM     70  S   UNL     1      18.253  10.063  -3.579  1.00  0.00     0.127 S 
ATOM     71  O   UNL     1      17.042  10.296  -4.365  1.00  0.00    -0.237 OA
ATOM     72  O   UNL     1      19.417  10.839  -4.007  1.00  0.00    -0.237 OA
ATOM     73  O   UNL     1      18.537   8.670  -3.262  1.00  0.00    -0.744 OA
ENDBRANCH  67  70
ENDBRANCH  49  63
BRANCH  50  74
ATOM     74  C   UNL     1      14.660   6.130   8.777  1.00  0.00     0.023 A 
ATOM     75  C   UNL     1      14.896   6.799   9.993  1.00  0.00     0.012 A 
ATOM     76  C   UNL     1      13.977   4.899   8.786  1.00  0.00     0.148 A 
ATOM     77  C   UNL     1      14.462   6.253  11.200  1.00  0.00     0.002 A 
ATOM     78  C   UNL     1      13.518   4.375   9.990  1.00  0.00     0.091 A 
ATOM     79  F   UNL     1      13.754   4.290   7.614  1.00  0.00    -0.205 F 
ATOM     80  C   UNL     1      13.768   5.046  11.199  1.00  0.00     0.022 A 
BRANCH  78  81
ATOM     81  S   UNL     1      12.535   2.875  10.090  1.00  0.00     0.127 S 
ATOM     82  O   UNL     1      13.324   2.058  11.010  1.00  0.00    -0.237 OA
ATOM     83  O   UNL     1      11.279   3.384  10.639  1.00  0.00    -0.237 OA
ATOM     84  O   UNL     1      12.450   2.364   8.729  1.00  0.00    -0.744 OA
ENDBRANCH  78  81
ENDBRANCH  50  74
BRANCH  62  85
ATOM     85  C   UNL     1      20.770   7.387   5.594  1.00  0.00     0.023 A 
ATOM     86  C   UNL     1      21.253   6.111   5.249  1.00  0.00     0.012 A 
ATOM     87  C   UNL     1      21.658   8.361   6.090  1.00  0.00     0.148 A 
ATOM     88  C   UNL     1      22.606   5.807   5.393  1.00  0.00     0.002 A 
ATOM     89  C   UNL     1      23.010   8.061   6.201  1.00  0.00     0.091 A 
ATOM     90  F   UNL     1      21.167   9.565   6.418  1.00  0.00    -0.205 F 
ATOM     91  C   UNL     1      23.485   6.785   5.855  1.00  0.00     0.022 A 
BRANCH  89  92
ATOM     92  S   UNL     1      24.232   9.276   6.710  1.00  0.00     0.127 S 
ATOM     93  O   UNL     1      24.651   8.750   8.008  1.00  0.00    -0.237 OA
ATOM     94  O   UNL     1      25.237   9.164   5.652  1.00  0.00    -0.237 OA
ATOM     95  O   UNL     1      23.537  10.555   6.753  1.00  0.00    -0.744 OA
ENDBRANCH  89  92
ENDBRANCH  62  85
ENDBRANCH  36  37
ENDBRANCH  28  31
ENDBRANCH  26  27
ENDBRANCH   1  26
TORSDOF 16
