REMARK SMILES C[NH+]1CCC2(CC1)OC[C@H](C(=O)NCCCCNC(=O)c1ccc(-c3c4nc(c(-c5cccc(S(=O)(=O)[O-])c5F)c5ccc([nH]5)c(-c5cccc(S(=O)(=O)[O-])c5F)c5nc(c(-c6cccc(S(=O)(=O)[O-])c6F)c6ccc3[nH]6)C=C5)C=C4)cc1)N2C(=O)c1cc(C(F)(F)F)cc(C(F)(F)F)c1
REMARK SMILES IDX 15 1 14 2 13 3 11 4 12 5 10 7 1 8 2 9 3 10 7 11 4 13 6 14
REMARK SMILES IDX 5 15 8 16 84 17 9 18 85 19 86 20 87 21 88 22 100 23 89 24
REMARK SMILES IDX 95 25 94 26 90 27 91 28 92 29 93 30 96 31 97 32 98 33 99 34
REMARK SMILES IDX 16 35 17 36 18 37 19 38 20 40 21 41 22 42 83 43 23 44 82 45
REMARK SMILES IDX 24 46 25 47 26 48 76 49 27 50 81 51 75 52 77 53 28 54 80 55
REMARK SMILES IDX 74 56 73 57 29 59 61 60 41 61 60 62 42 63 45 64 59 65 78 66
REMARK SMILES IDX 43 67 44 68 58 70 79 71 46 72 30 73 31 74 39 75 32 76 34 77
REMARK SMILES IDX 40 78 33 79 35 80 36 81 37 82 38 83 62 84 63 85 71 86 64 87
REMARK SMILES IDX 66 88 72 89 65 90 67 91 68 92 69 93 70 94 47 95 48 96 56 97
REMARK SMILES IDX 49 98 51 99 57 100 50 101 52 102 53 103 54 104 55 105
REMARK H PARENT 13 6 2 12 18 39 77 58 45 69
REMARK Flexibility Score: inf
ROOT
ATOM      1  C   UNL     1      -0.618  -3.649   2.334  1.00  0.00     0.023 C 
ENDROOT
BRANCH   1   2
ATOM      2  C   UNL     1      -1.545  -4.200   1.251  1.00  0.00     0.116 C 
BRANCH   2   3
ATOM      3  N   UNL     1      -2.930  -4.143   1.658  1.00  0.00    -0.354 N 
ATOM      4  C   UNL     1      -3.990  -3.409   1.239  1.00  0.00     0.245 C 
ATOM      5  O   UNL     1      -5.061  -3.649   1.818  1.00  0.00    -0.273 OA
ATOM      6  H   UNL     1      -3.149  -4.765   2.389  1.00  0.00     0.163 HD
BRANCH   4   7
ATOM      7  C   UNL     1      -3.985  -2.347   0.107  1.00  0.00     0.203 C 
ATOM      8  C   UNL     1       1.226   1.352   0.055  1.00  0.00     0.332 C 
ATOM      9  N   UNL     1       0.467   0.255  -0.532  1.00  0.00    -0.337 N 
ATOM     10  C   UNL     1       0.074  -0.737   0.458  1.00  0.00     0.267 C 
ATOM     11  C   UNL     1      -0.554   0.686  -1.481  1.00  0.00     0.267 C 
ATOM     12  H   UNL     1       1.100  -0.262  -1.142  1.00  0.00     0.347 HD
ATOM     13  C   UNL     1      -1.334  -0.576   0.984  1.00  0.00     0.120 C 
ATOM     14  C   UNL     1      -2.034   0.537  -1.121  1.00  0.00     0.120 C 
ATOM     15  C   UNL     1      -2.385  -0.566  -0.122  1.00  0.00     0.155 C 
ATOM     16  O   UNL     1      -3.570  -0.052   0.557  1.00  0.00    -0.352 OA
ATOM     17  N   UNL     1      -2.814  -1.889  -0.630  1.00  0.00    -0.295 N 
ATOM     18  C   UNL     1      -4.574  -1.065   0.656  1.00  0.00     0.198 C 
BRANCH  17  19
ATOM     19  C   UNL     1      -2.480  -2.654  -1.744  1.00  0.00     0.256 C 
ATOM     20  O   UNL     1      -3.096  -3.673  -2.061  1.00  0.00    -0.269 OA
BRANCH  19  21
ATOM     21  C   UNL     1      -1.350  -2.334  -2.619  1.00  0.00     0.041 A 
ATOM     22  C   UNL     1      -1.557  -1.745  -3.870  1.00  0.00     0.027 A 
ATOM     23  C   UNL     1      -0.080  -2.777  -2.259  1.00  0.00     0.027 A 
ATOM     24  C   UNL     1      -0.460  -1.480  -4.712  1.00  0.00     0.057 A 
ATOM     25  C   UNL     1       1.036  -2.456  -3.041  1.00  0.00     0.057 A 
ATOM     26  C   UNL     1       0.836  -1.819  -4.275  1.00  0.00     0.026 A 
BRANCH  24  27
ATOM     27  C   UNL     1      -0.676  -0.821  -6.053  1.00  0.00     0.416 C 
ATOM     28  F   UNL     1      -1.329  -1.627  -6.933  1.00  0.00    -0.166 F 
ATOM     29  F   UNL     1      -1.423   0.314  -5.957  1.00  0.00    -0.166 F 
ATOM     30  F   UNL     1       0.481  -0.452  -6.670  1.00  0.00    -0.166 F 
ENDBRANCH  24  27
BRANCH  25  31
ATOM     31  C   UNL     1       2.424  -2.758  -2.525  1.00  0.00     0.416 C 
ATOM     32  F   UNL     1       3.036  -3.742  -3.232  1.00  0.00    -0.166 F 
ATOM     33  F   UNL     1       3.244  -1.674  -2.587  1.00  0.00    -0.166 F 
ATOM     34  F   UNL     1       2.410  -3.154  -1.224  1.00  0.00    -0.166 F 
ENDBRANCH  25  31
ENDBRANCH  19  21
ENDBRANCH  17  19
ENDBRANCH   4   7
ENDBRANCH   2   3
ENDBRANCH   1   2
BRANCH   1  35
ATOM     35  C   UNL     1       0.155  -4.681   3.134  1.00  0.00     0.023 C 
BRANCH  35  36
ATOM     36  C   UNL     1       1.059  -5.593   2.318  1.00  0.00     0.116 C 
BRANCH  36  37
ATOM     37  N   UNL     1       2.026  -4.919   1.454  1.00  0.00    -0.352 N 
ATOM     38  C   UNL     1       3.339  -5.283   1.198  1.00  0.00     0.251 C 
ATOM     39  H   UNL     1       1.706  -4.108   0.997  1.00  0.00     0.163 HD
ATOM     40  O   UNL     1       4.054  -4.623   0.469  1.00  0.00    -0.269 OA
BRANCH  38  41
ATOM     41  C   UNL     1       3.879  -6.467   1.900  1.00  0.00     0.039 A 
ATOM     42  C   UNL     1       5.024  -6.312   2.683  1.00  0.00     0.014 A 
ATOM     43  C   UNL     1       3.154  -7.657   1.916  1.00  0.00     0.014 A 
ATOM     44  C   UNL     1       5.366  -7.313   3.592  1.00  0.00     0.010 A 
ATOM     45  C   UNL     1       3.425  -8.591   2.904  1.00  0.00     0.010 A 
ATOM     46  C   UNL     1       4.524  -8.424   3.763  1.00  0.00    -0.014 A 
BRANCH  46  47
ATOM     47  C   UNL     1       4.742  -9.418   4.844  1.00  0.00     0.031 A 
ATOM     48  C   UNL     1       4.885 -10.874   4.493  1.00  0.00     0.074 A 
ATOM     49  C   UNL     1       4.674  -9.036   6.136  1.00  0.00     0.049 A 
ATOM     50  N   UNL     1       4.917 -11.914   5.283  1.00  0.00    -0.248 NA
ATOM     51  C   UNL     1       4.945 -11.208   3.059  1.00  0.00     0.031 C 
ATOM     52  C   UNL     1       4.442  -7.668   6.611  1.00  0.00     0.029 A 
ATOM     53  N   UNL     1       4.770  -9.770   7.292  1.00  0.00    -0.354 N 
ATOM     54  C   UNL     1       4.932 -13.021   4.444  1.00  0.00     0.074 A 
ATOM     55  C   UNL     1       4.859 -12.528   3.087  1.00  0.00     0.031 C 
ATOM     56  C   UNL     1       4.443  -7.659   7.954  1.00  0.00     0.029 A 
ATOM     57  C   UNL     1       4.638  -9.021   8.439  1.00  0.00     0.049 A 
ATOM     58  H   UNL     1       4.920 -10.743   7.300  1.00  0.00     0.167 HD
ATOM     59  C   UNL     1       5.043 -14.331   4.768  1.00  0.00     0.034 A 
ATOM     60  C   UNL     1       4.677  -9.391   9.734  1.00  0.00     0.034 A 
ATOM     61  C   UNL     1       5.217 -14.807   6.111  1.00  0.00     0.049 A 
ATOM     62  C   UNL     1       4.903 -10.841  10.068  1.00  0.00     0.074 A 
ATOM     63  C   UNL     1       5.444 -16.100   6.543  1.00  0.00     0.029 A 
ATOM     64  N   UNL     1       5.208 -14.000   7.239  1.00  0.00    -0.354 N 
ATOM     65  N   UNL     1       5.056 -11.859   9.255  1.00  0.00    -0.248 NA
ATOM     66  C   UNL     1       4.996 -11.191  11.493  1.00  0.00     0.031 C 
ATOM     67  C   UNL     1       5.581 -16.074   7.936  1.00  0.00     0.029 A 
ATOM     68  C   UNL     1       5.440 -14.764   8.367  1.00  0.00     0.049 A 
ATOM     69  H   UNL     1       5.058 -13.027   7.236  1.00  0.00     0.167 HD
ATOM     70  C   UNL     1       5.302 -12.961  10.066  1.00  0.00     0.074 A 
ATOM     71  C   UNL     1       5.292 -12.483  11.434  1.00  0.00     0.031 C 
ATOM     72  C   UNL     1       5.500 -14.254   9.713  1.00  0.00     0.034 A 
BRANCH  59  73
ATOM     73  C   UNL     1       5.066 -15.321   3.635  1.00  0.00     0.023 A 
ATOM     74  C   UNL     1       6.198 -15.381   2.796  1.00  0.00     0.012 A 
ATOM     75  C   UNL     1       3.987 -16.195   3.403  1.00  0.00     0.148 A 
ATOM     76  C   UNL     1       6.237 -16.259   1.715  1.00  0.00     0.002 A 
ATOM     77  C   UNL     1       4.053 -17.101   2.349  1.00  0.00     0.091 A 
ATOM     78  F   UNL     1       2.907 -16.107   4.191  1.00  0.00    -0.205 F 
ATOM     79  C   UNL     1       5.169 -17.125   1.497  1.00  0.00     0.022 A 
BRANCH  77  80
ATOM     80  S   UNL     1       2.756 -18.305   2.041  1.00  0.00     0.127 S 
ATOM     81  O   UNL     1       2.027 -17.681   0.939  1.00  0.00    -0.237 OA
ATOM     82  O   UNL     1       3.519 -19.498   1.669  1.00  0.00    -0.237 OA
ATOM     83  O   UNL     1       2.027 -18.427   3.296  1.00  0.00    -0.744 OA
ENDBRANCH  77  80
ENDBRANCH  59  73
BRANCH  60  84
ATOM     84  C   UNL     1       4.614  -8.358  10.808  1.00  0.00     0.023 A 
ATOM     85  C   UNL     1       5.789  -8.054  11.524  1.00  0.00     0.012 A 
ATOM     86  C   UNL     1       3.431  -7.654  11.101  1.00  0.00     0.148 A 
ATOM     87  C   UNL     1       5.782  -7.089  12.531  1.00  0.00     0.002 A 
ATOM     88  C   UNL     1       3.442  -6.659  12.074  1.00  0.00     0.091 A 
ATOM     89  F   UNL     1       2.321  -7.964  10.417  1.00  0.00    -0.205 F 
ATOM     90  C   UNL     1       4.612  -6.385  12.800  1.00  0.00     0.022 A 
BRANCH  88  91
ATOM     91  S   UNL     1       2.015  -5.616  12.401  1.00  0.00     0.127 S 
ATOM     92  O   UNL     1       1.556  -6.132  13.688  1.00  0.00    -0.237 OA
ATOM     93  O   UNL     1       2.616  -4.283  12.450  1.00  0.00    -0.237 OA
ATOM     94  O   UNL     1       1.114  -5.824  11.275  1.00  0.00    -0.744 OA
ENDBRANCH  88  91
ENDBRANCH  60  84
BRANCH  72  95
ATOM     95  C   UNL     1       5.765 -15.247  10.811  1.00  0.00     0.023 A 
ATOM     96  C   UNL     1       4.697 -15.701  11.609  1.00  0.00     0.012 A 
ATOM     97  C   UNL     1       7.047 -15.803  10.982  1.00  0.00     0.148 A 
ATOM     98  C   UNL     1       4.907 -16.683  12.575  1.00  0.00     0.002 A 
ATOM     99  C   UNL     1       7.239 -16.811  11.919  1.00  0.00     0.091 A 
ATOM    100  F   UNL     1       8.053 -15.339  10.226  1.00  0.00    -0.205 F 
ATOM    101  C   UNL     1       6.172 -17.247  12.721  1.00  0.00     0.022 A 
BRANCH  99 102
ATOM    102  S   UNL     1       8.814 -17.656  12.106  1.00  0.00     0.127 S 
ATOM    103  O   UNL     1       9.329 -17.057  13.335  1.00  0.00    -0.237 OA
ATOM    104  O   UNL     1       8.405 -19.056  12.233  1.00  0.00    -0.237 OA
ATOM    105  O   UNL     1       9.570 -17.359  10.896  1.00  0.00    -0.744 OA
ENDBRANCH  99 102
ENDBRANCH  72  95
ENDBRANCH  46  47
ENDBRANCH  38  41
ENDBRANCH  36  37
ENDBRANCH  35  36
ENDBRANCH   1  35
TORSDOF 18
