REMARK SMILES Cc1nc2cc(S(=O)(=O)N3CCC(C(=O)NCCCCNC(=O)c4ccc(-c5c6nc(c(-c7cccc(S(=O)(=O)[O-])c7F)c7ccc([nH]7)c(-c7cccc(S(=O)(=O)[O-])c7F)c7nc(c(-c8cccc(S(=O)(=O)[O-])c8F)c8ccc5[nH]8)C=C7)C=C6)cc4)CC3)ccc2n1C1CCCC1
REMARK SMILES IDX 18 1 17 2 16 3 14 4 15 5 13 7 10 8 11 9 88 10 12 11 87 12
REMARK SMILES IDX 7 13 8 14 9 15 6 16 1 17 2 18 3 19 92 20 4 21 91 22 5 23
REMARK SMILES IDX 90 24 89 25 93 26 94 27 97 28 95 29 96 30 19 31 20 32 21 33
REMARK SMILES IDX 22 34 23 36 24 37 25 38 86 39 26 40 85 41 27 42 28 43 29 44
REMARK SMILES IDX 79 45 30 46 84 47 78 48 80 49 31 50 83 51 77 52 76 53 32 55
REMARK SMILES IDX 64 56 44 57 63 58 45 59 48 60 62 61 81 62 46 63 47 64 61 66
REMARK SMILES IDX 82 67 49 68 33 69 34 70 42 71 35 72 37 73 43 74 36 75 38 76
REMARK SMILES IDX 39 77 40 78 41 79 65 80 66 81 74 82 67 83 69 84 75 85 68 86
REMARK SMILES IDX 70 87 71 88 72 89 73 90 50 91 51 92 59 93 52 94 54 95 60 96
REMARK SMILES IDX 53 97 55 98 56 99 57 100 58 101
REMARK H PARENT 16 6 21 35 80 54 48 65
REMARK Flexibility Score: inf
ROOT
ATOM      1  C   UNL     1      -0.818   7.358  11.327  1.00  0.00     0.023 C 
ENDROOT
BRANCH   1   2
ATOM      2  C   UNL     1      -1.624   7.448  10.040  1.00  0.00     0.116 C 
BRANCH   2   3
ATOM      3  N   UNL     1      -1.107   8.467   9.137  1.00  0.00    -0.356 N 
ATOM      4  C   UNL     1      -0.674   8.363   7.849  1.00  0.00     0.223 C 
ATOM      5  O   UNL     1      -0.323   9.383   7.255  1.00  0.00    -0.275 OA
ATOM      6  H   UNL     1      -1.063   9.374   9.517  1.00  0.00     0.163 HD
BRANCH   4   7
ATOM      7  C   UNL     1      -0.650   7.014   7.147  1.00  0.00     0.081 C 
ATOM      8  N   UNL     1      -1.182   4.158   7.160  1.00  0.00    -0.198 NA
ATOM      9  C   UNL     1       0.202   4.616   7.429  1.00  0.00     0.103 C 
ATOM     10  C   UNL     1      -2.158   5.063   6.511  1.00  0.00     0.103 C 
ATOM     11  C   UNL     1       0.319   6.065   7.842  1.00  0.00     0.030 C 
ATOM     12  C   UNL     1      -2.073   6.497   6.974  1.00  0.00     0.030 C 
BRANCH   8  13
ATOM     13  S   UNL     1      -1.294   2.520   6.627  1.00  0.00     0.243 S 
ATOM     14  O   UNL     1      -2.690   2.183   6.528  1.00  0.00    -0.207 OA
ATOM     15  O   UNL     1      -0.367   1.735   7.427  1.00  0.00    -0.207 OA
BRANCH  13  16
ATOM     16  C   UNL     1      -0.649   2.502   4.961  1.00  0.00     0.085 A 
ATOM     17  C   UNL     1       0.903  -0.123  -0.179  1.00  0.00     0.088 C 
ATOM     18  C   UNL     1       0.527   0.678   1.011  1.00  0.00     0.106 A 
ATOM     19  N   UNL     1      -0.014   0.187   2.109  1.00  0.00    -0.233 NA
ATOM     20  N   UNL     1       0.718   2.039   1.120  1.00  0.00    -0.325 N 
ATOM     21  C   UNL     1      -0.144   1.240   2.974  1.00  0.00     0.090 A 
ATOM     22  C   UNL     1       0.322   2.411   2.386  1.00  0.00     0.068 A 
ATOM     23  C   UNL     1      -0.643   1.272   4.286  1.00  0.00     0.052 A 
ATOM     24  C   UNL     1       0.334   3.635   3.049  1.00  0.00     0.030 A 
ATOM     25  C   UNL     1      -0.168   3.657   4.340  1.00  0.00     0.024 A 
BRANCH  20  26
ATOM     26  C   UNL     1       1.254   2.936   0.110  1.00  0.00     0.089 C 
ATOM     27  C   UNL     1       0.325   4.100  -0.254  1.00  0.00     0.025 C 
ATOM     28  C   UNL     1       2.580   3.591   0.511  1.00  0.00     0.025 C 
ATOM     29  C   UNL     1       1.244   5.173  -0.814  1.00  0.00     0.002 C 
ATOM     30  C   UNL     1       2.613   4.949  -0.180  1.00  0.00     0.002 C 
ENDBRANCH  20  26
ENDBRANCH  13  16
ENDBRANCH   8  13
ENDBRANCH   4   7
ENDBRANCH   2   3
ENDBRANCH   1   2
BRANCH   1  31
ATOM     31  C   UNL     1      -0.963   8.574  12.240  1.00  0.00     0.023 C 
BRANCH  31  32
ATOM     32  C   UNL     1      -2.410   9.001  12.507  1.00  0.00     0.116 C 
BRANCH  32  33
ATOM     33  N   UNL     1      -3.269   7.923  12.955  1.00  0.00    -0.352 N 
ATOM     34  C   UNL     1      -3.559   7.370  14.172  1.00  0.00     0.251 C 
ATOM     35  H   UNL     1      -3.755   7.491  12.216  1.00  0.00     0.163 HD
ATOM     36  O   UNL     1      -4.458   6.526  14.176  1.00  0.00    -0.269 OA
BRANCH  34  37
ATOM     37  C   UNL     1      -2.844   7.677  15.440  1.00  0.00     0.039 A 
ATOM     38  C   UNL     1      -1.810   8.601  15.574  1.00  0.00     0.014 A 
ATOM     39  C   UNL     1      -3.220   6.924  16.569  1.00  0.00     0.014 A 
ATOM     40  C   UNL     1      -1.105   8.704  16.764  1.00  0.00     0.010 A 
ATOM     41  C   UNL     1      -2.538   7.046  17.776  1.00  0.00     0.010 A 
ATOM     42  C   UNL     1      -1.451   7.908  17.857  1.00  0.00    -0.014 A 
BRANCH  42  43
ATOM     43  C   UNL     1      -0.685   8.104  19.082  1.00  0.00     0.031 A 
ATOM     44  C   UNL     1      -0.732   9.488  19.627  1.00  0.00     0.074 A 
ATOM     45  C   UNL     1      -0.011   7.127  19.718  1.00  0.00     0.049 A 
ATOM     46  N   UNL     1       0.228  10.355  19.666  1.00  0.00    -0.248 NA
ATOM     47  C   UNL     1      -2.036  10.010  20.061  1.00  0.00     0.031 C 
ATOM     48  C   UNL     1      -0.079   5.685  19.466  1.00  0.00     0.029 A 
ATOM     49  N   UNL     1       0.806   7.216  20.809  1.00  0.00    -0.354 N 
ATOM     50  C   UNL     1      -0.295  11.454  20.343  1.00  0.00     0.074 A 
ATOM     51  C   UNL     1      -1.720  11.255  20.421  1.00  0.00     0.031 C 
ATOM     52  C   UNL     1       0.461   5.027  20.517  1.00  0.00     0.029 A 
ATOM     53  C   UNL     1       1.055   5.994  21.422  1.00  0.00     0.049 A 
ATOM     54  H   UNL     1       1.182   8.067  21.131  1.00  0.00     0.167 HD
ATOM     55  C   UNL     1       0.502  12.326  21.018  1.00  0.00     0.034 A 
ATOM     56  C   UNL     1       1.673   5.804  22.610  1.00  0.00     0.034 A 
ATOM     57  C   UNL     1       1.892  12.146  20.719  1.00  0.00     0.049 A 
ATOM     58  C   UNL     1       2.536   6.980  22.856  1.00  0.00     0.074 A 
ATOM     59  C   UNL     1       2.774  12.504  19.727  1.00  0.00     0.029 A 
ATOM     60  N   UNL     1       2.488  11.174  21.474  1.00  0.00    -0.354 N 
ATOM     61  N   UNL     1       3.588   7.262  22.141  1.00  0.00    -0.248 NA
ATOM     62  C   UNL     1       2.108   8.018  23.786  1.00  0.00     0.031 C 
ATOM     63  C   UNL     1       3.857  11.578  19.805  1.00  0.00     0.029 A 
ATOM     64  C   UNL     1       3.602  10.689  20.848  1.00  0.00     0.049 A 
ATOM     65  H   UNL     1       2.160  10.866  22.350  1.00  0.00     0.167 HD
ATOM     66  C   UNL     1       3.684   8.636  22.222  1.00  0.00     0.074 A 
ATOM     67  C   UNL     1       2.894   9.018  23.382  1.00  0.00     0.031 C 
ATOM     68  C   UNL     1       4.103   9.370  21.155  1.00  0.00     0.034 A 
BRANCH  55  69
ATOM     69  C   UNL     1       0.091  13.039  22.281  1.00  0.00     0.023 A 
ATOM     70  C   UNL     1       0.853  14.150  22.704  1.00  0.00     0.012 A 
ATOM     71  C   UNL     1      -0.818  12.487  23.211  1.00  0.00     0.148 A 
ATOM     72  C   UNL     1       0.708  14.687  23.988  1.00  0.00     0.002 A 
ATOM     73  C   UNL     1      -1.013  13.070  24.457  1.00  0.00     0.091 A 
ATOM     74  F   UNL     1      -1.395  11.308  22.946  1.00  0.00    -0.205 F 
ATOM     75  C   UNL     1      -0.238  14.159  24.860  1.00  0.00     0.022 A 
BRANCH  73  76
ATOM     76  S   UNL     1      -2.251  12.444  25.596  1.00  0.00     0.127 S 
ATOM     77  O   UNL     1      -1.426  11.727  26.562  1.00  0.00    -0.237 OA
ATOM     78  O   UNL     1      -2.856  13.681  26.092  1.00  0.00    -0.237 OA
ATOM     79  O   UNL     1      -3.144  11.633  24.778  1.00  0.00    -0.744 OA
ENDBRANCH  73  76
ENDBRANCH  55  69
BRANCH  56  80
ATOM     80  C   UNL     1       1.513   4.763  23.650  1.00  0.00     0.023 A 
ATOM     81  C   UNL     1       2.527   4.617  24.621  1.00  0.00     0.012 A 
ATOM     82  C   UNL     1       0.261   4.162  23.897  1.00  0.00     0.148 A 
ATOM     83  C   UNL     1       2.278   3.976  25.837  1.00  0.00     0.002 A 
ATOM     84  C   UNL     1       0.021   3.516  25.108  1.00  0.00     0.091 A 
ATOM     85  F   UNL     1      -0.721   4.314  22.998  1.00  0.00    -0.205 F 
ATOM     86  C   UNL     1       1.020   3.442  26.088  1.00  0.00     0.022 A 
BRANCH  84  87
ATOM     87  S   UNL     1      -1.583   2.812  25.509  1.00  0.00     0.127 S 
ATOM     88  O   UNL     1      -1.215   1.572  26.195  1.00  0.00    -0.237 OA
ATOM     89  O   UNL     1      -2.158   3.839  26.372  1.00  0.00    -0.237 OA
ATOM     90  O   UNL     1      -2.247   2.606  24.227  1.00  0.00    -0.744 OA
ENDBRANCH  84  87
ENDBRANCH  56  80
BRANCH  68  91
ATOM     91  C   UNL     1       4.944   8.681  20.128  1.00  0.00     0.023 A 
ATOM     92  C   UNL     1       4.416   7.740  19.224  1.00  0.00     0.012 A 
ATOM     93  C   UNL     1       6.285   9.079  20.010  1.00  0.00     0.148 A 
ATOM     94  C   UNL     1       5.221   7.198  18.219  1.00  0.00     0.002 A 
ATOM     95  C   UNL     1       7.071   8.567  18.988  1.00  0.00     0.091 A 
ATOM     96  F   UNL     1       6.757   9.976  20.889  1.00  0.00    -0.205 F 
ATOM     97  C   UNL     1       6.545   7.621  18.094  1.00  0.00     0.022 A 
BRANCH  95  98
ATOM     98  S   UNL     1       8.746   9.143  18.708  1.00  0.00     0.127 S 
ATOM     99  O   UNL     1       9.537   7.960  19.040  1.00  0.00    -0.237 OA
ATOM    100  O   UNL     1       8.719   9.483  17.284  1.00  0.00    -0.237 OA
ATOM    101  O   UNL     1       8.936  10.286  19.592  1.00  0.00    -0.744 OA
ENDBRANCH  95  98
ENDBRANCH  68  91
ENDBRANCH  42  43
ENDBRANCH  34  37
ENDBRANCH  32  33
ENDBRANCH  31  32
ENDBRANCH   1  31
TORSDOF 17
