REMARK SMILES CCOc1ccc(NC(=O)CC2(CC(=O)NCCCCNC(=O)c3ccc(-c4c5nc(c(-c6cccc(S(=O)(=O)[O-])c6F)c6ccc([nH]6)c(-c6cccc(S(=O)(=O)[O-])c6F)c6nc(c(-c7cccc(S(=O)(=O)[O-])c7F)c7ccc4[nH]7)C=C6)C=C5)cc3)CCCCC2)cc1
REMARK SMILES IDX 17 1 16 2 14 3 15 4 13 6 12 7 87 8 91 9 88 10 90 11 89 12
REMARK SMILES IDX 11 13 9 14 8 15 10 17 7 18 4 19 5 20 93 21 6 22 92 23 3 24
REMARK SMILES IDX 2 25 1 26 18 27 19 28 20 29 21 30 22 31 23 33 24 34 25 35
REMARK SMILES IDX 86 36 26 37 85 38 27 39 28 40 29 41 79 42 30 43 84 44 78 45
REMARK SMILES IDX 80 46 31 47 83 48 77 49 76 50 32 52 64 53 44 54 63 55 45 56
REMARK SMILES IDX 48 57 62 58 81 59 46 60 47 61 61 63 82 64 49 65 33 66 34 67
REMARK SMILES IDX 42 68 35 69 37 70 43 71 36 72 38 73 39 74 40 75 41 76 65 77
REMARK SMILES IDX 66 78 74 79 67 80 69 81 75 82 68 83 70 84 71 85 72 86 73 87
REMARK SMILES IDX 50 88 51 89 59 90 52 91 54 92 60 93 53 94 55 95 56 96 57 97
REMARK SMILES IDX 58 98
REMARK H PARENT 16 5 8 16 21 32 80 51 48 62
REMARK Flexibility Score: inf
ROOT
ATOM      1  C   UNL     1       3.263  -2.876   3.237  1.00  0.00     0.116 C 
ENDROOT
BRANCH   1   2
ATOM      2  N   UNL     1       2.940  -3.566   2.006  1.00  0.00    -0.356 N 
ATOM      3  C   UNL     1       2.915  -4.890   1.705  1.00  0.00     0.220 C 
ATOM      4  O   UNL     1       2.235  -5.264   0.743  1.00  0.00    -0.275 OA
ATOM      5  H   UNL     1       2.696  -2.973   1.259  1.00  0.00     0.163 HD
BRANCH   3   6
ATOM      6  C   UNL     1       3.599  -5.949   2.540  1.00  0.00     0.107 C 
BRANCH   6   7
ATOM      7  C   UNL     1       5.157  -6.097   2.593  1.00  0.00    -0.012 C 
ATOM      8  C   UNL     1       5.446  -7.570   3.064  1.00  0.00     0.008 C 
ATOM      9  C   UNL     1       5.825  -5.255   3.702  1.00  0.00     0.008 C 
ATOM     10  C   UNL     1       4.874  -7.894   4.454  1.00  0.00     0.001 C 
ATOM     11  C   UNL     1       5.198  -5.446   5.084  1.00  0.00     0.001 C 
ATOM     12  C   UNL     1       5.288  -6.895   5.535  1.00  0.00     0.000 C 
BRANCH   7  13
ATOM     13  C   UNL     1       5.792  -5.912   1.157  1.00  0.00     0.108 C 
BRANCH  13  14
ATOM     14  C   UNL     1       6.737  -4.737   0.899  1.00  0.00     0.224 C 
ATOM     15  N   UNL     1       6.454  -3.634   0.144  1.00  0.00    -0.326 N 
ATOM     16  H   UNL     1       7.218  -3.020   0.063  1.00  0.00     0.169 HD
ATOM     17  O   UNL     1       7.853  -4.755   1.439  1.00  0.00    -0.275 OA
BRANCH  15  18
ATOM     18  C   UNL     1       5.313  -3.180  -0.543  1.00  0.00     0.041 A 
ATOM     19  C   UNL     1       2.776  -2.147  -1.042  1.00  0.00     0.119 A 
ATOM     20  C   UNL     1       3.062  -3.473  -1.349  1.00  0.00     0.048 A 
ATOM     21  C   UNL     1       3.817  -1.272  -0.771  1.00  0.00     0.048 A 
ATOM     22  C   UNL     1       4.337  -3.993  -1.096  1.00  0.00     0.030 A 
ATOM     23  C   UNL     1       5.104  -1.793  -0.561  1.00  0.00     0.030 A 
BRANCH  19  24
ATOM     24  O   UNL     1       1.509  -1.905  -0.575  1.00  0.00    -0.494 OA
BRANCH  24  25
ATOM     25  C   UNL     1       0.744  -0.931  -1.272  1.00  0.00     0.226 C 
ATOM     26  C   UNL     1       0.670   0.360  -0.474  1.00  0.00     0.049 C 
ENDBRANCH  24  25
ENDBRANCH  19  24
ENDBRANCH  15  18
ENDBRANCH  13  14
ENDBRANCH   7  13
ENDBRANCH   6   7
ENDBRANCH   3   6
ENDBRANCH   1   2
BRANCH   1  27
ATOM     27  C   UNL     1       4.613  -2.158   3.227  1.00  0.00     0.023 C 
BRANCH  27  28
ATOM     28  C   UNL     1       4.674  -0.707   2.789  1.00  0.00     0.023 C 
BRANCH  28  29
ATOM     29  C   UNL     1       3.690   0.243   3.423  1.00  0.00     0.116 C 
BRANCH  29  30
ATOM     30  N   UNL     1       3.942   0.479   4.834  1.00  0.00    -0.352 N 
ATOM     31  C   UNL     1       4.154   1.684   5.468  1.00  0.00     0.251 C 
ATOM     32  H   UNL     1       3.964  -0.320   5.408  1.00  0.00     0.163 HD
ATOM     33  O   UNL     1       4.475   1.714   6.654  1.00  0.00    -0.269 OA
BRANCH  31  34
ATOM     34  C   UNL     1       4.033   2.939   4.691  1.00  0.00     0.039 A 
ATOM     35  C   UNL     1       5.043   3.898   4.781  1.00  0.00     0.014 A 
ATOM     36  C   UNL     1       2.963   3.126   3.812  1.00  0.00     0.014 A 
ATOM     37  C   UNL     1       5.016   5.008   3.932  1.00  0.00     0.010 A 
ATOM     38  C   UNL     1       3.006   4.160   2.886  1.00  0.00     0.010 A 
ATOM     39  C   UNL     1       4.020   5.128   2.949  1.00  0.00    -0.014 A 
BRANCH  39  40
ATOM     40  C   UNL     1       3.993   6.269   1.997  1.00  0.00     0.031 A 
ATOM     41  C   UNL     1       2.793   7.180   1.957  1.00  0.00     0.074 A 
ATOM     42  C   UNL     1       4.998   6.441   1.115  1.00  0.00     0.049 A 
ATOM     43  N   UNL     1       2.549   8.189   1.162  1.00  0.00    -0.248 NA
ATOM     44  C   UNL     1       1.706   6.898   2.910  1.00  0.00     0.031 C 
ATOM     45  C   UNL     1       6.174   5.577   0.987  1.00  0.00     0.029 A 
ATOM     46  N   UNL     1       5.181   7.391   0.140  1.00  0.00    -0.354 N 
ATOM     47  C   UNL     1       1.272   8.630   1.490  1.00  0.00     0.074 A 
ATOM     48  C   UNL     1       0.770   7.748   2.518  1.00  0.00     0.031 C 
ATOM     49  C   UNL     1       6.962   6.045   0.005  1.00  0.00     0.029 A 
ATOM     50  C   UNL     1       6.336   7.223  -0.589  1.00  0.00     0.049 A 
ATOM     51  H   UNL     1       4.544   8.124  -0.023  1.00  0.00     0.167 HD
ATOM     52  C   UNL     1       0.591   9.697   1.013  1.00  0.00     0.034 A 
ATOM     53  C   UNL     1       6.833   7.936  -1.619  1.00  0.00     0.034 A 
ATOM     54  C   UNL     1       1.117  10.611   0.038  1.00  0.00     0.049 A 
ATOM     55  C   UNL     1       6.080   9.147  -2.100  1.00  0.00     0.074 A 
ATOM     56  C   UNL     1       0.552  11.782  -0.435  1.00  0.00     0.029 A 
ATOM     57  N   UNL     1       2.329  10.457  -0.616  1.00  0.00    -0.354 N 
ATOM     58  N   UNL     1       4.950   9.645  -1.659  1.00  0.00    -0.248 NA
ATOM     59  C   UNL     1       6.686   9.916  -3.197  1.00  0.00     0.031 C 
ATOM     60  C   UNL     1       1.414  12.323  -1.395  1.00  0.00     0.029 A 
ATOM     61  C   UNL     1       2.526  11.503  -1.500  1.00  0.00     0.049 A 
ATOM     62  H   UNL     1       2.957   9.713  -0.472  1.00  0.00     0.167 HD
ATOM     63  C   UNL     1       4.724  10.798  -2.402  1.00  0.00     0.074 A 
ATOM     64  C   UNL     1       5.849  10.939  -3.304  1.00  0.00     0.031 C 
ATOM     65  C   UNL     1       3.673  11.654  -2.356  1.00  0.00     0.034 A 
BRANCH  52  66
ATOM     66  C   UNL     1      -0.774   9.967   1.589  1.00  0.00     0.023 A 
ATOM     67  C   UNL     1      -0.892  10.423   2.918  1.00  0.00     0.012 A 
ATOM     68  C   UNL     1      -1.935   9.811   0.808  1.00  0.00     0.148 A 
ATOM     69  C   UNL     1      -2.144  10.680   3.475  1.00  0.00     0.002 A 
ATOM     70  C   UNL     1      -3.177  10.115   1.354  1.00  0.00     0.091 A 
ATOM     71  F   UNL     1      -1.807   9.353  -0.446  1.00  0.00    -0.205 F 
ATOM     72  C   UNL     1      -3.284  10.537   2.690  1.00  0.00     0.022 A 
BRANCH  70  73
ATOM     73  S   UNL     1      -4.698  10.038   0.403  1.00  0.00     0.127 S 
ATOM     74  O   UNL     1      -5.355   8.872   0.993  1.00  0.00    -0.237 OA
ATOM     75  O   UNL     1      -5.327  11.319   0.725  1.00  0.00    -0.237 OA
ATOM     76  O   UNL     1      -4.295   9.891  -0.988  1.00  0.00    -0.744 OA
ENDBRANCH  70  73
ENDBRANCH  52  66
BRANCH  53  77
ATOM     77  C   UNL     1       8.145   7.562  -2.223  1.00  0.00     0.023 A 
ATOM     78  C   UNL     1       9.261   8.397  -2.023  1.00  0.00     0.012 A 
ATOM     79  C   UNL     1       8.299   6.378  -2.969  1.00  0.00     0.148 A 
ATOM     80  C   UNL     1      10.500   8.077  -2.581  1.00  0.00     0.002 A 
ATOM     81  C   UNL     1       9.548   6.036  -3.475  1.00  0.00     0.091 A 
ATOM     82  F   UNL     1       7.222   5.603  -3.159  1.00  0.00    -0.205 F 
ATOM     83  C   UNL     1      10.646   6.892  -3.297  1.00  0.00     0.022 A 
BRANCH  81  84
ATOM     84  S   UNL     1       9.857   4.467  -4.294  1.00  0.00     0.127 S 
ATOM     85  O   UNL     1      10.049   4.885  -5.679  1.00  0.00    -0.237 OA
ATOM     86  O   UNL     1      11.068   4.005  -3.614  1.00  0.00    -0.237 OA
ATOM     87  O   UNL     1       8.678   3.651  -4.035  1.00  0.00    -0.744 OA
ENDBRANCH  81  84
ENDBRANCH  53  77
BRANCH  65  88
ATOM     88  C   UNL     1       3.692  12.835  -3.291  1.00  0.00     0.023 A 
ATOM     89  C   UNL     1       3.470  12.638  -4.668  1.00  0.00     0.012 A 
ATOM     90  C   UNL     1       3.848  14.144  -2.794  1.00  0.00     0.148 A 
ATOM     91  C   UNL     1       3.434  13.724  -5.541  1.00  0.00     0.002 A 
ATOM     92  C   UNL     1       3.761  15.225  -3.662  1.00  0.00     0.091 A 
ATOM     93  F   UNL     1       4.074  14.307  -1.482  1.00  0.00    -0.205 F 
ATOM     94  C   UNL     1       3.567  15.016  -5.038  1.00  0.00     0.022 A 
BRANCH  92  95
ATOM     95  S   UNL     1       3.822  16.927  -3.092  1.00  0.00     0.127 S 
ATOM     96  O   UNL     1       5.134  17.355  -3.574  1.00  0.00    -0.237 OA
ATOM     97  O   UNL     1       2.688  17.529  -3.792  1.00  0.00    -0.237 OA
ATOM     98  O   UNL     1       3.676  16.870  -1.643  1.00  0.00    -0.744 OA
ENDBRANCH  92  95
ENDBRANCH  65  88
ENDBRANCH  39  40
ENDBRANCH  31  34
ENDBRANCH  29  30
ENDBRANCH  28  29
ENDBRANCH  27  28
ENDBRANCH   1  27
TORSDOF 20
