REMARK SMILES Cc1cc(Br)c(C)c([C@@H]2[NH2+][C@H](C(=O)NCCCCNC(=O)c3ccc(-c4c5nc(c(-c6cccc(S(=O)(=O)[O-])c6F)c6ccc([nH]6)c(-c6cccc(S(=O)(=O)[O-])c6F)c6nc(c(-c7cccc(S(=O)(=O)[O-])c7F)c7ccc4[nH]7)C=C6)C=C5)cc3)CS2)c1O
REMARK SMILES IDX 17 1 16 2 15 3 14 4 12 5 13 6 11 8 9 9 10 10 86 11 85 14
REMARK SMILES IDX 8 15 1 16 2 17 3 18 87 19 4 20 5 21 6 22 7 23 88 24 18 26
REMARK SMILES IDX 19 27 20 28 21 30 22 31 23 32 84 33 24 34 83 35 25 36 26 37
REMARK SMILES IDX 27 38 77 39 28 40 82 41 76 42 78 43 29 44 81 45 75 46 74 47
REMARK SMILES IDX 30 49 62 50 42 51 61 52 43 53 46 54 60 55 79 56 44 57 45 58
REMARK SMILES IDX 59 60 80 61 47 62 31 63 32 64 40 65 33 66 35 67 41 68 34 69
REMARK SMILES IDX 36 70 37 71 38 72 39 73 63 74 64 75 72 76 65 77 67 78 73 79
REMARK SMILES IDX 66 80 68 81 69 82 70 83 71 84 48 85 49 86 57 87 50 88 52 89
REMARK SMILES IDX 58 90 51 91 53 92 54 93 55 94 56 95
REMARK H PARENT 14 7 10 12 10 13 88 25 19 29 78 48 46 59
REMARK Flexibility Score: inf
ROOT
ATOM      1  C   UNL     1       1.406   1.160   2.322  1.00  0.00     0.023 C 
ENDROOT
BRANCH   1   2
ATOM      2  C   UNL     1       2.407   2.197   1.826  1.00  0.00     0.023 C 
BRANCH   2   3
ATOM      3  C   UNL     1       3.196   1.823   0.576  1.00  0.00     0.116 C 
BRANCH   3   4
ATOM      4  N   UNL     1       2.447   1.746  -0.670  1.00  0.00    -0.351 N 
ATOM      5  C   UNL     1       2.210   2.639  -1.669  1.00  0.00     0.279 C 
ATOM      6  O   UNL     1       2.041   2.107  -2.779  1.00  0.00    -0.268 OA
ATOM      7  H   UNL     1       2.026   0.868  -0.821  1.00  0.00     0.163 HD
BRANCH   5   8
ATOM      8  C   UNL     1       2.026   4.172  -1.544  1.00  0.00     0.283 C 
ATOM      9  C   UNL     1       0.163   4.896  -0.143  1.00  0.00     0.278 C 
ATOM     10  N   UNL     1       0.594   4.564  -1.505  1.00  0.00    -0.320 N 
ATOM     11  S   UNL     1       1.656   5.487   0.733  1.00  0.00    -0.087 SA
ATOM     12  H   UNL     1       0.456   5.379  -2.103  1.00  0.00     0.348 HD
ATOM     13  H   UNL     1       0.037   3.774  -1.832  1.00  0.00     0.348 HD
ATOM     14  C   UNL     1       2.819   4.984  -0.551  1.00  0.00     0.151 C 
BRANCH   9  15
ATOM     15  C   UNL     1      -0.705   3.868   0.614  1.00  0.00     0.066 A 
ATOM     16  C   UNL     1      -1.942   0.233   0.198  1.00  0.00     0.048 C 
ATOM     17  C   UNL     1      -1.775   1.621   0.756  1.00  0.00    -0.008 A 
ATOM     18  C   UNL     1      -2.362   1.962   1.966  1.00  0.00     0.023 A 
ATOM     19  C   UNL     1      -0.983   2.578   0.099  1.00  0.00     0.128 A 
ATOM     20  C   UNL     1      -2.156   3.231   2.506  1.00  0.00     0.021 A 
ATOM     21  Br  UNL     1      -3.028   3.569   4.170  1.00  0.00    -0.051 Br
ATOM     22  C   UNL     1      -1.341   4.198   1.856  1.00  0.00    -0.023 A 
ATOM     23  C   UNL     1      -1.157   5.537   2.536  1.00  0.00     0.046 C 
BRANCH  19  24
ATOM     24  O   UNL     1      -0.515   2.191  -1.122  1.00  0.00    -0.507 OA
ATOM     25  H   UNL     1      -0.709   1.334  -1.447  1.00  0.00     0.293 HD
ENDBRANCH  19  24
ENDBRANCH   9  15
ENDBRANCH   5   8
ENDBRANCH   3   4
ENDBRANCH   2   3
ENDBRANCH   1   2
BRANCH   1  26
ATOM     26  C   UNL     1       1.980   0.095   3.241  1.00  0.00     0.116 C 
BRANCH  26  27
ATOM     27  N   UNL     1       2.298   0.580   4.579  1.00  0.00    -0.352 N 
ATOM     28  C   UNL     1       2.065  -0.008   5.807  1.00  0.00     0.251 C 
ATOM     29  H   UNL     1       2.745   1.456   4.612  1.00  0.00     0.163 HD
ATOM     30  O   UNL     1       2.337   0.616   6.832  1.00  0.00    -0.269 OA
BRANCH  28  31
ATOM     31  C   UNL     1       1.448  -1.357   5.899  1.00  0.00     0.039 A 
ATOM     32  C   UNL     1       1.743  -2.347   4.965  1.00  0.00     0.014 A 
ATOM     33  C   UNL     1       0.535  -1.637   6.924  1.00  0.00     0.014 A 
ATOM     34  C   UNL     1       0.979  -3.506   4.915  1.00  0.00     0.010 A 
ATOM     35  C   UNL     1      -0.137  -2.868   6.952  1.00  0.00     0.010 A 
ATOM     36  C   UNL     1       0.038  -3.797   5.916  1.00  0.00    -0.014 A 
BRANCH  36  37
ATOM     37  C   UNL     1      -0.708  -5.089   5.856  1.00  0.00     0.031 A 
ATOM     38  C   UNL     1      -2.215  -5.127   5.807  1.00  0.00     0.074 A 
ATOM     39  C   UNL     1      -0.010  -6.243   5.789  1.00  0.00     0.049 A 
ATOM     40  N   UNL     1      -3.008  -6.168   5.751  1.00  0.00    -0.248 NA
ATOM     41  C   UNL     1      -2.929  -3.840   5.831  1.00  0.00     0.031 C 
ATOM     42  C   UNL     1       1.451  -6.344   5.844  1.00  0.00     0.029 A 
ATOM     43  N   UNL     1      -0.420  -7.544   5.633  1.00  0.00    -0.354 N 
ATOM     44  C   UNL     1      -4.306  -5.668   5.789  1.00  0.00     0.074 A 
ATOM     45  C   UNL     1      -4.197  -4.228   5.874  1.00  0.00     0.031 C 
ATOM     46  C   UNL     1       1.816  -7.617   5.646  1.00  0.00     0.029 A 
ATOM     47  C   UNL     1       0.619  -8.443   5.548  1.00  0.00     0.049 A 
ATOM     48  H   UNL     1      -1.367  -7.809   5.587  1.00  0.00     0.167 HD
ATOM     49  C   UNL     1      -5.479  -6.345   5.739  1.00  0.00     0.034 A 
ATOM     50  C   UNL     1       0.621  -9.785   5.428  1.00  0.00     0.034 A 
ATOM     51  C   UNL     1      -5.581  -7.774   5.593  1.00  0.00     0.049 A 
ATOM     52  C   UNL     1      -0.694 -10.507   5.366  1.00  0.00     0.074 A 
ATOM     53  C   UNL     1      -6.726  -8.546   5.496  1.00  0.00     0.029 A 
ATOM     54  N   UNL     1      -4.505  -8.646   5.513  1.00  0.00    -0.354 N 
ATOM     55  N   UNL     1      -1.905 -10.007   5.343  1.00  0.00    -0.248 NA
ATOM     56  C   UNL     1      -0.645 -11.974   5.310  1.00  0.00     0.031 C 
ATOM     57  C   UNL     1      -6.343  -9.885   5.374  1.00  0.00     0.029 A 
ATOM     58  C   UNL     1      -4.959  -9.947   5.373  1.00  0.00     0.049 A 
ATOM     59  H   UNL     1      -3.558  -8.379   5.550  1.00  0.00     0.167 HD
ATOM     60  C   UNL     1      -2.764 -11.096   5.264  1.00  0.00     0.074 A 
ATOM     61  C   UNL     1      -1.931 -12.281   5.203  1.00  0.00     0.031 C 
ATOM     62  C   UNL     1      -4.119 -11.113   5.271  1.00  0.00     0.034 A 
BRANCH  49  63
ATOM     63  C   UNL     1      -6.763  -5.555   5.800  1.00  0.00     0.023 A 
ATOM     64  C   UNL     1      -7.176  -4.811   4.676  1.00  0.00     0.012 A 
ATOM     65  C   UNL     1      -7.610  -5.631   6.925  1.00  0.00     0.148 A 
ATOM     66  C   UNL     1      -8.398  -4.137   4.679  1.00  0.00     0.002 A 
ATOM     67  C   UNL     1      -8.846  -4.993   6.903  1.00  0.00     0.091 A 
ATOM     68  F   UNL     1      -7.196  -6.332   7.990  1.00  0.00    -0.205 F 
ATOM     69  C   UNL     1      -9.236  -4.238   5.785  1.00  0.00     0.022 A 
BRANCH  67  70
ATOM     70  S   UNL     1     -10.037  -5.131   8.242  1.00  0.00     0.127 S 
ATOM     71  O   UNL     1     -10.021  -3.776   8.792  1.00  0.00    -0.237 OA
ATOM     72  O   UNL     1     -11.264  -5.483   7.527  1.00  0.00    -0.237 OA
ATOM     73  O   UNL     1      -9.530  -6.169   9.128  1.00  0.00    -0.744 OA
ENDBRANCH  67  70
ENDBRANCH  49  63
BRANCH  50  74
ATOM     74  C   UNL     1       1.919 -10.514   5.325  1.00  0.00     0.023 A 
ATOM     75  C   UNL     1       2.266 -11.141   4.114  1.00  0.00     0.012 A 
ATOM     76  C   UNL     1       2.845 -10.517   6.388  1.00  0.00     0.148 A 
ATOM     77  C   UNL     1       3.508 -11.761   3.965  1.00  0.00     0.002 A 
ATOM     78  C   UNL     1       4.106 -11.072   6.209  1.00  0.00     0.091 A 
ATOM     79  F   UNL     1       2.487  -9.939   7.544  1.00  0.00    -0.205 F 
ATOM     80  C   UNL     1       4.434 -11.710   5.004  1.00  0.00     0.022 A 
BRANCH  78  81
ATOM     81  S   UNL     1       5.414 -10.891   7.427  1.00  0.00     0.127 S 
ATOM     82  O   UNL     1       5.524 -12.249   7.952  1.00  0.00    -0.237 OA
ATOM     83  O   UNL     1       6.540 -10.456   6.599  1.00  0.00    -0.237 OA
ATOM     84  O   UNL     1       4.938  -9.884   8.366  1.00  0.00    -0.744 OA
ENDBRANCH  78  81
ENDBRANCH  50  74
BRANCH  62  85
ATOM     85  C   UNL     1      -4.801 -12.454   5.211  1.00  0.00     0.023 A 
ATOM     86  C   UNL     1      -4.803 -13.280   6.352  1.00  0.00     0.012 A 
ATOM     87  C   UNL     1      -5.518 -12.851   4.066  1.00  0.00     0.148 A 
ATOM     88  C   UNL     1      -5.493 -14.492   6.348  1.00  0.00     0.002 A 
ATOM     89  C   UNL     1      -6.243 -14.037   4.085  1.00  0.00     0.091 A 
ATOM     90  F   UNL     1      -5.487 -12.058   2.984  1.00  0.00    -0.205 F 
ATOM     91  C   UNL     1      -6.223 -14.863   5.221  1.00  0.00     0.022 A 
BRANCH  89  92
ATOM     92  S   UNL     1      -7.292 -14.549   2.719  1.00  0.00     0.127 S 
ATOM     93  O   UNL     1      -6.543 -15.682   2.178  1.00  0.00    -0.237 OA
ATOM     94  O   UNL     1      -8.535 -14.910   3.401  1.00  0.00    -0.237 OA
ATOM     95  O   UNL     1      -7.398 -13.394   1.839  1.00  0.00    -0.744 OA
ENDBRANCH  89  92
ENDBRANCH  62  85
ENDBRANCH  36  37
ENDBRANCH  28  31
ENDBRANCH  26  27
ENDBRANCH   1  26
TORSDOF 16
