REMARK SMILES O=C(NCCCCNC(=O)c1ccccc1-c1ccc(/C=C2/SC(=S)N(Cc3ccccc3)C2=O)o1)c1ccc(-c2c3nc(c(-c4cccc(S(=O)(=O)[O-])c4F)c4ccc([nH]4)c(-c4cccc(S(=O)(=O)[O-])c4F)c4nc(c(-c5cccc(S(=O)(=O)[O-])c5F)c5ccc2[nH]5)C=C4)C=C3)cc1
REMARK SMILES IDX 6 1 5 2 4 3 3 4 1 5 2 6 37 8 38 9 99 10 39 11 98 12 40 13
REMARK SMILES IDX 41 14 42 15 92 16 43 17 97 18 91 19 93 20 44 21 96 22 90 23
REMARK SMILES IDX 89 24 45 26 77 27 57 28 76 29 58 30 61 31 75 32 94 33 59 34
REMARK SMILES IDX 60 35 74 37 95 38 62 39 46 40 47 41 55 42 48 43 50 44 56 45
REMARK SMILES IDX 49 46 51 47 52 48 53 49 54 50 78 51 79 52 87 53 80 54 82 55
REMARK SMILES IDX 88 56 81 57 83 58 84 59 85 60 86 61 63 62 64 63 72 64 65 65
REMARK SMILES IDX 67 66 73 67 66 68 68 69 69 70 70 71 71 72 7 73 8 74 9 75
REMARK SMILES IDX 10 77 11 78 12 79 16 80 13 81 15 82 14 83 17 84 18 85 36 86
REMARK SMILES IDX 19 87 20 88 21 89 22 90 23 91 34 92 24 93 26 94 35 95 25 96
REMARK SMILES IDX 27 97 28 98 29 99 33 100 30 101 32 102 31 103
REMARK H PARENT 3 7 93 25 61 36 8 76
REMARK Flexibility Score: inf
ROOT
ATOM      1  C   UNL     1       4.456   2.249  -3.176  1.00  0.00     0.023 C 
ENDROOT
BRANCH   1   2
ATOM      2  C   UNL     1       4.918   1.004  -2.424  1.00  0.00     0.023 C 
BRANCH   2   3
ATOM      3  C   UNL     1       4.590   0.975  -0.936  1.00  0.00     0.116 C 
BRANCH   3   4
ATOM      4  N   UNL     1       3.161   0.933  -0.664  1.00  0.00    -0.352 N 
ATOM      5  O   UNL     1       1.202   0.044   0.011  1.00  0.00    -0.269 OA
ATOM      6  C   UNL     1       2.423  -0.034  -0.013  1.00  0.00     0.251 C 
ATOM      7  H   UNL     1       2.647   1.706  -0.991  1.00  0.00     0.163 HD
BRANCH   6   8
ATOM      8  C   UNL     1       3.119  -1.176   0.624  1.00  0.00     0.039 A 
ATOM      9  C   UNL     1       4.246  -0.961   1.417  1.00  0.00     0.014 A 
ATOM     10  C   UNL     1       2.658  -2.477   0.402  1.00  0.00     0.014 A 
ATOM     11  C   UNL     1       5.012  -2.043   1.833  1.00  0.00     0.010 A 
ATOM     12  C   UNL     1       3.376  -3.567   0.911  1.00  0.00     0.010 A 
ATOM     13  C   UNL     1       4.583  -3.361   1.597  1.00  0.00    -0.014 A 
BRANCH  13  14
ATOM     14  C   UNL     1       5.385  -4.483   2.154  1.00  0.00     0.031 A 
ATOM     15  C   UNL     1       6.047  -5.506   1.270  1.00  0.00     0.074 A 
ATOM     16  C   UNL     1       5.546  -4.544   3.491  1.00  0.00     0.049 A 
ATOM     17  N   UNL     1       6.844  -6.488   1.610  1.00  0.00    -0.248 NA
ATOM     18  C   UNL     1       5.781  -5.430  -0.176  1.00  0.00     0.031 C 
ATOM     19  C   UNL     1       4.907  -3.643   4.455  1.00  0.00     0.029 A 
ATOM     20  N   UNL     1       6.302  -5.380   4.272  1.00  0.00    -0.354 N 
ATOM     21  C   UNL     1       7.151  -7.164   0.434  1.00  0.00     0.074 A 
ATOM     22  C   UNL     1       6.444  -6.486  -0.632  1.00  0.00     0.031 C 
ATOM     23  C   UNL     1       5.330  -3.945   5.689  1.00  0.00     0.029 A 
ATOM     24  C   UNL     1       6.227  -5.091   5.615  1.00  0.00     0.049 A 
ATOM     25  H   UNL     1       6.845  -6.116   3.908  1.00  0.00     0.167 HD
ATOM     26  C   UNL     1       7.961  -8.236   0.258  1.00  0.00     0.034 A 
ATOM     27  C   UNL     1       6.808  -5.684   6.675  1.00  0.00     0.034 A 
ATOM     28  C   UNL     1       8.690  -8.885   1.318  1.00  0.00     0.049 A 
ATOM     29  C   UNL     1       7.735  -6.840   6.440  1.00  0.00     0.074 A 
ATOM     30  C   UNL     1       9.572  -9.949   1.229  1.00  0.00     0.029 A 
ATOM     31  N   UNL     1       8.626  -8.534   2.658  1.00  0.00    -0.354 N 
ATOM     32  N   UNL     1       8.107  -7.380   5.305  1.00  0.00    -0.248 NA
ATOM     33  C   UNL     1       8.345  -7.452   7.628  1.00  0.00     0.031 C 
ATOM     34  C   UNL     1      10.033 -10.247   2.516  1.00  0.00     0.029 A 
ATOM     35  C   UNL     1       9.449  -9.361   3.405  1.00  0.00     0.049 A 
ATOM     36  H   UNL     1       8.076  -7.804   3.024  1.00  0.00     0.167 HD
ATOM     37  C   UNL     1       9.001  -8.388   5.640  1.00  0.00     0.074 A 
ATOM     38  C   UNL     1       9.150  -8.352   7.082  1.00  0.00     0.031 C 
ATOM     39  C   UNL     1       9.619  -9.285   4.833  1.00  0.00     0.034 A 
BRANCH  26  40
ATOM     40  C   UNL     1       8.157  -8.755  -1.144  1.00  0.00     0.023 A 
ATOM     41  C   UNL     1       8.989  -8.043  -2.031  1.00  0.00     0.012 A 
ATOM     42  C   UNL     1       7.611  -9.989  -1.550  1.00  0.00     0.148 A 
ATOM     43  C   UNL     1       9.261  -8.541  -3.306  1.00  0.00     0.002 A 
ATOM     44  C   UNL     1       7.915 -10.497  -2.809  1.00  0.00     0.091 A 
ATOM     45  F   UNL     1       6.810 -10.645  -0.698  1.00  0.00    -0.205 F 
ATOM     46  C   UNL     1       8.735  -9.771  -3.689  1.00  0.00     0.022 A 
BRANCH  44  47
ATOM     47  S   UNL     1       7.347 -12.106  -3.375  1.00  0.00     0.127 S 
ATOM     48  O   UNL     1       6.387 -11.731  -4.412  1.00  0.00    -0.237 OA
ATOM     49  O   UNL     1       8.582 -12.709  -3.877  1.00  0.00    -0.237 OA
ATOM     50  O   UNL     1       6.779 -12.765  -2.208  1.00  0.00    -0.744 OA
ENDBRANCH  44  47
ENDBRANCH  26  40
BRANCH  27  51
ATOM     51  C   UNL     1       6.556  -5.159   8.046  1.00  0.00     0.023 A 
ATOM     52  C   UNL     1       7.596  -4.529   8.754  1.00  0.00     0.012 A 
ATOM     53  C   UNL     1       5.277  -5.239   8.631  1.00  0.00     0.148 A 
ATOM     54  C   UNL     1       7.373  -4.011  10.031  1.00  0.00     0.002 A 
ATOM     55  C   UNL     1       5.046  -4.662   9.874  1.00  0.00     0.091 A 
ATOM     56  F   UNL     1       4.302  -5.862   7.954  1.00  0.00    -0.205 F 
ATOM     57  C   UNL     1       6.096  -4.064  10.584  1.00  0.00     0.022 A 
BRANCH  55  58
ATOM     58  S   UNL     1       3.391  -4.555  10.562  1.00  0.00     0.127 S 
ATOM     59  O   UNL     1       3.363  -5.705  11.460  1.00  0.00    -0.237 OA
ATOM     60  O   UNL     1       3.413  -3.252  11.228  1.00  0.00    -0.237 OA
ATOM     61  O   UNL     1       2.500  -4.614   9.410  1.00  0.00    -0.744 OA
ENDBRANCH  55  58
ENDBRANCH  27  51
BRANCH  39  62
ATOM     62  C   UNL     1      10.513 -10.298   5.495  1.00  0.00     0.023 A 
ATOM     63  C   UNL     1       9.936 -11.350   6.236  1.00  0.00     0.012 A 
ATOM     64  C   UNL     1      11.912 -10.234   5.359  1.00  0.00     0.148 A 
ATOM     65  C   UNL     1      10.740 -12.299   6.864  1.00  0.00     0.002 A 
ATOM     66  C   UNL     1      12.706 -11.209   5.952  1.00  0.00     0.091 A 
ATOM     67  F   UNL     1      12.444  -9.213   4.671  1.00  0.00    -0.205 F 
ATOM     68  C   UNL     1      12.123 -12.235   6.714  1.00  0.00     0.022 A 
BRANCH  66  69
ATOM     69  S   UNL     1      14.489 -11.247   5.739  1.00  0.00     0.127 S 
ATOM     70  O   UNL     1      14.953 -10.686   7.006  1.00  0.00    -0.237 OA
ATOM     71  O   UNL     1      14.757 -12.676   5.571  1.00  0.00    -0.237 OA
ATOM     72  O   UNL     1      14.762 -10.443   4.555  1.00  0.00    -0.744 OA
ENDBRANCH  66  69
ENDBRANCH  39  62
ENDBRANCH  13  14
ENDBRANCH   6   8
ENDBRANCH   3   4
ENDBRANCH   2   3
ENDBRANCH   1   2
BRANCH   1  73
ATOM     73  C   UNL     1       4.833   3.576  -2.529  1.00  0.00     0.116 C 
BRANCH  73  74
ATOM     74  N   UNL     1       6.263   3.743  -2.329  1.00  0.00    -0.352 N 
ATOM     75  C   UNL     1       6.999   4.900  -2.417  1.00  0.00     0.252 C 
ATOM     76  H   UNL     1       6.766   2.927  -2.103  1.00  0.00     0.163 HD
ATOM     77  O   UNL     1       8.204   4.903  -2.186  1.00  0.00    -0.269 OA
BRANCH  75  78
ATOM     78  C   UNL     1       6.341   6.149  -2.848  1.00  0.00     0.050 A 
ATOM     79  C   UNL     1       6.734   6.667  -4.089  1.00  0.00     0.014 A 
ATOM     80  C   UNL     1       5.348   6.782  -2.080  1.00  0.00     0.030 A 
ATOM     81  C   UNL     1       6.102   7.799  -4.598  1.00  0.00     0.001 A 
ATOM     82  C   UNL     1       4.710   7.909  -2.617  1.00  0.00     0.013 A 
ATOM     83  C   UNL     1       5.083   8.411  -3.869  1.00  0.00     0.001 A 
BRANCH  80  84
ATOM     84  C   UNL     1       4.981   6.305  -0.757  1.00  0.00     0.135 A 
ATOM     85  C   UNL     1       5.703   5.993   0.371  1.00  0.00     0.051 A 
ATOM     86  O   UNL     1       3.663   6.007  -0.570  1.00  0.00    -0.457 OA
ATOM     87  C   UNL     1       4.775   5.464   1.293  1.00  0.00     0.051 A 
ATOM     88  C   UNL     1       3.520   5.485   0.694  1.00  0.00     0.128 A 
BRANCH  88  89
ATOM     89  C   UNL     1       2.288   5.046   1.248  1.00  0.00     0.068 C 
ATOM     90  C   UNL     1       1.675   5.765   2.196  1.00  0.00     0.084 C 
ATOM     91  S   UNL     1       0.451   5.162   3.243  1.00  0.00    -0.054 SA
ATOM     92  C   UNL     1       2.058   7.128   2.637  1.00  0.00     0.266 C 
ATOM     93  C   UNL     1       0.797   6.395   4.463  1.00  0.00     0.148 C 
ATOM     94  N   UNL     1       1.681   7.319   3.949  1.00  0.00    -0.288 N 
ATOM     95  O   UNL     1       2.576   7.968   1.911  1.00  0.00    -0.268 OA
ATOM     96  S   UNL     1       0.092   6.371   5.974  1.00  0.00    -0.052 S 
BRANCH  94  97
ATOM     97  C   UNL     1       2.187   8.499   4.646  1.00  0.00     0.163 C 
BRANCH  97  98
ATOM     98  C   UNL     1       3.584   8.291   5.201  1.00  0.00    -0.028 A 
ATOM     99  C   UNL     1       3.804   8.259   6.585  1.00  0.00     0.005 A 
ATOM    100  C   UNL     1       4.693   8.155   4.347  1.00  0.00     0.005 A 
ATOM    101  C   UNL     1       5.095   8.101   7.097  1.00  0.00     0.000 A 
ATOM    102  C   UNL     1       5.979   7.980   4.859  1.00  0.00     0.000 A 
ATOM    103  C   UNL     1       6.181   7.958   6.235  1.00  0.00     0.000 A 
ENDBRANCH  97  98
ENDBRANCH  94  97
ENDBRANCH  88  89
ENDBRANCH  80  84
ENDBRANCH  75  78
ENDBRANCH  73  74
ENDBRANCH   1  73
TORSDOF 18
