REMARK SMILES C[C@H]1CCC[C@](Cc2cn3ccccc3n2)(C(=O)NCCCCNC(=O)c2ccc(-c3c4nc(c(-c5cccc(S(=O)(=O)[O-])c5F)c5ccc([nH]5)c(-c5cccc(S(=O)(=O)[O-])c5F)c5nc(c(-c6cccc(S(=O)(=O)[O-])c6F)c6ccc3[nH]6)C=C5)C=C4)cc2)C1
REMARK SMILES IDX 22 1 21 2 20 3 19 4 17 5 18 6 6 8 1 9 2 10 3 11 90 12 4 13
REMARK SMILES IDX 5 14 7 15 8 16 9 17 16 18 10 19 15 20 11 21 14 22 12 23
REMARK SMILES IDX 13 24 23 25 24 26 25 27 26 29 27 30 28 31 89 32 29 33 88 34
REMARK SMILES IDX 30 35 31 36 32 37 82 38 33 39 87 40 81 41 83 42 34 43 86 44
REMARK SMILES IDX 80 45 79 46 35 48 67 49 47 50 66 51 48 52 51 53 65 54 84 55
REMARK SMILES IDX 49 56 50 57 64 59 85 60 52 61 36 62 37 63 45 64 38 65 40 66
REMARK SMILES IDX 46 67 39 68 41 69 42 70 43 71 44 72 68 73 69 74 77 75 70 76
REMARK SMILES IDX 72 77 78 78 71 79 73 80 74 81 75 82 76 83 53 84 54 85 62 86
REMARK SMILES IDX 55 87 57 88 63 89 56 90 58 91 59 92 60 93 61 94
REMARK H PARENT 19 7 24 28 83 47 51 58
REMARK Flexibility Score: inf
ROOT
ATOM      1  C   UNL     1      -1.503   2.718   4.133  1.00  0.00     0.023 C 
ENDROOT
BRANCH   1   2
ATOM      2  C   UNL     1      -1.529   2.172   2.708  1.00  0.00     0.023 C 
BRANCH   2   3
ATOM      3  C   UNL     1      -0.625   0.966   2.477  1.00  0.00     0.116 C 
BRANCH   3   4
ATOM      4  N   UNL     1      -1.322  -0.292   2.504  1.00  0.00    -0.356 N 
ATOM      5  C   UNL     1      -1.436  -1.291   1.591  1.00  0.00     0.226 C 
ATOM      6  O   UNL     1      -1.899  -2.342   2.051  1.00  0.00    -0.274 OA
ATOM      7  H   UNL     1      -1.809  -0.462   3.343  1.00  0.00     0.163 HD
BRANCH   5   8
ATOM      8  C   UNL     1      -1.005  -1.184   0.084  1.00  0.00     0.055 C 
ATOM      9  C   UNL     1       2.721  -0.209  -0.800  1.00  0.00     0.007 C 
ATOM     10  C   UNL     1       1.297   0.077  -0.311  1.00  0.00    -0.013 C 
ATOM     11  C   UNL     1       0.566   0.968  -1.312  1.00  0.00     0.003 C 
ATOM     12  C   UNL     1       0.546  -1.231  -0.026  1.00  0.00     0.020 C 
ATOM     13  C   UNL     1      -0.879   1.252  -0.935  1.00  0.00     0.001 C 
ATOM     14  C   UNL     1      -1.708   0.011  -0.616  1.00  0.00     0.017 C 
BRANCH   8  15
ATOM     15  C   UNL     1      -1.573  -2.531  -0.533  1.00  0.00     0.074 C 
BRANCH  15  16
ATOM     16  C   UNL     1      -1.617  -2.687  -2.028  1.00  0.00     0.061 A 
ATOM     17  C   UNL     1      -0.672  -2.444  -3.005  1.00  0.00     0.116 A 
ATOM     18  N   UNL     1      -2.775  -3.176  -2.605  1.00  0.00    -0.234 NA
ATOM     19  N   UNL     1      -1.270  -2.768  -4.198  1.00  0.00    -0.307 N 
ATOM     20  C   UNL     1      -2.546  -3.222  -3.898  1.00  0.00     0.136 A 
ATOM     21  C   UNL     1      -0.769  -2.686  -5.496  1.00  0.00     0.093 A 
ATOM     22  C   UNL     1      -3.364  -3.638  -4.986  1.00  0.00     0.048 A 
ATOM     23  C   UNL     1      -1.547  -3.068  -6.524  1.00  0.00     0.018 A 
ATOM     24  C   UNL     1      -2.888  -3.565  -6.245  1.00  0.00     0.005 A 
ENDBRANCH  15  16
ENDBRANCH   8  15
ENDBRANCH   5   8
ENDBRANCH   3   4
ENDBRANCH   2   3
ENDBRANCH   1   2
BRANCH   1  25
ATOM     25  C   UNL     1      -0.127   3.110   4.665  1.00  0.00     0.116 C 
BRANCH  25  26
ATOM     26  N   UNL     1       0.595   4.075   3.842  1.00  0.00    -0.352 N 
ATOM     27  C   UNL     1       1.492   5.030   4.279  1.00  0.00     0.251 C 
ATOM     28  H   UNL     1       0.424   4.042   2.873  1.00  0.00     0.163 HD
ATOM     29  O   UNL     1       2.015   5.818   3.504  1.00  0.00    -0.269 OA
BRANCH  27  30
ATOM     30  C   UNL     1       1.764   5.098   5.729  1.00  0.00     0.039 A 
ATOM     31  C   UNL     1       1.405   6.248   6.434  1.00  0.00     0.014 A 
ATOM     32  C   UNL     1       2.212   3.956   6.396  1.00  0.00     0.014 A 
ATOM     33  C   UNL     1       1.401   6.221   7.830  1.00  0.00     0.010 A 
ATOM     34  C   UNL     1       2.135   3.909   7.782  1.00  0.00     0.010 A 
ATOM     35  C   UNL     1       1.715   5.034   8.512  1.00  0.00    -0.014 A 
BRANCH  35  36
ATOM     36  C   UNL     1       1.603   4.916   9.989  1.00  0.00     0.031 A 
ATOM     37  C   UNL     1       2.826   4.579  10.795  1.00  0.00     0.074 A 
ATOM     38  C   UNL     1       0.392   4.966  10.582  1.00  0.00     0.049 A 
ATOM     39  N   UNL     1       2.919   4.242  12.053  1.00  0.00    -0.248 NA
ATOM     40  C   UNL     1       4.111   4.578  10.074  1.00  0.00     0.031 C 
ATOM     41  C   UNL     1      -0.881   5.206   9.898  1.00  0.00     0.029 A 
ATOM     42  N   UNL     1       0.031   4.775  11.893  1.00  0.00    -0.354 N 
ATOM     43  C   UNL     1       4.256   3.927  12.259  1.00  0.00     0.074 A 
ATOM     44  C   UNL     1       4.933   4.091  10.991  1.00  0.00     0.031 C 
ATOM     45  C   UNL     1      -1.881   5.146  10.793  1.00  0.00     0.029 A 
ATOM     46  C   UNL     1      -1.327   4.832  12.107  1.00  0.00     0.049 A 
ATOM     47  H   UNL     1       0.683   4.613  12.613  1.00  0.00     0.167 HD
ATOM     48  C   UNL     1       4.874   3.562  13.408  1.00  0.00     0.034 A 
ATOM     49  C   UNL     1      -2.045   4.644  13.233  1.00  0.00     0.034 A 
ATOM     50  C   UNL     1       4.215   3.482  14.681  1.00  0.00     0.049 A 
ATOM     51  C   UNL     1      -1.320   4.337  14.517  1.00  0.00     0.074 A 
ATOM     52  C   UNL     1       4.766   3.207  15.919  1.00  0.00     0.029 A 
ATOM     53  N   UNL     1       2.860   3.697  14.882  1.00  0.00    -0.354 N 
ATOM     54  N   UNL     1      -0.035   4.175  14.719  1.00  0.00    -0.248 NA
ATOM     55  C   UNL     1      -2.137   4.222  15.735  1.00  0.00     0.031 C 
ATOM     56  C   UNL     1       3.743   3.266  16.872  1.00  0.00     0.029 A 
ATOM     57  C   UNL     1       2.558   3.580  16.226  1.00  0.00     0.049 A 
ATOM     58  H   UNL     1       2.209   3.903  14.172  1.00  0.00     0.167 HD
ATOM     59  C   UNL     1       0.116   3.983  16.087  1.00  0.00     0.074 A 
ATOM     60  C   UNL     1      -1.208   4.060  16.669  1.00  0.00     0.031 C 
ATOM     61  C   UNL     1       1.247   3.747  16.796  1.00  0.00     0.034 A 
BRANCH  48  62
ATOM     62  C   UNL     1       6.353   3.298  13.346  1.00  0.00     0.023 A 
ATOM     63  C   UNL     1       7.241   4.383  13.195  1.00  0.00     0.012 A 
ATOM     64  C   UNL     1       6.869   1.994  13.472  1.00  0.00     0.148 A 
ATOM     65  C   UNL     1       8.617   4.171  13.131  1.00  0.00     0.002 A 
ATOM     66  C   UNL     1       8.245   1.795  13.449  1.00  0.00     0.091 A 
ATOM     67  F   UNL     1       6.009   0.972  13.588  1.00  0.00    -0.205 F 
ATOM     68  C   UNL     1       9.119   2.880  13.268  1.00  0.00     0.022 A 
BRANCH  66  69
ATOM     69  S   UNL     1       8.986   0.177  13.693  1.00  0.00     0.127 S 
ATOM     70  O   UNL     1       9.348  -0.192  12.326  1.00  0.00    -0.237 OA
ATOM     71  O   UNL     1      10.122   0.481  14.564  1.00  0.00    -0.237 OA
ATOM     72  O   UNL     1       7.953  -0.641  14.315  1.00  0.00    -0.744 OA
ENDBRANCH  66  69
ENDBRANCH  48  62
BRANCH  49  73
ATOM     73  C   UNL     1      -3.523   4.832  13.216  1.00  0.00     0.023 A 
ATOM     74  C   UNL     1      -4.073   5.973  13.834  1.00  0.00     0.012 A 
ATOM     75  C   UNL     1      -4.382   3.921  12.573  1.00  0.00     0.148 A 
ATOM     76  C   UNL     1      -5.452   6.188  13.838  1.00  0.00     0.002 A 
ATOM     77  C   UNL     1      -5.752   4.167  12.538  1.00  0.00     0.091 A 
ATOM     78  F   UNL     1      -3.845   2.833  12.003  1.00  0.00    -0.205 F 
ATOM     79  C   UNL     1      -6.290   5.291  13.182  1.00  0.00     0.022 A 
BRANCH  77  80
ATOM     80  S   UNL     1      -6.886   3.131  11.606  1.00  0.00     0.127 S 
ATOM     81  O   UNL     1      -7.522   2.353  12.666  1.00  0.00    -0.237 OA
ATOM     82  O   UNL     1      -7.752   4.122  10.965  1.00  0.00    -0.237 OA
ATOM     83  O   UNL     1      -6.050   2.382  10.677  1.00  0.00    -0.744 OA
ENDBRANCH  77  80
ENDBRANCH  49  73
BRANCH  61  84
ATOM     84  C   UNL     1       1.129   3.609  18.289  1.00  0.00     0.023 A 
ATOM     85  C   UNL     1       0.640   2.410  18.841  1.00  0.00     0.012 A 
ATOM     86  C   UNL     1       1.611   4.622  19.141  1.00  0.00     0.148 A 
ATOM     87  C   UNL     1       0.621   2.226  20.223  1.00  0.00     0.002 A 
ATOM     88  C   UNL     1       1.625   4.416  20.515  1.00  0.00     0.091 A 
ATOM     89  F   UNL     1       2.051   5.764  18.592  1.00  0.00    -0.205 F 
ATOM     90  C   UNL     1       1.125   3.222  21.058  1.00  0.00     0.022 A 
BRANCH  88  91
ATOM     91  S   UNL     1       2.342   5.606  21.654  1.00  0.00     0.127 S 
ATOM     92  O   UNL     1       1.149   6.208  22.246  1.00  0.00    -0.237 OA
ATOM     93  O   UNL     1       3.107   4.749  22.561  1.00  0.00    -0.237 OA
ATOM     94  O   UNL     1       3.158   6.497  20.840  1.00  0.00    -0.744 OA
ENDBRANCH  88  91
ENDBRANCH  61  84
ENDBRANCH  35  36
ENDBRANCH  27  30
ENDBRANCH  25  26
ENDBRANCH   1  25
TORSDOF 16
