REMARK SMILES CC1([C@@H]2C[C@H](C(F)(F)F)n3nc(C(=O)NCCCCNC(=O)c4ccc(-c5c6nc(c(-c7cccc(S(=O)(=O)[O-])c7F)c7ccc([nH]7)c(-c7cccc(S(=O)(=O)[O-])c7F)c7nc(c(-c8cccc(S(=O)(=O)[O-])c8F)c8ccc5[nH]8)C=C7)C=C6)cc4)cc3N2)CC1
REMARK SMILES IDX 18 1 17 2 16 3 15 4 13 5 14 6 12 8 3 9 4 10 88 11 5 12 87 13
REMARK SMILES IDX 10 15 86 16 11 17 2 18 1 19 89 20 90 21 6 22 7 23 8 24 9 25
REMARK SMILES IDX 19 26 20 27 21 28 22 30 23 31 24 32 85 33 25 34 84 35 26 36
REMARK SMILES IDX 27 37 28 38 78 39 29 40 83 41 77 42 79 43 30 44 82 45 76 46
REMARK SMILES IDX 75 47 31 49 63 50 43 51 62 52 44 53 47 54 61 55 80 56 45 57
REMARK SMILES IDX 46 58 60 60 81 61 48 62 32 63 33 64 41 65 34 66 36 67 42 68
REMARK SMILES IDX 35 69 37 70 38 71 39 72 40 73 64 74 65 75 73 76 66 77 68 78
REMARK SMILES IDX 74 79 67 80 69 81 70 82 71 83 72 84 49 85 50 86 58 87 51 88
REMARK SMILES IDX 53 89 59 90 52 91 54 92 55 93 56 94 57 95
REMARK H PARENT 15 7 88 14 20 29 79 48 47 59
REMARK Flexibility Score: inf
ROOT
ATOM      1  C   UNL     1      -2.854   7.218  -5.490  1.00  0.00     0.023 C 
ENDROOT
BRANCH   1   2
ATOM      2  C   UNL     1      -2.656   5.816  -4.900  1.00  0.00     0.023 C 
BRANCH   2   3
ATOM      3  C   UNL     1      -2.513   4.710  -5.947  1.00  0.00     0.116 C 
BRANCH   3   4
ATOM      4  N   UNL     1      -1.168   4.649  -6.476  1.00  0.00    -0.351 N 
ATOM      5  C   UNL     1      -0.096   3.836  -6.183  1.00  0.00     0.271 C 
ATOM      6  O   UNL     1       0.900   3.983  -6.896  1.00  0.00    -0.267 OA
ATOM      7  H   UNL     1      -0.985   5.315  -7.178  1.00  0.00     0.163 HD
BRANCH   5   8
ATOM      8  C   UNL     1      -0.134   2.846  -5.082  1.00  0.00     0.152 A 
ATOM      9  C   UNL     1      -0.169   0.218  -1.335  1.00  0.00     0.089 C 
ATOM     10  C   UNL     1       0.722  -0.645  -2.251  1.00  0.00     0.062 C 
ATOM     11  N   UNL     1      -1.047   1.041  -2.149  1.00  0.00    -0.367 N 
ATOM     12  C   UNL     1       1.369   0.110  -3.437  1.00  0.00     0.216 C 
ATOM     13  C   UNL     1      -0.586   1.637  -3.264  1.00  0.00     0.126 A 
ATOM     14  H   UNL     1      -1.987   1.163  -1.884  1.00  0.00     0.162 HD
ATOM     15  N   UNL     1       0.569   1.236  -3.865  1.00  0.00    -0.237 N 
ATOM     16  C   UNL     1      -1.034   2.707  -3.987  1.00  0.00     0.082 A 
ATOM     17  N   UNL     1       0.823   1.889  -5.005  1.00  0.00    -0.165 NA
BRANCH   9  18
ATOM     18  C   UNL     1       0.564   1.043  -0.263  1.00  0.00    -0.012 C 
ATOM     19  C   UNL     1       1.326   0.209   0.746  1.00  0.00     0.013 C 
ATOM     20  C   UNL     1      -0.117   2.295   0.296  1.00  0.00     0.009 C 
ATOM     21  C   UNL     1       1.111   2.440  -0.540  1.00  0.00     0.009 C 
ENDBRANCH   9  18
BRANCH  12  22
ATOM     22  C   UNL     1       2.811   0.468  -3.145  1.00  0.00     0.410 C 
ATOM     23  F   UNL     1       3.521  -0.684  -2.962  1.00  0.00    -0.169 F 
ATOM     24  F   UNL     1       3.433   1.129  -4.139  1.00  0.00    -0.169 F 
ATOM     25  F   UNL     1       2.971   1.181  -2.012  1.00  0.00    -0.169 F 
ENDBRANCH  12  22
ENDBRANCH   5   8
ENDBRANCH   3   4
ENDBRANCH   2   3
ENDBRANCH   1   2
BRANCH   1  26
ATOM     26  C   UNL     1      -4.101   7.394  -6.355  1.00  0.00     0.116 C 
BRANCH  26  27
ATOM     27  N   UNL     1      -5.338   7.054  -5.667  1.00  0.00    -0.352 N 
ATOM     28  C   UNL     1      -6.600   7.561  -5.881  1.00  0.00     0.251 C 
ATOM     29  H   UNL     1      -5.262   6.375  -4.958  1.00  0.00     0.163 HD
ATOM     30  O   UNL     1      -7.526   7.242  -5.148  1.00  0.00    -0.269 OA
BRANCH  28  31
ATOM     31  C   UNL     1      -6.811   8.528  -6.980  1.00  0.00     0.039 A 
ATOM     32  C   UNL     1      -7.449   9.739  -6.697  1.00  0.00     0.014 A 
ATOM     33  C   UNL     1      -6.345   8.258  -8.269  1.00  0.00     0.014 A 
ATOM     34  C   UNL     1      -7.555  10.712  -7.695  1.00  0.00     0.010 A 
ATOM     35  C   UNL     1      -6.396   9.252  -9.242  1.00  0.00     0.010 A 
ATOM     36  C   UNL     1      -6.997  10.490  -8.964  1.00  0.00    -0.014 A 
BRANCH  36  37
ATOM     37  C   UNL     1      -6.999  11.549 -10.005  1.00  0.00     0.031 A 
ATOM     38  C   UNL     1      -7.739  11.343 -11.298  1.00  0.00     0.074 A 
ATOM     39  C   UNL     1      -6.240  12.651  -9.831  1.00  0.00     0.049 A 
ATOM     40  N   UNL     1      -7.795  12.121 -12.348  1.00  0.00    -0.248 NA
ATOM     41  C   UNL     1      -8.491  10.085 -11.445  1.00  0.00     0.031 C 
ATOM     42  C   UNL     1      -5.398  12.922  -8.663  1.00  0.00     0.029 A 
ATOM     43  N   UNL     1      -6.024  13.730 -10.651  1.00  0.00    -0.354 N 
ATOM     44  C   UNL     1      -8.545  11.432 -13.293  1.00  0.00     0.074 A 
ATOM     45  C   UNL     1      -8.908  10.163 -12.701  1.00  0.00     0.031 C 
ATOM     46  C   UNL     1      -4.751  14.084  -8.847  1.00  0.00     0.029 A 
ATOM     47  C   UNL     1      -5.112  14.631 -10.151  1.00  0.00     0.049 A 
ATOM     48  H   UNL     1      -6.479  13.849 -11.516  1.00  0.00     0.167 HD
ATOM     49  C   UNL     1      -8.922  11.832 -14.530  1.00  0.00     0.034 A 
ATOM     50  C   UNL     1      -4.616  15.764 -10.685  1.00  0.00     0.034 A 
ATOM     51  C   UNL     1      -8.614  13.120 -15.090  1.00  0.00     0.049 A 
ATOM     52  C   UNL     1      -5.115  16.219 -12.030  1.00  0.00     0.074 A 
ATOM     53  C   UNL     1      -9.055  13.665 -16.283  1.00  0.00     0.029 A 
ATOM     54  N   UNL     1      -7.786  14.062 -14.501  1.00  0.00    -0.354 N 
ATOM     55  N   UNL     1      -5.983  15.642 -12.825  1.00  0.00    -0.248 NA
ATOM     56  C   UNL     1      -4.600  17.501 -12.534  1.00  0.00     0.031 C 
ATOM     57  C   UNL     1      -8.479  14.932 -16.424  1.00  0.00     0.029 A 
ATOM     58  C   UNL     1      -7.694  15.181 -15.310  1.00  0.00     0.049 A 
ATOM     59  H   UNL     1      -7.331  13.951 -13.636  1.00  0.00     0.167 HD
ATOM     60  C   UNL     1      -6.142  16.503 -13.904  1.00  0.00     0.074 A 
ATOM     61  C   UNL     1      -5.300  17.654 -13.650  1.00  0.00     0.031 C 
ATOM     62  C   UNL     1      -6.901  16.346 -15.016  1.00  0.00     0.034 A 
BRANCH  49  63
ATOM     63  C   UNL     1      -9.768  10.893 -15.348  1.00  0.00     0.023 A 
ATOM     64  C   UNL     1     -11.123  10.705 -15.005  1.00  0.00     0.012 A 
ATOM     65  C   UNL     1      -9.252  10.266 -16.498  1.00  0.00     0.148 A 
ATOM     66  C   UNL     1     -11.944   9.888 -15.779  1.00  0.00     0.002 A 
ATOM     67  C   UNL     1     -10.088   9.485 -17.288  1.00  0.00     0.091 A 
ATOM     68  F   UNL     1      -7.957  10.442 -16.796  1.00  0.00    -0.205 F 
ATOM     69  C   UNL     1     -11.431   9.288 -16.925  1.00  0.00     0.022 A 
BRANCH  67  70
ATOM     70  S   UNL     1      -9.545   8.732 -18.826  1.00  0.00     0.127 S 
ATOM     71  O   UNL     1      -9.528   7.314 -18.469  1.00  0.00    -0.237 OA
ATOM     72  O   UNL     1     -10.613   9.114 -19.750  1.00  0.00    -0.237 OA
ATOM     73  O   UNL     1      -8.245   9.316 -19.124  1.00  0.00    -0.744 OA
ENDBRANCH  67  70
ENDBRANCH  49  63
BRANCH  50  74
ATOM     74  C   UNL     1      -3.636  16.584  -9.917  1.00  0.00     0.023 A 
ATOM     75  C   UNL     1      -4.036  17.828  -9.392  1.00  0.00     0.012 A 
ATOM     76  C   UNL     1      -2.322  16.133  -9.686  1.00  0.00     0.148 A 
ATOM     77  C   UNL     1      -3.137  18.625  -8.683  1.00  0.00     0.002 A 
ATOM     78  C   UNL     1      -1.448  16.906  -8.930  1.00  0.00     0.091 A 
ATOM     79  F   UNL     1      -1.953  14.954 -10.206  1.00  0.00    -0.205 F 
ATOM     80  C   UNL     1      -1.847  18.160  -8.443  1.00  0.00     0.022 A 
BRANCH  78  81
ATOM     81  S   UNL     1       0.183  16.316  -8.462  1.00  0.00     0.127 S 
ATOM     82  O   UNL     1       1.044  17.045  -9.389  1.00  0.00    -0.237 OA
ATOM     83  O   UNL     1       0.277  16.747  -7.066  1.00  0.00    -0.237 OA
ATOM     84  O   UNL     1       0.133  14.870  -8.635  1.00  0.00    -0.744 OA
ENDBRANCH  78  81
ENDBRANCH  50  74
BRANCH  62  85
ATOM     85  C   UNL     1      -6.888  17.454 -16.036  1.00  0.00     0.023 A 
ATOM     86  C   UNL     1      -5.757  17.632 -16.857  1.00  0.00     0.012 A 
ATOM     87  C   UNL     1      -8.024  18.262 -16.237  1.00  0.00     0.148 A 
ATOM     88  C   UNL     1      -5.747  18.616 -17.844  1.00  0.00     0.002 A 
ATOM     89  C   UNL     1      -8.024  19.211 -17.253  1.00  0.00     0.091 A 
ATOM     90  F   UNL     1      -9.083  18.091 -15.431  1.00  0.00    -0.205 F 
ATOM     91  C   UNL     1      -6.883  19.396 -18.050  1.00  0.00     0.022 A 
BRANCH  89  92
ATOM     92  S   UNL     1      -9.476  20.191 -17.650  1.00  0.00     0.127 S 
ATOM     93  O   UNL     1      -9.118  21.494 -17.092  1.00  0.00    -0.237 OA
ATOM     94  O   UNL     1      -9.498  20.139 -19.112  1.00  0.00    -0.237 OA
ATOM     95  O   UNL     1     -10.598  19.520 -17.007  1.00  0.00    -0.744 OA
ENDBRANCH  89  92
ENDBRANCH  62  85
ENDBRANCH  36  37
ENDBRANCH  28  31
ENDBRANCH  26  27
ENDBRANCH   1  26
TORSDOF 16
