REMARK SMILES Cc1cc(F)cc(N[C@H](C(=O)NCCCCNC(=O)c2ccc(-c3c4nc(c(-c5cccc(S(=O)(=O)[O-])c5F)c5ccc([nH]5)c(-c5cccc(S(=O)(=O)[O-])c5F)c5nc(c(-c6cccc(S(=O)(=O)[O-])c6F)c6ccc3[nH]6)C=C5)C=C4)cc2)c2cc(C)cc(C)c2)c1
REMARK SMILES IDX 15 1 14 2 13 3 12 4 10 5 11 6 9 8 8 9 7 11 1 12 2 13 3 14
REMARK SMILES IDX 91 15 4 16 5 17 6 18 83 19 84 20 90 21 85 22 88 23 86 24
REMARK SMILES IDX 87 25 89 26 16 27 17 28 18 29 19 31 20 32 21 33 82 34 22 35
REMARK SMILES IDX 81 36 23 37 24 38 25 39 75 40 26 41 80 42 74 43 76 44 27 45
REMARK SMILES IDX 79 46 73 47 72 48 28 50 60 51 40 52 59 53 41 54 44 55 58 56
REMARK SMILES IDX 77 57 42 58 43 59 57 61 78 62 45 63 29 64 30 65 38 66 31 67
REMARK SMILES IDX 33 68 39 69 32 70 34 71 35 72 36 73 37 74 61 75 62 76 70 77
REMARK SMILES IDX 63 78 65 79 71 80 64 81 66 82 67 83 68 84 69 85 46 86 47 87
REMARK SMILES IDX 55 88 48 89 50 90 56 91 49 92 51 93 52 94 53 95 54 96
REMARK H PARENT 12 7 8 10 17 30 76 49 44 60
REMARK Flexibility Score: inf
ROOT
ATOM      1  C   UNL     1       2.263  -2.903  -4.072  1.00  0.00     0.023 C 
ENDROOT
BRANCH   1   2
ATOM      2  C   UNL     1       0.771  -3.108  -3.812  1.00  0.00     0.023 C 
BRANCH   2   3
ATOM      3  C   UNL     1       0.416  -3.932  -2.577  1.00  0.00     0.116 C 
BRANCH   3   4
ATOM      4  N   UNL     1       0.910  -3.378  -1.334  1.00  0.00    -0.354 N 
ATOM      5  C   UNL     1       0.528  -3.664  -0.047  1.00  0.00     0.247 C 
ATOM      6  O   UNL     1       1.186  -3.106   0.840  1.00  0.00    -0.272 OA
ATOM      7  H   UNL     1       1.620  -2.702  -1.425  1.00  0.00     0.163 HD
BRANCH   5   8
ATOM      8  C   UNL     1      -0.750  -4.498   0.273  1.00  0.00     0.200 C 
BRANCH   8   9
ATOM      9  N   UNL     1      -1.067  -5.580  -0.692  1.00  0.00    -0.370 N 
ATOM     10  H   UNL     1      -1.895  -5.436  -1.204  1.00  0.00     0.161 HD
BRANCH   9  11
ATOM     11  C   UNL     1      -0.406  -6.752  -0.999  1.00  0.00     0.038 A 
ATOM     12  C   UNL     1      -0.413  -9.229  -3.933  1.00  0.00     0.044 C 
ATOM     13  C   UNL     1      -0.074  -8.578  -2.628  1.00  0.00    -0.046 A 
ATOM     14  C   UNL     1       0.911  -9.137  -1.816  1.00  0.00     0.042 A 
ATOM     15  C   UNL     1      -0.743  -7.416  -2.194  1.00  0.00     0.029 A 
ATOM     16  C   UNL     1       1.259  -8.492  -0.645  1.00  0.00     0.125 A 
ATOM     17  F   UNL     1       2.212  -9.012   0.139  1.00  0.00    -0.207 F 
ATOM     18  C   UNL     1       0.643  -7.301  -0.269  1.00  0.00     0.065 A 
ENDBRANCH   9  11
ENDBRANCH   8   9
BRANCH   8  19
ATOM     19  C   UNL     1      -0.893  -5.001   1.711  1.00  0.00    -0.016 A 
ATOM     20  C   UNL     1       0.206  -5.513   2.415  1.00  0.00     0.009 A 
ATOM     21  C   UNL     1      -2.162  -5.107   2.307  1.00  0.00     0.009 A 
ATOM     22  C   UNL     1       0.034  -6.314   3.546  1.00  0.00    -0.051 A 
ATOM     23  C   UNL     1      -2.332  -5.773   3.530  1.00  0.00    -0.051 A 
ATOM     24  C   UNL     1       1.172  -7.175   4.014  1.00  0.00     0.044 C 
ATOM     25  C   UNL     1      -1.238  -6.431   4.106  1.00  0.00     0.006 A 
ATOM     26  C   UNL     1      -3.682  -5.878   4.172  1.00  0.00     0.044 C 
ENDBRANCH   8  19
ENDBRANCH   5   8
ENDBRANCH   3   4
ENDBRANCH   2   3
ENDBRANCH   1   2
BRANCH   1  27
ATOM     27  C   UNL     1       3.123  -4.162  -4.062  1.00  0.00     0.116 C 
BRANCH  27  28
ATOM     28  N   UNL     1       2.738  -5.132  -5.080  1.00  0.00    -0.352 N 
ATOM     29  C   UNL     1       3.491  -5.679  -6.093  1.00  0.00     0.251 C 
ATOM     30  H   UNL     1       1.804  -5.439  -5.036  1.00  0.00     0.163 HD
ATOM     31  O   UNL     1       2.961  -6.401  -6.935  1.00  0.00    -0.269 OA
BRANCH  29  32
ATOM     32  C   UNL     1       4.936  -5.372  -6.183  1.00  0.00     0.039 A 
ATOM     33  C   UNL     1       5.468  -4.941  -7.402  1.00  0.00     0.014 A 
ATOM     34  C   UNL     1       5.753  -5.471  -5.055  1.00  0.00     0.014 A 
ATOM     35  C   UNL     1       6.800  -4.521  -7.466  1.00  0.00     0.010 A 
ATOM     36  C   UNL     1       7.055  -4.979  -5.103  1.00  0.00     0.010 A 
ATOM     37  C   UNL     1       7.591  -4.492  -6.306  1.00  0.00    -0.014 A 
BRANCH  37  38
ATOM     38  C   UNL     1       8.970  -3.935  -6.307  1.00  0.00     0.031 A 
ATOM     39  C   UNL     1      10.136  -4.810  -5.933  1.00  0.00     0.074 A 
ATOM     40  C   UNL     1       9.159  -2.616  -6.518  1.00  0.00     0.049 A 
ATOM     41  N   UNL     1      11.388  -4.483  -5.747  1.00  0.00    -0.248 NA
ATOM     42  C   UNL     1       9.849  -6.237  -5.707  1.00  0.00     0.031 C 
ATOM     43  C   UNL     1       8.102  -1.645  -6.811  1.00  0.00     0.029 A 
ATOM     44  N   UNL     1      10.303  -1.857  -6.480  1.00  0.00    -0.354 N 
ATOM     45  C   UNL     1      12.027  -5.646  -5.336  1.00  0.00     0.074 A 
ATOM     46  C   UNL     1      11.020  -6.683  -5.274  1.00  0.00     0.031 C 
ATOM     47  C   UNL     1       8.646  -0.422  -6.920  1.00  0.00     0.029 A 
ATOM     48  C   UNL     1      10.081  -0.513  -6.675  1.00  0.00     0.049 A 
ATOM     49  H   UNL     1      11.198  -2.239  -6.327  1.00  0.00     0.167 HD
ATOM     50  C   UNL     1      13.339  -5.842  -5.061  1.00  0.00     0.034 A 
ATOM     51  C   UNL     1      10.934   0.531  -6.647  1.00  0.00     0.034 A 
ATOM     52  C   UNL     1      14.347  -4.825  -5.181  1.00  0.00     0.049 A 
ATOM     53  C   UNL     1      12.397   0.275  -6.396  1.00  0.00     0.074 A 
ATOM     54  C   UNL     1      15.716  -4.948  -5.018  1.00  0.00     0.029 A 
ATOM     55  N   UNL     1      14.099  -3.499  -5.496  1.00  0.00    -0.354 N 
ATOM     56  N   UNL     1      13.006  -0.862  -6.162  1.00  0.00    -0.248 NA
ATOM     57  C   UNL     1      13.295   1.438  -6.441  1.00  0.00     0.031 C 
ATOM     58  C   UNL     1      16.294  -3.691  -5.223  1.00  0.00     0.029 A 
ATOM     59  C   UNL     1      15.287  -2.791  -5.532  1.00  0.00     0.049 A 
ATOM     60  H   UNL     1      13.208  -3.116  -5.668  1.00  0.00     0.167 HD
ATOM     61  C   UNL     1      14.360  -0.558  -6.075  1.00  0.00     0.074 A 
ATOM     62  C   UNL     1      14.484   0.868  -6.294  1.00  0.00     0.031 C 
ATOM     63  C   UNL     1      15.404  -1.385  -5.823  1.00  0.00     0.034 A 
BRANCH  50  64
ATOM     64  C   UNL     1      13.771  -7.230  -4.665  1.00  0.00     0.023 A 
ATOM     65  C   UNL     1      13.798  -8.250  -5.638  1.00  0.00     0.012 A 
ATOM     66  C   UNL     1      14.206  -7.512  -3.356  1.00  0.00     0.148 A 
ATOM     67  C   UNL     1      14.216  -9.538  -5.306  1.00  0.00     0.002 A 
ATOM     68  C   UNL     1      14.664  -8.787  -3.043  1.00  0.00     0.091 A 
ATOM     69  F   UNL     1      14.154  -6.535  -2.438  1.00  0.00    -0.205 F 
ATOM     70  C   UNL     1      14.659  -9.803  -4.013  1.00  0.00     0.022 A 
BRANCH  68  71
ATOM     71  S   UNL     1      15.330  -9.208  -1.429  1.00  0.00     0.127 S 
ATOM     72  O   UNL     1      14.254 -10.024  -0.869  1.00  0.00    -0.237 OA
ATOM     73  O   UNL     1      16.540  -9.953  -1.777  1.00  0.00    -0.237 OA
ATOM     74  O   UNL     1      15.573  -7.940  -0.754  1.00  0.00    -0.744 OA
ENDBRANCH  68  71
ENDBRANCH  50  64
BRANCH  51  75
ATOM     75  C   UNL     1      10.438   1.906  -6.941  1.00  0.00     0.023 A 
ATOM     76  C   UNL     1      10.794   2.518  -8.160  1.00  0.00     0.012 A 
ATOM     77  C   UNL     1       9.597   2.596  -6.048  1.00  0.00     0.148 A 
ATOM     78  C   UNL     1      10.347   3.803  -8.469  1.00  0.00     0.002 A 
ATOM     79  C   UNL     1       9.111   3.855  -6.386  1.00  0.00     0.091 A 
ATOM     80  F   UNL     1       9.279   2.004  -4.888  1.00  0.00    -0.205 F 
ATOM     81  C   UNL     1       9.498   4.466  -7.589  1.00  0.00     0.022 A 
BRANCH  79  82
ATOM     82  S   UNL     1       7.909   4.726  -5.374  1.00  0.00     0.127 S 
ATOM     83  O   UNL     1       8.723   5.786  -4.787  1.00  0.00    -0.237 OA
ATOM     84  O   UNL     1       6.939   5.175  -6.374  1.00  0.00    -0.237 OA
ATOM     85  O   UNL     1       7.390   3.732  -4.444  1.00  0.00    -0.744 OA
ENDBRANCH  79  82
ENDBRANCH  51  75
BRANCH  63  86
ATOM     86  C   UNL     1      16.788  -0.793  -5.818  1.00  0.00     0.023 A 
ATOM     87  C   UNL     1      17.210  -0.009  -4.728  1.00  0.00     0.012 A 
ATOM     88  C   UNL     1      17.700  -1.101  -6.847  1.00  0.00     0.148 A 
ATOM     89  C   UNL     1      18.516   0.478  -4.671  1.00  0.00     0.002 A 
ATOM     90  C   UNL     1      19.012  -0.650  -6.761  1.00  0.00     0.091 A 
ATOM     91  F   UNL     1      17.271  -1.833  -7.885  1.00  0.00    -0.205 F 
ATOM     92  C   UNL     1      19.419   0.147  -5.679  1.00  0.00     0.022 A 
BRANCH  90  93
ATOM     93  S   UNL     1      20.267  -1.108  -7.963  1.00  0.00     0.127 S 
ATOM     94  O   UNL     1      20.453   0.145  -8.691  1.00  0.00    -0.237 OA
ATOM     95  O   UNL     1      21.392  -1.490  -7.107  1.00  0.00    -0.237 OA
ATOM     96  O   UNL     1      19.700  -2.204  -8.738  1.00  0.00    -0.744 OA
ENDBRANCH  90  93
ENDBRANCH  63  86
ENDBRANCH  37  38
ENDBRANCH  29  32
ENDBRANCH  27  28
ENDBRANCH   1  27
TORSDOF 17
