REMARK SMILES Cc1cccc(N2CCN(c3ncc(NC(=O)c4ccccc4F)cc3C(=O)NCCCCNC(=O)c3ccc(-c4c5nc(c(-c6cccc(S(=O)(=O)[O-])c6F)c6ccc([nH]6)c(-c6cccc(S(=O)(=O)[O-])c6F)c6nc(c(-c7cccc(S(=O)(=O)[O-])c7F)c7ccc4[nH]7)C=C6)C=C5)cc3)C[C@@H]2C)c1
REMARK SMILES IDX 32 1 31 2 30 3 29 4 27 5 28 6 26 8 11 9 12 10 13 11 25 12
REMARK SMILES IDX 14 13 10 14 7 15 8 16 101 17 9 18 100 19 102 20 6 21 1 22
REMARK SMILES IDX 2 23 3 24 103 25 4 26 5 27 15 28 16 29 17 31 18 32 19 33
REMARK SMILES IDX 23 34 20 35 22 36 24 37 21 38 33 39 34 40 35 41 36 43 37 44
REMARK SMILES IDX 38 45 99 46 39 47 98 48 40 49 41 50 42 51 92 52 43 53 97 54
REMARK SMILES IDX 91 55 93 56 44 57 96 58 90 59 89 60 45 62 77 63 57 64 76 65
REMARK SMILES IDX 58 66 61 67 75 68 94 69 59 70 60 71 74 73 95 74 62 75 46 76
REMARK SMILES IDX 47 77 55 78 48 79 50 80 56 81 49 82 51 83 52 84 53 85 54 86
REMARK SMILES IDX 78 87 79 88 87 89 80 90 82 91 88 92 81 93 83 94 84 95 85 96
REMARK SMILES IDX 86 97 63 98 64 99 72 100 65 101 67 102 73 103 66 104 68 105
REMARK SMILES IDX 69 106 70 107 71 108
REMARK H PARENT 29 7 15 30 34 42 93 61 61 72
REMARK Flexibility Score: inf
ROOT
ATOM      1  C   UNL     1      -5.597   7.542  -4.499  1.00  0.00     0.023 C 
ENDROOT
BRANCH   1   2
ATOM      2  C   UNL     1      -6.350   7.747  -3.172  1.00  0.00     0.023 C 
BRANCH   2   3
ATOM      3  C   UNL     1      -6.849   6.465  -2.474  1.00  0.00     0.116 C 
BRANCH   3   4
ATOM      4  N   UNL     1      -5.753   5.593  -2.090  1.00  0.00    -0.352 N 
ATOM      5  C   UNL     1      -4.645   6.031  -1.395  1.00  0.00     0.255 C 
ATOM      6  O   UNL     1      -3.578   6.113  -1.996  1.00  0.00    -0.269 OA
ATOM      7  H   UNL     1      -5.803   4.641  -2.338  1.00  0.00     0.163 HD
BRANCH   5   8
ATOM      8  C   UNL     1      -4.774   6.433   0.026  1.00  0.00     0.084 A 
ATOM      9  C   UNL     1      -4.014   5.854   1.058  1.00  0.00     0.141 A 
ATOM     10  N   UNL     1      -4.200   6.261   2.349  1.00  0.00    -0.236 NA
ATOM     11  C   UNL     1      -5.127   7.216   2.623  1.00  0.00     0.139 A 
ATOM     12  C   UNL     1      -5.724   7.407   0.352  1.00  0.00     0.045 A 
ATOM     13  C   UNL     1      -5.921   7.806   1.660  1.00  0.00     0.060 A 
BRANCH   9  14
ATOM     14  N   UNL     1      -3.173   4.779   0.879  1.00  0.00    -0.352 N 
ATOM     15  N   UNL     1      -1.764   2.359   0.385  1.00  0.00    -0.365 N 
ATOM     16  C   UNL     1      -2.917   2.374   1.305  1.00  0.00     0.138 C 
ATOM     17  C   UNL     1      -1.711   3.437  -0.639  1.00  0.00     0.098 C 
ATOM     18  C   UNL     1      -3.094   3.769   1.942  1.00  0.00     0.139 C 
ATOM     19  C   UNL     1      -1.960   4.821   0.042  1.00  0.00     0.142 C 
ATOM     20  C   UNL     1      -2.713   3.147  -1.763  1.00  0.00     0.033 C 
BRANCH  15  21
ATOM     21  C   UNL     1      -1.094   1.169   0.160  1.00  0.00     0.037 A 
ATOM     22  C   UNL     1       2.526  -0.018  -0.094  1.00  0.00     0.044 C 
ATOM     23  C   UNL     1       1.028  -0.031  -0.069  1.00  0.00    -0.049 A 
ATOM     24  C   UNL     1       0.336  -1.244  -0.122  1.00  0.00     0.003 A 
ATOM     25  C   UNL     1       0.304   1.163   0.053  1.00  0.00     0.029 A 
ATOM     26  C   UNL     1      -1.055  -1.258  -0.059  1.00  0.00     0.002 A 
ATOM     27  C   UNL     1      -1.759  -0.061   0.087  1.00  0.00     0.026 A 
ENDBRANCH  15  21
ENDBRANCH   9  14
BRANCH  13  28
ATOM     28  N   UNL     1      -6.924   8.761   1.886  1.00  0.00    -0.320 N 
ATOM     29  C   UNL     1      -6.979   9.792   2.789  1.00  0.00     0.258 C 
ATOM     30  H   UNL     1      -7.713   8.678   1.305  1.00  0.00     0.170 HD
ATOM     31  O   UNL     1      -8.052  10.346   3.024  1.00  0.00    -0.269 OA
BRANCH  29  32
ATOM     32  C   UNL     1      -5.753  10.329   3.413  1.00  0.00     0.075 A 
ATOM     33  C   UNL     1      -5.836  10.815   4.722  1.00  0.00     0.017 A 
ATOM     34  C   UNL     1      -4.553  10.458   2.710  1.00  0.00     0.135 A 
ATOM     35  C   UNL     1      -4.704  11.351   5.339  1.00  0.00     0.001 A 
ATOM     36  C   UNL     1      -3.416  10.961   3.333  1.00  0.00     0.040 A 
ATOM     37  F   UNL     1      -4.463  10.139   1.411  1.00  0.00    -0.206 F 
ATOM     38  C   UNL     1      -3.490  11.403   4.652  1.00  0.00     0.003 A 
ENDBRANCH  29  32
ENDBRANCH  13  28
ENDBRANCH   5   8
ENDBRANCH   3   4
ENDBRANCH   2   3
ENDBRANCH   1   2
BRANCH   1  39
ATOM     39  C   UNL     1      -6.433   6.837  -5.545  1.00  0.00     0.116 C 
BRANCH  39  40
ATOM     40  N   UNL     1      -7.639   7.586  -5.837  1.00  0.00    -0.352 N 
ATOM     41  C   UNL     1      -8.642   7.328  -6.732  1.00  0.00     0.251 C 
ATOM     42  H   UNL     1      -7.756   8.409  -5.308  1.00  0.00     0.163 HD
ATOM     43  O   UNL     1      -9.159   8.314  -7.276  1.00  0.00    -0.269 OA
BRANCH  41  44
ATOM     44  C   UNL     1      -9.223   5.978  -6.897  1.00  0.00     0.039 A 
ATOM     45  C   UNL     1     -10.439   5.871  -7.594  1.00  0.00     0.014 A 
ATOM     46  C   UNL     1      -8.789   4.910  -6.124  1.00  0.00     0.014 A 
ATOM     47  C   UNL     1     -11.337   4.868  -7.252  1.00  0.00     0.010 A 
ATOM     48  C   UNL     1      -9.625   3.873  -5.859  1.00  0.00     0.010 A 
ATOM     49  C   UNL     1     -10.947   3.979  -6.272  1.00  0.00    -0.014 A 
BRANCH  49  50
ATOM     50  C   UNL     1     -11.802   3.144  -5.464  1.00  0.00     0.031 A 
ATOM     51  C   UNL     1     -11.957   1.758  -5.892  1.00  0.00     0.074 A 
ATOM     52  C   UNL     1     -11.839   3.548  -4.171  1.00  0.00     0.049 A 
ATOM     53  N   UNL     1     -12.514   0.853  -5.179  1.00  0.00    -0.248 NA
ATOM     54  C   UNL     1     -11.462   1.274  -7.178  1.00  0.00     0.031 C 
ATOM     55  C   UNL     1     -11.769   2.752  -2.952  1.00  0.00     0.029 A 
ATOM     56  N   UNL     1     -11.910   4.850  -3.691  1.00  0.00    -0.354 N 
ATOM     57  C   UNL     1     -12.134  -0.353  -5.720  1.00  0.00     0.074 A 
ATOM     58  C   UNL     1     -11.652  -0.040  -7.039  1.00  0.00     0.031 C 
ATOM     59  C   UNL     1     -12.051   3.540  -1.895  1.00  0.00     0.029 A 
ATOM     60  C   UNL     1     -12.499   4.820  -2.423  1.00  0.00     0.049 A 
ATOM     61  H   UNL     1     -11.599   5.656  -4.163  1.00  0.00     0.167 HD
ATOM     62  C   UNL     1     -12.110  -1.431  -4.890  1.00  0.00     0.034 A 
ATOM     63  C   UNL     1     -13.785   5.287  -2.318  1.00  0.00     0.034 A 
ATOM     64  C   UNL     1     -12.756  -1.083  -3.604  1.00  0.00     0.049 A 
ATOM     65  C   UNL     1     -14.806   4.163  -2.155  1.00  0.00     0.074 A 
ATOM     66  C   UNL     1     -12.280  -0.816  -2.332  1.00  0.00     0.029 A 
ATOM     67  N   UNL     1     -14.069  -0.608  -3.627  1.00  0.00    -0.354 N 
ATOM     68  N   UNL     1     -14.526   2.886  -2.210  1.00  0.00    -0.248 NA
ATOM     69  C   UNL     1     -16.217   4.391  -1.865  1.00  0.00     0.031 C 
ATOM     70  C   UNL     1     -13.274  -0.046  -1.646  1.00  0.00     0.029 A 
ATOM     71  C   UNL     1     -14.372   0.114  -2.479  1.00  0.00     0.049 A 
ATOM     72  H   UNL     1     -14.702  -0.765  -4.365  1.00  0.00     0.167 HD
ATOM     73  C   UNL     1     -15.665   2.134  -2.118  1.00  0.00     0.074 A 
ATOM     74  C   UNL     1     -16.683   3.130  -1.805  1.00  0.00     0.031 C 
ATOM     75  C   UNL     1     -15.679   0.778  -2.352  1.00  0.00     0.034 A 
BRANCH  62  76
ATOM     76  C   UNL     1     -11.350  -2.727  -5.135  1.00  0.00     0.023 A 
ATOM     77  C   UNL     1     -11.443  -3.713  -4.129  1.00  0.00     0.012 A 
ATOM     78  C   UNL     1     -10.490  -3.040  -6.223  1.00  0.00     0.148 A 
ATOM     79  C   UNL     1     -10.736  -4.922  -4.189  1.00  0.00     0.002 A 
ATOM     80  C   UNL     1      -9.829  -4.271  -6.313  1.00  0.00     0.091 A 
ATOM     81  F   UNL     1     -10.222  -2.130  -7.158  1.00  0.00    -0.205 F 
ATOM     82  C   UNL     1      -9.940  -5.210  -5.288  1.00  0.00     0.022 A 
BRANCH  80  83
ATOM     83  S   UNL     1      -8.806  -4.731  -7.729  1.00  0.00     0.127 S 
ATOM     84  O   UNL     1      -7.477  -4.834  -7.126  1.00  0.00    -0.237 OA
ATOM     85  O   UNL     1      -9.389  -6.011  -8.133  1.00  0.00    -0.237 OA
ATOM     86  O   UNL     1      -8.953  -3.664  -8.712  1.00  0.00    -0.744 OA
ENDBRANCH  80  83
ENDBRANCH  62  76
BRANCH  63  87
ATOM     87  C   UNL     1     -13.952   6.552  -3.126  1.00  0.00     0.023 A 
ATOM     88  C   UNL     1     -13.137   7.646  -2.731  1.00  0.00     0.012 A 
ATOM     89  C   UNL     1     -14.413   6.507  -4.457  1.00  0.00     0.148 A 
ATOM     90  C   UNL     1     -12.620   8.536  -3.678  1.00  0.00     0.002 A 
ATOM     91  C   UNL     1     -13.899   7.408  -5.395  1.00  0.00     0.091 A 
ATOM     92  F   UNL     1     -15.280   5.547  -4.803  1.00  0.00    -0.205 F 
ATOM     93  C   UNL     1     -12.959   8.382  -5.018  1.00  0.00     0.022 A 
BRANCH  91  94
ATOM     94  S   UNL     1     -14.314   7.278  -7.142  1.00  0.00     0.127 S 
ATOM     95  O   UNL     1     -15.429   8.217  -7.250  1.00  0.00    -0.237 OA
ATOM     96  O   UNL     1     -13.087   7.720  -7.808  1.00  0.00    -0.237 OA
ATOM     97  O   UNL     1     -14.634   5.877  -7.355  1.00  0.00    -0.744 OA
ENDBRANCH  91  94
ENDBRANCH  63  87
BRANCH  75  98
ATOM     98  C   UNL     1     -16.942  -0.068  -2.506  1.00  0.00     0.023 A 
ATOM     99  C   UNL     1     -18.215   0.495  -2.718  1.00  0.00     0.012 A 
ATOM    100  C   UNL     1     -16.874  -1.487  -2.572  1.00  0.00     0.148 A 
ATOM    101  C   UNL     1     -19.363  -0.288  -2.894  1.00  0.00     0.002 A 
ATOM    102  C   UNL     1     -17.991  -2.253  -2.896  1.00  0.00     0.091 A 
ATOM    103  F   UNL     1     -15.728  -2.122  -2.291  1.00  0.00    -0.205 F 
ATOM    104  C   UNL     1     -19.247  -1.663  -3.011  1.00  0.00     0.022 A 
BRANCH 102 105
ATOM    105  S   UNL     1     -17.835  -3.989  -3.345  1.00  0.00     0.127 S 
ATOM    106  O   UNL     1     -18.215  -4.657  -2.103  1.00  0.00    -0.237 OA
ATOM    107  O   UNL     1     -18.811  -4.117  -4.429  1.00  0.00    -0.237 OA
ATOM    108  O   UNL     1     -16.451  -4.155  -3.768  1.00  0.00    -0.744 OA
ENDBRANCH 102 105
ENDBRANCH  75  98
ENDBRANCH  49  50
ENDBRANCH  41  44
ENDBRANCH  39  40
ENDBRANCH   1  39
TORSDOF 18
