REMARK SMILES CC1(C)CC[NH+](CC[C@H]2CCC[C@]2([NH3+])C(=O)NCCCCNC(=O)c2ccc(-c3c4nc(c(-c5cccc(S(=O)(=O)[O-])c5F)c5ccc([nH]5)c(-c5cccc(S(=O)(=O)[O-])c5F)c5nc(c(-c6cccc(S(=O)(=O)[O-])c6F)c6ccc3[nH]6)C=C5)C=C4)cc2)CC1
REMARK SMILES IDX 19 1 18 2 17 3 15 4 16 5 13 7 9 8 10 9 11 10 12 11 8 12 7 13
REMARK SMILES IDX 6 14 1 15 2 16 3 17 4 18 89 19 5 20 88 21 14 23 20 27 21 28
REMARK SMILES IDX 22 29 23 30 24 32 25 33 26 34 87 35 27 36 86 37 28 38 29 39
REMARK SMILES IDX 30 40 80 41 31 42 85 43 79 44 81 45 32 46 84 47 78 48 77 49
REMARK SMILES IDX 33 51 65 52 45 53 64 54 46 55 49 56 63 57 82 58 47 59 48 60
REMARK SMILES IDX 62 62 83 63 50 64 34 65 35 66 43 67 36 68 38 69 44 70 37 71
REMARK SMILES IDX 39 72 40 73 41 74 42 75 66 76 67 77 75 78 68 79 70 80 76 81
REMARK SMILES IDX 69 82 71 83 72 84 73 85 74 86 51 87 52 88 60 89 53 90 55 91
REMARK SMILES IDX 61 92 54 93 56 94 57 95 58 96 59 97
REMARK H PARENT 17 6 6 22 14 24 14 25 14 26 22 31 81 50 49 61
REMARK Flexibility Score: inf
ROOT
ATOM      1  C   UNL     1       2.111   3.646  -0.236  1.00  0.00     0.023 C 
ENDROOT
BRANCH   1   2
ATOM      2  C   UNL     1       1.773   2.292  -0.845  1.00  0.00     0.116 C 
BRANCH   2   3
ATOM      3  N   UNL     1       1.601   1.285   0.182  1.00  0.00    -0.351 N 
ATOM      4  C   UNL     1       0.570   0.416   0.390  1.00  0.00     0.281 C 
ATOM      5  O   UNL     1       0.707  -0.395   1.312  1.00  0.00    -0.268 OA
ATOM      6  H   UNL     1       2.341   1.217   0.828  1.00  0.00     0.163 HD
BRANCH   4   7
ATOM      7  C   UNL     1      -0.731   0.440  -0.509  1.00  0.00     0.177 C 
ATOM      8  C   UNL     1      -1.632   1.676  -0.179  1.00  0.00     0.066 C 
ATOM      9  C   UNL     1      -2.293   1.246   1.143  1.00  0.00     0.011 C 
ATOM     10  C   UNL     1      -2.365  -0.278   1.143  1.00  0.00     0.008 C 
ATOM     11  C   UNL     1      -1.644  -0.738  -0.119  1.00  0.00     0.079 C 
BRANCH   8  12
ATOM     12  C   UNL     1      -2.629   2.099  -1.297  1.00  0.00     0.072 C 
BRANCH  12  13
ATOM     13  C   UNL     1      -4.001   2.751  -0.973  1.00  0.00     0.262 C 
BRANCH  13  14
ATOM     14  N   UNL     1      -4.217   4.109  -0.480  1.00  0.00    -0.335 N 
ATOM     15  C   UNL     1      -1.972   7.305   0.455  1.00  0.00     0.011 C 
ATOM     16  C   UNL     1      -1.881   5.870  -0.088  1.00  0.00    -0.025 C 
ATOM     17  C   UNL     1      -0.399   5.590  -0.350  1.00  0.00     0.011 C 
ATOM     18  C   UNL     1      -2.380   4.889   1.002  1.00  0.00     0.068 C 
ATOM     19  C   UNL     1      -2.598   5.726  -1.455  1.00  0.00     0.068 C 
ATOM     20  C   UNL     1      -3.832   4.459   0.872  1.00  0.00     0.262 C 
ATOM     21  C   UNL     1      -4.030   5.221  -1.394  1.00  0.00     0.262 C 
ATOM     22  H   UNL     1      -5.224   3.963  -0.416  1.00  0.00     0.348 HD
ENDBRANCH  13  14
ENDBRANCH  12  13
ENDBRANCH   8  12
BRANCH   7  23
ATOM     23  N   UNL     1      -0.314   0.294  -1.920  1.00  0.00    -0.345 N 
ATOM     24  H   UNL     1      -1.139   0.307  -2.520  1.00  0.00     0.345 HD
ATOM     25  H   UNL     1       0.180  -0.590  -2.039  1.00  0.00     0.345 HD
ATOM     26  H   UNL     1       0.303   1.066  -2.173  1.00  0.00     0.345 HD
ENDBRANCH   7  23
ENDBRANCH   4   7
ENDBRANCH   2   3
ENDBRANCH   1   2
BRANCH   1  27
ATOM     27  C   UNL     1       3.555   3.866   0.177  1.00  0.00     0.023 C 
BRANCH  27  28
ATOM     28  C   UNL     1       4.548   3.840  -0.975  1.00  0.00     0.116 C 
BRANCH  28  29
ATOM     29  N   UNL     1       4.281   4.826  -2.021  1.00  0.00    -0.352 N 
ATOM     30  C   UNL     1       5.087   5.824  -2.532  1.00  0.00     0.251 C 
ATOM     31  H   UNL     1       3.385   4.770  -2.425  1.00  0.00     0.163 HD
ATOM     32  O   UNL     1       4.649   6.607  -3.361  1.00  0.00    -0.269 OA
BRANCH  30  33
ATOM     33  C   UNL     1       6.473   5.961  -2.031  1.00  0.00     0.039 A 
ATOM     34  C   UNL     1       6.954   7.223  -1.675  1.00  0.00     0.014 A 
ATOM     35  C   UNL     1       7.261   4.830  -1.832  1.00  0.00     0.014 A 
ATOM     36  C   UNL     1       8.178   7.330  -1.007  1.00  0.00     0.010 A 
ATOM     37  C   UNL     1       8.399   4.924  -1.046  1.00  0.00     0.010 A 
ATOM     38  C   UNL     1       8.879   6.173  -0.627  1.00  0.00    -0.014 A 
BRANCH  38  39
ATOM     39  C   UNL     1      10.115   6.223   0.201  1.00  0.00     0.031 A 
ATOM     40  C   UNL     1      11.372   5.556  -0.300  1.00  0.00     0.074 A 
ATOM     41  C   UNL     1      10.079   6.751   1.442  1.00  0.00     0.049 A 
ATOM     42  N   UNL     1      12.499   5.341   0.325  1.00  0.00    -0.248 NA
ATOM     43  C   UNL     1      11.339   5.008  -1.669  1.00  0.00     0.031 C 
ATOM     44  C   UNL     1       8.902   7.342   2.087  1.00  0.00     0.029 A 
ATOM     45  N   UNL     1      11.058   6.851   2.401  1.00  0.00    -0.354 N 
ATOM     46  C   UNL     1      13.280   4.591  -0.548  1.00  0.00     0.074 A 
ATOM     47  C   UNL     1      12.479   4.338  -1.724  1.00  0.00     0.031 C 
ATOM     48  C   UNL     1       9.233   7.758   3.321  1.00  0.00     0.029 A 
ATOM     49  C   UNL     1      10.632   7.434   3.573  1.00  0.00     0.049 A 
ATOM     50  H   UNL     1      11.980   6.534   2.262  1.00  0.00     0.167 HD
ATOM     51  C   UNL     1      14.565   4.189  -0.410  1.00  0.00     0.034 A 
ATOM     52  C   UNL     1      11.296   7.677   4.721  1.00  0.00     0.034 A 
ATOM     53  C   UNL     1      15.388   4.523   0.718  1.00  0.00     0.049 A 
ATOM     54  C   UNL     1      12.749   7.292   4.813  1.00  0.00     0.074 A 
ATOM     55  C   UNL     1      16.728   4.244   0.917  1.00  0.00     0.029 A 
ATOM     56  N   UNL     1      14.954   5.230   1.828  1.00  0.00    -0.354 N 
ATOM     57  N   UNL     1      13.508   6.708   3.917  1.00  0.00    -0.248 NA
ATOM     58  C   UNL     1      13.450   7.633   6.061  1.00  0.00     0.031 C 
ATOM     59  C   UNL     1      17.106   4.786   2.150  1.00  0.00     0.029 A 
ATOM     60  C   UNL     1      16.003   5.411   2.710  1.00  0.00     0.049 A 
ATOM     61  H   UNL     1      14.035   5.554   1.967  1.00  0.00     0.167 HD
ATOM     62  C   UNL     1      14.780   6.652   4.474  1.00  0.00     0.074 A 
ATOM     63  C   UNL     1      14.696   7.281   5.775  1.00  0.00     0.031 C 
ATOM     64  C   UNL     1      15.914   6.110   3.965  1.00  0.00     0.034 A 
BRANCH  51  65
ATOM     65  C   UNL     1      15.188   3.429  -1.552  1.00  0.00     0.023 A 
ATOM     66  C   UNL     1      15.478   4.107  -2.754  1.00  0.00     0.012 A 
ATOM     67  C   UNL     1      15.538   2.071  -1.423  1.00  0.00     0.148 A 
ATOM     68  C   UNL     1      16.072   3.440  -3.823  1.00  0.00     0.002 A 
ATOM     69  C   UNL     1      16.173   1.424  -2.477  1.00  0.00     0.091 A 
ATOM     70  F   UNL     1      15.239   1.438  -0.280  1.00  0.00    -0.205 F 
ATOM     71  C   UNL     1      16.429   2.103  -3.681  1.00  0.00     0.022 A 
BRANCH  69  72
ATOM     72  S   UNL     1      16.748  -0.275  -2.374  1.00  0.00     0.127 S 
ATOM     73  O   UNL     1      15.866  -0.943  -3.330  1.00  0.00    -0.237 OA
ATOM     74  O   UNL     1      18.139  -0.154  -2.809  1.00  0.00    -0.237 OA
ATOM     75  O   UNL     1      16.575  -0.676  -0.985  1.00  0.00    -0.744 OA
ENDBRANCH  69  72
ENDBRANCH  51  65
BRANCH  52  76
ATOM     76  C   UNL     1      10.629   8.395   5.847  1.00  0.00     0.023 A 
ATOM     77  C   UNL     1      11.042   9.705   6.164  1.00  0.00     0.012 A 
ATOM     78  C   UNL     1       9.604   7.800   6.606  1.00  0.00     0.148 A 
ATOM     79  C   UNL     1      10.480  10.391   7.241  1.00  0.00     0.002 A 
ATOM     80  C   UNL     1       9.010   8.510   7.646  1.00  0.00     0.091 A 
ATOM     81  F   UNL     1       9.230   6.548   6.304  1.00  0.00    -0.205 F 
ATOM     82  C   UNL     1       9.460   9.797   7.977  1.00  0.00     0.022 A 
BRANCH  80  83
ATOM     83  S   UNL     1       7.603   7.866   8.559  1.00  0.00     0.127 S 
ATOM     84  O   UNL     1       8.231   7.409   9.795  1.00  0.00    -0.237 OA
ATOM     85  O   UNL     1       6.756   9.052   8.699  1.00  0.00    -0.237 OA
ATOM     86  O   UNL     1       7.036   6.829   7.706  1.00  0.00    -0.744 OA
ENDBRANCH  80  83
ENDBRANCH  52  76
BRANCH  64  87
ATOM     87  C   UNL     1      17.170   6.218   4.785  1.00  0.00     0.023 A 
ATOM     88  C   UNL     1      17.330   5.410   5.928  1.00  0.00     0.012 A 
ATOM     89  C   UNL     1      18.225   7.055   4.373  1.00  0.00     0.148 A 
ATOM     90  C   UNL     1      18.511   5.457   6.666  1.00  0.00     0.002 A 
ATOM     91  C   UNL     1      19.417   7.060   5.086  1.00  0.00     0.091 A 
ATOM     92  F   UNL     1      18.044   7.829   3.292  1.00  0.00    -0.205 F 
ATOM     93  C   UNL     1      19.558   6.271   6.239  1.00  0.00     0.022 A 
BRANCH  91  94
ATOM     94  S   UNL     1      20.850   8.002   4.552  1.00  0.00     0.127 S 
ATOM     95  O   UNL     1      20.862   9.099   5.518  1.00  0.00    -0.237 OA
ATOM     96  O   UNL     1      21.936   7.035   4.714  1.00  0.00    -0.237 OA
ATOM     97  O   UNL     1      20.586   8.385   3.172  1.00  0.00    -0.744 OA
ENDBRANCH  91  94
ENDBRANCH  64  87
ENDBRANCH  38  39
ENDBRANCH  30  33
ENDBRANCH  28  29
ENDBRANCH  27  28
ENDBRANCH   1  27
TORSDOF 18
