REMARK SMILES CC1=C[C@H](C)[C@@H](C(=O)NCCCCNC(=O)c2ccc(-c3c4nc(c(-c5cccc(S(=O)(=O)[O-])c5F)c5ccc([nH]5)c(-c5cccc(S(=O)(=O)[O-])c5F)c5nc(c(-c6cccc(S(=O)(=O)[O-])c6F)c6ccc3[nH]6)C=C5)C=C4)cc2)[C@H](C(=O)Nc2cccnc2)C1
REMARK SMILES IDX 12 1 11 2 10 3 9 4 7 5 8 6 6 8 1 9 2 10 3 11 90 12 4 13
REMARK SMILES IDX 80 14 5 15 81 16 82 17 83 18 84 20 85 21 89 22 86 23 88 24
REMARK SMILES IDX 87 25 13 26 14 27 15 28 16 30 17 31 18 32 79 33 19 34 78 35
REMARK SMILES IDX 20 36 21 37 22 38 72 39 23 40 77 41 71 42 73 43 24 44 76 45
REMARK SMILES IDX 70 46 69 47 25 49 57 50 37 51 56 52 38 53 41 54 55 55 74 56
REMARK SMILES IDX 39 57 40 58 54 60 75 61 42 62 26 63 27 64 35 65 28 66 30 67
REMARK SMILES IDX 36 68 29 69 31 70 32 71 33 72 34 73 58 74 59 75 67 76 60 77
REMARK SMILES IDX 62 78 68 79 61 80 63 81 64 82 65 83 66 84 43 85 44 86 52 87
REMARK SMILES IDX 45 88 47 89 53 90 46 91 48 92 49 93 50 94 51 95
REMARK H PARENT 9 7 83 19 14 29 73 48 41 59
REMARK Flexibility Score: inf
ROOT
ATOM      1  C   UNL     1      -1.458   3.220   4.297  1.00  0.00     0.023 C 
ENDROOT
BRANCH   1   2
ATOM      2  C   UNL     1      -0.604   2.988   3.056  1.00  0.00     0.023 C 
BRANCH   2   3
ATOM      3  C   UNL     1      -1.363   3.144   1.746  1.00  0.00     0.116 C 
BRANCH   3   4
ATOM      4  N   UNL     1      -1.304   4.485   1.196  1.00  0.00    -0.356 N 
ATOM      5  C   UNL     1      -0.955   4.914  -0.053  1.00  0.00     0.224 C 
ATOM      6  O   UNL     1      -1.154   6.099  -0.330  1.00  0.00    -0.275 OA
ATOM      7  H   UNL     1      -1.557   5.200   1.823  1.00  0.00     0.163 HD
BRANCH   5   8
ATOM      8  C   UNL     1      -0.317   3.977  -1.095  1.00  0.00     0.098 C 
ATOM      9  C   UNL     1       0.811  -0.294  -0.442  1.00  0.00     0.039 C 
ATOM     10  C   UNL     1       0.407   1.129  -0.707  1.00  0.00    -0.076 C 
ATOM     11  C   UNL     1      -0.749   1.439  -1.322  1.00  0.00    -0.024 C 
ATOM     12  C   UNL     1       1.349   2.167  -0.160  1.00  0.00     0.044 C 
ATOM     13  C   UNL     1      -1.309   2.834  -1.437  1.00  0.00     0.022 C 
ATOM     14  C   UNL     1       1.115   3.603  -0.644  1.00  0.00     0.096 C 
ATOM     15  C   UNL     1      -2.042   3.084  -2.765  1.00  0.00     0.013 C 
BRANCH  14  16
ATOM     16  C   UNL     1       2.240   4.134  -1.567  1.00  0.00     0.228 C 
ATOM     17  O   UNL     1       2.649   5.292  -1.434  1.00  0.00    -0.274 OA
ATOM     18  N   UNL     1       2.922   3.329  -2.440  1.00  0.00    -0.324 N 
ATOM     19  H   UNL     1       3.854   3.594  -2.616  1.00  0.00     0.169 HD
BRANCH  18  20
ATOM     20  C   UNL     1       2.486   2.188  -3.116  1.00  0.00     0.059 A 
ATOM     21  C   UNL     1       1.257   2.162  -3.755  1.00  0.00     0.029 A 
ATOM     22  C   UNL     1       3.293   1.063  -3.227  1.00  0.00     0.137 A 
ATOM     23  C   UNL     1       0.817   0.991  -4.364  1.00  0.00     0.022 A 
ATOM     24  N   UNL     1       2.898  -0.095  -3.812  1.00  0.00    -0.263 NA
ATOM     25  C   UNL     1       1.654  -0.111  -4.341  1.00  0.00     0.111 A 
ENDBRANCH  18  20
ENDBRANCH  14  16
ENDBRANCH   5   8
ENDBRANCH   3   4
ENDBRANCH   2   3
ENDBRANCH   1   2
BRANCH   1  26
ATOM     26  C   UNL     1      -2.671   2.304   4.434  1.00  0.00     0.116 C 
BRANCH  26  27
ATOM     27  N   UNL     1      -2.349   0.881   4.428  1.00  0.00    -0.352 N 
ATOM     28  C   UNL     1      -2.915  -0.116   5.189  1.00  0.00     0.251 C 
ATOM     29  H   UNL     1      -1.640   0.601   3.804  1.00  0.00     0.163 HD
ATOM     30  O   UNL     1      -2.485  -1.265   5.140  1.00  0.00    -0.269 OA
BRANCH  28  31
ATOM     31  C   UNL     1      -4.026   0.232   6.099  1.00  0.00     0.039 A 
ATOM     32  C   UNL     1      -3.920  -0.088   7.454  1.00  0.00     0.014 A 
ATOM     33  C   UNL     1      -5.121   0.958   5.623  1.00  0.00     0.014 A 
ATOM     34  C   UNL     1      -4.878   0.394   8.348  1.00  0.00     0.010 A 
ATOM     35  C   UNL     1      -6.027   1.503   6.526  1.00  0.00     0.010 A 
ATOM     36  C   UNL     1      -5.915   1.229   7.898  1.00  0.00    -0.014 A 
BRANCH  36  37
ATOM     37  C   UNL     1      -6.874   1.845   8.851  1.00  0.00     0.031 A 
ATOM     38  C   UNL     1      -8.343   1.534   8.759  1.00  0.00     0.074 A 
ATOM     39  C   UNL     1      -6.433   2.757   9.742  1.00  0.00     0.049 A 
ATOM     40  N   UNL     1      -9.328   1.993   9.486  1.00  0.00    -0.248 NA
ATOM     41  C   UNL     1      -8.768   0.614   7.690  1.00  0.00     0.031 C 
ATOM     42  C   UNL     1      -5.051   3.230   9.858  1.00  0.00     0.029 A 
ATOM     43  N   UNL     1      -7.107   3.471  10.701  1.00  0.00    -0.354 N 
ATOM     44  C   UNL     1     -10.487   1.452   8.943  1.00  0.00     0.074 A 
ATOM     45  C   UNL     1     -10.088   0.659   7.801  1.00  0.00     0.031 C 
ATOM     46  C   UNL     1      -4.979   4.147  10.836  1.00  0.00     0.029 A 
ATOM     47  C   UNL     1      -6.309   4.343  11.405  1.00  0.00     0.049 A 
ATOM     48  H   UNL     1      -8.071   3.368  10.871  1.00  0.00     0.167 HD
ATOM     49  C   UNL     1     -11.764   1.574   9.374  1.00  0.00     0.034 A 
ATOM     50  C   UNL     1      -6.612   5.202  12.398  1.00  0.00     0.034 A 
ATOM     51  C   UNL     1     -12.150   2.312  10.545  1.00  0.00     0.049 A 
ATOM     52  C   UNL     1      -8.026   5.252  12.913  1.00  0.00     0.074 A 
ATOM     53  C   UNL     1     -13.400   2.401  11.132  1.00  0.00     0.029 A 
ATOM     54  N   UNL     1     -11.295   3.094  11.305  1.00  0.00    -0.354 N 
ATOM     55  N   UNL     1      -9.075   4.579  12.508  1.00  0.00    -0.248 NA
ATOM     56  C   UNL     1      -8.289   6.146  14.051  1.00  0.00     0.031 C 
ATOM     57  C   UNL     1     -13.303   3.250  12.239  1.00  0.00     0.029 A 
ATOM     58  C   UNL     1     -11.989   3.674  12.352  1.00  0.00     0.049 A 
ATOM     59  H   UNL     1     -10.335   3.217  11.127  1.00  0.00     0.167 HD
ATOM     60  C   UNL     1     -10.113   4.943  13.358  1.00  0.00     0.074 A 
ATOM     61  C   UNL     1      -9.559   5.874  14.319  1.00  0.00     0.031 C 
ATOM     62  C   UNL     1     -11.413   4.557  13.334  1.00  0.00     0.034 A 
BRANCH  49  63
ATOM     63  C   UNL     1     -12.834   0.835   8.614  1.00  0.00     0.023 A 
ATOM     64  C   UNL     1     -12.909  -0.570   8.713  1.00  0.00     0.012 A 
ATOM     65  C   UNL     1     -13.800   1.528   7.860  1.00  0.00     0.148 A 
ATOM     66  C   UNL     1     -13.910  -1.277   8.049  1.00  0.00     0.002 A 
ATOM     67  C   UNL     1     -14.821   0.820   7.236  1.00  0.00     0.091 A 
ATOM     68  F   UNL     1     -13.699   2.861   7.760  1.00  0.00    -0.205 F 
ATOM     69  C   UNL     1     -14.871  -0.582   7.321  1.00  0.00     0.022 A 
BRANCH  67  70
ATOM     70  S   UNL     1     -16.153   1.626   6.339  1.00  0.00     0.127 S 
ATOM     71  O   UNL     1     -15.837   1.265   4.958  1.00  0.00    -0.237 OA
ATOM     72  O   UNL     1     -17.337   0.964   6.887  1.00  0.00    -0.237 OA
ATOM     73  O   UNL     1     -16.048   3.044   6.654  1.00  0.00    -0.744 OA
ENDBRANCH  67  70
ENDBRANCH  49  63
BRANCH  50  74
ATOM     74  C   UNL     1      -5.541   6.027  13.026  1.00  0.00     0.023 A 
ATOM     75  C   UNL     1      -5.123   5.736  14.339  1.00  0.00     0.012 A 
ATOM     76  C   UNL     1      -4.918   7.077  12.325  1.00  0.00     0.148 A 
ATOM     77  C   UNL     1      -4.130   6.498  14.957  1.00  0.00     0.002 A 
ATOM     78  C   UNL     1      -3.890   7.797  12.926  1.00  0.00     0.091 A 
ATOM     79  F   UNL     1      -5.337   7.349  11.082  1.00  0.00    -0.205 F 
ATOM     80  C   UNL     1      -3.507   7.521  14.248  1.00  0.00     0.022 A 
BRANCH  78  81
ATOM     81  S   UNL     1      -2.943   9.037  12.037  1.00  0.00     0.127 S 
ATOM     82  O   UNL     1      -3.466  10.277  12.604  1.00  0.00    -0.237 OA
ATOM     83  O   UNL     1      -1.571   8.711  12.427  1.00  0.00    -0.237 OA
ATOM     84  O   UNL     1      -3.232   8.808  10.627  1.00  0.00    -0.744 OA
ENDBRANCH  78  81
ENDBRANCH  50  74
BRANCH  62  85
ATOM     85  C   UNL     1     -12.326   5.117  14.392  1.00  0.00     0.023 A 
ATOM     86  C   UNL     1     -12.723   6.468  14.328  1.00  0.00     0.012 A 
ATOM     87  C   UNL     1     -12.846   4.291  15.407  1.00  0.00     0.148 A 
ATOM     88  C   UNL     1     -13.594   6.996  15.280  1.00  0.00     0.002 A 
ATOM     89  C   UNL     1     -13.751   4.812  16.324  1.00  0.00     0.091 A 
ATOM     90  F   UNL     1     -12.442   3.013  15.464  1.00  0.00    -0.205 F 
ATOM     91  C   UNL     1     -14.117   6.167  16.269  1.00  0.00     0.022 A 
BRANCH  89  92
ATOM     92  S   UNL     1     -14.546   3.792  17.570  1.00  0.00     0.127 S 
ATOM     93  O   UNL     1     -13.810   4.165  18.776  1.00  0.00    -0.237 OA
ATOM     94  O   UNL     1     -15.930   4.266  17.528  1.00  0.00    -0.237 OA
ATOM     95  O   UNL     1     -14.371   2.415  17.127  1.00  0.00    -0.744 OA
ENDBRANCH  89  92
ENDBRANCH  62  85
ENDBRANCH  36  37
ENDBRANCH  28  31
ENDBRANCH  26  27
ENDBRANCH   1  26
TORSDOF 16
