REMARK SMILES O=C(NCCCCNC(=O)[C@H]1CC[C@H](CNC(=O)c2ccccc2O)O1)c1ccc(-c2c3nc(c(-c4cccc(S(=O)(=O)[O-])c4F)c4ccc([nH]4)c(-c4cccc(S(=O)(=O)[O-])c4F)c4nc(c(-c5cccc(S(=O)(=O)[O-])c5F)c5ccc2[nH]5)C=C4)C=C3)cc1
REMARK SMILES IDX 6 1 5 2 4 3 3 4 1 5 2 6 27 8 28 9 89 10 29 11 88 12 30 13
REMARK SMILES IDX 31 14 32 15 82 16 33 17 87 18 81 19 83 20 34 21 86 22 80 23
REMARK SMILES IDX 79 24 35 26 67 27 47 28 66 29 48 30 51 31 65 32 84 33 49 34
REMARK SMILES IDX 50 35 64 37 85 38 52 39 36 40 37 41 45 42 38 43 40 44 46 45
REMARK SMILES IDX 39 46 41 47 42 48 43 49 44 50 68 51 69 52 77 53 70 54 72 55
REMARK SMILES IDX 78 56 71 57 73 58 74 59 75 60 76 61 53 62 54 63 62 64 55 65
REMARK SMILES IDX 57 66 63 67 56 68 58 69 59 70 60 71 61 72 7 73 8 74 9 75
REMARK SMILES IDX 10 77 11 78 12 79 26 80 13 81 14 82 15 83 16 84 17 85 18 87
REMARK SMILES IDX 19 88 20 89 24 90 21 91 23 92 22 93 25 94
REMARK H PARENT 3 7 83 25 51 36 8 76 16 86 25 95
REMARK Flexibility Score: inf
ROOT
ATOM      1  C   UNL     1       9.919   5.559   6.035  1.00  0.00     0.023 C 
ENDROOT
BRANCH   1   2
ATOM      2  C   UNL     1      10.353   5.312   7.481  1.00  0.00     0.023 C 
BRANCH   2   3
ATOM      3  C   UNL     1      11.039   3.976   7.738  1.00  0.00     0.116 C 
BRANCH   3   4
ATOM      4  N   UNL     1      12.299   3.843   7.026  1.00  0.00    -0.352 N 
ATOM      5  O   UNL     1      14.515   3.515   6.806  1.00  0.00    -0.269 OA
ATOM      6  C   UNL     1      13.513   3.416   7.509  1.00  0.00     0.251 C 
ATOM      7  H   UNL     1      12.280   4.092   6.074  1.00  0.00     0.163 HD
BRANCH   6   8
ATOM      8  C   UNL     1      13.606   2.865   8.880  1.00  0.00     0.039 A 
ATOM      9  C   UNL     1      12.673   1.930   9.337  1.00  0.00     0.014 A 
ATOM     10  C   UNL     1      14.650   3.277   9.712  1.00  0.00     0.014 A 
ATOM     11  C   UNL     1      12.719   1.492  10.657  1.00  0.00     0.010 A 
ATOM     12  C   UNL     1      14.738   2.780  11.016  1.00  0.00     0.010 A 
ATOM     13  C   UNL     1      13.764   1.894  11.504  1.00  0.00    -0.014 A 
BRANCH  13  14
ATOM     14  C   UNL     1      13.897   1.271  12.845  1.00  0.00     0.031 A 
ATOM     15  C   UNL     1      13.757   2.074  14.108  1.00  0.00     0.074 A 
ATOM     16  C   UNL     1      14.185  -0.045  12.905  1.00  0.00     0.049 A 
ATOM     17  N   UNL     1      13.845   1.666  15.348  1.00  0.00    -0.248 NA
ATOM     18  C   UNL     1      13.494   3.515  13.969  1.00  0.00     0.031 C 
ATOM     19  C   UNL     1      14.405  -0.909  11.742  1.00  0.00     0.029 A 
ATOM     20  N   UNL     1      14.363  -0.881  13.977  1.00  0.00    -0.354 N 
ATOM     21  C   UNL     1      13.689   2.799  16.137  1.00  0.00     0.074 A 
ATOM     22  C   UNL     1      13.495   3.915  15.236  1.00  0.00     0.031 C 
ATOM     23  C   UNL     1      14.686  -2.151  12.161  1.00  0.00     0.029 A 
ATOM     24  C   UNL     1      14.714  -2.162  13.618  1.00  0.00     0.049 A 
ATOM     25  H   UNL     1      14.250  -0.594  14.912  1.00  0.00     0.167 HD
ATOM     26  C   UNL     1      13.696   2.892  17.489  1.00  0.00     0.034 A 
ATOM     27  C   UNL     1      15.053  -3.224  14.374  1.00  0.00     0.034 A 
ATOM     28  C   UNL     1      13.845   1.768  18.377  1.00  0.00     0.049 A 
ATOM     29  C   UNL     1      15.030  -3.087  15.869  1.00  0.00     0.074 A 
ATOM     30  C   UNL     1      13.744   1.747  19.758  1.00  0.00     0.029 A 
ATOM     31  N   UNL     1      14.149   0.476  17.980  1.00  0.00    -0.354 N 
ATOM     32  N   UNL     1      14.694  -2.049  16.595  1.00  0.00    -0.248 NA
ATOM     33  C   UNL     1      15.412  -4.271  16.650  1.00  0.00     0.031 C 
ATOM     34  C   UNL     1      14.017   0.448  20.198  1.00  0.00     0.029 A 
ATOM     35  C   UNL     1      14.272  -0.343  19.090  1.00  0.00     0.049 A 
ATOM     36  H   UNL     1      14.261   0.184  17.047  1.00  0.00     0.167 HD
ATOM     37  C   UNL     1      14.813  -2.457  17.916  1.00  0.00     0.074 A 
ATOM     38  C   UNL     1      15.213  -3.849  17.891  1.00  0.00     0.031 C 
ATOM     39  C   UNL     1      14.634  -1.736  19.050  1.00  0.00     0.034 A 
BRANCH  26  40
ATOM     40  C   UNL     1      13.495   4.245  18.117  1.00  0.00     0.023 A 
ATOM     41  C   UNL     1      12.200   4.796  18.179  1.00  0.00     0.012 A 
ATOM     42  C   UNL     1      14.561   4.905  18.761  1.00  0.00     0.148 A 
ATOM     43  C   UNL     1      11.969   5.988  18.865  1.00  0.00     0.002 A 
ATOM     44  C   UNL     1      14.317   6.076  19.471  1.00  0.00     0.091 A 
ATOM     45  F   UNL     1      15.787   4.370  18.677  1.00  0.00    -0.205 F 
ATOM     46  C   UNL     1      13.023   6.620  19.520  1.00  0.00     0.022 A 
BRANCH  44  47
ATOM     47  S   UNL     1      15.590   6.929  20.410  1.00  0.00     0.127 S 
ATOM     48  O   UNL     1      15.736   8.168  19.647  1.00  0.00    -0.237 OA
ATOM     49  O   UNL     1      14.952   7.090  21.717  1.00  0.00    -0.237 OA
ATOM     50  O   UNL     1      16.753   6.053  20.401  1.00  0.00    -0.744 OA
ENDBRANCH  44  47
ENDBRANCH  26  40
BRANCH  27  51
ATOM     51  C   UNL     1      15.424  -4.509  13.721  1.00  0.00     0.023 A 
ATOM     52  C   UNL     1      14.572  -5.623  13.840  1.00  0.00     0.012 A 
ATOM     53  C   UNL     1      16.599  -4.622  12.952  1.00  0.00     0.148 A 
ATOM     54  C   UNL     1      14.898  -6.834  13.228  1.00  0.00     0.002 A 
ATOM     55  C   UNL     1      16.885  -5.812  12.294  1.00  0.00     0.091 A 
ATOM     56  F   UNL     1      17.412  -3.559  12.868  1.00  0.00    -0.205 F 
ATOM     57  C   UNL     1      16.046  -6.925  12.444  1.00  0.00     0.022 A 
BRANCH  55  58
ATOM     58  S   UNL     1      18.263  -5.944  11.149  1.00  0.00     0.127 S 
ATOM     59  O   UNL     1      19.291  -6.559  11.984  1.00  0.00    -0.237 OA
ATOM     60  O   UNL     1      17.718  -6.811  10.104  1.00  0.00    -0.237 OA
ATOM     61  O   UNL     1      18.521  -4.579  10.710  1.00  0.00    -0.744 OA
ENDBRANCH  55  58
ENDBRANCH  27  51
BRANCH  39  62
ATOM     62  C   UNL     1      14.876  -2.438  20.359  1.00  0.00     0.023 A 
ATOM     63  C   UNL     1      16.199  -2.719  20.755  1.00  0.00     0.012 A 
ATOM     64  C   UNL     1      13.810  -2.762  21.220  1.00  0.00     0.148 A 
ATOM     65  C   UNL     1      16.456  -3.340  21.976  1.00  0.00     0.002 A 
ATOM     66  C   UNL     1      14.077  -3.340  22.455  1.00  0.00     0.091 A 
ATOM     67  F   UNL     1      12.559  -2.502  20.814  1.00  0.00    -0.205 F 
ATOM     68  C   UNL     1      15.397  -3.640  22.830  1.00  0.00     0.022 A 
BRANCH  66  69
ATOM     69  S   UNL     1      12.786  -3.683  23.656  1.00  0.00     0.127 S 
ATOM     70  O   UNL     1      12.702  -5.141  23.596  1.00  0.00    -0.237 OA
ATOM     71  O   UNL     1      13.364  -3.156  24.893  1.00  0.00    -0.237 OA
ATOM     72  O   UNL     1      11.605  -2.969  23.190  1.00  0.00    -0.744 OA
ENDBRANCH  66  69
ENDBRANCH  39  62
ENDBRANCH  13  14
ENDBRANCH   6   8
ENDBRANCH   3   4
ENDBRANCH   2   3
ENDBRANCH   1   2
BRANCH   1  73
ATOM     73  C   UNL     1       9.047   4.461   5.428  1.00  0.00     0.116 C 
BRANCH  73  74
ATOM     74  N   UNL     1       7.813   4.257   6.166  1.00  0.00    -0.354 N 
ATOM     75  C   UNL     1       6.528   4.498   5.756  1.00  0.00     0.249 C 
ATOM     76  H   UNL     1       7.913   3.900   7.078  1.00  0.00     0.163 HD
ATOM     77  O   UNL     1       5.602   4.245   6.526  1.00  0.00    -0.272 OA
BRANCH  75  78
ATOM     78  C   UNL     1       6.309   5.043   4.335  1.00  0.00     0.207 C 
ATOM     79  C   UNL     1       4.849   5.141   3.928  1.00  0.00     0.045 C 
ATOM     80  O   UNL     1       6.860   6.367   4.247  1.00  0.00    -0.363 OA
ATOM     81  C   UNL     1       4.499   6.568   4.270  1.00  0.00     0.037 C 
ATOM     82  C   UNL     1       5.798   7.311   4.005  1.00  0.00     0.138 C 
BRANCH  82  83
ATOM     83  C   UNL     1       5.967   7.816   2.566  1.00  0.00     0.148 C 
BRANCH  83  84
ATOM     84  N   UNL     1       5.035   8.865   2.191  1.00  0.00    -0.349 N 
ATOM     85  C   UNL     1       5.299  10.119   1.698  1.00  0.00     0.255 C 
ATOM     86  H   UNL     1       4.082   8.646   2.305  1.00  0.00     0.163 HD
ATOM     87  O   UNL     1       4.369  10.890   1.471  1.00  0.00    -0.269 OA
BRANCH  85  88
ATOM     88  C   UNL     1       6.689  10.591   1.519  1.00  0.00     0.081 A 
ATOM     89  C   UNL     1       7.047  11.771   2.186  1.00  0.00     0.018 A 
ATOM     90  C   UNL     1       7.624   9.951   0.697  1.00  0.00     0.128 A 
ATOM     91  C   UNL     1       8.342  12.277   2.073  1.00  0.00     0.001 A 
ATOM     92  C   UNL     1       8.925  10.452   0.595  1.00  0.00     0.047 A 
ATOM     93  C   UNL     1       9.282  11.611   1.287  1.00  0.00     0.004 A 
BRANCH  90  94
ATOM     94  O   UNL     1       7.278   8.836  -0.015  1.00  0.00    -0.507 OA
ATOM     95  H   UNL     1       6.409   8.492   0.047  1.00  0.00     0.293 HD
ENDBRANCH  90  94
ENDBRANCH  85  88
ENDBRANCH  83  84
ENDBRANCH  82  83
ENDBRANCH  75  78
ENDBRANCH  73  74
ENDBRANCH   1  73
TORSDOF 18
