REMARK SMILES O=C(CCCN1C(=O)/C(=C\c2ccc(O)c(O)c2)SC1=S)NCCCCNC(=O)c1ccc(-c2c3nc(c(-c4cccc(S(=O)(=O)[O-])c4F)c4ccc([nH]4)c(-c4cccc(S(=O)(=O)[O-])c4F)c4nc(c(-c5cccc(S(=O)(=O)[O-])c5F)c5ccc2[nH]5)C=C4)C=C3)cc1
REMARK SMILES IDX 23 1 22 2 1 3 2 4 3 6 4 7 5 8 6 9 7 10 20 11 8 12 9 13 19 14
REMARK SMILES IDX 21 15 10 16 11 17 12 18 18 19 13 20 16 21 14 22 17 23 15 25
REMARK SMILES IDX 24 27 25 28 26 29 27 30 28 31 29 33 30 34 31 35 92 36 32 37
REMARK SMILES IDX 91 38 33 39 34 40 35 41 85 42 36 43 90 44 84 45 86 46 37 47
REMARK SMILES IDX 89 48 83 49 82 50 38 52 70 53 50 54 69 55 51 56 54 57 68 58
REMARK SMILES IDX 87 59 52 60 53 61 67 63 88 64 55 65 39 66 40 67 48 68 41 69
REMARK SMILES IDX 43 70 49 71 42 72 44 73 45 74 46 75 47 76 71 77 72 78 80 79
REMARK SMILES IDX 73 80 75 81 81 82 74 83 76 84 77 85 78 86 79 87 56 88 57 89
REMARK SMILES IDX 65 90 58 91 60 92 66 93 59 94 61 95 62 96 63 97 64 98
REMARK H PARENT 22 5 17 24 15 26 27 32 86 51 54 62
REMARK Flexibility Score: inf
ROOT
ATOM      1  C   UNL     1       1.895  -1.185  -2.320  1.00  0.00     0.116 C 
ENDROOT
BRANCH   1   2
ATOM      2  N   UNL     1       2.499  -0.479  -1.209  1.00  0.00    -0.356 N 
ATOM      3  O   UNL     1       0.785  -0.897   0.263  1.00  0.00    -0.275 OA
ATOM      4  C   UNL     1       1.875  -0.393   0.013  1.00  0.00     0.220 C 
ATOM      5  H   UNL     1       3.377  -0.051  -1.332  1.00  0.00     0.163 HD
BRANCH   4   6
ATOM      6  C   UNL     1       2.661   0.373   1.050  1.00  0.00     0.102 C 
BRANCH   6   7
ATOM      7  C   UNL     1       3.660  -0.512   1.796  1.00  0.00     0.032 C 
BRANCH   7   8
ATOM      8  C   UNL     1       4.960  -0.855   1.048  1.00  0.00     0.128 C 
BRANCH   8   9
ATOM      9  N   UNL     1       5.717   0.248   0.436  1.00  0.00    -0.293 N 
ATOM     10  C   UNL     1       5.703   1.517   0.980  1.00  0.00     0.266 C 
ATOM     11  C   UNL     1       6.655   0.058  -0.565  1.00  0.00     0.148 C 
ATOM     12  O   UNL     1       5.258   1.810   2.085  1.00  0.00    -0.268 OA
ATOM     13  C   UNL     1       6.364   2.481   0.061  1.00  0.00     0.081 C 
ATOM     14  S   UNL     1       7.377   1.597  -1.016  1.00  0.00    -0.054 SA
ATOM     15  S   UNL     1       7.080  -1.376  -1.305  1.00  0.00    -0.052 S 
ATOM     16  C   UNL     1       6.127   3.796  -0.073  1.00  0.00     0.029 C 
BRANCH  16  17
ATOM     17  C   UNL     1       5.070   4.553   0.613  1.00  0.00    -0.020 A 
ATOM     18  C   UNL     1       4.995   4.647   2.010  1.00  0.00     0.012 A 
ATOM     19  C   UNL     1       4.091   5.186  -0.165  1.00  0.00     0.058 A 
ATOM     20  C   UNL     1       3.914   5.283   2.631  1.00  0.00     0.051 A 
ATOM     21  C   UNL     1       3.033   5.836   0.457  1.00  0.00     0.157 A 
ATOM     22  C   UNL     1       2.930   5.866   1.844  1.00  0.00     0.157 A 
BRANCH  21  23
ATOM     23  O   UNL     1       2.072   6.433  -0.309  1.00  0.00    -0.504 OA
ATOM     24  H   UNL     1       1.353   6.874   0.101  1.00  0.00     0.293 HD
ENDBRANCH  21  23
BRANCH  22  25
ATOM     25  O   UNL     1       1.834   6.474   2.392  1.00  0.00    -0.504 OA
ATOM     26  H   UNL     1       1.736   6.511   3.323  1.00  0.00     0.293 HD
ENDBRANCH  22  25
ENDBRANCH  16  17
ENDBRANCH   8   9
ENDBRANCH   7   8
ENDBRANCH   6   7
ENDBRANCH   4   6
ENDBRANCH   1   2
BRANCH   1  27
ATOM     27  C   UNL     1       2.282  -0.588  -3.671  1.00  0.00     0.023 C 
BRANCH  27  28
ATOM     28  C   UNL     1       3.774  -0.644  -4.011  1.00  0.00     0.023 C 
BRANCH  28  29
ATOM     29  C   UNL     1       4.409  -2.031  -3.980  1.00  0.00     0.116 C 
BRANCH  29  30
ATOM     30  N   UNL     1       3.821  -2.949  -4.940  1.00  0.00    -0.352 N 
ATOM     31  C   UNL     1       4.441  -3.761  -5.860  1.00  0.00     0.251 C 
ATOM     32  H   UNL     1       2.837  -2.998  -4.930  1.00  0.00     0.163 HD
ATOM     33  O   UNL     1       3.762  -4.376  -6.679  1.00  0.00    -0.269 OA
BRANCH  31  34
ATOM     34  C   UNL     1       5.919  -3.875  -5.892  1.00  0.00     0.039 A 
ATOM     35  C   UNL     1       6.568  -3.823  -7.130  1.00  0.00     0.014 A 
ATOM     36  C   UNL     1       6.665  -4.043  -4.723  1.00  0.00     0.014 A 
ATOM     37  C   UNL     1       7.964  -3.875  -7.189  1.00  0.00     0.010 A 
ATOM     38  C   UNL     1       8.059  -4.032  -4.778  1.00  0.00     0.010 A 
ATOM     39  C   UNL     1       8.724  -3.949  -6.011  1.00  0.00    -0.014 A 
BRANCH  39  40
ATOM     40  C   UNL     1      10.210  -3.914  -6.046  1.00  0.00     0.031 A 
ATOM     41  C   UNL     1      11.015  -5.098  -5.579  1.00  0.00     0.074 A 
ATOM     42  C   UNL     1      10.841  -2.781  -6.417  1.00  0.00     0.049 A 
ATOM     43  N   UNL     1      12.314  -5.228  -5.490  1.00  0.00    -0.248 NA
ATOM     44  C   UNL     1      10.263  -6.282  -5.133  1.00  0.00     0.031 C 
ATOM     45  C   UNL     1      10.179  -1.538  -6.817  1.00  0.00     0.029 A 
ATOM     46  N   UNL     1      12.179  -2.482  -6.489  1.00  0.00    -0.354 N 
ATOM     47  C   UNL     1      12.534  -6.486  -4.942  1.00  0.00     0.074 A 
ATOM     48  C   UNL     1      11.234  -7.073  -4.699  1.00  0.00     0.031 C 
ATOM     49  C   UNL     1      11.111  -0.612  -7.092  1.00  0.00     0.029 A 
ATOM     50  C   UNL     1      12.435  -1.183  -6.864  1.00  0.00     0.049 A 
ATOM     51  H   UNL     1      12.889  -3.135  -6.290  1.00  0.00     0.167 HD
ATOM     52  C   UNL     1      13.711  -7.109  -4.691  1.00  0.00     0.034 A 
ATOM     53  C   UNL     1      13.602  -0.524  -7.006  1.00  0.00     0.034 A 
ATOM     54  C   UNL     1      15.003  -6.549  -4.983  1.00  0.00     0.049 A 
ATOM     55  C   UNL     1      14.895  -1.258  -6.768  1.00  0.00     0.074 A 
ATOM     56  C   UNL     1      16.246  -7.144  -4.858  1.00  0.00     0.029 A 
ATOM     57  N   UNL     1      15.221  -5.263  -5.452  1.00  0.00    -0.354 N 
ATOM     58  N   UNL     1      15.082  -2.506  -6.416  1.00  0.00    -0.248 NA
ATOM     59  C   UNL     1      16.138  -0.502  -6.981  1.00  0.00     0.031 C 
ATOM     60  C   UNL     1      17.218  -6.212  -5.240  1.00  0.00     0.029 A 
ATOM     61  C   UNL     1      16.578  -5.042  -5.615  1.00  0.00     0.049 A 
ATOM     62  H   UNL     1      14.514  -4.604  -5.643  1.00  0.00     0.167 HD
ATOM     63  C   UNL     1      16.459  -2.696  -6.400  1.00  0.00     0.074 A 
ATOM     64  C   UNL     1      17.059  -1.439  -6.798  1.00  0.00     0.031 C 
ATOM     65  C   UNL     1      17.163  -3.807  -6.069  1.00  0.00     0.034 A 
BRANCH  52  66
ATOM     66  C   UNL     1      13.657  -8.504  -4.124  1.00  0.00     0.023 A 
ATOM     67  C   UNL     1      13.267  -9.573  -4.955  1.00  0.00     0.012 A 
ATOM     68  C   UNL     1      14.052  -8.768  -2.798  1.00  0.00     0.148 A 
ATOM     69  C   UNL     1      13.241 -10.880  -4.469  1.00  0.00     0.002 A 
ATOM     70  C   UNL     1      14.062 -10.079  -2.331  1.00  0.00     0.091 A 
ATOM     71  F   UNL     1      14.399  -7.737  -2.014  1.00  0.00    -0.205 F 
ATOM     72  C   UNL     1      13.648 -11.133  -3.162  1.00  0.00     0.022 A 
BRANCH  70  73
ATOM     73  S   UNL     1      14.640 -10.514  -0.687  1.00  0.00     0.127 S 
ATOM     74  O   UNL     1      13.384 -10.807   0.000  1.00  0.00    -0.237 OA
ATOM     75  O   UNL     1      15.477 -11.686  -0.952  1.00  0.00    -0.237 OA
ATOM     76  O   UNL     1      15.368  -9.351  -0.199  1.00  0.00    -0.744 OA
ENDBRANCH  70  73
ENDBRANCH  52  66
BRANCH  53  77
ATOM     77  C   UNL     1      13.603   0.891  -7.474  1.00  0.00     0.023 A 
ATOM     78  C   UNL     1      14.056   1.182  -8.776  1.00  0.00     0.012 A 
ATOM     79  C   UNL     1      13.133   1.939  -6.660  1.00  0.00     0.148 A 
ATOM     80  C   UNL     1      14.067   2.494  -9.249  1.00  0.00     0.002 A 
ATOM     81  C   UNL     1      13.097   3.237  -7.157  1.00  0.00     0.091 A 
ATOM     82  F   UNL     1      12.721   1.645  -5.419  1.00  0.00    -0.205 F 
ATOM     83  C   UNL     1      13.578   3.519  -8.445  1.00  0.00     0.022 A 
BRANCH  81  84
ATOM     84  S   UNL     1      12.363   4.596  -6.238  1.00  0.00     0.127 S 
ATOM     85  O   UNL     1      13.543   5.338  -5.806  1.00  0.00    -0.237 OA
ATOM     86  O   UNL     1      11.558   5.260  -7.264  1.00  0.00    -0.237 OA
ATOM     87  O   UNL     1      11.581   3.972  -5.178  1.00  0.00    -0.744 OA
ENDBRANCH  81  84
ENDBRANCH  53  77
BRANCH  65  88
ATOM     88  C   UNL     1      18.665  -3.733  -6.148  1.00  0.00     0.023 A 
ATOM     89  C   UNL     1      19.380  -3.018  -5.167  1.00  0.00     0.012 A 
ATOM     90  C   UNL     1      19.372  -4.436  -7.143  1.00  0.00     0.148 A 
ATOM     91  C   UNL     1      20.773  -2.980  -5.191  1.00  0.00     0.002 A 
ATOM     92  C   UNL     1      20.763  -4.431  -7.135  1.00  0.00     0.091 A 
ATOM     93  F   UNL     1      18.675  -5.094  -8.081  1.00  0.00    -0.205 F 
ATOM     94  C   UNL     1      21.464  -3.696  -6.166  1.00  0.00     0.022 A 
BRANCH  92  95
ATOM     95  S   UNL     1      21.733  -5.399  -8.297  1.00  0.00     0.127 S 
ATOM     96  O   UNL     1      22.205  -4.370  -9.222  1.00  0.00    -0.237 OA
ATOM     97  O   UNL     1      22.771  -5.971  -7.439  1.00  0.00    -0.237 OA
ATOM     98  O   UNL     1      20.814  -6.378  -8.863  1.00  0.00    -0.744 OA
ENDBRANCH  92  95
ENDBRANCH  65  88
ENDBRANCH  39  40
ENDBRANCH  31  34
ENDBRANCH  29  30
ENDBRANCH  28  29
ENDBRANCH  27  28
ENDBRANCH   1  27
TORSDOF 20
