REMARK SMILES CCSc1ccc(-c2cc(Cl)cc3c2O[C@H](C(F)(F)F)C(C(=O)NCCCCNC(=O)c2ccc(-c4c5nc(c(-c6cccc(S(=O)(=O)[O-])c6F)c6ccc([nH]6)c(-c6cccc(S(=O)(=O)[O-])c6F)c6nc(c(-c7cccc(S(=O)(=O)[O-])c7F)c7ccc4[nH]7)C=C6)C=C5)cc2)=C3)cc1
REMARK SMILES IDX 26 1 25 2 24 3 22 4 23 5 21 7 8 8 9 9 14 10 10 11 13 12
REMARK SMILES IDX 15 13 11 14 12 15 95 16 16 17 7 18 4 19 5 20 97 21 6 22
REMARK SMILES IDX 96 23 3 24 2 25 1 26 17 27 18 28 19 29 20 30 27 31 28 32
REMARK SMILES IDX 29 33 30 34 31 36 32 37 33 38 94 39 34 40 93 41 35 42 36 43
REMARK SMILES IDX 37 44 87 45 38 46 92 47 86 48 88 49 39 50 91 51 85 52 84 53
REMARK SMILES IDX 40 55 72 56 52 57 71 58 53 59 56 60 70 61 89 62 54 63 55 64
REMARK SMILES IDX 69 66 90 67 57 68 41 69 42 70 50 71 43 72 45 73 51 74 44 75
REMARK SMILES IDX 46 76 47 77 48 78 49 79 73 80 74 81 82 82 75 83 77 84 83 85
REMARK SMILES IDX 76 86 78 87 79 88 80 89 81 90 58 91 59 92 67 93 60 94 62 95
REMARK SMILES IDX 68 96 61 97 63 98 64 99 65 100 66 101
REMARK H PARENT 24 6 29 35 88 54 56 65
REMARK Flexibility Score: inf
ROOT
ATOM      1  C   UNL     1      15.012   2.365   2.877  1.00  0.00     0.023 C 
ENDROOT
BRANCH   1   2
ATOM      2  C   UNL     1      14.134   3.324   2.064  1.00  0.00     0.116 C 
BRANCH   2   3
ATOM      3  N   UNL     1      13.417   2.586   1.047  1.00  0.00    -0.352 N 
ATOM      4  C   UNL     1      12.111   2.661   0.706  1.00  0.00     0.251 C 
ATOM      5  O   UNL     1      11.550   1.660   0.273  1.00  0.00    -0.270 OA
ATOM      6  H   UNL     1      13.954   1.941   0.532  1.00  0.00     0.163 HD
BRANCH   4   7
ATOM      7  C   UNL     1      11.422   3.985   0.807  1.00  0.00     0.067 C 
ATOM      8  C   UNL     1       7.775   2.727  -0.453  1.00  0.00     0.026 A 
ATOM      9  C   UNL     1       7.952   1.987  -1.652  1.00  0.00     0.033 A 
ATOM     10  C   UNL     1       8.863   3.503  -0.030  1.00  0.00     0.135 A 
ATOM     11  C   UNL     1       9.086   2.113  -2.451  1.00  0.00     0.042 A 
ATOM     12  C   UNL     1       9.963   3.698  -0.903  1.00  0.00     0.019 A 
ATOM     13  O   UNL     1       8.932   4.057   1.239  1.00  0.00    -0.475 OA
ATOM     14  Cl  UNL     1       9.235   1.159  -3.872  1.00  0.00    -0.084 Cl
ATOM     15  C   UNL     1      10.074   3.018  -2.114  1.00  0.00     0.032 A 
ATOM     16  C   UNL     1      11.106   4.493  -0.402  1.00  0.00     0.025 C 
ATOM     17  C   UNL     1      10.294   3.998   1.836  1.00  0.00     0.314 C 
BRANCH   8  18
ATOM     18  C   UNL     1       6.391   2.733   0.083  1.00  0.00    -0.015 A 
ATOM     19  C   UNL     1       3.568   2.657  -0.203  1.00  0.00     0.007 A 
ATOM     20  C   UNL     1       4.286   1.486   0.033  1.00  0.00     0.015 A 
ATOM     21  C   UNL     1       4.250   3.878  -0.145  1.00  0.00     0.015 A 
ATOM     22  C   UNL     1       5.677   1.526   0.209  1.00  0.00     0.010 A 
ATOM     23  C   UNL     1       5.644   3.919   0.014  1.00  0.00     0.010 A 
BRANCH  19  24
ATOM     24  S   UNL     1       1.901   2.657  -0.857  1.00  0.00    -0.126 SA
BRANCH  24  25
ATOM     25  C   UNL     1       0.966   1.659   0.343  1.00  0.00     0.071 C 
ATOM     26  C   UNL     1       0.920   0.180  -0.004  1.00  0.00     0.016 C 
ENDBRANCH  24  25
ENDBRANCH  19  24
ENDBRANCH   8  18
BRANCH  17  27
ATOM     27  C   UNL     1      10.523   5.168   2.816  1.00  0.00     0.429 C 
ATOM     28  F   UNL     1       9.642   6.179   2.637  1.00  0.00    -0.167 F 
ATOM     29  F   UNL     1      10.415   4.759   4.104  1.00  0.00    -0.167 F 
ATOM     30  F   UNL     1      11.762   5.714   2.697  1.00  0.00    -0.167 F 
ENDBRANCH  17  27
ENDBRANCH   4   7
ENDBRANCH   2   3
ENDBRANCH   1   2
BRANCH   1  31
ATOM     31  C   UNL     1      16.097   1.634   2.073  1.00  0.00     0.023 C 
BRANCH  31  32
ATOM     32  C   UNL     1      17.055   2.544   1.312  1.00  0.00     0.116 C 
BRANCH  32  33
ATOM     33  N   UNL     1      17.848   3.371   2.210  1.00  0.00    -0.352 N 
ATOM     34  C   UNL     1      19.213   3.433   2.351  1.00  0.00     0.251 C 
ATOM     35  H   UNL     1      17.334   3.970   2.799  1.00  0.00     0.163 HD
ATOM     36  O   UNL     1      19.706   4.047   3.296  1.00  0.00    -0.269 OA
BRANCH  34  37
ATOM     37  C   UNL     1      20.085   2.737   1.381  1.00  0.00     0.039 A 
ATOM     38  C   UNL     1      21.110   1.916   1.858  1.00  0.00     0.014 A 
ATOM     39  C   UNL     1      19.875   2.875   0.006  1.00  0.00     0.014 A 
ATOM     40  C   UNL     1      21.868   1.163   0.957  1.00  0.00     0.010 A 
ATOM     41  C   UNL     1      20.589   2.075  -0.884  1.00  0.00     0.010 A 
ATOM     42  C   UNL     1      21.581   1.199  -0.418  1.00  0.00    -0.014 A 
BRANCH  42  43
ATOM     43  C   UNL     1      22.251   0.279  -1.374  1.00  0.00     0.031 A 
ATOM     44  C   UNL     1      23.095   0.818  -2.497  1.00  0.00     0.074 A 
ATOM     45  C   UNL     1      21.991  -1.044  -1.304  1.00  0.00     0.049 A 
ATOM     46  N   UNL     1      23.671   0.170  -3.475  1.00  0.00    -0.248 NA
ATOM     47  C   UNL     1      23.298   2.275  -2.541  1.00  0.00     0.031 C 
ATOM     48  C   UNL     1      21.116  -1.681  -0.317  1.00  0.00     0.029 A 
ATOM     49  N   UNL     1      22.398  -2.084  -2.104  1.00  0.00    -0.354 N 
ATOM     50  C   UNL     1      24.265   1.137  -4.276  1.00  0.00     0.074 A 
ATOM     51  C   UNL     1      23.972   2.420  -3.675  1.00  0.00     0.031 C 
ATOM     52  C   UNL     1      21.038  -2.995  -0.580  1.00  0.00     0.029 A 
ATOM     53  C   UNL     1      21.825  -3.291  -1.772  1.00  0.00     0.049 A 
ATOM     54  H   UNL     1      23.038  -1.977  -2.844  1.00  0.00     0.167 HD
ATOM     55  C   UNL     1      25.004   0.969  -5.399  1.00  0.00     0.034 A 
ATOM     56  C   UNL     1      21.898  -4.495  -2.373  1.00  0.00     0.034 A 
ATOM     57  C   UNL     1      25.337  -0.310  -5.964  1.00  0.00     0.049 A 
ATOM     58  C   UNL     1      22.756  -4.654  -3.599  1.00  0.00     0.074 A 
ATOM     59  C   UNL     1      26.195  -0.585  -7.015  1.00  0.00     0.029 A 
ATOM     60  N   UNL     1      24.815  -1.523  -5.546  1.00  0.00    -0.354 N 
ATOM     61  N   UNL     1      23.482  -3.755  -4.217  1.00  0.00    -0.248 NA
ATOM     62  C   UNL     1      22.826  -5.996  -4.196  1.00  0.00     0.031 C 
ATOM     63  C   UNL     1      26.161  -1.962  -7.258  1.00  0.00     0.029 A 
ATOM     64  C   UNL     1      25.304  -2.546  -6.340  1.00  0.00     0.049 A 
ATOM     65  H   UNL     1      24.188  -1.640  -4.796  1.00  0.00     0.167 HD
ATOM     66  C   UNL     1      24.111  -4.426  -5.260  1.00  0.00     0.074 A 
ATOM     67  C   UNL     1      23.706  -5.813  -5.171  1.00  0.00     0.031 C 
ATOM     68  C   UNL     1      24.932  -3.932  -6.218  1.00  0.00     0.034 A 
BRANCH  55  69
ATOM     69  C   UNL     1      25.551   2.195  -6.080  1.00  0.00     0.023 A 
ATOM     70  C   UNL     1      26.632   2.890  -5.502  1.00  0.00     0.012 A 
ATOM     71  C   UNL     1      25.065   2.594  -7.341  1.00  0.00     0.148 A 
ATOM     72  C   UNL     1      27.209   3.976  -6.159  1.00  0.00     0.002 A 
ATOM     73  C   UNL     1      25.672   3.651  -8.009  1.00  0.00     0.091 A 
ATOM     74  F   UNL     1      24.024   1.929  -7.864  1.00  0.00    -0.205 F 
ATOM     75  C   UNL     1      26.737   4.348  -7.416  1.00  0.00     0.022 A 
BRANCH  73  76
ATOM     76  S   UNL     1      25.192   4.159  -9.664  1.00  0.00     0.127 S 
ATOM     77  O   UNL     1      24.599   5.471  -9.409  1.00  0.00    -0.237 OA
ATOM     78  O   UNL     1      26.480   4.197 -10.358  1.00  0.00    -0.237 OA
ATOM     79  O   UNL     1      24.269   3.142 -10.146  1.00  0.00    -0.744 OA
ENDBRANCH  73  76
ENDBRANCH  55  69
BRANCH  56  80
ATOM     80  C   UNL     1      21.153  -5.658  -1.810  1.00  0.00     0.023 A 
ATOM     81  C   UNL     1      21.865  -6.723  -1.225  1.00  0.00     0.012 A 
ATOM     82  C   UNL     1      19.746  -5.707  -1.838  1.00  0.00     0.148 A 
ATOM     83  C   UNL     1      21.190  -7.831  -0.711  1.00  0.00     0.002 A 
ATOM     84  C   UNL     1      19.078  -6.786  -1.271  1.00  0.00     0.091 A 
ATOM     85  F   UNL     1      19.085  -4.693  -2.415  1.00  0.00    -0.205 F 
ATOM     86  C   UNL     1      19.798  -7.858  -0.724  1.00  0.00     0.022 A 
BRANCH  84  87
ATOM     87  S   UNL     1      17.289  -6.830  -1.121  1.00  0.00     0.127 S 
ATOM     88  O   UNL     1      16.924  -7.787  -2.162  1.00  0.00    -0.237 OA
ATOM     89  O   UNL     1      17.110  -7.311   0.250  1.00  0.00    -0.237 OA
ATOM     90  O   UNL     1      16.848  -5.457  -1.331  1.00  0.00    -0.744 OA
ENDBRANCH  84  87
ENDBRANCH  56  80
BRANCH  68  91
ATOM     91  C   UNL     1      25.464  -4.890  -7.251  1.00  0.00     0.023 A 
ATOM     92  C   UNL     1      24.605  -5.376  -8.256  1.00  0.00     0.012 A 
ATOM     93  C   UNL     1      26.830  -5.237  -7.280  1.00  0.00     0.148 A 
ATOM     94  C   UNL     1      25.090  -6.212  -9.261  1.00  0.00     0.002 A 
ATOM     95  C   UNL     1      27.316  -6.031  -8.312  1.00  0.00     0.091 A 
ATOM     96  F   UNL     1      27.627  -4.775  -6.306  1.00  0.00    -0.205 F 
ATOM     97  C   UNL     1      26.446  -6.528  -9.296  1.00  0.00     0.022 A 
BRANCH  95  98
ATOM     98  S   UNL     1      29.061  -6.417  -8.496  1.00  0.00     0.127 S 
ATOM     99  O   UNL     1      29.079  -7.853  -8.222  1.00  0.00    -0.237 OA
ATOM    100  O   UNL     1      29.310  -6.059  -9.893  1.00  0.00    -0.237 OA
ATOM    101  O   UNL     1      29.763  -5.591  -7.523  1.00  0.00    -0.744 OA
ENDBRANCH  95  98
ENDBRANCH  68  91
ENDBRANCH  42  43
ENDBRANCH  34  37
ENDBRANCH  32  33
ENDBRANCH  31  32
ENDBRANCH   1  31
TORSDOF 18
