REMARK SMILES COc1cccc([C@@H]2CN(C(=O)c3cnn(C)c3)C[C@H]2C(=O)NCCCCNC(=O)c2ccc(-c3c4nc(c(-c5cccc(S(=O)(=O)[O-])c5F)c5ccc([nH]5)c(-c5cccc(S(=O)(=O)[O-])c5F)c5nc(c(-c6cccc(S(=O)(=O)[O-])c6F)c6ccc3[nH]6)C=C5)C=C4)cc2)c1OC
REMARK SMILES IDX 26 1 25 2 24 3 23 4 21 5 22 6 20 8 8 9 9 10 10 11 19 12 7 13
REMARK SMILES IDX 3 14 4 15 94 16 5 17 6 18 2 19 1 20 95 21 96 22 11 23 12 24
REMARK SMILES IDX 13 25 14 26 18 27 15 28 16 29 17 30 27 31 28 32 29 33 30 35
REMARK SMILES IDX 31 36 32 37 93 38 33 39 92 40 34 41 35 42 36 43 86 44 37 45
REMARK SMILES IDX 91 46 85 47 87 48 38 49 90 50 84 51 83 52 39 54 71 55 51 56
REMARK SMILES IDX 70 57 52 58 55 59 69 60 88 61 53 62 54 63 68 65 89 66 56 67
REMARK SMILES IDX 40 68 41 69 49 70 42 71 44 72 50 73 43 74 45 75 46 76 47 77
REMARK SMILES IDX 48 78 72 79 73 80 81 81 74 82 76 83 82 84 75 85 77 86 78 87
REMARK SMILES IDX 79 88 80 89 57 90 58 91 66 92 59 93 61 94 67 95 60 96 62 97
REMARK SMILES IDX 63 98 64 99 65 100
REMARK H PARENT 23 7 28 34 87 53 55 64
REMARK Flexibility Score: inf
ROOT
ATOM      1  C   UNL     1       4.333  -1.467  -8.987  1.00  0.00     0.023 C 
ENDROOT
BRANCH   1   2
ATOM      2  C   UNL     1       4.686  -2.080  -7.632  1.00  0.00     0.023 C 
BRANCH   2   3
ATOM      3  C   UNL     1       5.567  -1.214  -6.735  1.00  0.00     0.116 C 
BRANCH   3   4
ATOM      4  N   UNL     1       4.882  -0.029  -6.253  1.00  0.00    -0.356 N 
ATOM      5  C   UNL     1       4.520   0.358  -5.001  1.00  0.00     0.225 C 
ATOM      6  O   UNL     1       4.010   1.476  -4.881  1.00  0.00    -0.275 OA
ATOM      7  H   UNL     1       4.635   0.610  -6.960  1.00  0.00     0.163 HD
BRANCH   5   8
ATOM      8  C   UNL     1       4.709  -0.515  -3.771  1.00  0.00     0.107 C 
ATOM      9  C   UNL     1       3.932  -1.843  -3.834  1.00  0.00     0.057 C 
ATOM     10  C   UNL     1       4.870  -2.875  -3.204  1.00  0.00     0.129 C 
ATOM     11  N   UNL     1       6.206  -2.336  -3.407  1.00  0.00    -0.337 N 
ATOM     12  C   UNL     1       6.165  -0.886  -3.509  1.00  0.00     0.134 C 
BRANCH   9  13
ATOM     13  C   UNL     1       2.534  -1.806  -3.244  1.00  0.00     0.004 A 
ATOM     14  C   UNL     1       0.946  -1.452  -1.431  1.00  0.00     0.161 A 
ATOM     15  C   UNL     1      -0.112  -1.748  -2.298  1.00  0.00     0.050 A 
ATOM     16  C   UNL     1       2.275  -1.498  -1.890  1.00  0.00     0.164 A 
ATOM     17  C   UNL     1       0.139  -2.043  -3.634  1.00  0.00     0.004 A 
ATOM     18  C   UNL     1       1.449  -2.063  -4.104  1.00  0.00     0.008 A 
BRANCH  14  19
ATOM     19  O   UNL     1       0.677  -1.196  -0.110  1.00  0.00    -0.493 OA
ATOM     20  C   UNL     1      -0.171  -0.056   0.043  1.00  0.00     0.278 C 
ENDBRANCH  14  19
BRANCH  16  21
ATOM     21  O   UNL     1       3.384  -1.316  -1.103  1.00  0.00    -0.493 OA
ATOM     22  C   UNL     1       3.296  -0.320  -0.093  1.00  0.00     0.278 C 
ENDBRANCH  16  21
ENDBRANCH   9  13
BRANCH  11  23
ATOM     23  C   UNL     1       7.416  -2.986  -3.233  1.00  0.00     0.257 C 
ATOM     24  O   UNL     1       8.473  -2.360  -3.136  1.00  0.00    -0.269 OA
BRANCH  23  25
ATOM     25  C   UNL     1       7.414  -4.433  -3.140  1.00  0.00     0.077 A 
ATOM     26  C   UNL     1       8.190  -5.229  -2.267  1.00  0.00     0.149 A 
ATOM     27  C   UNL     1       6.749  -5.360  -3.921  1.00  0.00     0.122 A 
ATOM     28  N   UNL     1       7.962  -6.538  -2.415  1.00  0.00    -0.181 NA
ATOM     29  N   UNL     1       7.078  -6.588  -3.426  1.00  0.00    -0.275 N 
ATOM     30  C   UNL     1       6.568  -7.863  -3.867  1.00  0.00     0.173 C 
ENDBRANCH  23  25
ENDBRANCH  11  23
ENDBRANCH   5   8
ENDBRANCH   3   4
ENDBRANCH   2   3
ENDBRANCH   1   2
BRANCH   1  31
ATOM     31  C   UNL     1       5.517  -1.004  -9.832  1.00  0.00     0.116 C 
BRANCH  31  32
ATOM     32  N   UNL     1       6.518  -2.042 -10.046  1.00  0.00    -0.352 N 
ATOM     33  C   UNL     1       7.203  -2.351 -11.197  1.00  0.00     0.251 C 
ATOM     34  H   UNL     1       6.732  -2.595  -9.260  1.00  0.00     0.163 HD
ATOM     35  O   UNL     1       7.950  -3.324 -11.232  1.00  0.00    -0.269 OA
BRANCH  33  36
ATOM     36  C   UNL     1       6.993  -1.527 -12.405  1.00  0.00     0.039 A 
ATOM     37  C   UNL     1       6.618  -2.157 -13.594  1.00  0.00     0.014 A 
ATOM     38  C   UNL     1       7.099  -0.135 -12.339  1.00  0.00     0.014 A 
ATOM     39  C   UNL     1       6.248  -1.383 -14.695  1.00  0.00     0.010 A 
ATOM     40  C   UNL     1       6.681   0.634 -13.421  1.00  0.00     0.010 A 
ATOM     41  C   UNL     1       6.229   0.017 -14.597  1.00  0.00    -0.014 A 
BRANCH  41  42
ATOM     42  C   UNL     1       5.663   0.863 -15.676  1.00  0.00     0.031 A 
ATOM     43  C   UNL     1       6.541   1.815 -16.433  1.00  0.00     0.074 A 
ATOM     44  C   UNL     1       4.330   0.866 -15.873  1.00  0.00     0.049 A 
ATOM     45  N   UNL     1       6.203   2.714 -17.320  1.00  0.00    -0.248 NA
ATOM     46  C   UNL     1       7.982   1.767 -16.140  1.00  0.00     0.031 C 
ATOM     47  C   UNL     1       3.366   0.040 -15.141  1.00  0.00     0.029 A 
ATOM     48  N   UNL     1       3.550   1.616 -16.717  1.00  0.00    -0.354 N 
ATOM     49  C   UNL     1       7.380   3.365 -17.665  1.00  0.00     0.074 A 
ATOM     50  C   UNL     1       8.440   2.768 -16.881  1.00  0.00     0.031 C 
ATOM     51  C   UNL     1       2.125   0.337 -15.559  1.00  0.00     0.029 A 
ATOM     52  C   UNL     1       2.201   1.390 -16.567  1.00  0.00     0.049 A 
ATOM     53  H   UNL     1       3.920   2.255 -17.368  1.00  0.00     0.167 HD
ATOM     54  C   UNL     1       7.564   4.349 -18.575  1.00  0.00     0.034 A 
ATOM     55  C   UNL     1       1.143   1.975 -17.162  1.00  0.00     0.034 A 
ATOM     56  C   UNL     1       6.521   4.893 -19.400  1.00  0.00     0.049 A 
ATOM     57  C   UNL     1       1.379   3.050 -18.184  1.00  0.00     0.074 A 
ATOM     58  C   UNL     1       6.631   5.794 -20.444  1.00  0.00     0.029 A 
ATOM     59  N   UNL     1       5.175   4.593 -19.269  1.00  0.00    -0.354 N 
ATOM     60  N   UNL     1       2.517   3.527 -18.627  1.00  0.00    -0.248 NA
ATOM     61  C   UNL     1       0.191   3.655 -18.804  1.00  0.00     0.031 C 
ATOM     62  C   UNL     1       5.347   6.041 -20.944  1.00  0.00     0.029 A 
ATOM     63  C   UNL     1       4.439   5.302 -20.202  1.00  0.00     0.049 A 
ATOM     64  H   UNL     1       4.797   3.968 -18.609  1.00  0.00     0.167 HD
ATOM     65  C   UNL     1       2.185   4.474 -19.587  1.00  0.00     0.074 A 
ATOM     66  C   UNL     1       0.739   4.489 -19.679  1.00  0.00     0.031 C 
ATOM     67  C   UNL     1       3.004   5.275 -20.312  1.00  0.00     0.034 A 
BRANCH  54  68
ATOM     68  C   UNL     1       8.967   4.842 -18.786  1.00  0.00     0.023 A 
ATOM     69  C   UNL     1       9.850   4.073 -19.570  1.00  0.00     0.012 A 
ATOM     70  C   UNL     1       9.400   6.073 -18.259  1.00  0.00     0.148 A 
ATOM     71  C   UNL     1      11.149   4.513 -19.813  1.00  0.00     0.002 A 
ATOM     72  C   UNL     1      10.690   6.518 -18.527  1.00  0.00     0.091 A 
ATOM     73  F   UNL     1       8.557   6.774 -17.485  1.00  0.00    -0.205 F 
ATOM     74  C   UNL     1      11.566   5.739 -19.300  1.00  0.00     0.022 A 
BRANCH  72  75
ATOM     75  S   UNL     1      11.285   8.110 -17.944  1.00  0.00     0.127 S 
ATOM     76  O   UNL     1      12.000   7.731 -16.727  1.00  0.00    -0.237 OA
ATOM     77  O   UNL     1      12.146   8.550 -19.043  1.00  0.00    -0.237 OA
ATOM     78  O   UNL     1      10.092   8.924 -17.754  1.00  0.00    -0.744 OA
ENDBRANCH  72  75
ENDBRANCH  54  68
BRANCH  55  79
ATOM     79  C   UNL     1      -0.233   1.500 -16.848  1.00  0.00     0.023 A 
ATOM     80  C   UNL     1      -0.920   0.724 -17.801  1.00  0.00     0.012 A 
ATOM     81  C   UNL     1      -0.839   1.754 -15.604  1.00  0.00     0.148 A 
ATOM     82  C   UNL     1      -2.191   0.220 -17.524  1.00  0.00     0.002 A 
ATOM     83  C   UNL     1      -2.086   1.210 -15.316  1.00  0.00     0.091 A 
ATOM     84  F   UNL     1      -0.182   2.515 -14.715  1.00  0.00    -0.205 F 
ATOM     85  C   UNL     1      -2.769   0.451 -16.278  1.00  0.00     0.022 A 
BRANCH  83  86
ATOM     86  S   UNL     1      -2.812   1.358 -13.679  1.00  0.00     0.127 S 
ATOM     87  O   UNL     1      -3.636   2.555 -13.819  1.00  0.00    -0.237 OA
ATOM     88  O   UNL     1      -3.562   0.107 -13.548  1.00  0.00    -0.237 OA
ATOM     89  O   UNL     1      -1.672   1.458 -12.776  1.00  0.00    -0.744 OA
ENDBRANCH  83  86
ENDBRANCH  55  79
BRANCH  67  90
ATOM     90  C   UNL     1       2.362   6.246 -21.262  1.00  0.00     0.023 A 
ATOM     91  C   UNL     1       1.821   7.442 -20.752  1.00  0.00     0.012 A 
ATOM     92  C   UNL     1       2.369   6.023 -22.652  1.00  0.00     0.148 A 
ATOM     93  C   UNL     1       1.284   8.399 -21.612  1.00  0.00     0.002 A 
ATOM     94  C   UNL     1       1.861   6.996 -23.506  1.00  0.00     0.091 A 
ATOM     95  F   UNL     1       2.866   4.867 -23.114  1.00  0.00    -0.205 F 
ATOM     96  C   UNL     1       1.314   8.182 -22.988  1.00  0.00     0.022 A 
BRANCH  94  97
ATOM     97  S   UNL     1       1.934   6.825 -25.293  1.00  0.00     0.127 S 
ATOM     98  O   UNL     1       0.575   6.388 -25.608  1.00  0.00    -0.237 OA
ATOM     99  O   UNL     1       2.253   8.185 -25.730  1.00  0.00    -0.237 OA
ATOM    100  O   UNL     1       2.987   5.852 -25.551  1.00  0.00    -0.744 OA
ENDBRANCH  94  97
ENDBRANCH  67  90
ENDBRANCH  41  42
ENDBRANCH  33  36
ENDBRANCH  31  32
ENDBRANCH   1  31
TORSDOF 19
