REMARK SMILES COc1c(N)cc(-c2ccccc2)cc1C(=O)NCCCCNC(=O)c1ccc(-c2c3nc(c(-c4cccc(S(=O)(=O)[O-])c4F)c4ccc([nH]4)c(-c4cccc(S(=O)(=O)[O-])c4F)c4nc(c(-c5cccc(S(=O)(=O)[O-])c5F)c5ccc2[nH]5)C=C4)C=C3)cc1
REMARK SMILES IDX 21 1 20 2 19 3 18 4 16 5 17 6 15 8 3 9 4 10 6 11 14 12 7 13
REMARK SMILES IDX 2 14 1 15 5 16 8 19 9 20 13 21 10 22 12 23 11 24 22 25 23 26
REMARK SMILES IDX 24 27 25 29 26 30 27 31 88 32 28 33 87 34 29 35 30 36 31 37
REMARK SMILES IDX 81 38 32 39 86 40 80 41 82 42 33 43 85 44 79 45 78 46 34 48
REMARK SMILES IDX 66 49 46 50 65 51 47 52 50 53 64 54 83 55 48 56 49 57 63 59
REMARK SMILES IDX 84 60 51 61 35 62 36 63 44 64 37 65 39 66 45 67 38 68 40 69
REMARK SMILES IDX 41 70 42 71 43 72 67 73 68 74 76 75 69 76 71 77 77 78 70 79
REMARK SMILES IDX 72 80 73 81 74 82 75 83 52 84 53 85 61 86 54 87 56 88 62 89
REMARK SMILES IDX 55 90 57 91 58 92 59 93 60 94
REMARK H PARENT 18 7 5 17 5 18 23 28 82 47 50 58
REMARK Flexibility Score: inf
ROOT
ATOM      1  C   UNL     1      -2.383   0.878   1.425  1.00  0.00     0.023 C 
ENDROOT
BRANCH   1   2
ATOM      2  C   UNL     1      -1.140   0.061   1.087  1.00  0.00     0.023 C 
BRANCH   2   3
ATOM      3  C   UNL     1      -1.158  -1.389   1.578  1.00  0.00     0.116 C 
BRANCH   3   4
ATOM      4  N   UNL     1      -1.774  -2.223   0.572  1.00  0.00    -0.352 N 
ATOM      5  C   UNL     1      -1.278  -2.878  -0.522  1.00  0.00     0.255 C 
ATOM      6  O   UNL     1      -2.126  -3.360  -1.281  1.00  0.00    -0.269 OA
ATOM      7  H   UNL     1      -2.742  -2.344   0.699  1.00  0.00     0.163 HD
BRANCH   5   8
ATOM      8  C   UNL     1       0.165  -3.140  -0.828  1.00  0.00     0.084 A 
ATOM      9  C   UNL     1       1.302  -2.371  -0.536  1.00  0.00     0.154 A 
ATOM     10  C   UNL     1       2.601  -2.863  -0.816  1.00  0.00     0.076 A 
ATOM     11  C   UNL     1       2.744  -4.006  -1.601  1.00  0.00     0.038 A 
ATOM     12  C   UNL     1       0.365  -4.321  -1.580  1.00  0.00     0.026 A 
ATOM     13  C   UNL     1       1.631  -4.744  -2.012  1.00  0.00    -0.015 A 
BRANCH   9  14
ATOM     14  O   UNL     1       1.232  -1.129   0.042  1.00  0.00    -0.494 OA
ATOM     15  C   UNL     1       1.422  -0.099  -0.936  1.00  0.00     0.278 C 
ENDBRANCH   9  14
BRANCH  10  16
ATOM     16  N   UNL     1       3.741  -2.136  -0.459  1.00  0.00    -0.396 N 
ATOM     17  H   UNL     1       3.656  -1.327   0.095  1.00  0.00     0.156 HD
ATOM     18  H   UNL     1       4.630  -2.434  -0.762  1.00  0.00     0.156 HD
ENDBRANCH  10  16
BRANCH  13  19
ATOM     19  C   UNL     1       1.782  -5.913  -2.890  1.00  0.00    -0.018 A 
ATOM     20  C   UNL     1       2.625  -6.978  -2.539  1.00  0.00     0.009 A 
ATOM     21  C   UNL     1       1.104  -5.979  -4.119  1.00  0.00     0.009 A 
ATOM     22  C   UNL     1       2.792  -8.072  -3.392  1.00  0.00     0.001 A 
ATOM     23  C   UNL     1       1.272  -7.071  -4.974  1.00  0.00     0.001 A 
ATOM     24  C   UNL     1       2.119  -8.115  -4.611  1.00  0.00     0.000 A 
ENDBRANCH  13  19
ENDBRANCH   5   8
ENDBRANCH   3   4
ENDBRANCH   2   3
ENDBRANCH   1   2
BRANCH   1  25
ATOM     25  C   UNL     1      -2.542   1.190   2.905  1.00  0.00     0.116 C 
BRANCH  25  26
ATOM     26  N   UNL     1      -1.395   1.884   3.481  1.00  0.00    -0.352 N 
ATOM     27  C   UNL     1      -1.380   2.765   4.535  1.00  0.00     0.251 C 
ATOM     28  H   UNL     1      -0.524   1.698   3.062  1.00  0.00     0.163 HD
ATOM     29  O   UNL     1      -0.342   3.334   4.860  1.00  0.00    -0.269 OA
BRANCH  27  30
ATOM     30  C   UNL     1      -2.647   3.051   5.234  1.00  0.00     0.039 A 
ATOM     31  C   UNL     1      -3.047   4.379   5.388  1.00  0.00     0.014 A 
ATOM     32  C   UNL     1      -3.470   2.003   5.651  1.00  0.00     0.014 A 
ATOM     33  C   UNL     1      -4.317   4.655   5.896  1.00  0.00     0.010 A 
ATOM     34  C   UNL     1      -4.763   2.278   6.075  1.00  0.00     0.010 A 
ATOM     35  C   UNL     1      -5.197   3.605   6.205  1.00  0.00    -0.014 A 
BRANCH  35  36
ATOM     36  C   UNL     1      -6.585   3.867   6.654  1.00  0.00     0.031 A 
ATOM     37  C   UNL     1      -7.026   3.424   8.020  1.00  0.00     0.074 A 
ATOM     38  C   UNL     1      -7.471   4.403   5.793  1.00  0.00     0.049 A 
ATOM     39  N   UNL     1      -8.208   3.508   8.572  1.00  0.00    -0.248 NA
ATOM     40  C   UNL     1      -6.016   2.764   8.865  1.00  0.00     0.031 C 
ATOM     41  C   UNL     1      -7.183   4.784   4.408  1.00  0.00     0.029 A 
ATOM     42  N   UNL     1      -8.801   4.699   5.948  1.00  0.00    -0.354 N 
ATOM     43  C   UNL     1      -8.095   2.877   9.803  1.00  0.00     0.074 A 
ATOM     44  C   UNL     1      -6.742   2.378   9.903  1.00  0.00     0.031 C 
ATOM     45  C   UNL     1      -8.298   5.278   3.847  1.00  0.00     0.029 A 
ATOM     46  C   UNL     1      -9.383   5.229   4.821  1.00  0.00     0.049 A 
ATOM     47  H   UNL     1      -9.292   4.546   6.788  1.00  0.00     0.167 HD
ATOM     48  C   UNL     1      -9.023   2.756  10.782  1.00  0.00     0.034 A 
ATOM     49  C   UNL     1     -10.648   5.638   4.603  1.00  0.00     0.034 A 
ATOM     50  C   UNL     1     -10.345   3.312  10.702  1.00  0.00     0.049 A 
ATOM     51  C   UNL     1     -11.643   5.558   5.729  1.00  0.00     0.074 A 
ATOM     52  C   UNL     1     -11.325   3.349  11.678  1.00  0.00     0.029 A 
ATOM     53  N   UNL     1     -10.873   3.931   9.579  1.00  0.00    -0.354 N 
ATOM     54  N   UNL     1     -11.469   5.119   6.953  1.00  0.00    -0.248 NA
ATOM     55  C   UNL     1     -12.996   6.063   5.458  1.00  0.00     0.031 C 
ATOM     56  C   UNL     1     -12.450   3.984  11.140  1.00  0.00     0.029 A 
ATOM     57  C   UNL     1     -12.167   4.350   9.833  1.00  0.00     0.049 A 
ATOM     58  H   UNL     1     -10.397   4.054   8.726  1.00  0.00     0.167 HD
ATOM     59  C   UNL     1     -12.677   5.325   7.608  1.00  0.00     0.074 A 
ATOM     60  C   UNL     1     -13.570   5.945   6.649  1.00  0.00     0.031 C 
ATOM     61  C   UNL     1     -13.022   5.015   8.882  1.00  0.00     0.034 A 
BRANCH  48  62
ATOM     62  C   UNL     1      -8.605   2.053  12.046  1.00  0.00     0.023 A 
ATOM     63  C   UNL     1      -7.699   2.686  12.922  1.00  0.00     0.012 A 
ATOM     64  C   UNL     1      -9.113   0.783  12.379  1.00  0.00     0.148 A 
ATOM     65  C   UNL     1      -7.270   2.050  14.085  1.00  0.00     0.002 A 
ATOM     66  C   UNL     1      -8.714   0.173  13.564  1.00  0.00     0.091 A 
ATOM     67  F   UNL     1      -9.951   0.180  11.523  1.00  0.00    -0.205 F 
ATOM     68  C   UNL     1      -7.784   0.798  14.411  1.00  0.00     0.022 A 
BRANCH  66  69
ATOM     69  S   UNL     1      -9.383  -1.407  14.096  1.00  0.00     0.127 S 
ATOM     70  O   UNL     1      -8.318  -2.328  13.705  1.00  0.00    -0.237 OA
ATOM     71  O   UNL     1      -9.523  -1.218  15.541  1.00  0.00    -0.237 OA
ATOM     72  O   UNL     1     -10.646  -1.557  13.386  1.00  0.00    -0.744 OA
ENDBRANCH  66  69
ENDBRANCH  48  62
BRANCH  49  73
ATOM     73  C   UNL     1     -11.007   6.263   3.300  1.00  0.00     0.023 A 
ATOM     74  C   UNL     1     -11.216   7.655   3.247  1.00  0.00     0.012 A 
ATOM     75  C   UNL     1     -11.085   5.511   2.112  1.00  0.00     0.148 A 
ATOM     76  C   UNL     1     -11.517   8.286   2.040  1.00  0.00     0.002 A 
ATOM     77  C   UNL     1     -11.338   6.153   0.904  1.00  0.00     0.091 A 
ATOM     78  F   UNL     1     -10.889   4.187   2.185  1.00  0.00    -0.205 F 
ATOM     79  C   UNL     1     -11.568   7.537   0.868  1.00  0.00     0.022 A 
BRANCH  77  80
ATOM     80  S   UNL     1     -11.300   5.295  -0.675  1.00  0.00     0.127 S 
ATOM     81  O   UNL     1     -12.707   5.330  -1.067  1.00  0.00    -0.237 OA
ATOM     82  O   UNL     1     -10.418   6.155  -1.464  1.00  0.00    -0.237 OA
ATOM     83  O   UNL     1     -10.756   3.974  -0.392  1.00  0.00    -0.744 OA
ENDBRANCH  77  80
ENDBRANCH  49  73
BRANCH  61  84
ATOM     84  C   UNL     1     -14.418   5.358   9.329  1.00  0.00     0.023 A 
ATOM     85  C   UNL     1     -15.502   4.577   8.882  1.00  0.00     0.012 A 
ATOM     86  C   UNL     1     -14.646   6.396  10.253  1.00  0.00     0.148 A 
ATOM     87  C   UNL     1     -16.795   4.840   9.330  1.00  0.00     0.002 A 
ATOM     88  C   UNL     1     -15.931   6.624  10.729  1.00  0.00     0.091 A 
ATOM     89  F   UNL     1     -13.604   7.143  10.648  1.00  0.00    -0.205 F 
ATOM     90  C   UNL     1     -17.008   5.853  10.262  1.00  0.00     0.022 A 
BRANCH  88  91
ATOM     91  S   UNL     1     -16.278   7.846  11.999  1.00  0.00     0.127 S 
ATOM     92  O   UNL     1     -16.859   8.935  11.216  1.00  0.00    -0.237 OA
ATOM     93  O   UNL     1     -17.227   7.142  12.863  1.00  0.00    -0.237 OA
ATOM     94  O   UNL     1     -14.997   8.137  12.629  1.00  0.00    -0.744 OA
ENDBRANCH  88  91
ENDBRANCH  61  84
ENDBRANCH  35  36
ENDBRANCH  27  30
ENDBRANCH  25  26
ENDBRANCH   1  25
TORSDOF 17
