REMARK SMILES C[NH2+]C[C@H](C)C(=O)N1CCc2cc(C(=O)NCCCCNC(=O)c3ccc(-c4c5nc(c(-c6cccc(S(=O)(=O)[O-])c6F)c6ccc([nH]6)c(-c6cccc(S(=O)(=O)[O-])c6F)c6nc(c(-c7cccc(S(=O)(=O)[O-])c7F)c7ccc4[nH]7)C=C6)C=C5)cc3)ccc21
REMARK SMILES IDX 18 1 17 2 16 3 14 4 15 5 13 7 8 8 9 9 89 10 10 11 11 12
REMARK SMILES IDX 88 13 12 14 87 15 6 16 7 17 4 18 5 19 3 20 2 21 1 22 19 25
REMARK SMILES IDX 20 26 21 27 22 28 23 30 24 31 25 32 86 33 26 34 85 35 27 36
REMARK SMILES IDX 28 37 29 38 79 39 30 40 84 41 78 42 80 43 31 44 83 45 77 46
REMARK SMILES IDX 76 47 32 49 64 50 44 51 63 52 45 53 48 54 62 55 81 56 46 57
REMARK SMILES IDX 47 58 61 60 82 61 49 62 33 63 34 64 42 65 35 66 37 67 43 68
REMARK SMILES IDX 36 69 38 70 39 71 40 72 41 73 65 74 66 75 74 76 67 77 69 78
REMARK SMILES IDX 75 79 68 80 70 81 71 82 72 83 73 84 50 85 51 86 59 87 52 88
REMARK SMILES IDX 54 89 60 90 53 91 55 92 56 93 57 94 58 95
REMARK H PARENT 16 6 2 23 2 24 21 29 80 48 48 59
REMARK Flexibility Score: inf
ROOT
ATOM      1  C   UNL     1      -0.706   6.522   2.065  1.00  0.00     0.023 C 
ENDROOT
BRANCH   1   2
ATOM      2  C   UNL     1      -0.585   5.740   3.375  1.00  0.00     0.116 C 
BRANCH   2   3
ATOM      3  N   UNL     1      -1.731   5.978   4.234  1.00  0.00    -0.352 N 
ATOM      4  C   UNL     1      -2.882   5.254   4.437  1.00  0.00     0.251 C 
ATOM      5  O   UNL     1      -3.677   5.643   5.291  1.00  0.00    -0.269 OA
ATOM      6  H   UNL     1      -1.674   6.804   4.765  1.00  0.00     0.163 HD
BRANCH   4   7
ATOM      7  C   UNL     1      -3.167   3.984   3.713  1.00  0.00     0.040 A 
ATOM      8  N   UNL     1      -3.672   0.127   2.253  1.00  0.00    -0.311 N 
ATOM      9  C   UNL     1      -4.712  -0.412   3.142  1.00  0.00     0.130 C 
ATOM     10  C   UNL     1      -3.495   1.474   2.560  1.00  0.00     0.047 A 
ATOM     11  C   UNL     1      -4.993   0.652   4.215  1.00  0.00     0.059 C 
ATOM     12  C   UNL     1      -4.126   1.782   3.762  1.00  0.00    -0.022 A 
ATOM     13  C   UNL     1      -2.902   2.468   1.819  1.00  0.00     0.027 A 
ATOM     14  C   UNL     1      -3.942   3.017   4.371  1.00  0.00     0.019 A 
ATOM     15  C   UNL     1      -2.747   3.727   2.400  1.00  0.00     0.016 A 
BRANCH   8  16
ATOM     16  C   UNL     1      -3.036  -0.691   1.350  1.00  0.00     0.235 C 
ATOM     17  O   UNL     1      -3.670  -1.605   0.801  1.00  0.00    -0.274 OA
BRANCH  16  18
ATOM     18  C   UNL     1      -1.494  -0.750   1.281  1.00  0.00     0.131 C 
ATOM     19  C   UNL     1      -0.682   0.514   1.049  1.00  0.00     0.024 C 
BRANCH  18  20
ATOM     20  C   UNL     1      -0.966  -1.468   2.544  1.00  0.00     0.273 C 
BRANCH  20  21
ATOM     21  N   UNL     1      -1.132  -2.928   2.527  1.00  0.00    -0.348 N 
ATOM     22  C   UNL     1      -0.157  -3.579   1.659  1.00  0.00     0.330 C 
ATOM     23  H   UNL     1      -1.018  -3.284   3.476  1.00  0.00     0.346 HD
ATOM     24  H   UNL     1      -2.063  -3.135   2.165  1.00  0.00     0.346 HD
ENDBRANCH  20  21
ENDBRANCH  18  20
ENDBRANCH  16  18
ENDBRANCH   8  16
ENDBRANCH   4   7
ENDBRANCH   2   3
ENDBRANCH   1   2
BRANCH   1  25
ATOM     25  C   UNL     1      -0.373   8.008   2.177  1.00  0.00     0.023 C 
BRANCH  25  26
ATOM     26  C   UNL     1       1.062   8.312   2.579  1.00  0.00     0.116 C 
BRANCH  26  27
ATOM     27  N   UNL     1       2.045   7.732   1.678  1.00  0.00    -0.352 N 
ATOM     28  C   UNL     1       3.264   8.244   1.296  1.00  0.00     0.251 C 
ATOM     29  H   UNL     1       1.807   6.859   1.290  1.00  0.00     0.163 HD
ATOM     30  O   UNL     1       3.922   7.680   0.437  1.00  0.00    -0.269 OA
BRANCH  28  31
ATOM     31  C   UNL     1       3.748   9.498   1.916  1.00  0.00     0.039 A 
ATOM     32  C   UNL     1       4.290  10.488   1.094  1.00  0.00     0.014 A 
ATOM     33  C   UNL     1       3.651   9.701   3.295  1.00  0.00     0.014 A 
ATOM     34  C   UNL     1       4.702  11.698   1.655  1.00  0.00     0.010 A 
ATOM     35  C   UNL     1       3.977  10.938   3.837  1.00  0.00     0.010 A 
ATOM     36  C   UNL     1       4.532  11.940   3.028  1.00  0.00    -0.014 A 
BRANCH  36  37
ATOM     37  C   UNL     1       4.968  13.218   3.642  1.00  0.00     0.031 A 
ATOM     38  C   UNL     1       6.064  13.219   4.675  1.00  0.00     0.074 A 
ATOM     39  C   UNL     1       4.345  14.366   3.314  1.00  0.00     0.049 A 
ATOM     40  N   UNL     1       6.586  14.228   5.322  1.00  0.00    -0.248 NA
ATOM     41  C   UNL     1       6.627  11.912   5.053  1.00  0.00     0.031 C 
ATOM     42  C   UNL     1       3.215  14.483   2.389  1.00  0.00     0.029 A 
ATOM     43  N   UNL     1       4.566  15.653   3.732  1.00  0.00    -0.354 N 
ATOM     44  C   UNL     1       7.511  13.677   6.201  1.00  0.00     0.074 A 
ATOM     45  C   UNL     1       7.441  12.242   6.044  1.00  0.00     0.031 C 
ATOM     46  C   UNL     1       2.858  15.774   2.293  1.00  0.00     0.029 A 
ATOM     47  C   UNL     1       3.717  16.573   3.162  1.00  0.00     0.049 A 
ATOM     48  H   UNL     1       5.267  15.897   4.379  1.00  0.00     0.167 HD
ATOM     49  C   UNL     1       8.374  14.307   7.034  1.00  0.00     0.034 A 
ATOM     50  C   UNL     1       3.650  17.909   3.314  1.00  0.00     0.034 A 
ATOM     51  C   UNL     1       8.469  15.735   7.155  1.00  0.00     0.049 A 
ATOM     52  C   UNL     1       4.651  18.592   4.208  1.00  0.00     0.074 A 
ATOM     53  C   UNL     1       9.354  16.480   7.914  1.00  0.00     0.029 A 
ATOM     54  N   UNL     1       7.648  16.639   6.497  1.00  0.00    -0.354 N 
ATOM     55  N   UNL     1       5.621  18.065   4.916  1.00  0.00    -0.248 NA
ATOM     56  C   UNL     1       4.577  20.058   4.287  1.00  0.00     0.031 C 
ATOM     57  C   UNL     1       9.056  17.834   7.727  1.00  0.00     0.029 A 
ATOM     58  C   UNL     1       8.005  17.933   6.829  1.00  0.00     0.049 A 
ATOM     59  H   UNL     1       6.919  16.394   5.883  1.00  0.00     0.167 HD
ATOM     60  C   UNL     1       6.303  19.135   5.484  1.00  0.00     0.074 A 
ATOM     61  C   UNL     1       5.641  20.340   5.027  1.00  0.00     0.031 C 
ATOM     62  C   UNL     1       7.373  19.123   6.317  1.00  0.00     0.034 A 
BRANCH  49  63
ATOM     63  C   UNL     1       9.319  13.445   7.832  1.00  0.00     0.023 A 
ATOM     64  C   UNL     1      10.350  12.746   7.169  1.00  0.00     0.012 A 
ATOM     65  C   UNL     1       9.208  13.342   9.232  1.00  0.00     0.148 A 
ATOM     66  C   UNL     1      11.223  11.921   7.877  1.00  0.00     0.002 A 
ATOM     67  C   UNL     1      10.113  12.556   9.938  1.00  0.00     0.091 A 
ATOM     68  F   UNL     1       8.210  13.993   9.846  1.00  0.00    -0.205 F 
ATOM     69  C   UNL     1      11.110  11.833   9.261  1.00  0.00     0.022 A 
BRANCH  67  70
ATOM     70  S   UNL     1      10.102  12.442  11.730  1.00  0.00     0.127 S 
ATOM     71  O   UNL     1       9.565  11.098  11.937  1.00  0.00    -0.237 OA
ATOM     72  O   UNL     1      11.521  12.588  12.058  1.00  0.00    -0.237 OA
ATOM     73  O   UNL     1       9.258  13.534  12.194  1.00  0.00    -0.744 OA
ENDBRANCH  67  70
ENDBRANCH  49  63
BRANCH  50  74
ATOM     74  C   UNL     1       2.666  18.700   2.522  1.00  0.00     0.023 A 
ATOM     75  C   UNL     1       3.129  19.521   1.474  1.00  0.00     0.012 A 
ATOM     76  C   UNL     1       1.283  18.622   2.773  1.00  0.00     0.148 A 
ATOM     77  C   UNL     1       2.237  20.278   0.715  1.00  0.00     0.002 A 
ATOM     78  C   UNL     1       0.395  19.338   1.978  1.00  0.00     0.091 A 
ATOM     79  F   UNL     1       0.864  17.839   3.777  1.00  0.00    -0.205 F 
ATOM     80  C   UNL     1       0.870  20.179   0.960  1.00  0.00     0.022 A 
BRANCH  78  81
ATOM     81  S   UNL     1      -1.387  19.180   2.137  1.00  0.00     0.127 S 
ATOM     82  O   UNL     1      -1.759  20.495   2.652  1.00  0.00    -0.237 OA
ATOM     83  O   UNL     1      -1.790  18.922   0.754  1.00  0.00    -0.237 OA
ATOM     84  O   UNL     1      -1.605  18.062   3.045  1.00  0.00    -0.744 OA
ENDBRANCH  78  81
ENDBRANCH  50  74
BRANCH  62  85
ATOM     85  C   UNL     1       7.939  20.451   6.747  1.00  0.00     0.023 A 
ATOM     86  C   UNL     1       7.232  21.258   7.660  1.00  0.00     0.012 A 
ATOM     87  C   UNL     1       9.207  20.867   6.295  1.00  0.00     0.148 A 
ATOM     88  C   UNL     1       7.761  22.476   8.086  1.00  0.00     0.002 A 
ATOM     89  C   UNL     1       9.750  22.056   6.763  1.00  0.00     0.091 A 
ATOM     90  F   UNL     1       9.856  20.096   5.410  1.00  0.00    -0.205 F 
ATOM     91  C   UNL     1       9.023  22.869   7.648  1.00  0.00     0.022 A 
BRANCH  89  92
ATOM     92  S   UNL     1      11.411  22.586   6.330  1.00  0.00     0.127 S 
ATOM     93  O   UNL     1      11.142  23.645   5.359  1.00  0.00    -0.237 OA
ATOM     94  O   UNL     1      11.935  23.053   7.614  1.00  0.00    -0.237 OA
ATOM     95  O   UNL     1      12.081  21.405   5.802  1.00  0.00    -0.744 OA
ENDBRANCH  89  92
ENDBRANCH  62  85
ENDBRANCH  36  37
ENDBRANCH  28  31
ENDBRANCH  26  27
ENDBRANCH  25  26
ENDBRANCH   1  25
TORSDOF 18
