REMARK SMILES O=C(Cc1cn2ccsc2n1)N[C@@H]1C=C[C@H](C(=O)NCCCCNC(=O)c2ccc(-c3c4nc(c(-c5cccc(S(=O)(=O)[O-])c5F)c5ccc([nH]5)c(-c5cccc(S(=O)(=O)[O-])c5F)c5nc(c(-c6cccc(S(=O)(=O)[O-])c6F)c6ccc3[nH]6)C=C5)C=C4)cc2)C1
REMARK SMILES IDX 21 1 20 2 19 3 17 4 18 5 16 7 13 8 14 9 90 10 15 11 12 12
REMARK SMILES IDX 1 13 2 14 3 16 4 17 5 18 11 19 6 20 10 21 7 22 9 23 8 24
REMARK SMILES IDX 22 25 23 26 24 27 25 28 26 30 27 31 28 32 89 33 29 34 88 35
REMARK SMILES IDX 30 36 31 37 32 38 82 39 33 40 87 41 81 42 83 43 34 44 86 45
REMARK SMILES IDX 80 46 79 47 35 49 67 50 47 51 66 52 48 53 51 54 65 55 84 56
REMARK SMILES IDX 49 57 50 58 64 60 85 61 52 62 36 63 37 64 45 65 38 66 40 67
REMARK SMILES IDX 46 68 39 69 41 70 42 71 43 72 44 73 68 74 69 75 77 76 70 77
REMARK SMILES IDX 72 78 78 79 71 80 73 81 74 82 75 83 76 84 53 85 54 86 62 87
REMARK SMILES IDX 55 88 57 89 63 90 56 91 58 92 59 93 60 94 61 95
REMARK H PARENT 19 6 12 15 24 29 83 48 51 59
REMARK Flexibility Score: inf
ROOT
ATOM      1  C   UNL     1       0.739   4.916   2.692  1.00  0.00     0.023 C 
ENDROOT
BRANCH   1   2
ATOM      2  C   UNL     1       1.790   4.769   3.796  1.00  0.00     0.116 C 
BRANCH   2   3
ATOM      3  N   UNL     1       1.355   3.820   4.801  1.00  0.00    -0.356 N 
ATOM      4  C   UNL     1       1.737   2.528   5.015  1.00  0.00     0.227 C 
ATOM      5  O   UNL     1       1.147   1.912   5.907  1.00  0.00    -0.274 OA
ATOM      6  H   UNL     1       0.678   4.161   5.428  1.00  0.00     0.163 HD
BRANCH   4   7
ATOM      7  C   UNL     1       2.933   1.933   4.253  1.00  0.00     0.103 C 
ATOM      8  C   UNL     1       2.436   0.433   2.356  1.00  0.00     0.106 C 
ATOM      9  C   UNL     1       2.811  -0.329   3.580  1.00  0.00    -0.006 C 
ATOM     10  C   UNL     1       2.811   1.872   2.725  1.00  0.00     0.047 C 
ATOM     11  C   UNL     1       3.109   0.479   4.603  1.00  0.00    -0.016 C 
BRANCH   8  12
ATOM     12  N   UNL     1       1.027   0.273   2.105  1.00  0.00    -0.350 N 
ATOM     13  O   UNL     1       1.109   1.375   0.099  1.00  0.00    -0.275 OA
ATOM     14  C   UNL     1       0.469   0.723   0.925  1.00  0.00     0.226 C 
ATOM     15  H   UNL     1       0.458  -0.162   2.781  1.00  0.00     0.164 HD
BRANCH  14  16
ATOM     16  C   UNL     1      -1.017   0.467   0.765  1.00  0.00     0.157 C 
BRANCH  16  17
ATOM     17  C   UNL     1      -1.381  -0.979   0.805  1.00  0.00     0.070 A 
ATOM     18  C   UNL     1      -2.572  -1.542   1.256  1.00  0.00     0.118 A 
ATOM     19  N   UNL     1      -0.516  -1.960   0.338  1.00  0.00    -0.223 NA
ATOM     20  N   UNL     1      -2.414  -2.880   1.063  1.00  0.00    -0.297 N 
ATOM     21  C   UNL     1      -1.181  -3.066   0.518  1.00  0.00     0.193 A 
ATOM     22  C   UNL     1      -3.150  -4.022   1.273  1.00  0.00     0.104 A 
ATOM     23  S   UNL     1      -0.869  -4.749   0.232  1.00  0.00    -0.105 S 
ATOM     24  C   UNL     1      -2.476  -5.120   0.886  1.00  0.00     0.087 A 
ENDBRANCH  16  17
ENDBRANCH  14  16
ENDBRANCH   8  12
ENDBRANCH   4   7
ENDBRANCH   2   3
ENDBRANCH   1   2
BRANCH   1  25
ATOM     25  C   UNL     1      -0.569   5.573   3.138  1.00  0.00     0.023 C 
BRANCH  25  26
ATOM     26  C   UNL     1      -0.426   6.981   3.699  1.00  0.00     0.116 C 
BRANCH  26  27
ATOM     27  N   UNL     1       0.178   7.909   2.755  1.00  0.00    -0.352 N 
ATOM     28  C   UNL     1      -0.177   9.208   2.480  1.00  0.00     0.251 C 
ATOM     29  H   UNL     1       0.944   7.559   2.244  1.00  0.00     0.163 HD
ATOM     30  O   UNL     1       0.363   9.812   1.557  1.00  0.00    -0.269 OA
BRANCH  28  31
ATOM     31  C   UNL     1      -1.232   9.860   3.283  1.00  0.00     0.039 A 
ATOM     32  C   UNL     1      -2.247  10.561   2.626  1.00  0.00     0.014 A 
ATOM     33  C   UNL     1      -1.234   9.757   4.676  1.00  0.00     0.014 A 
ATOM     34  C   UNL     1      -3.297  11.109   3.366  1.00  0.00     0.010 A 
ATOM     35  C   UNL     1      -2.320  10.233   5.402  1.00  0.00     0.010 A 
ATOM     36  C   UNL     1      -3.357  10.923   4.756  1.00  0.00    -0.014 A 
BRANCH  36  37
ATOM     37  C   UNL     1      -4.491  11.444   5.560  1.00  0.00     0.031 A 
ATOM     38  C   UNL     1      -4.249  12.483   6.620  1.00  0.00     0.074 A 
ATOM     39  C   UNL     1      -5.721  10.917   5.400  1.00  0.00     0.049 A 
ATOM     40  N   UNL     1      -5.096  13.022   7.458  1.00  0.00    -0.248 NA
ATOM     41  C   UNL     1      -2.864  12.957   6.780  1.00  0.00     0.031 C 
ATOM     42  C   UNL     1      -6.071   9.853   4.457  1.00  0.00     0.029 A 
ATOM     43  N   UNL     1      -6.902  11.193   6.042  1.00  0.00    -0.354 N 
ATOM     44  C   UNL     1      -4.344  13.865   8.267  1.00  0.00     0.074 A 
ATOM     45  C   UNL     1      -2.966  13.732   7.849  1.00  0.00     0.031 C 
ATOM     46  C   UNL     1      -7.381   9.581   4.567  1.00  0.00     0.029 A 
ATOM     47  C   UNL     1      -7.958  10.427   5.607  1.00  0.00     0.049 A 
ATOM     48  H   UNL     1      -6.986  11.874   6.747  1.00  0.00     0.167 HD
ATOM     49  C   UNL     1      -4.763  14.702   9.246  1.00  0.00     0.034 A 
ATOM     50  C   UNL     1      -9.247  10.413   5.998  1.00  0.00     0.034 A 
ATOM     51  C   UNL     1      -6.140  14.863   9.628  1.00  0.00     0.049 A 
ATOM     52  C   UNL     1      -9.697  11.372   7.067  1.00  0.00     0.074 A 
ATOM     53  C   UNL     1      -6.683  15.746  10.544  1.00  0.00     0.029 A 
ATOM     54  N   UNL     1      -7.193  14.119   9.117  1.00  0.00    -0.354 N 
ATOM     55  N   UNL     1      -8.999  12.274   7.714  1.00  0.00    -0.248 NA
ATOM     56  C   UNL     1     -11.119  11.334   7.436  1.00  0.00     0.031 C 
ATOM     57  C   UNL     1      -8.063  15.521  10.601  1.00  0.00     0.029 A 
ATOM     58  C   UNL     1      -8.383  14.514   9.703  1.00  0.00     0.049 A 
ATOM     59  H   UNL     1      -7.107  13.413   8.436  1.00  0.00     0.167 HD
ATOM     60  C   UNL     1      -9.903  12.941   8.534  1.00  0.00     0.074 A 
ATOM     61  C   UNL     1     -11.201  12.344   8.292  1.00  0.00     0.031 C 
ATOM     62  C   UNL     1      -9.677  13.948   9.414  1.00  0.00     0.034 A 
BRANCH  49  63
ATOM     63  C   UNL     1      -3.716  15.543   9.931  1.00  0.00     0.023 A 
ATOM     64  C   UNL     1      -3.080  16.579   9.215  1.00  0.00     0.012 A 
ATOM     65  C   UNL     1      -3.367  15.321  11.276  1.00  0.00     0.148 A 
ATOM     66  C   UNL     1      -2.077  17.345   9.809  1.00  0.00     0.002 A 
ATOM     67  C   UNL     1      -2.400  16.121  11.877  1.00  0.00     0.091 A 
ATOM     68  F   UNL     1      -3.961  14.318  11.938  1.00  0.00    -0.205 F 
ATOM     69  C   UNL     1      -1.743  17.121  11.141  1.00  0.00     0.022 A 
BRANCH  67  70
ATOM     70  S   UNL     1      -1.962  15.958  13.612  1.00  0.00     0.127 S 
ATOM     71  O   UNL     1      -0.701  15.224  13.531  1.00  0.00    -0.237 OA
ATOM     72  O   UNL     1      -1.829  17.354  14.033  1.00  0.00    -0.237 OA
ATOM     73  O   UNL     1      -3.071  15.246  14.232  1.00  0.00    -0.744 OA
ENDBRANCH  67  70
ENDBRANCH  49  63
BRANCH  50  74
ATOM     74  C   UNL     1     -10.224   9.532   5.297  1.00  0.00     0.023 A 
ATOM     75  C   UNL     1     -11.173  10.119   4.436  1.00  0.00     0.012 A 
ATOM     76  C   UNL     1     -10.194   8.131   5.434  1.00  0.00     0.148 A 
ATOM     77  C   UNL     1     -12.090   9.330   3.742  1.00  0.00     0.002 A 
ATOM     78  C   UNL     1     -11.078   7.347   4.701  1.00  0.00     0.091 A 
ATOM     79  F   UNL     1      -9.287   7.594   6.261  1.00  0.00    -0.205 F 
ATOM     80  C   UNL     1     -12.036   7.945   3.866  1.00  0.00     0.022 A 
BRANCH  78  81
ATOM     81  S   UNL     1     -11.009   5.551   4.698  1.00  0.00     0.127 S 
ATOM     82  O   UNL     1     -12.275   5.202   5.338  1.00  0.00    -0.237 OA
ATOM     83  O   UNL     1     -10.940   5.256   3.267  1.00  0.00    -0.237 OA
ATOM     84  O   UNL     1      -9.810   5.200   5.445  1.00  0.00    -0.744 OA
ENDBRANCH  78  81
ENDBRANCH  50  74
BRANCH  62  85
ATOM     85  C   UNL     1     -10.862  14.503  10.160  1.00  0.00     0.023 A 
ATOM     86  C   UNL     1     -11.458  13.751  11.191  1.00  0.00     0.012 A 
ATOM     87  C   UNL     1     -11.335  15.803   9.889  1.00  0.00     0.148 A 
ATOM     88  C   UNL     1     -12.527  14.271  11.921  1.00  0.00     0.002 A 
ATOM     89  C   UNL     1     -12.368  16.334  10.653  1.00  0.00     0.091 A 
ATOM     90  F   UNL     1     -10.768  16.495   8.890  1.00  0.00    -0.205 F 
ATOM     91  C   UNL     1     -12.972  15.565  11.661  1.00  0.00     0.022 A 
BRANCH  89  92
ATOM     92  S   UNL     1     -12.940  18.025  10.454  1.00  0.00     0.127 S 
ATOM     93  O   UNL     1     -14.226  17.828   9.787  1.00  0.00    -0.237 OA
ATOM     94  O   UNL     1     -13.035  18.487  11.839  1.00  0.00    -0.237 OA
ATOM     95  O   UNL     1     -11.920  18.701   9.663  1.00  0.00    -0.744 OA
ENDBRANCH  89  92
ENDBRANCH  62  85
ENDBRANCH  36  37
ENDBRANCH  28  31
ENDBRANCH  26  27
ENDBRANCH  25  26
ENDBRANCH   1  25
TORSDOF 17
