REMARK SMILES C[C@H](CCO)S[C@H]1CC[C@]([NH2+]C2CC2)(C(=O)NCCCCNC(=O)c2ccc(-c3c4nc(c(-c5cccc(S(=O)(=O)[O-])c5F)c5ccc([nH]5)c(-c5cccc(S(=O)(=O)[O-])c5F)c5nc(c(-c6cccc(S(=O)(=O)[O-])c6F)c6ccc3[nH]6)C=C5)C=C4)cc2)C1
REMARK SMILES IDX 18 1 17 2 15 3 16 4 10 6 7 7 8 8 88 9 9 10 6 11 2 12 1 13
REMARK SMILES IDX 3 14 4 15 5 16 11 18 12 21 13 22 14 23 19 24 20 25 21 26
REMARK SMILES IDX 22 27 23 28 24 30 25 31 26 32 87 33 27 34 86 35 28 36 29 37
REMARK SMILES IDX 30 38 80 39 31 40 85 41 79 42 81 43 32 44 84 45 78 46 77 47
REMARK SMILES IDX 33 49 65 50 45 51 64 52 46 53 49 54 63 55 82 56 47 57 48 58
REMARK SMILES IDX 62 60 83 61 50 62 34 63 35 64 43 65 36 66 38 67 44 68 37 69
REMARK SMILES IDX 39 70 40 71 41 72 42 73 66 74 67 75 75 76 68 77 70 78 76 79
REMARK SMILES IDX 69 80 71 81 72 82 73 83 74 84 51 85 52 86 60 87 53 88 55 89
REMARK SMILES IDX 61 90 54 91 56 92 57 93 58 94 59 95
REMARK H PARENT 17 5 5 17 11 19 11 20 22 29 81 48 49 59
REMARK Flexibility Score: inf
ROOT
ATOM      1  C   UNL     1      -5.194  -0.382   5.012  1.00  0.00     0.116 C 
ENDROOT
BRANCH   1   2
ATOM      2  N   UNL     1      -5.315   0.526   3.898  1.00  0.00    -0.351 N 
ATOM      3  C   UNL     1      -4.456   0.786   2.877  1.00  0.00     0.281 C 
ATOM      4  O   UNL     1      -4.726   1.769   2.180  1.00  0.00    -0.268 OA
ATOM      5  H   UNL     1      -6.154   1.040   3.874  1.00  0.00     0.163 HD
BRANCH   3   6
ATOM      6  C   UNL     1      -3.213  -0.116   2.597  1.00  0.00     0.176 C 
ATOM      7  C   UNL     1      -1.731  -0.739   0.717  1.00  0.00     0.054 C 
ATOM      8  C   UNL     1      -2.530  -1.996   1.165  1.00  0.00     0.022 C 
ATOM      9  C   UNL     1      -2.589   0.387   1.265  1.00  0.00     0.093 C 
ATOM     10  C   UNL     1      -3.632  -1.519   2.126  1.00  0.00     0.080 C 
BRANCH   7  11
ATOM     11  S   UNL     1       0.017  -1.038   1.201  1.00  0.00    -0.155 SA
BRANCH  11  12
ATOM     12  C   UNL     1       0.932   0.563   1.430  1.00  0.00     0.046 C 
ATOM     13  C   UNL     1       2.295   0.109   1.986  1.00  0.00     0.019 C 
BRANCH  12  14
ATOM     14  C   UNL     1       0.301   1.701   2.261  1.00  0.00     0.042 C 
BRANCH  14  15
ATOM     15  C   UNL     1       0.853   2.046   3.638  1.00  0.00     0.157 C 
BRANCH  15  16
ATOM     16  O   UNL     1       2.171   2.561   3.549  1.00  0.00    -0.396 OA
ATOM     17  H   UNL     1       2.753   1.893   3.153  1.00  0.00     0.210 HD
ENDBRANCH  15  16
ENDBRANCH  14  15
ENDBRANCH  12  14
ENDBRANCH  11  12
ENDBRANCH   7  11
BRANCH   6  18
ATOM     18  N   UNL     1      -2.230  -0.015   3.718  1.00  0.00    -0.331 N 
ATOM     19  H   UNL     1      -2.632   0.618   4.409  1.00  0.00     0.347 HD
ATOM     20  H   UNL     1      -1.372   0.289   3.257  1.00  0.00     0.347 HD
BRANCH  18  21
ATOM     21  C   UNL     1      -1.822  -1.235   4.439  1.00  0.00     0.183 C 
ATOM     22  C   UNL     1      -0.409  -1.735   4.369  1.00  0.00     0.071 C 
ATOM     23  C   UNL     1      -0.901  -1.110   5.629  1.00  0.00     0.071 C 
ENDBRANCH  18  21
ENDBRANCH   6  18
ENDBRANCH   3   6
ENDBRANCH   1   2
BRANCH   1  24
ATOM     24  C   UNL     1      -5.120   0.393   6.325  1.00  0.00     0.023 C 
BRANCH  24  25
ATOM     25  C   UNL     1      -6.466   0.972   6.768  1.00  0.00     0.023 C 
BRANCH  25  26
ATOM     26  C   UNL     1      -7.589  -0.053   6.878  1.00  0.00     0.116 C 
BRANCH  26  27
ATOM     27  N   UNL     1      -7.237  -1.183   7.728  1.00  0.00    -0.352 N 
ATOM     28  C   UNL     1      -8.025  -1.836   8.641  1.00  0.00     0.251 C 
ATOM     29  H   UNL     1      -6.317  -1.520   7.636  1.00  0.00     0.163 HD
ATOM     30  O   UNL     1      -7.540  -2.680   9.390  1.00  0.00    -0.269 OA
BRANCH  28  31
ATOM     31  C   UNL     1      -9.455  -1.487   8.725  1.00  0.00     0.039 A 
ATOM     32  C   UNL     1     -10.007  -1.187   9.970  1.00  0.00     0.014 A 
ATOM     33  C   UNL     1     -10.227  -1.404   7.562  1.00  0.00     0.014 A 
ATOM     34  C   UNL     1     -11.330  -0.750  10.043  1.00  0.00     0.010 A 
ATOM     35  C   UNL     1     -11.515  -0.889   7.630  1.00  0.00     0.010 A 
ATOM     36  C   UNL     1     -12.084  -0.569   8.871  1.00  0.00    -0.014 A 
BRANCH  36  37
ATOM     37  C   UNL     1     -13.472  -0.049   8.927  1.00  0.00     0.031 A 
ATOM     38  C   UNL     1     -14.616  -0.896   8.439  1.00  0.00     0.074 A 
ATOM     39  C   UNL     1     -13.694   1.212   9.347  1.00  0.00     0.049 A 
ATOM     40  N   UNL     1     -15.889  -0.605   8.382  1.00  0.00    -0.248 NA
ATOM     41  C   UNL     1     -14.284  -2.234   7.920  1.00  0.00     0.031 C 
ATOM     42  C   UNL     1     -12.658   2.161   9.762  1.00  0.00     0.029 A 
ATOM     43  N   UNL     1     -14.862   1.921   9.473  1.00  0.00    -0.354 N 
ATOM     44  C   UNL     1     -16.503  -1.703   7.790  1.00  0.00     0.074 A 
ATOM     45  C   UNL     1     -15.458  -2.649   7.469  1.00  0.00     0.031 C 
ATOM     46  C   UNL     1     -13.237   3.323  10.106  1.00  0.00     0.029 A 
ATOM     47  C   UNL     1     -14.679   3.213   9.909  1.00  0.00     0.049 A 
ATOM     48  H   UNL     1     -15.747   1.541   9.271  1.00  0.00     0.167 HD
ATOM     49  C   UNL     1     -17.820  -1.919   7.564  1.00  0.00     0.034 A 
ATOM     50  C   UNL     1     -15.572   4.199  10.122  1.00  0.00     0.034 A 
ATOM     51  C   UNL     1     -18.858  -0.992   7.923  1.00  0.00     0.049 A 
ATOM     52  C   UNL     1     -17.035   3.916   9.906  1.00  0.00     0.074 A 
ATOM     53  C   UNL     1     -20.228  -1.153   7.820  1.00  0.00     0.029 A 
ATOM     54  N   UNL     1     -18.642   0.275   8.444  1.00  0.00    -0.354 N 
ATOM     55  N   UNL     1     -17.610   2.810   9.500  1.00  0.00    -0.248 NA
ATOM     56  C   UNL     1     -17.974   5.002  10.218  1.00  0.00     0.031 C 
ATOM     57  C   UNL     1     -20.840   0.028   8.251  1.00  0.00     0.029 A 
ATOM     58  C   UNL     1     -19.852   0.911   8.659  1.00  0.00     0.049 A 
ATOM     59  H   UNL     1     -17.758   0.664   8.634  1.00  0.00     0.167 HD
ATOM     60  C   UNL     1     -18.978   3.054   9.544  1.00  0.00     0.074 A 
ATOM     61  C   UNL     1     -19.144   4.406  10.038  1.00  0.00     0.031 C 
ATOM     62  C   UNL     1     -20.004   2.238   9.197  1.00  0.00     0.034 A 
BRANCH  49  63
ATOM     63  C   UNL     1     -18.216  -3.230   6.937  1.00  0.00     0.023 A 
ATOM     64  C   UNL     1     -18.094  -4.424   7.679  1.00  0.00     0.012 A 
ATOM     65  C   UNL     1     -18.760  -3.277   5.639  1.00  0.00     0.148 A 
ATOM     66  C   UNL     1     -18.471  -5.647   7.125  1.00  0.00     0.002 A 
ATOM     67  C   UNL     1     -19.179  -4.493   5.112  1.00  0.00     0.091 A 
ATOM     68  F   UNL     1     -18.848  -2.136   4.941  1.00  0.00    -0.205 F 
ATOM     69  C   UNL     1     -19.023  -5.680   5.848  1.00  0.00     0.022 A 
BRANCH  67  70
ATOM     70  S   UNL     1     -19.979  -4.632   3.510  1.00  0.00     0.127 S 
ATOM     71  O   UNL     1     -18.956  -5.326   2.730  1.00  0.00    -0.237 OA
ATOM     72  O   UNL     1     -21.158  -5.439   3.826  1.00  0.00    -0.237 OA
ATOM     73  O   UNL     1     -20.270  -3.270   3.086  1.00  0.00    -0.744 OA
ENDBRANCH  67  70
ENDBRANCH  49  63
BRANCH  50  74
ATOM     74  C   UNL     1     -15.115   5.525  10.625  1.00  0.00     0.023 A 
ATOM     75  C   UNL     1     -15.436   5.918  11.939  1.00  0.00     0.012 A 
ATOM     76  C   UNL     1     -14.346   6.386   9.819  1.00  0.00     0.148 A 
ATOM     77  C   UNL     1     -15.033   7.161  12.428  1.00  0.00     0.002 A 
ATOM     78  C   UNL     1     -13.899   7.598  10.332  1.00  0.00     0.091 A 
ATOM     79  F   UNL     1     -14.058   5.996   8.569  1.00  0.00    -0.205 F 
ATOM     80  C   UNL     1     -14.257   7.996  11.629  1.00  0.00     0.022 A 
BRANCH  78  81
ATOM     81  S   UNL     1     -12.786   8.676   9.423  1.00  0.00     0.127 S 
ATOM     82  O   UNL     1     -13.650   9.815   9.125  1.00  0.00    -0.237 OA
ATOM     83  O   UNL     1     -11.742   8.935  10.416  1.00  0.00    -0.237 OA
ATOM     84  O   UNL     1     -12.339   7.901   8.273  1.00  0.00    -0.744 OA
ENDBRANCH  78  81
ENDBRANCH  50  74
BRANCH  62  85
ATOM     85  C   UNL     1     -21.405   2.760   9.381  1.00  0.00     0.023 A 
ATOM     86  C   UNL     1     -21.899   3.771   8.532  1.00  0.00     0.012 A 
ATOM     87  C   UNL     1     -22.254   2.199  10.355  1.00  0.00     0.148 A 
ATOM     88  C   UNL     1     -23.204   4.241   8.677  1.00  0.00     0.002 A 
ATOM     89  C   UNL     1     -23.569   2.635  10.457  1.00  0.00     0.091 A 
ATOM     90  F   UNL     1     -21.760   1.251  11.165  1.00  0.00    -0.205 F 
ATOM     91  C   UNL     1     -24.041   3.666   9.629  1.00  0.00     0.022 A 
BRANCH  89  92
ATOM     92  S   UNL     1     -24.747   1.881  11.585  1.00  0.00     0.127 S 
ATOM     93  O   UNL     1     -24.891   2.921  12.603  1.00  0.00    -0.237 OA
ATOM     94  O   UNL     1     -25.920   1.696  10.731  1.00  0.00    -0.237 OA
ATOM     95  O   UNL     1     -24.130   0.642  12.040  1.00  0.00    -0.744 OA
ENDBRANCH  89  92
ENDBRANCH  62  85
ENDBRANCH  36  37
ENDBRANCH  28  31
ENDBRANCH  26  27
ENDBRANCH  25  26
ENDBRANCH  24  25
ENDBRANCH   1  24
TORSDOF 21
