REMARK SMILES O=C(NCCCCNC(=O)c1ccc(-c2c3nc(c(-c4cccc(S(=O)(=O)[O-])c4F)c4ccc([nH]4)c(-c4cccc(S(=O)(=O)[O-])c4F)c4nc(c(-c5cccc(S(=O)(=O)[O-])c5F)c5ccc2[nH]5)C=C4)C=C3)cc1)c1ccc(/[NH+]=C2\S[C@@H](Cc3ccc(F)cc3)C(=O)N2Cc2ccccc2)cc1
REMARK SMILES IDX 5 1 4 2 3 3 1 4 2 5 74 7 75 8 101 9 76 10 100 11 77 12 78 13
REMARK SMILES IDX 79 14 80 16 92 17 81 18 90 19 91 20 93 21 94 22 95 23 99 24
REMARK SMILES IDX 96 25 98 26 97 27 82 28 83 29 84 30 89 31 85 32 88 33 86 34
REMARK SMILES IDX 87 35 6 36 7 37 8 38 9 39 10 41 11 42 12 43 73 44 13 45
REMARK SMILES IDX 72 46 14 47 15 48 16 49 66 50 17 51 71 52 65 53 67 54 18 55
REMARK SMILES IDX 70 56 64 57 63 58 19 60 51 61 31 62 50 63 32 64 35 65 49 66
REMARK SMILES IDX 68 67 33 68 34 69 48 71 69 72 36 73 20 74 21 75 29 76 22 77
REMARK SMILES IDX 24 78 30 79 23 80 25 81 26 82 27 83 28 84 52 85 53 86 61 87
REMARK SMILES IDX 54 88 56 89 62 90 55 91 57 92 58 93 59 94 60 95 37 96 38 97
REMARK SMILES IDX 46 98 39 99 41 100 47 101 40 102 42 103 43 104 44 105 45 106
REMARK H PARENT 3 6 78 15 8 40 67 59 35 70
REMARK Flexibility Score: inf
ROOT
ATOM      1  C   UNL     1       4.915   2.392  -0.164  1.00  0.00     0.023 C 
ENDROOT
BRANCH   1   2
ATOM      2  C   UNL     1       4.522   1.071   0.485  1.00  0.00     0.116 C 
BRANCH   2   3
ATOM      3  N   UNL     1       3.080   0.887   0.549  1.00  0.00    -0.352 N 
ATOM      4  O   UNL     1       1.076   0.007  -0.030  1.00  0.00    -0.269 OA
ATOM      5  C   UNL     1       2.301  -0.067  -0.058  1.00  0.00     0.251 C 
ATOM      6  H   UNL     1       2.594   1.538   1.105  1.00  0.00     0.163 HD
BRANCH   5   7
ATOM      7  C   UNL     1       2.944  -1.197  -0.756  1.00  0.00     0.040 A 
ATOM      8  C   UNL     1       3.929  -1.946  -0.112  1.00  0.00     0.018 A 
ATOM      9  C   UNL     1       2.538  -1.530  -2.052  1.00  0.00     0.018 A 
ATOM     10  C   UNL     1       4.575  -2.961  -0.806  1.00  0.00     0.052 A 
ATOM     11  C   UNL     1       3.163  -2.583  -2.728  1.00  0.00     0.052 A 
ATOM     12  C   UNL     1       4.203  -3.284  -2.117  1.00  0.00     0.125 A 
BRANCH  12  13
ATOM     13  N   UNL     1       4.799  -4.408  -2.684  1.00  0.00    -0.235 N 
ATOM     14  C   UNL     1       5.682  -4.350  -3.619  1.00  0.00     0.320 C 
ATOM     15  H   UNL     1       4.531  -5.295  -2.352  1.00  0.00     0.313 HD
ATOM     16  S   UNL     1       6.186  -2.963  -4.538  1.00  0.00    -0.022 SA
ATOM     17  N   UNL     1       6.381  -5.466  -3.991  1.00  0.00    -0.186 N 
ATOM     18  C   UNL     1       7.059  -3.993  -5.765  1.00  0.00     0.178 C 
ATOM     19  C   UNL     1       7.215  -5.347  -5.082  1.00  0.00     0.324 C 
ATOM     20  O   UNL     1       7.922  -6.256  -5.506  1.00  0.00    -0.245 OA
BRANCH  17  21
ATOM     21  C   UNL     1       6.259  -6.732  -3.273  1.00  0.00     0.283 C 
BRANCH  21  22
ATOM     22  C   UNL     1       7.015  -6.771  -1.957  1.00  0.00    -0.006 A 
ATOM     23  C   UNL     1       8.291  -7.341  -1.865  1.00  0.00     0.008 A 
ATOM     24  C   UNL     1       6.438  -6.251  -0.787  1.00  0.00     0.008 A 
ATOM     25  C   UNL     1       8.965  -7.382  -0.639  1.00  0.00     0.000 A 
ATOM     26  C   UNL     1       7.125  -6.252   0.427  1.00  0.00     0.000 A 
ATOM     27  C   UNL     1       8.389  -6.824   0.503  1.00  0.00     0.000 A 
ENDBRANCH  21  22
ENDBRANCH  17  21
BRANCH  18  28
ATOM     28  C   UNL     1       8.371  -3.338  -6.202  1.00  0.00     0.063 C 
BRANCH  28  29
ATOM     29  C   UNL     1       9.111  -4.108  -7.277  1.00  0.00    -0.046 A 
ATOM     30  C   UNL     1      10.358  -4.686  -6.987  1.00  0.00     0.007 A 
ATOM     31  C   UNL     1       8.558  -4.286  -8.555  1.00  0.00     0.007 A 
ATOM     32  C   UNL     1      11.022  -5.455  -7.942  1.00  0.00     0.039 A 
ATOM     33  C   UNL     1       9.224  -5.059  -9.509  1.00  0.00     0.039 A 
ATOM     34  C   UNL     1      10.445  -5.641  -9.191  1.00  0.00     0.123 A 
ATOM     35  F   UNL     1      11.075  -6.395 -10.103  1.00  0.00    -0.207 F 
ENDBRANCH  28  29
ENDBRANCH  18  28
ENDBRANCH  12  13
ENDBRANCH   5   7
ENDBRANCH   2   3
ENDBRANCH   1   2
BRANCH   1  36
ATOM     36  C   UNL     1       4.471   3.641   0.592  1.00  0.00     0.023 C 
BRANCH  36  37
ATOM     37  C   UNL     1       4.863   3.693   2.065  1.00  0.00     0.116 C 
BRANCH  37  38
ATOM     38  N   UNL     1       6.296   3.570   2.281  1.00  0.00    -0.352 N 
ATOM     39  C   UNL     1       7.140   4.346   3.039  1.00  0.00     0.251 C 
ATOM     40  H   UNL     1       6.727   2.818   1.814  1.00  0.00     0.163 HD
ATOM     41  O   UNL     1       8.351   4.143   2.993  1.00  0.00    -0.269 OA
BRANCH  39  42
ATOM     42  C   UNL     1       6.604   5.441   3.880  1.00  0.00     0.039 A 
ATOM     43  C   UNL     1       7.271   6.668   3.882  1.00  0.00     0.014 A 
ATOM     44  C   UNL     1       5.453   5.272   4.656  1.00  0.00     0.014 A 
ATOM     45  C   UNL     1       6.746   7.742   4.605  1.00  0.00     0.010 A 
ATOM     46  C   UNL     1       4.886   6.367   5.307  1.00  0.00     0.010 A 
ATOM     47  C   UNL     1       5.526   7.614   5.291  1.00  0.00    -0.014 A 
BRANCH  47  48
ATOM     48  C   UNL     1       4.900   8.794   5.944  1.00  0.00     0.031 A 
ATOM     49  C   UNL     1       4.671   8.834   7.431  1.00  0.00     0.074 A 
ATOM     50  C   UNL     1       4.481   9.821   5.177  1.00  0.00     0.049 A 
ATOM     51  N   UNL     1       4.199   9.810   8.163  1.00  0.00    -0.248 NA
ATOM     52  C   UNL     1       4.988   7.616   8.192  1.00  0.00     0.031 C 
ATOM     53  C   UNL     1       4.548   9.865   3.714  1.00  0.00     0.029 A 
ATOM     54  N   UNL     1       3.910  11.022   5.517  1.00  0.00    -0.354 N 
ATOM     55  C   UNL     1       4.132   9.318   9.461  1.00  0.00     0.074 A 
ATOM     56  C   UNL     1       4.579   7.942   9.410  1.00  0.00     0.031 C 
ATOM     57  C   UNL     1       4.070  11.043   3.286  1.00  0.00     0.029 A 
ATOM     58  C   UNL     1       3.639  11.829   4.437  1.00  0.00     0.049 A 
ATOM     59  H   UNL     1       3.712  11.281   6.446  1.00  0.00     0.167 HD
ATOM     60  C   UNL     1       3.761   9.958  10.597  1.00  0.00     0.034 A 
ATOM     61  C   UNL     1       3.116  13.069   4.378  1.00  0.00     0.034 A 
ATOM     62  C   UNL     1       3.348  11.336  10.649  1.00  0.00     0.049 A 
ATOM     63  C   UNL     1       2.769  13.779   5.658  1.00  0.00     0.074 A 
ATOM     64  C   UNL     1       3.056  12.106  11.762  1.00  0.00     0.029 A 
ATOM     65  N   UNL     1       3.149  12.147   9.542  1.00  0.00    -0.354 N 
ATOM     66  N   UNL     1       2.897  13.363   6.894  1.00  0.00    -0.248 NA
ATOM     67  C   UNL     1       2.243  15.146   5.534  1.00  0.00     0.031 C 
ATOM     68  C   UNL     1       2.649  13.372  11.325  1.00  0.00     0.029 A 
ATOM     69  C   UNL     1       2.720  13.402   9.942  1.00  0.00     0.049 A 
ATOM     70  H   UNL     1       3.292  11.870   8.608  1.00  0.00     0.167 HD
ATOM     71  C   UNL     1       2.499  14.426   7.697  1.00  0.00     0.074 A 
ATOM     72  C   UNL     1       2.155  15.514   6.804  1.00  0.00     0.031 C 
ATOM     73  C   UNL     1       2.411  14.491   9.049  1.00  0.00     0.034 A 
BRANCH  60  74
ATOM     74  C   UNL     1       3.827   9.182  11.889  1.00  0.00     0.023 A 
ATOM     75  C   UNL     1       5.082   8.831  12.429  1.00  0.00     0.012 A 
ATOM     76  C   UNL     1       2.656   8.843  12.594  1.00  0.00     0.148 A 
ATOM     77  C   UNL     1       5.169   8.119  13.625  1.00  0.00     0.002 A 
ATOM     78  C   UNL     1       2.752   8.175  13.810  1.00  0.00     0.091 A 
ATOM     79  F   UNL     1       1.470   9.164  12.057  1.00  0.00    -0.205 F 
ATOM     80  C   UNL     1       4.006   7.801  14.320  1.00  0.00     0.022 A 
BRANCH  78  81
ATOM     81  S   UNL     1       1.316   7.794  14.820  1.00  0.00     0.127 S 
ATOM     82  O   UNL     1       1.201   6.348  14.635  1.00  0.00    -0.237 OA
ATOM     83  O   UNL     1       1.759   8.204  16.153  1.00  0.00    -0.237 OA
ATOM     84  O   UNL     1       0.222   8.585  14.276  1.00  0.00    -0.744 OA
ENDBRANCH  78  81
ENDBRANCH  60  74
BRANCH  61  85
ATOM     85  C   UNL     1       2.978  13.754   3.062  1.00  0.00     0.023 A 
ATOM     86  C   UNL     1       3.823  14.840   2.758  1.00  0.00     0.012 A 
ATOM     87  C   UNL     1       2.048  13.318   2.099  1.00  0.00     0.148 A 
ATOM     88  C   UNL     1       3.724  15.498   1.532  1.00  0.00     0.002 A 
ATOM     89  C   UNL     1       1.994  13.941   0.858  1.00  0.00     0.091 A 
ATOM     90  F   UNL     1       1.248  12.288   2.412  1.00  0.00    -0.205 F 
ATOM     91  C   UNL     1       2.818  15.042   0.579  1.00  0.00     0.022 A 
BRANCH  89  92
ATOM     92  S   UNL     1       0.955  13.340  -0.478  1.00  0.00     0.127 S 
ATOM     93  O   UNL     1      -0.030  14.412  -0.596  1.00  0.00    -0.237 OA
ATOM     94  O   UNL     1       1.909  13.254  -1.584  1.00  0.00    -0.237 OA
ATOM     95  O   UNL     1       0.439  12.055  -0.029  1.00  0.00    -0.744 OA
ENDBRANCH  89  92
ENDBRANCH  61  85
BRANCH  73  96
ATOM     96  C   UNL     1       1.941  15.792   9.649  1.00  0.00     0.023 A 
ATOM     97  C   UNL     1       0.600  16.196   9.488  1.00  0.00     0.012 A 
ATOM     98  C   UNL     1       2.817  16.600  10.400  1.00  0.00     0.148 A 
ATOM     99  C   UNL     1       0.152  17.405  10.020  1.00  0.00     0.002 A 
ATOM    100  C   UNL     1       2.351  17.778  10.972  1.00  0.00     0.091 A 
ATOM    101  F   UNL     1       4.095  16.213  10.529  1.00  0.00    -0.205 F 
ATOM    102  C   UNL     1       1.024  18.191  10.769  1.00  0.00     0.022 A 
BRANCH 100 103
ATOM    103  S   UNL     1       3.379  18.800  12.033  1.00  0.00     0.127 S 
ATOM    104  O   UNL     1       3.723  19.906  11.141  1.00  0.00    -0.237 OA
ATOM    105  O   UNL     1       2.459  19.152  13.115  1.00  0.00    -0.237 OA
ATOM    106  O   UNL     1       4.491  17.953  12.443  1.00  0.00    -0.744 OA
ENDBRANCH 100 103
ENDBRANCH  73  96
ENDBRANCH  47  48
ENDBRANCH  39  42
ENDBRANCH  37  38
ENDBRANCH  36  37
ENDBRANCH   1  36
TORSDOF 19
