REMARK SMILES CCc1c(Cl)ccc2c1C=C(C(=O)NCCCCNC(=O)c1ccc(-c3c4nc(c(-c5cccc(S(=O)(=O)[O-])c5F)c5ccc([nH]5)c(-c5cccc(S(=O)(=O)[O-])c5F)c5nc(c(-c6cccc(S(=O)(=O)[O-])c6F)c6ccc3[nH]6)C=C5)C=C4)cc1)[C@@H](C(F)(F)F)O2
REMARK SMILES IDX 17 1 16 2 15 3 14 4 12 5 13 6 11 8 3 9 4 10 9 11 5 12 6 13
REMARK SMILES IDX 8 14 10 15 7 16 90 17 85 18 2 19 1 20 86 21 87 22 88 23
REMARK SMILES IDX 89 24 18 25 19 26 20 27 21 29 22 30 23 31 84 32 24 33 83 34
REMARK SMILES IDX 25 35 26 36 27 37 77 38 28 39 82 40 76 41 78 42 29 43 81 44
REMARK SMILES IDX 75 45 74 46 30 48 62 49 42 50 61 51 43 52 46 53 60 54 79 55
REMARK SMILES IDX 44 56 45 57 59 59 80 60 47 61 31 62 32 63 40 64 33 65 35 66
REMARK SMILES IDX 41 67 34 68 36 69 37 70 38 71 39 72 63 73 64 74 72 75 65 76
REMARK SMILES IDX 67 77 73 78 66 79 68 80 69 81 70 82 71 83 48 84 49 85 57 86
REMARK SMILES IDX 50 87 52 88 58 89 51 90 53 91 54 92 55 93 56 94
REMARK H PARENT 14 7 19 28 78 47 46 58
REMARK Flexibility Score: inf
ROOT
ATOM      1  C   UNL     1      -2.774  -7.267   3.677  1.00  0.00     0.023 C 
ENDROOT
BRANCH   1   2
ATOM      2  C   UNL     1      -1.996  -7.048   2.376  1.00  0.00     0.023 C 
BRANCH   2   3
ATOM      3  C   UNL     1      -2.792  -6.354   1.274  1.00  0.00     0.116 C 
BRANCH   3   4
ATOM      4  N   UNL     1      -2.811  -4.912   1.439  1.00  0.00    -0.352 N 
ATOM      5  C   UNL     1      -2.180  -3.847   0.894  1.00  0.00     0.251 C 
ATOM      6  O   UNL     1      -2.511  -2.748   1.353  1.00  0.00    -0.270 OA
ATOM      7  H   UNL     1      -3.454  -4.636   2.131  1.00  0.00     0.163 HD
BRANCH   5   8
ATOM      8  C   UNL     1      -1.149  -3.909  -0.186  1.00  0.00     0.067 C 
ATOM      9  C   UNL     1       1.036  -1.455  -1.985  1.00  0.00    -0.019 A 
ATOM     10  C   UNL     1       2.060  -1.516  -2.958  1.00  0.00     0.045 A 
ATOM     11  C   UNL     1       0.483  -2.674  -1.517  1.00  0.00     0.022 A 
ATOM     12  Cl  UNL     1       2.847  -0.099  -3.567  1.00  0.00    -0.084 Cl
ATOM     13  C   UNL     1       2.503  -2.740  -3.466  1.00  0.00     0.024 A 
ATOM     14  C   UNL     1       0.938  -3.890  -2.048  1.00  0.00     0.128 A 
ATOM     15  C   UNL     1      -0.523  -2.746  -0.453  1.00  0.00     0.026 C 
ATOM     16  C   UNL     1       1.942  -3.927  -3.010  1.00  0.00     0.048 A 
ATOM     17  O   UNL     1       0.479  -5.108  -1.633  1.00  0.00    -0.475 OA
ATOM     18  C   UNL     1      -0.820  -5.134  -0.982  1.00  0.00     0.314 C 
BRANCH   9  19
ATOM     19  C   UNL     1       0.569  -0.118  -1.442  1.00  0.00     0.034 C 
ATOM     20  C   UNL     1       1.312   0.280  -0.174  1.00  0.00     0.009 C 
ENDBRANCH   9  19
BRANCH  18  21
ATOM     21  C   UNL     1      -1.902  -5.478  -2.023  1.00  0.00     0.429 C 
ATOM     22  F   UNL     1      -1.717  -6.734  -2.500  1.00  0.00    -0.167 F 
ATOM     23  F   UNL     1      -3.151  -5.443  -1.506  1.00  0.00    -0.167 F 
ATOM     24  F   UNL     1      -1.888  -4.638  -3.082  1.00  0.00    -0.167 F 
ENDBRANCH  18  21
ENDBRANCH   5   8
ENDBRANCH   3   4
ENDBRANCH   2   3
ENDBRANCH   1   2
BRANCH   1  25
ATOM     25  C   UNL     1      -4.104  -8.005   3.534  1.00  0.00     0.116 C 
BRANCH  25  26
ATOM     26  N   UNL     1      -4.018  -9.259   2.798  1.00  0.00    -0.352 N 
ATOM     27  C   UNL     1      -4.848 -10.354   2.904  1.00  0.00     0.251 C 
ATOM     28  H   UNL     1      -3.281  -9.334   2.149  1.00  0.00     0.163 HD
ATOM     29  O   UNL     1      -4.626 -11.373   2.259  1.00  0.00    -0.269 OA
BRANCH  27  30
ATOM     30  C   UNL     1      -5.974 -10.287   3.857  1.00  0.00     0.039 A 
ATOM     31  C   UNL     1      -6.873  -9.221   3.796  1.00  0.00     0.014 A 
ATOM     32  C   UNL     1      -6.044 -11.223   4.891  1.00  0.00     0.014 A 
ATOM     33  C   UNL     1      -7.725  -8.991   4.869  1.00  0.00     0.010 A 
ATOM     34  C   UNL     1      -6.955 -11.028   5.931  1.00  0.00     0.010 A 
ATOM     35  C   UNL     1      -7.756  -9.876   5.960  1.00  0.00    -0.014 A 
BRANCH  35  36
ATOM     36  C   UNL     1      -8.610  -9.553   7.130  1.00  0.00     0.031 A 
ATOM     37  C   UNL     1      -7.998  -9.228   8.468  1.00  0.00     0.074 A 
ATOM     38  C   UNL     1      -9.945  -9.485   6.967  1.00  0.00     0.049 A 
ATOM     39  N   UNL     1      -8.594  -8.867   9.575  1.00  0.00    -0.248 NA
ATOM     40  C   UNL     1      -6.532  -9.319   8.584  1.00  0.00     0.031 C 
ATOM     41  C   UNL     1     -10.654  -9.791   5.723  1.00  0.00     0.029 A 
ATOM     42  N   UNL     1     -10.939  -9.116   7.836  1.00  0.00    -0.354 N 
ATOM     43  C   UNL     1      -7.589  -8.732  10.525  1.00  0.00     0.074 A 
ATOM     44  C   UNL     1      -6.340  -9.047   9.868  1.00  0.00     0.031 C 
ATOM     45  C   UNL     1     -11.961  -9.544   5.892  1.00  0.00     0.029 A 
ATOM     46  C   UNL     1     -12.189  -9.106   7.266  1.00  0.00     0.049 A 
ATOM     47  H   UNL     1     -10.773  -8.880   8.777  1.00  0.00     0.167 HD
ATOM     48  C   UNL     1      -7.695  -8.358  11.822  1.00  0.00     0.034 A 
ATOM     49  C   UNL     1     -13.388  -8.777   7.785  1.00  0.00     0.034 A 
ATOM     50  C   UNL     1      -8.926  -7.976  12.457  1.00  0.00     0.049 A 
ATOM     51  C   UNL     1     -13.472  -8.332   9.215  1.00  0.00     0.074 A 
ATOM     52  C   UNL     1      -9.120  -7.537  13.756  1.00  0.00     0.029 A 
ATOM     53  N   UNL     1     -10.167  -7.974  11.843  1.00  0.00    -0.354 N 
ATOM     54  N   UNL     1     -12.500  -8.145  10.074  1.00  0.00    -0.248 NA
ATOM     55  C   UNL     1     -14.812  -8.044   9.747  1.00  0.00     0.031 C 
ATOM     56  C   UNL     1     -10.480  -7.264  13.925  1.00  0.00     0.029 A 
ATOM     57  C   UNL     1     -11.132  -7.539  12.733  1.00  0.00     0.049 A 
ATOM     58  H   UNL     1     -10.338  -8.243  10.911  1.00  0.00     0.167 HD
ATOM     59  C   UNL     1     -13.107  -7.715  11.246  1.00  0.00     0.074 A 
ATOM     60  C   UNL     1     -14.530  -7.643  10.981  1.00  0.00     0.031 C 
ATOM     61  C   UNL     1     -12.537  -7.431  12.441  1.00  0.00     0.034 A 
BRANCH  48  62
ATOM     62  C   UNL     1      -6.438  -8.277  12.641  1.00  0.00     0.023 A 
ATOM     63  C   UNL     1      -5.636  -7.123  12.553  1.00  0.00     0.012 A 
ATOM     64  C   UNL     1      -6.110  -9.285  13.569  1.00  0.00     0.148 A 
ATOM     65  C   UNL     1      -4.520  -6.972  13.375  1.00  0.00     0.002 A 
ATOM     66  C   UNL     1      -5.009  -9.117  14.402  1.00  0.00     0.091 A 
ATOM     67  F   UNL     1      -6.880 -10.380  13.621  1.00  0.00    -0.205 F 
ATOM     68  C   UNL     1      -4.213  -7.963  14.305  1.00  0.00     0.022 A 
BRANCH  66  69
ATOM     69  S   UNL     1      -4.555 -10.308  15.668  1.00  0.00     0.127 S 
ATOM     70  O   UNL     1      -3.298 -10.835  15.138  1.00  0.00    -0.237 OA
ATOM     71  O   UNL     1      -4.411  -9.461  16.851  1.00  0.00    -0.237 OA
ATOM     72  O   UNL     1      -5.651 -11.265  15.733  1.00  0.00    -0.744 OA
ENDBRANCH  66  69
ENDBRANCH  48  62
BRANCH  49  73
ATOM     73  C   UNL     1     -14.586  -8.800   6.905  1.00  0.00     0.023 A 
ATOM     74  C   UNL     1     -15.118  -7.582   6.442  1.00  0.00     0.012 A 
ATOM     75  C   UNL     1     -15.129 -10.014   6.443  1.00  0.00     0.148 A 
ATOM     76  C   UNL     1     -16.174  -7.574   5.530  1.00  0.00     0.002 A 
ATOM     77  C   UNL     1     -16.148  -9.998   5.499  1.00  0.00     0.091 A 
ATOM     78  F   UNL     1     -14.610 -11.158   6.910  1.00  0.00    -0.205 F 
ATOM     79  C   UNL     1     -16.678  -8.779   5.048  1.00  0.00     0.022 A 
BRANCH  77  80
ATOM     80  S   UNL     1     -16.767 -11.496   4.726  1.00  0.00     0.127 S 
ATOM     81  O   UNL     1     -18.113 -11.586   5.285  1.00  0.00    -0.237 OA
ATOM     82  O   UNL     1     -16.710 -11.148   3.306  1.00  0.00    -0.237 OA
ATOM     83  O   UNL     1     -15.847 -12.553   5.122  1.00  0.00    -0.744 OA
ENDBRANCH  77  80
ENDBRANCH  49  73
BRANCH  61  84
ATOM     84  C   UNL     1     -13.438  -7.025  13.572  1.00  0.00     0.023 A 
ATOM     85  C   UNL     1     -14.099  -8.027  14.308  1.00  0.00     0.012 A 
ATOM     86  C   UNL     1     -13.530  -5.681  13.980  1.00  0.00     0.148 A 
ATOM     87  C   UNL     1     -14.844  -7.696  15.438  1.00  0.00     0.002 A 
ATOM     88  C   UNL     1     -14.252  -5.362  15.124  1.00  0.00     0.091 A 
ATOM     89  F   UNL     1     -12.896  -4.749  13.255  1.00  0.00    -0.205 F 
ATOM     90  C   UNL     1     -14.912  -6.368  15.852  1.00  0.00     0.022 A 
BRANCH  88  91
ATOM     91  S   UNL     1     -14.344  -3.692  15.778  1.00  0.00     0.127 S 
ATOM     92  O   UNL     1     -15.757  -3.372  15.578  1.00  0.00    -0.237 OA
ATOM     93  O   UNL     1     -13.953  -3.885  17.174  1.00  0.00    -0.237 OA
ATOM     94  O   UNL     1     -13.412  -2.897  14.990  1.00  0.00    -0.744 OA
ENDBRANCH  88  91
ENDBRANCH  61  84
ENDBRANCH  35  36
ENDBRANCH  27  30
ENDBRANCH  25  26
ENDBRANCH   1  25
TORSDOF 16
