REMARK SMILES CC(C)c1nc(N(C)C[C@@H]2CC[N@@H+](C)C2)sc1C(=O)NCCCCNC(=O)c1ccc(-c2c3nc(c(-c4cccc(S(=O)(=O)[O-])c4F)c4ccc([nH]4)c(-c4cccc(S(=O)(=O)[O-])c4F)c4nc(c(-c5cccc(S(=O)(=O)[O-])c5F)c5ccc2[nH]5)C=C4)C=C3)cc1
REMARK SMILES IDX 22 1 21 2 20 3 18 4 19 5 17 7 4 8 5 9 6 10 16 11 2 12 1 13
REMARK SMILES IDX 3 14 7 15 8 16 9 17 10 18 11 19 15 20 12 21 13 22 14 23
REMARK SMILES IDX 23 25 24 26 25 27 26 28 27 30 28 31 29 32 90 33 30 34 89 35
REMARK SMILES IDX 31 36 32 37 33 38 83 39 34 40 88 41 82 42 84 43 35 44 87 45
REMARK SMILES IDX 81 46 80 47 36 49 68 50 48 51 67 52 49 53 52 54 66 55 85 56
REMARK SMILES IDX 50 57 51 58 65 60 86 61 53 62 37 63 38 64 46 65 39 66 41 67
REMARK SMILES IDX 47 68 40 69 42 70 43 71 44 72 45 73 69 74 70 75 78 76 71 77
REMARK SMILES IDX 73 78 79 79 72 80 74 81 75 82 76 83 77 84 54 85 55 86 63 87
REMARK SMILES IDX 56 88 58 89 64 90 57 91 59 92 60 93 61 94 62 95
REMARK H PARENT 20 6 13 24 25 29 84 48 52 59
REMARK Flexibility Score: inf
ROOT
ATOM      1  C   UNL     1       2.188   1.069  -2.950  1.00  0.00     0.023 C 
ENDROOT
BRANCH   1   2
ATOM      2  C   UNL     1       1.190   0.490  -1.957  1.00  0.00     0.116 C 
BRANCH   2   3
ATOM      3  N   UNL     1       0.163   1.386  -1.494  1.00  0.00    -0.351 N 
ATOM      4  C   UNL     1      -1.044   1.093  -0.894  1.00  0.00     0.263 C 
ATOM      5  O   UNL     1      -1.727   2.073  -0.584  1.00  0.00    -0.268 OA
ATOM      6  H   UNL     1       0.348   2.344  -1.625  1.00  0.00     0.163 HD
BRANCH   4   7
ATOM      7  C   UNL     1      -1.506  -0.276  -0.701  1.00  0.00     0.117 A 
ATOM      8  C   UNL     1      -0.939  -1.474  -0.272  1.00  0.00     0.069 A 
ATOM      9  N   UNL     1      -1.817  -2.554  -0.295  1.00  0.00    -0.224 NA
ATOM     10  C   UNL     1      -3.032  -2.219  -0.658  1.00  0.00     0.186 A 
ATOM     11  S   UNL     1      -3.195  -0.539  -0.976  1.00  0.00    -0.091 S 
BRANCH   8  12
ATOM     12  C   UNL     1       0.464  -1.786   0.196  1.00  0.00     0.034 C 
ATOM     13  C   UNL     1       0.896  -0.918   1.378  1.00  0.00     0.014 C 
ATOM     14  C   UNL     1       0.683  -3.266   0.541  1.00  0.00     0.014 C 
ENDBRANCH   8  12
BRANCH  10  15
ATOM     15  N   UNL     1      -4.028  -3.135  -0.819  1.00  0.00    -0.351 N 
ATOM     16  C   UNL     1      -5.439  -2.801  -0.748  1.00  0.00     0.146 C 
BRANCH  15  17
ATOM     17  C   UNL     1      -3.687  -4.559  -0.895  1.00  0.00     0.128 C 
BRANCH  17  18
ATOM     18  C   UNL     1      -2.831  -4.900  -2.128  1.00  0.00     0.069 C 
ATOM     19  C   UNL     1      -3.430  -4.383  -3.446  1.00  0.00     0.072 C 
ATOM     20  C   UNL     1      -2.722  -6.415  -2.331  1.00  0.00     0.267 C 
ATOM     21  C   UNL     1      -3.557  -5.609  -4.335  1.00  0.00     0.262 C 
ATOM     22  N   UNL     1      -3.724  -6.691  -3.365  1.00  0.00    -0.337 N 
ATOM     23  C   UNL     1      -3.555  -8.002  -3.973  1.00  0.00     0.332 C 
ATOM     24  H   UNL     1      -4.667  -6.720  -2.976  1.00  0.00     0.347 HD
ENDBRANCH  17  18
ENDBRANCH  15  17
ENDBRANCH  10  15
ENDBRANCH   4   7
ENDBRANCH   2   3
ENDBRANCH   1   2
BRANCH   1  25
ATOM     25  C   UNL     1       3.071   2.206  -2.431  1.00  0.00     0.023 C 
BRANCH  25  26
ATOM     26  C   UNL     1       3.692   2.027  -1.046  1.00  0.00     0.116 C 
BRANCH  26  27
ATOM     27  N   UNL     1       4.598   0.890  -0.936  1.00  0.00    -0.352 N 
ATOM     28  C   UNL     1       5.956   0.850  -0.710  1.00  0.00     0.251 C 
ATOM     29  H   UNL     1       4.170   0.009  -1.040  1.00  0.00     0.163 HD
ATOM     30  O   UNL     1       6.541  -0.232  -0.718  1.00  0.00    -0.269 OA
BRANCH  28  31
ATOM     31  C   UNL     1       6.724   2.099  -0.507  1.00  0.00     0.039 A 
ATOM     32  C   UNL     1       7.901   2.294  -1.237  1.00  0.00     0.014 A 
ATOM     33  C   UNL     1       6.278   3.090   0.368  1.00  0.00     0.014 A 
ATOM     34  C   UNL     1       8.562   3.524  -1.175  1.00  0.00     0.010 A 
ATOM     35  C   UNL     1       6.885   4.344   0.360  1.00  0.00     0.010 A 
ATOM     36  C   UNL     1       8.026   4.582  -0.422  1.00  0.00    -0.014 A 
BRANCH  36  37
ATOM     37  C   UNL     1       8.609   5.951  -0.478  1.00  0.00     0.031 A 
ATOM     38  C   UNL     1       9.124   6.617   0.771  1.00  0.00     0.074 A 
ATOM     39  C   UNL     1       8.575   6.643  -1.636  1.00  0.00     0.049 A 
ATOM     40  N   UNL     1       9.592   7.829   0.925  1.00  0.00    -0.248 NA
ATOM     41  C   UNL     1       9.078   5.831   2.014  1.00  0.00     0.031 C 
ATOM     42  C   UNL     1       8.018   6.152  -2.900  1.00  0.00     0.029 A 
ATOM     43  N   UNL     1       8.988   7.919  -1.933  1.00  0.00    -0.354 N 
ATOM     44  C   UNL     1       9.857   7.965   2.283  1.00  0.00     0.074 A 
ATOM     45  C   UNL     1       9.466   6.723   2.914  1.00  0.00     0.031 C 
ATOM     46  C   UNL     1       8.131   7.110  -3.834  1.00  0.00     0.029 A 
ATOM     47  C   UNL     1       8.737   8.294  -3.234  1.00  0.00     0.049 A 
ATOM     48  H   UNL     1       9.423   8.510  -1.278  1.00  0.00     0.167 HD
ATOM     49  C   UNL     1      10.407   9.013   2.943  1.00  0.00     0.034 A 
ATOM     50  C   UNL     1       8.961   9.460  -3.873  1.00  0.00     0.034 A 
ATOM     51  C   UNL     1      10.845  10.227   2.309  1.00  0.00     0.049 A 
ATOM     52  C   UNL     1       9.619  10.590  -3.128  1.00  0.00     0.074 A 
ATOM     53  C   UNL     1      11.506  11.303   2.876  1.00  0.00     0.029 A 
ATOM     54  N   UNL     1      10.663  10.532   0.969  1.00  0.00    -0.354 N 
ATOM     55  N   UNL     1      10.021  10.633  -1.881  1.00  0.00    -0.248 NA
ATOM     56  C   UNL     1       9.888  11.820  -3.888  1.00  0.00     0.031 C 
ATOM     57  C   UNL     1      11.706  12.267   1.882  1.00  0.00     0.029 A 
ATOM     58  C   UNL     1      11.189  11.782   0.692  1.00  0.00     0.049 A 
ATOM     59  H   UNL     1      10.223   9.946   0.311  1.00  0.00     0.167 HD
ATOM     60  C   UNL     1      10.619  11.877  -1.716  1.00  0.00     0.074 A 
ATOM     61  C   UNL     1      10.548  12.548  -2.998  1.00  0.00     0.031 C 
ATOM     62  C   UNL     1      11.163  12.420  -0.600  1.00  0.00     0.034 A 
BRANCH  49  63
ATOM     63  C   UNL     1      10.624   8.868   4.427  1.00  0.00     0.023 A 
ATOM     64  C   UNL     1      11.629   7.998   4.898  1.00  0.00     0.012 A 
ATOM     65  C   UNL     1       9.880   9.627   5.351  1.00  0.00     0.148 A 
ATOM     66  C   UNL     1      11.865   7.857   6.264  1.00  0.00     0.002 A 
ATOM     67  C   UNL     1      10.151   9.515   6.710  1.00  0.00     0.091 A 
ATOM     68  F   UNL     1       8.915  10.434   4.887  1.00  0.00    -0.205 F 
ATOM     69  C   UNL     1      11.134   8.622   7.168  1.00  0.00     0.022 A 
BRANCH  67  70
ATOM     70  S   UNL     1       9.320  10.514   7.950  1.00  0.00     0.127 S 
ATOM     71  O   UNL     1       8.454   9.527   8.593  1.00  0.00    -0.237 OA
ATOM     72  O   UNL     1      10.438  10.974   8.775  1.00  0.00    -0.237 OA
ATOM     73  O   UNL     1       8.633  11.569   7.219  1.00  0.00    -0.744 OA
ENDBRANCH  67  70
ENDBRANCH  49  63
BRANCH  50  74
ATOM     74  C   UNL     1       8.625   9.593  -5.319  1.00  0.00     0.023 A 
ATOM     75  C   UNL     1       9.668   9.669  -6.264  1.00  0.00     0.012 A 
ATOM     76  C   UNL     1       7.290   9.617  -5.768  1.00  0.00     0.148 A 
ATOM     77  C   UNL     1       9.389   9.799  -7.625  1.00  0.00     0.002 A 
ATOM     78  C   UNL     1       7.019   9.691  -7.130  1.00  0.00     0.091 A 
ATOM     79  F   UNL     1       6.312   9.555  -4.854  1.00  0.00    -0.205 F 
ATOM     80  C   UNL     1       8.066   9.800  -8.058  1.00  0.00     0.022 A 
BRANCH  78  81
ATOM     81  S   UNL     1       5.352   9.563  -7.788  1.00  0.00     0.127 S 
ATOM     82  O   UNL     1       5.104  10.929  -8.242  1.00  0.00    -0.237 OA
ATOM     83  O   UNL     1       5.524   8.579  -8.857  1.00  0.00    -0.237 OA
ATOM     84  O   UNL     1       4.527   9.104  -6.678  1.00  0.00    -0.744 OA
ENDBRANCH  78  81
ENDBRANCH  50  74
BRANCH  62  85
ATOM     85  C   UNL     1      11.758  13.800  -0.710  1.00  0.00     0.023 A 
ATOM     86  C   UNL     1      10.910  14.919  -0.833  1.00  0.00     0.012 A 
ATOM     87  C   UNL     1      13.150  13.995  -0.614  1.00  0.00     0.148 A 
ATOM     88  C   UNL     1      11.441  16.208  -0.889  1.00  0.00     0.002 A 
ATOM     89  C   UNL     1      13.668  15.284  -0.623  1.00  0.00     0.091 A 
ATOM     90  F   UNL     1      13.941  12.916  -0.517  1.00  0.00    -0.205 F 
ATOM     91  C   UNL     1      12.817  16.391  -0.772  1.00  0.00     0.022 A 
BRANCH  89  92
ATOM     92  S   UNL     1      15.417  15.620  -0.382  1.00  0.00     0.127 S 
ATOM     93  O   UNL     1      15.834  16.007  -1.728  1.00  0.00    -0.237 OA
ATOM     94  O   UNL     1      15.393  16.716   0.587  1.00  0.00    -0.237 OA
ATOM     95  O   UNL     1      15.996  14.383   0.122  1.00  0.00    -0.744 OA
ENDBRANCH  89  92
ENDBRANCH  62  85
ENDBRANCH  36  37
ENDBRANCH  28  31
ENDBRANCH  26  27
ENDBRANCH  25  26
ENDBRANCH   1  25
TORSDOF 18
