REMARK SMILES O=C(NCCCCNC(=O)[C@H](CO)NC(=O)[C@H](CS)NC(=O)c1ccc(F)cc1)c1ccc(-c2c3nc(c(-c4cccc(S(=O)(=O)[O-])c4F)c4ccc([nH]4)c(-c4cccc(S(=O)(=O)[O-])c4F)c4nc(c(-c5cccc(S(=O)(=O)[O-])c5F)c5ccc2[nH]5)C=C4)C=C3)cc1
REMARK SMILES IDX 6 1 5 2 4 3 3 4 1 5 2 6 30 8 31 9 92 10 32 11 91 12 33 13
REMARK SMILES IDX 34 14 35 15 85 16 36 17 90 18 84 19 86 20 37 21 89 22 83 23
REMARK SMILES IDX 82 24 38 26 70 27 50 28 69 29 51 30 54 31 68 32 87 33 52 34
REMARK SMILES IDX 53 35 67 37 88 38 55 39 39 40 40 41 48 42 41 43 43 44 49 45
REMARK SMILES IDX 42 46 44 47 45 48 46 49 47 50 71 51 72 52 80 53 73 54 75 55
REMARK SMILES IDX 81 56 74 57 76 58 77 59 78 60 79 61 56 62 57 63 65 64 58 65
REMARK SMILES IDX 60 66 66 67 59 68 61 69 62 70 63 71 64 72 7 73 8 74 9 75
REMARK SMILES IDX 10 77 11 78 14 79 15 80 16 82 17 83 20 84 21 85 22 87 23 88
REMARK SMILES IDX 24 89 29 90 25 91 28 92 26 93 27 94 18 95 19 96 12 98 13 99
REMARK H PARENT 3 7 86 25 54 36 8 76 14 81 20 86 19 97 13 100
REMARK Flexibility Score: inf
ROOT
ATOM      1  C   UNL     1       8.068   7.573  -8.481  1.00  0.00     0.023 C 
ENDROOT
BRANCH   1   2
ATOM      2  C   UNL     1       8.345   7.531  -9.975  1.00  0.00     0.023 C 
BRANCH   2   3
ATOM      3  C   UNL     1       8.713   6.159 -10.509  1.00  0.00     0.116 C 
BRANCH   3   4
ATOM      4  N   UNL     1       7.731   5.115 -10.243  1.00  0.00    -0.352 N 
ATOM      5  O   UNL     1       6.544   3.240 -10.714  1.00  0.00    -0.269 OA
ATOM      6  C   UNL     1       7.433   4.022 -11.031  1.00  0.00     0.251 C 
ATOM      7  H   UNL     1       7.222   5.199  -9.405  1.00  0.00     0.163 HD
BRANCH   6   8
ATOM      8  C   UNL     1       8.175   3.858 -12.299  1.00  0.00     0.039 A 
ATOM      9  C   UNL     1       9.561   3.995 -12.302  1.00  0.00     0.014 A 
ATOM     10  C   UNL     1       7.472   3.713 -13.497  1.00  0.00     0.014 A 
ATOM     11  C   UNL     1      10.214   4.215 -13.502  1.00  0.00     0.010 A 
ATOM     12  C   UNL     1       8.159   3.800 -14.712  1.00  0.00     0.010 A 
ATOM     13  C   UNL     1       9.527   4.107 -14.725  1.00  0.00    -0.014 A 
BRANCH  13  14
ATOM     14  C   UNL     1      10.307   4.260 -15.981  1.00  0.00     0.031 A 
ATOM     15  C   UNL     1      10.018   5.347 -16.977  1.00  0.00     0.074 A 
ATOM     16  C   UNL     1      11.351   3.428 -16.171  1.00  0.00     0.049 A 
ATOM     17  N   UNL     1      10.698   5.671 -18.047  1.00  0.00    -0.248 NA
ATOM     18  C   UNL     1       8.815   6.168 -16.766  1.00  0.00     0.031 C 
ATOM     19  C   UNL     1      11.689   2.305 -15.291  1.00  0.00     0.029 A 
ATOM     20  N   UNL     1      12.341   3.415 -17.119  1.00  0.00    -0.354 N 
ATOM     21  C   UNL     1       9.981   6.688 -18.666  1.00  0.00     0.074 A 
ATOM     22  C   UNL     1       8.813   6.936 -17.849  1.00  0.00     0.031 C 
ATOM     23  C   UNL     1      12.855   1.778 -15.679  1.00  0.00     0.029 A 
ATOM     24  C   UNL     1      13.310   2.467 -16.880  1.00  0.00     0.049 A 
ATOM     25  H   UNL     1      12.357   4.023 -17.893  1.00  0.00     0.167 HD
ATOM     26  C   UNL     1      10.280   7.358 -19.805  1.00  0.00     0.034 A 
ATOM     27  C   UNL     1      14.444   2.181 -17.547  1.00  0.00     0.034 A 
ATOM     28  C   UNL     1      11.479   7.145 -20.573  1.00  0.00     0.049 A 
ATOM     29  C   UNL     1      14.790   2.989 -18.760  1.00  0.00     0.074 A 
ATOM     30  C   UNL     1      11.906   7.825 -21.700  1.00  0.00     0.029 A 
ATOM     31  N   UNL     1      12.442   6.186 -20.296  1.00  0.00    -0.354 N 
ATOM     32  N   UNL     1      14.152   4.016 -19.266  1.00  0.00    -0.248 NA
ATOM     33  C   UNL     1      16.006   2.611 -19.490  1.00  0.00     0.031 C 
ATOM     34  C   UNL     1      13.121   7.269 -22.112  1.00  0.00     0.029 A 
ATOM     35  C   UNL     1      13.458   6.251 -21.234  1.00  0.00     0.049 A 
ATOM     36  H   UNL     1      12.408   5.553 -19.543  1.00  0.00     0.167 HD
ATOM     37  C   UNL     1      14.886   4.410 -20.376  1.00  0.00     0.074 A 
ATOM     38  C   UNL     1      16.037   3.531 -20.448  1.00  0.00     0.031 C 
ATOM     39  C   UNL     1      14.615   5.393 -21.269  1.00  0.00     0.034 A 
BRANCH  26  40
ATOM     40  C   UNL     1       9.324   8.422 -20.279  1.00  0.00     0.023 A 
ATOM     41  C   UNL     1       9.294   9.670 -19.627  1.00  0.00     0.012 A 
ATOM     42  C   UNL     1       8.535   8.226 -21.431  1.00  0.00     0.148 A 
ATOM     43  C   UNL     1       8.480  10.700 -20.101  1.00  0.00     0.002 A 
ATOM     44  C   UNL     1       7.755   9.269 -21.919  1.00  0.00     0.091 A 
ATOM     45  F   UNL     1       8.557   7.024 -22.026  1.00  0.00    -0.205 F 
ATOM     46  C   UNL     1       7.722  10.504 -21.252  1.00  0.00     0.022 A 
BRANCH  44  47
ATOM     47  S   UNL     1       6.810   9.130 -23.442  1.00  0.00     0.127 S 
ATOM     48  O   UNL     1       5.456   8.921 -22.933  1.00  0.00    -0.237 OA
ATOM     49  O   UNL     1       7.031  10.434 -24.069  1.00  0.00    -0.237 OA
ATOM     50  O   UNL     1       7.393   8.009 -24.167  1.00  0.00    -0.744 OA
ENDBRANCH  44  47
ENDBRANCH  26  40
BRANCH  27  51
ATOM     51  C   UNL     1      15.344   1.124 -17.006  1.00  0.00     0.023 A 
ATOM     52  C   UNL     1      16.560   1.497 -16.403  1.00  0.00     0.012 A 
ATOM     53  C   UNL     1      14.929  -0.221 -16.944  1.00  0.00     0.148 A 
ATOM     54  C   UNL     1      17.339   0.551 -15.736  1.00  0.00     0.002 A 
ATOM     55  C   UNL     1      15.673  -1.141 -16.216  1.00  0.00     0.091 A 
ATOM     56  F   UNL     1      13.778  -0.558 -17.543  1.00  0.00    -0.205 F 
ATOM     57  C   UNL     1      16.885  -0.761 -15.622  1.00  0.00     0.022 A 
BRANCH  55  58
ATOM     58  S   UNL     1      15.059  -2.792 -15.854  1.00  0.00     0.127 S 
ATOM     59  O   UNL     1      15.911  -3.620 -16.701  1.00  0.00    -0.237 OA
ATOM     60  O   UNL     1      15.318  -2.903 -14.418  1.00  0.00    -0.237 OA
ATOM     61  O   UNL     1      13.645  -2.767 -16.204  1.00  0.00    -0.744 OA
ENDBRANCH  55  58
ENDBRANCH  27  51
BRANCH  39  62
ATOM     62  C   UNL     1      15.567   5.574 -22.418  1.00  0.00     0.023 A 
ATOM     63  C   UNL     1      15.512   4.677 -23.502  1.00  0.00     0.012 A 
ATOM     64  C   UNL     1      16.423   6.690 -22.480  1.00  0.00     0.148 A 
ATOM     65  C   UNL     1      16.306   4.882 -24.630  1.00  0.00     0.002 A 
ATOM     66  C   UNL     1      17.181   6.910 -23.623  1.00  0.00     0.091 A 
ATOM     67  F   UNL     1      16.469   7.519 -21.427  1.00  0.00    -0.205 F 
ATOM     68  C   UNL     1      17.128   6.004 -24.696  1.00  0.00     0.022 A 
BRANCH  66  69
ATOM     69  S   UNL     1      18.201   8.373 -23.837  1.00  0.00     0.127 S 
ATOM     70  O   UNL     1      19.548   7.814 -23.736  1.00  0.00    -0.237 OA
ATOM     71  O   UNL     1      17.825   8.822 -25.177  1.00  0.00    -0.237 OA
ATOM     72  O   UNL     1      17.824   9.286 -22.765  1.00  0.00    -0.744 OA
ENDBRANCH  66  69
ENDBRANCH  39  62
ENDBRANCH  13  14
ENDBRANCH   6   8
ENDBRANCH   3   4
ENDBRANCH   2   3
ENDBRANCH   1   2
BRANCH   1  73
ATOM     73  C   UNL     1       9.220   7.158  -7.572  1.00  0.00     0.116 C 
BRANCH  73  74
ATOM     74  N   UNL     1      10.183   8.226  -7.368  1.00  0.00    -0.354 N 
ATOM     75  C   UNL     1      10.485   8.993  -6.282  1.00  0.00     0.244 C 
ATOM     76  H   UNL     1      10.720   8.437  -8.166  1.00  0.00     0.163 HD
ATOM     77  O   UNL     1      11.377   9.836  -6.439  1.00  0.00    -0.273 OA
BRANCH  75  78
ATOM     78  C   UNL     1       9.644   8.987  -4.978  1.00  0.00     0.197 C 
BRANCH  78  79
ATOM     79  N   UNL     1       9.229   7.676  -4.494  1.00  0.00    -0.340 N 
ATOM     80  C   UNL     1       7.979   7.179  -4.265  1.00  0.00     0.244 C 
ATOM     81  H   UNL     1       9.966   7.051  -4.301  1.00  0.00     0.164 HD
ATOM     82  O   UNL     1       7.889   5.979  -3.993  1.00  0.00    -0.273 OA
BRANCH  80  83
ATOM     83  C   UNL     1       6.716   8.052  -4.472  1.00  0.00     0.181 C 
BRANCH  83  84
ATOM     84  N   UNL     1       6.191   7.806  -5.825  1.00  0.00    -0.339 N 
ATOM     85  C   UNL     1       5.499   8.629  -6.678  1.00  0.00     0.251 C 
ATOM     86  H   UNL     1       6.364   6.902  -6.175  1.00  0.00     0.164 HD
ATOM     87  O   UNL     1       4.820   8.139  -7.576  1.00  0.00    -0.269 OA
BRANCH  85  88
ATOM     88  C   UNL     1       5.604  10.102  -6.591  1.00  0.00     0.040 A 
ATOM     89  C   UNL     1       6.849  10.736  -6.662  1.00  0.00     0.017 A 
ATOM     90  C   UNL     1       4.439  10.874  -6.621  1.00  0.00     0.017 A 
ATOM     91  C   UNL     1       6.943  12.127  -6.656  1.00  0.00     0.040 A 
ATOM     92  C   UNL     1       4.529  12.269  -6.639  1.00  0.00     0.040 A 
ATOM     93  C   UNL     1       5.779  12.882  -6.637  1.00  0.00     0.123 A 
ATOM     94  F   UNL     1       5.864  14.218  -6.648  1.00  0.00    -0.207 F 
ENDBRANCH  85  88
ENDBRANCH  83  84
BRANCH  83  95
ATOM     95  C   UNL     1       5.689   7.586  -3.416  1.00  0.00     0.101 C 
BRANCH  95  96
ATOM     96  S   UNL     1       4.209   8.647  -3.319  1.00  0.00    -0.177 SA
ATOM     97  H   UNL     1       4.576   9.904  -2.949  1.00  0.00     0.102 HD
ENDBRANCH  95  96
ENDBRANCH  83  95
ENDBRANCH  80  83
ENDBRANCH  78  79
BRANCH  78  98
ATOM     98  C   UNL     1      10.389   9.761  -3.873  1.00  0.00     0.191 C 
BRANCH  98  99
ATOM     99  O   UNL     1      11.620   9.130  -3.526  1.00  0.00    -0.394 OA
ATOM    100  H   UNL     1      11.441   8.239  -3.188  1.00  0.00     0.210 HD
ENDBRANCH  98  99
ENDBRANCH  78  98
ENDBRANCH  75  78
ENDBRANCH  73  74
ENDBRANCH   1  73
TORSDOF 22
