REMARK SMILES CC[C@@H]1CCC[C@](CCCCCO)(C(=O)NCCCCNC(=O)c2ccc(-c3c4nc(c(-c5cccc(S(=O)(=O)[O-])c5F)c5ccc([nH]5)c(-c5cccc(S(=O)(=O)[O-])c5F)c5nc(c(-c6cccc(S(=O)(=O)[O-])c6F)c6ccc3[nH]6)C=C5)C=C4)cc2)C1
REMARK SMILES IDX 17 1 16 2 14 3 15 4 7 6 3 7 4 8 87 9 5 10 6 11 2 12 1 13
REMARK SMILES IDX 8 14 9 15 10 16 11 17 12 18 13 19 18 21 19 22 20 23 21 24
REMARK SMILES IDX 22 25 23 27 24 28 25 29 86 30 26 31 85 32 27 33 28 34 29 35
REMARK SMILES IDX 79 36 30 37 84 38 78 39 80 40 31 41 83 42 77 43 76 44 32 46
REMARK SMILES IDX 64 47 44 48 63 49 45 50 48 51 62 52 81 53 46 54 47 55 61 57
REMARK SMILES IDX 82 58 49 59 33 60 34 61 42 62 35 63 37 64 43 65 36 66 38 67
REMARK SMILES IDX 39 68 40 69 41 70 65 71 66 72 74 73 67 74 69 75 75 76 68 77
REMARK SMILES IDX 70 78 71 79 72 80 73 81 50 82 51 83 59 84 52 85 54 86 60 87
REMARK SMILES IDX 53 88 55 89 56 90 57 91 58 92
REMARK H PARENT 16 5 13 20 21 26 80 45 48 56
REMARK Flexibility Score: inf
ROOT
ATOM      1  C   UNL     1       1.370   0.410   6.912  1.00  0.00     0.116 C 
ENDROOT
BRANCH   1   2
ATOM      2  N   UNL     1       0.306   0.622   5.964  1.00  0.00    -0.356 N 
ATOM      3  C   UNL     1      -0.018   0.077   4.773  1.00  0.00     0.226 C 
ATOM      4  O   UNL     1      -1.100   0.489   4.328  1.00  0.00    -0.274 OA
ATOM      5  H   UNL     1      -0.327   1.320   6.250  1.00  0.00     0.163 HD
BRANCH   3   6
ATOM      6  C   UNL     1       0.778  -1.030   4.002  1.00  0.00     0.049 C 
ATOM      7  C   UNL     1       0.853  -1.760   1.443  1.00  0.00    -0.010 C 
ATOM      8  C   UNL     1       0.248  -3.114   1.840  1.00  0.00     0.003 C 
ATOM      9  C   UNL     1       0.484  -0.674   2.476  1.00  0.00     0.020 C 
ATOM     10  C   UNL     1       0.540  -3.477   3.293  1.00  0.00     0.001 C 
ATOM     11  C   UNL     1       0.069  -2.377   4.241  1.00  0.00     0.017 C 
BRANCH   7  12
ATOM     12  C   UNL     1       0.393  -1.377   0.020  1.00  0.00     0.000 C 
ATOM     13  C   UNL     1       0.989  -0.070  -0.485  1.00  0.00     0.004 C 
ENDBRANCH   7  12
BRANCH   6  14
ATOM     14  C   UNL     1       2.337  -1.007   4.132  1.00  0.00     0.017 C 
BRANCH  14  15
ATOM     15  C   UNL     1       3.275  -1.721   5.139  1.00  0.00     0.001 C 
BRANCH  15  16
ATOM     16  C   UNL     1       2.820  -2.750   6.174  1.00  0.00     0.002 C 
BRANCH  16  17
ATOM     17  C   UNL     1       3.404  -4.149   5.948  1.00  0.00     0.028 C 
BRANCH  17  18
ATOM     18  C   UNL     1       4.899  -4.255   6.246  1.00  0.00     0.156 C 
BRANCH  18  19
ATOM     19  O   UNL     1       5.149  -4.130   7.638  1.00  0.00    -0.396 OA
ATOM     20  H   UNL     1       4.840  -3.264   7.946  1.00  0.00     0.210 HD
ENDBRANCH  18  19
ENDBRANCH  17  18
ENDBRANCH  16  17
ENDBRANCH  15  16
ENDBRANCH  14  15
ENDBRANCH   6  14
ENDBRANCH   3   6
ENDBRANCH   1   2
BRANCH   1  21
ATOM     21  C   UNL     1       2.544   1.364   6.686  1.00  0.00     0.023 C 
BRANCH  21  22
ATOM     22  C   UNL     1       2.653   2.501   7.701  1.00  0.00     0.023 C 
BRANCH  22  23
ATOM     23  C   UNL     1       2.849   2.058   9.147  1.00  0.00     0.116 C 
BRANCH  23  24
ATOM     24  N   UNL     1       4.015   1.208   9.368  1.00  0.00    -0.352 N 
ATOM     25  C   UNL     1       4.731   1.060  10.536  1.00  0.00     0.251 C 
ATOM     26  H   UNL     1       4.324   0.681   8.596  1.00  0.00     0.163 HD
ATOM     27  O   UNL     1       5.729   0.346  10.576  1.00  0.00    -0.269 OA
BRANCH  25  28
ATOM     28  C   UNL     1       4.301   1.830  11.721  1.00  0.00     0.039 A 
ATOM     29  C   UNL     1       5.199   2.724  12.309  1.00  0.00     0.014 A 
ATOM     30  C   UNL     1       2.973   1.767  12.149  1.00  0.00     0.014 A 
ATOM     31  C   UNL     1       4.733   3.633  13.263  1.00  0.00     0.010 A 
ATOM     32  C   UNL     1       2.497   2.725  13.036  1.00  0.00     0.010 A 
ATOM     33  C   UNL     1       3.368   3.676  13.591  1.00  0.00    -0.014 A 
BRANCH  33  34
ATOM     34  C   UNL     1       2.812   4.732  14.475  1.00  0.00     0.031 A 
ATOM     35  C   UNL     1       2.136   4.359  15.764  1.00  0.00     0.074 A 
ATOM     36  C   UNL     1       2.803   6.014  14.055  1.00  0.00     0.049 A 
ATOM     37  N   UNL     1       1.519   5.127  16.623  1.00  0.00    -0.248 NA
ATOM     38  C   UNL     1       2.115   2.929  16.116  1.00  0.00     0.031 C 
ATOM     39  C   UNL     1       3.335   6.494  12.777  1.00  0.00     0.029 A 
ATOM     40  N   UNL     1       2.304   7.148  14.649  1.00  0.00    -0.354 N 
ATOM     41  C   UNL     1       0.991   4.272  17.583  1.00  0.00     0.074 A 
ATOM     42  C   UNL     1       1.336   2.925  17.187  1.00  0.00     0.031 C 
ATOM     43  C   UNL     1       3.150   7.821  12.691  1.00  0.00     0.029 A 
ATOM     44  C   UNL     1       2.468   8.287  13.894  1.00  0.00     0.049 A 
ATOM     45  H   UNL     1       1.869   7.145  15.532  1.00  0.00     0.167 HD
ATOM     46  C   UNL     1       0.312   4.582  18.713  1.00  0.00     0.034 A 
ATOM     47  C   UNL     1       2.118   9.563  14.149  1.00  0.00     0.034 A 
ATOM     48  C   UNL     1       0.050   5.925  19.149  1.00  0.00     0.049 A 
ATOM     49  C   UNL     1       1.445   9.889  15.455  1.00  0.00     0.074 A 
ATOM     50  C   UNL     1      -0.507   6.349  20.342  1.00  0.00     0.029 A 
ATOM     51  N   UNL     1       0.332   7.064  18.411  1.00  0.00    -0.354 N 
ATOM     52  N   UNL     1       1.123   9.085  16.439  1.00  0.00    -0.248 NA
ATOM     53  C   UNL     1       1.120  11.302  15.702  1.00  0.00     0.031 C 
ATOM     54  C   UNL     1      -0.563   7.747  20.325  1.00  0.00     0.029 A 
ATOM     55  C   UNL     1      -0.041   8.192  19.120  1.00  0.00     0.049 A 
ATOM     56  H   UNL     1       0.738   7.069  17.514  1.00  0.00     0.167 HD
ATOM     57  C   UNL     1       0.593   9.897  17.436  1.00  0.00     0.074 A 
ATOM     58  C   UNL     1       0.651  11.258  16.942  1.00  0.00     0.031 C 
ATOM     59  C   UNL     1       0.087   9.544  18.643  1.00  0.00     0.034 A 
BRANCH  46  60
ATOM     60  C   UNL     1      -0.123   3.443  19.595  1.00  0.00     0.023 A 
ATOM     61  C   UNL     1       0.842   2.754  20.358  1.00  0.00     0.012 A 
ATOM     62  C   UNL     1      -1.478   3.076  19.697  1.00  0.00     0.148 A 
ATOM     63  C   UNL     1       0.470   1.693  21.182  1.00  0.00     0.002 A 
ATOM     64  C   UNL     1      -1.846   2.041  20.551  1.00  0.00     0.091 A 
ATOM     65  F   UNL     1      -2.378   3.721  18.942  1.00  0.00    -0.205 F 
ATOM     66  C   UNL     1      -0.873   1.343  21.286  1.00  0.00     0.022 A 
BRANCH  64  67
ATOM     67  S   UNL     1      -3.562   1.572  20.798  1.00  0.00     0.127 S 
ATOM     68  O   UNL     1      -3.676   0.399  19.934  1.00  0.00    -0.237 OA
ATOM     69  O   UNL     1      -3.605   1.278  22.232  1.00  0.00    -0.237 OA
ATOM     70  O   UNL     1      -4.346   2.733  20.401  1.00  0.00    -0.744 OA
ENDBRANCH  64  67
ENDBRANCH  46  60
BRANCH  47  71
ATOM     71  C   UNL     1       2.501  10.644  13.197  1.00  0.00     0.023 A 
ATOM     72  C   UNL     1       3.539  11.526  13.558  1.00  0.00     0.012 A 
ATOM     73  C   UNL     1       1.886  10.786  11.940  1.00  0.00     0.148 A 
ATOM     74  C   UNL     1       3.940  12.547  12.695  1.00  0.00     0.002 A 
ATOM     75  C   UNL     1       2.322  11.776  11.065  1.00  0.00     0.091 A 
ATOM     76  F   UNL     1       0.890   9.947  11.620  1.00  0.00    -0.205 F 
ATOM     77  C   UNL     1       3.339  12.665  11.446  1.00  0.00     0.022 A 
BRANCH  75  78
ATOM     78  S   UNL     1       1.689  11.921   9.389  1.00  0.00     0.127 S 
ATOM     79  O   UNL     1       0.809  13.082   9.500  1.00  0.00    -0.237 OA
ATOM     80  O   UNL     1       2.913  12.147   8.617  1.00  0.00    -0.237 OA
ATOM     81  O   UNL     1       1.036  10.649   9.111  1.00  0.00    -0.744 OA
ENDBRANCH  75  78
ENDBRANCH  47  71
BRANCH  59  82
ATOM     82  C   UNL     1      -0.422  10.643  19.536  1.00  0.00     0.023 A 
ATOM     83  C   UNL     1      -1.665  11.243  19.256  1.00  0.00     0.012 A 
ATOM     84  C   UNL     1       0.284  11.017  20.696  1.00  0.00     0.148 A 
ATOM     85  C   UNL     1      -2.189  12.214  20.109  1.00  0.00     0.002 A 
ATOM     86  C   UNL     1      -0.264  11.955  21.562  1.00  0.00     0.091 A 
ATOM     87  F   UNL     1       1.478  10.451  20.931  1.00  0.00    -0.205 F 
ATOM     88  C   UNL     1      -1.496  12.560  21.267  1.00  0.00     0.022 A 
BRANCH  86  89
ATOM     89  S   UNL     1       0.523  12.385  23.120  1.00  0.00     0.127 S 
ATOM     90  O   UNL     1       1.173  13.651  22.787  1.00  0.00    -0.237 OA
ATOM     91  O   UNL     1      -0.619  12.506  24.028  1.00  0.00    -0.237 OA
ATOM     92  O   UNL     1       1.417  11.276  23.427  1.00  0.00    -0.744 OA
ENDBRANCH  86  89
ENDBRANCH  59  82
ENDBRANCH  33  34
ENDBRANCH  25  28
ENDBRANCH  23  24
ENDBRANCH  22  23
ENDBRANCH  21  22
ENDBRANCH   1  21
TORSDOF 21
