REMARK SMILES O=C(NCCCCNC(=O)c1cc(Cl)c2c(c1)[C@H]1C=CC[C@H]1[C@H](c1ccc(S(=O)(=O)N3CCOCC3)cc1)N2)c1ccc(-c2c3nc(c(-c4cccc(S(=O)(=O)[O-])c4F)c4ccc([nH]4)c(-c4cccc(S(=O)(=O)[O-])c4F)c4nc(c(-c5cccc(S(=O)(=O)[O-])c5F)c5ccc2[nH]5)C=C4)C=C3)cc1
REMARK SMILES IDX 5 1 4 2 3 3 1 4 2 5 40 7 41 8 102 9 42 10 101 11 43 12 44 13
REMARK SMILES IDX 45 14 95 15 46 16 100 17 94 18 96 19 47 20 99 21 93 22 92 23
REMARK SMILES IDX 48 25 80 26 60 27 79 28 61 29 64 30 78 31 97 32 62 33 63 34
REMARK SMILES IDX 77 36 98 37 65 38 49 39 50 40 58 41 51 42 53 43 59 44 52 45
REMARK SMILES IDX 54 46 55 47 56 48 57 49 81 50 82 51 90 52 83 53 85 54 91 55
REMARK SMILES IDX 84 56 86 57 87 58 88 59 89 60 66 61 67 62 75 63 68 64 70 65
REMARK SMILES IDX 76 66 69 67 71 68 72 69 73 70 74 71 6 72 7 73 8 74 9 75
REMARK SMILES IDX 10 77 11 78 12 79 17 80 13 81 16 82 14 83 15 84 18 85 39 86
REMARK SMILES IDX 19 87 22 88 23 89 20 91 21 92 24 93 25 94 38 95 26 96 37 97
REMARK SMILES IDX 27 98 28 99 29 100 30 101 31 102 32 103 36 104 33 105 35 106
REMARK SMILES IDX 34 107
REMARK H PARENT 3 6 96 24 64 35 8 76 39 90
REMARK Flexibility Score: inf
ROOT
ATOM      1  C   UNL     1       4.890  -1.259   2.124  1.00  0.00     0.023 C 
ENDROOT
BRANCH   1   2
ATOM      2  C   UNL     1       4.477  -0.939   0.693  1.00  0.00     0.116 C 
BRANCH   2   3
ATOM      3  N   UNL     1       3.036  -0.968   0.502  1.00  0.00    -0.352 N 
ATOM      4  O   UNL     1       1.012  -0.132  -0.050  1.00  0.00    -0.269 OA
ATOM      5  C   UNL     1       2.232  -0.017  -0.080  1.00  0.00     0.251 C 
ATOM      6  H   UNL     1       2.576  -1.774   0.833  1.00  0.00     0.163 HD
BRANCH   5   7
ATOM      7  C   UNL     1       2.865   1.161  -0.708  1.00  0.00     0.039 A 
ATOM      8  C   UNL     1       3.866   0.992  -1.670  1.00  0.00     0.014 A 
ATOM      9  C   UNL     1       2.494   2.437  -0.281  1.00  0.00     0.014 A 
ATOM     10  C   UNL     1       4.585   2.098  -2.112  1.00  0.00     0.010 A 
ATOM     11  C   UNL     1       3.186   3.549  -0.763  1.00  0.00     0.010 A 
ATOM     12  C   UNL     1       4.262   3.383  -1.648  1.00  0.00    -0.014 A 
BRANCH  12  13
ATOM     13  C   UNL     1       5.058   4.550  -2.098  1.00  0.00     0.031 A 
ATOM     14  C   UNL     1       5.986   5.256  -1.150  1.00  0.00     0.074 A 
ATOM     15  C   UNL     1       4.948   4.965  -3.374  1.00  0.00     0.049 A 
ATOM     16  N   UNL     1       6.768   6.279  -1.378  1.00  0.00    -0.248 NA
ATOM     17  C   UNL     1       6.049   4.750   0.232  1.00  0.00     0.031 C 
ATOM     18  C   UNL     1       4.068   4.367  -4.380  1.00  0.00     0.029 A 
ATOM     19  N   UNL     1       5.574   5.987  -4.039  1.00  0.00    -0.354 N 
ATOM     20  C   UNL     1       7.398   6.555  -0.171  1.00  0.00     0.074 A 
ATOM     21  C   UNL     1       6.903   5.597   0.793  1.00  0.00     0.031 C 
ATOM     22  C   UNL     1       4.217   5.028  -5.538  1.00  0.00     0.029 A 
ATOM     23  C   UNL     1       5.177   6.112  -5.348  1.00  0.00     0.049 A 
ATOM     24  H   UNL     1       6.243   6.574  -3.619  1.00  0.00     0.167 HD
ATOM     25  C   UNL     1       8.322   7.505   0.100  1.00  0.00     0.034 A 
ATOM     26  C   UNL     1       5.539   7.003  -6.290  1.00  0.00     0.034 A 
ATOM     27  C   UNL     1       8.841   8.434  -0.867  1.00  0.00     0.049 A 
ATOM     28  C   UNL     1       6.555   8.057  -5.957  1.00  0.00     0.074 A 
ATOM     29  C   UNL     1       9.820   9.396  -0.692  1.00  0.00     0.029 A 
ATOM     30  N   UNL     1       8.422   8.522  -2.184  1.00  0.00    -0.354 N 
ATOM     31  N   UNL     1       7.216   8.235  -4.839  1.00  0.00    -0.248 NA
ATOM     32  C   UNL     1       6.889   9.021  -7.015  1.00  0.00     0.031 C 
ATOM     33  C   UNL     1       9.988  10.072  -1.904  1.00  0.00     0.029 A 
ATOM     34  C   UNL     1       9.116   9.528  -2.833  1.00  0.00     0.049 A 
ATOM     35  H   UNL     1       7.733   7.953  -2.598  1.00  0.00     0.167 HD
ATOM     36  C   UNL     1       8.053   9.320  -5.062  1.00  0.00     0.074 A 
ATOM     37  C   UNL     1       7.831   9.748  -6.428  1.00  0.00     0.031 C 
ATOM     38  C   UNL     1       8.915   9.918  -4.204  1.00  0.00     0.034 A 
BRANCH  25  39
ATOM     39  C   UNL     1       8.890   7.562   1.491  1.00  0.00     0.023 A 
ATOM     40  C   UNL     1       9.914   6.662   1.847  1.00  0.00     0.012 A 
ATOM     41  C   UNL     1       8.493   8.561   2.400  1.00  0.00     0.148 A 
ATOM     42  C   UNL     1      10.533   6.752   3.093  1.00  0.00     0.002 A 
ATOM     43  C   UNL     1       9.132   8.660   3.631  1.00  0.00     0.091 A 
ATOM     44  F   UNL     1       7.508   9.396   2.040  1.00  0.00    -0.205 F 
ATOM     45  C   UNL     1      10.149   7.755   3.979  1.00  0.00     0.022 A 
BRANCH  43  46
ATOM     46  S   UNL     1       8.749   9.942   4.829  1.00  0.00     0.127 S 
ATOM     47  O   UNL     1       8.199   9.157   5.934  1.00  0.00    -0.237 OA
ATOM     48  O   UNL     1      10.067  10.522   5.089  1.00  0.00    -0.237 OA
ATOM     49  O   UNL     1       7.804  10.836   4.176  1.00  0.00    -0.744 OA
ENDBRANCH  43  46
ENDBRANCH  25  39
BRANCH  26  50
ATOM     50  C   UNL     1       4.964   6.889  -7.656  1.00  0.00     0.023 A 
ATOM     51  C   UNL     1       5.759   6.366  -8.693  1.00  0.00     0.012 A 
ATOM     52  C   UNL     1       3.621   7.224  -7.912  1.00  0.00     0.148 A 
ATOM     53  C   UNL     1       5.226   6.183  -9.968  1.00  0.00     0.002 A 
ATOM     54  C   UNL     1       3.085   7.002  -9.175  1.00  0.00     0.091 A 
ATOM     55  F   UNL     1       2.890   7.723  -6.906  1.00  0.00    -0.205 F 
ATOM     56  C   UNL     1       3.888   6.491 -10.206  1.00  0.00     0.022 A 
BRANCH  54  57
ATOM     57  S   UNL     1       1.350   7.270  -9.552  1.00  0.00     0.127 S 
ATOM     58  O   UNL     1       1.422   8.347 -10.537  1.00  0.00    -0.237 OA
ATOM     59  O   UNL     1       0.958   5.967 -10.091  1.00  0.00    -0.237 OA
ATOM     60  O   UNL     1       0.717   7.619  -8.288  1.00  0.00    -0.744 OA
ENDBRANCH  54  57
ENDBRANCH  26  50
BRANCH  38  61
ATOM     61  C   UNL     1       9.688  11.108  -4.698  1.00  0.00     0.023 A 
ATOM     62  C   UNL     1       9.055  12.364  -4.746  1.00  0.00     0.012 A 
ATOM     63  C   UNL     1      11.061  11.008  -4.995  1.00  0.00     0.148 A 
ATOM     64  C   UNL     1       9.776  13.506  -5.090  1.00  0.00     0.002 A 
ATOM     65  C   UNL     1      11.781  12.155  -5.306  1.00  0.00     0.091 A 
ATOM     66  F   UNL     1      11.637   9.797  -4.950  1.00  0.00    -0.205 F 
ATOM     67  C   UNL     1      11.139  13.404  -5.358  1.00  0.00     0.022 A 
BRANCH  65  68
ATOM     68  S   UNL     1      13.555  12.138  -5.593  1.00  0.00     0.127 S 
ATOM     69  O   UNL     1      13.628  12.461  -7.017  1.00  0.00    -0.237 OA
ATOM     70  O   UNL     1      14.022  13.199  -4.701  1.00  0.00    -0.237 OA
ATOM     71  O   UNL     1      14.008  10.800  -5.236  1.00  0.00    -0.744 OA
ENDBRANCH  65  68
ENDBRANCH  38  61
ENDBRANCH  12  13
ENDBRANCH   5   7
ENDBRANCH   2   3
ENDBRANCH   1   2
BRANCH   1  72
ATOM     72  C   UNL     1       4.465  -2.636   2.630  1.00  0.00     0.023 C 
BRANCH  72  73
ATOM     73  C   UNL     1       4.832  -3.800   1.715  1.00  0.00     0.116 C 
BRANCH  73  74
ATOM     74  N   UNL     1       6.268  -3.921   1.508  1.00  0.00    -0.352 N 
ATOM     75  C   UNL     1       7.082  -4.993   1.772  1.00  0.00     0.251 C 
ATOM     76  H   UNL     1       6.713  -3.130   1.129  1.00  0.00     0.163 HD
ATOM     77  O   UNL     1       8.300  -4.919   1.660  1.00  0.00    -0.269 OA
BRANCH  75  78
ATOM     78  C   UNL     1       6.466  -6.242   2.243  1.00  0.00     0.041 A 
ATOM     79  C   UNL     1       5.506  -6.894   1.472  1.00  0.00     0.036 A 
ATOM     80  C   UNL     1       6.830  -6.730   3.496  1.00  0.00     0.020 A 
ATOM     81  C   UNL     1       4.825  -7.974   2.021  1.00  0.00     0.065 A 
ATOM     82  C   UNL     1       6.163  -7.839   4.035  1.00  0.00    -0.015 A 
ATOM     83  Cl  UNL     1       3.572  -8.711   1.080  1.00  0.00    -0.082 Cl
ATOM     84  C   UNL     1       5.109  -8.433   3.324  1.00  0.00     0.057 A 
ATOM     85  C   UNL     1       6.616  -8.390   5.356  1.00  0.00     0.049 C 
ATOM     86  N   UNL     1       4.409  -9.501   3.868  1.00  0.00    -0.376 N 
ATOM     87  C   UNL     1       6.297  -7.530   6.552  1.00  0.00    -0.023 C 
ATOM     88  C   UNL     1       5.982  -9.740   5.754  1.00  0.00     0.031 C 
ATOM     89  C   UNL     1       4.503  -9.792   5.289  1.00  0.00     0.114 C 
ATOM     90  H   UNL     1       3.846 -10.064   3.288  1.00  0.00     0.161 HD
ATOM     91  C   UNL     1       6.058  -8.286   7.630  1.00  0.00    -0.030 C 
ATOM     92  C   UNL     1       6.171  -9.738   7.286  1.00  0.00     0.034 C 
BRANCH  89  93
ATOM     93  C   UNL     1       3.849 -11.142   5.562  1.00  0.00    -0.025 A 
ATOM     94  C   UNL     1       3.768 -12.176   4.608  1.00  0.00     0.007 A 
ATOM     95  C   UNL     1       3.313 -11.374   6.831  1.00  0.00     0.007 A 
ATOM     96  C   UNL     1       3.189 -13.412   4.928  1.00  0.00     0.022 A 
ATOM     97  C   UNL     1       2.785 -12.614   7.161  1.00  0.00     0.022 A 
ATOM     98  C   UNL     1       2.716 -13.633   6.221  1.00  0.00     0.082 A 
BRANCH  98  99
ATOM     99  S   UNL     1       2.053 -15.227   6.648  1.00  0.00     0.243 S 
ATOM    100  O   UNL     1       0.692 -15.251   6.147  1.00  0.00    -0.207 OA
ATOM    101  O   UNL     1       3.033 -16.205   6.236  1.00  0.00    -0.207 OA
BRANCH  99 102
ATOM    102  N   UNL     1       1.989 -15.244   8.325  1.00  0.00    -0.193 NA
ATOM    103  C   UNL     1       0.812 -14.762   9.079  1.00  0.00     0.131 C 
ATOM    104  C   UNL     1       3.135 -15.678   9.142  1.00  0.00     0.131 C 
ATOM    105  C   UNL     1       1.214 -13.840  10.244  1.00  0.00     0.177 C 
ATOM    106  C   UNL     1       3.448 -14.635  10.215  1.00  0.00     0.177 C 
ATOM    107  O   UNL     1       2.295 -14.364  11.025  1.00  0.00    -0.379 OA
ENDBRANCH  99 102
ENDBRANCH  98  99
ENDBRANCH  89  93
ENDBRANCH  75  78
ENDBRANCH  73  74
ENDBRANCH  72  73
ENDBRANCH   1  72
TORSDOF 17
