REMARK SMILES O=C(NCCCCNC(=O)[C@H]1C=C[C@H](NC(=O)[C@]23C[C@H]4C[C@H](C[C@H](C4)C2)C3)C1)c1ccc(-c2c3nc(c(-c4cccc(S(=O)(=O)[O-])c4F)c4ccc([nH]4)c(-c4cccc(S(=O)(=O)[O-])c4F)c4nc(c(-c5cccc(S(=O)(=O)[O-])c5F)c5ccc2[nH]5)C=C4)C=C3)cc1
REMARK SMILES IDX 5 1 4 2 3 3 1 4 2 5 29 7 30 8 91 9 31 10 90 11 32 12 33 13
REMARK SMILES IDX 34 14 84 15 35 16 89 17 83 18 85 19 36 20 88 21 82 22 81 23
REMARK SMILES IDX 37 25 69 26 49 27 68 28 50 29 53 30 67 31 86 32 51 33 52 34
REMARK SMILES IDX 66 36 87 37 54 38 38 39 39 40 47 41 40 42 42 43 48 44 41 45
REMARK SMILES IDX 43 46 44 47 45 48 46 49 70 50 71 51 79 52 72 53 74 54 80 55
REMARK SMILES IDX 73 56 75 57 76 58 77 59 78 60 55 61 56 62 64 63 57 64 59 65
REMARK SMILES IDX 65 66 58 67 60 68 61 69 62 70 63 71 6 72 7 73 8 74 9 75
REMARK SMILES IDX 10 77 11 78 12 79 28 80 13 81 14 82 15 83 16 84 17 86 18 87
REMARK SMILES IDX 19 88 26 89 27 90 20 91 24 92 22 93 21 94 25 95 23 96
REMARK H PARENT 3 6 85 24 53 35 8 76 15 85
REMARK Flexibility Score: inf
ROOT
ATOM      1  C   UNL     1       4.862  -2.222   1.081  1.00  0.00     0.023 C 
ENDROOT
BRANCH   1   2
ATOM      2  C   UNL     1       4.487  -1.276  -0.043  1.00  0.00     0.116 C 
BRANCH   2   3
ATOM      3  N   UNL     1       3.045  -1.115  -0.180  1.00  0.00    -0.352 N 
ATOM      4  O   UNL     1       1.083  -0.013  -0.208  1.00  0.00    -0.269 OA
ATOM      5  C   UNL     1       2.300   0.041  -0.269  1.00  0.00     0.251 C 
ATOM      6  H   UNL     1       2.530  -1.953  -0.214  1.00  0.00     0.163 HD
BRANCH   5   7
ATOM      7  C   UNL     1       2.995   1.340  -0.411  1.00  0.00     0.039 A 
ATOM      8  C   UNL     1       4.114   1.452  -1.237  1.00  0.00     0.014 A 
ATOM      9  C   UNL     1       2.531   2.452   0.296  1.00  0.00     0.014 A 
ATOM     10  C   UNL     1       4.867   2.615  -1.224  1.00  0.00     0.010 A 
ATOM     11  C   UNL     1       3.225   3.662   0.214  1.00  0.00     0.010 A 
ATOM     12  C   UNL     1       4.415   3.744  -0.525  1.00  0.00    -0.014 A 
BRANCH  12  13
ATOM     13  C   UNL     1       5.159   5.017  -0.675  1.00  0.00     0.031 A 
ATOM     14  C   UNL     1       5.804   5.694   0.499  1.00  0.00     0.074 A 
ATOM     15  C   UNL     1       5.257   5.546  -1.912  1.00  0.00     0.049 A 
ATOM     16  N   UNL     1       6.503   6.799   0.522  1.00  0.00    -0.248 NA
ATOM     17  C   UNL     1       5.638   5.063   1.818  1.00  0.00     0.031 C 
ATOM     18  C   UNL     1       4.630   4.987  -3.115  1.00  0.00     0.029 A 
ATOM     19  N   UNL     1       5.917   6.655  -2.370  1.00  0.00    -0.354 N 
ATOM     20  C   UNL     1       6.820   7.024   1.856  1.00  0.00     0.074 A 
ATOM     21  C   UNL     1       6.237   5.938   2.616  1.00  0.00     0.031 C 
ATOM     22  C   UNL     1       4.971   5.728  -4.176  1.00  0.00     0.029 A 
ATOM     23  C   UNL     1       5.777   6.853  -3.724  1.00  0.00     0.049 A 
ATOM     24  H   UNL     1       6.440   7.252  -1.787  1.00  0.00     0.167 HD
ATOM     25  C   UNL     1       7.540   8.039   2.392  1.00  0.00     0.034 A 
ATOM     26  C   UNL     1       6.229   7.843  -4.515  1.00  0.00     0.034 A 
ATOM     27  C   UNL     1       8.147   9.089   1.617  1.00  0.00     0.049 A 
ATOM     28  C   UNL     1       7.051   8.933  -3.896  1.00  0.00     0.074 A 
ATOM     29  C   UNL     1       8.945  10.131   2.055  1.00  0.00     0.029 A 
ATOM     30  N   UNL     1       8.019   9.236   0.243  1.00  0.00    -0.354 N 
ATOM     31  N   UNL     1       7.434   9.066  -2.649  1.00  0.00    -0.248 NA
ATOM     32  C   UNL     1       7.523   9.996  -4.791  1.00  0.00     0.031 C 
ATOM     33  C   UNL     1       9.285  10.917   0.949  1.00  0.00     0.029 A 
ATOM     34  C   UNL     1       8.716  10.354  -0.183  1.00  0.00     0.049 A 
ATOM     35  H   UNL     1       7.508   8.633  -0.344  1.00  0.00     0.167 HD
ATOM     36  C   UNL     1       8.205  10.219  -2.610  1.00  0.00     0.074 A 
ATOM     37  C   UNL     1       8.262  10.727  -3.967  1.00  0.00     0.031 C 
ATOM     38  C   UNL     1       8.794  10.816  -1.545  1.00  0.00     0.034 A 
BRANCH  25  39
ATOM     39  C   UNL     1       7.742   8.048   3.886  1.00  0.00     0.023 A 
ATOM     40  C   UNL     1       8.637   7.132   4.474  1.00  0.00     0.012 A 
ATOM     41  C   UNL     1       7.101   9.005   4.698  1.00  0.00     0.148 A 
ATOM     42  C   UNL     1       8.870   7.150   5.850  1.00  0.00     0.002 A 
ATOM     43  C   UNL     1       7.368   9.042   6.062  1.00  0.00     0.091 A 
ATOM     44  F   UNL     1       6.236   9.854   4.125  1.00  0.00    -0.205 F 
ATOM     45  C   UNL     1       8.245   8.110   6.641  1.00  0.00     0.022 A 
BRANCH  43  46
ATOM     46  S   UNL     1       6.668  10.287   7.152  1.00  0.00     0.127 S 
ATOM     47  O   UNL     1       5.679   9.506   7.894  1.00  0.00    -0.237 OA
ATOM     48  O   UNL     1       7.831  10.701   7.938  1.00  0.00    -0.237 OA
ATOM     49  O   UNL     1       6.126  11.321   6.282  1.00  0.00    -0.744 OA
ENDBRANCH  43  46
ENDBRANCH  25  39
BRANCH  26  50
ATOM     50  C   UNL     1       5.936   7.810  -5.974  1.00  0.00     0.023 A 
ATOM     51  C   UNL     1       6.980   7.567  -6.886  1.00  0.00     0.012 A 
ATOM     52  C   UNL     1       4.619   7.944  -6.457  1.00  0.00     0.148 A 
ATOM     53  C   UNL     1       6.720   7.474  -8.254  1.00  0.00     0.002 A 
ATOM     54  C   UNL     1       4.359   7.789  -7.812  1.00  0.00     0.091 A 
ATOM     55  F   UNL     1       3.641   8.193  -5.574  1.00  0.00    -0.205 F 
ATOM     56  C   UNL     1       5.409   7.570  -8.715  1.00  0.00     0.022 A 
BRANCH  54  57
ATOM     57  S   UNL     1       2.684   7.740  -8.462  1.00  0.00     0.127 S 
ATOM     58  O   UNL     1       2.570   9.052  -9.092  1.00  0.00    -0.237 OA
ATOM     59  O   UNL     1       2.750   6.612  -9.392  1.00  0.00    -0.237 OA
ATOM     60  O   UNL     1       1.827   7.510  -7.306  1.00  0.00    -0.744 OA
ENDBRANCH  54  57
ENDBRANCH  26  50
BRANCH  38  61
ATOM     61  C   UNL     1       9.568  12.078  -1.811  1.00  0.00     0.023 A 
ATOM     62  C   UNL     1       8.876  13.275  -2.082  1.00  0.00     0.012 A 
ATOM     63  C   UNL     1      10.973  12.091  -1.734  1.00  0.00     0.148 A 
ATOM     64  C   UNL     1       9.573  14.461  -2.304  1.00  0.00     0.002 A 
ATOM     65  C   UNL     1      11.660  13.286  -1.910  1.00  0.00     0.091 A 
ATOM     66  F   UNL     1      11.613  10.936  -1.498  1.00  0.00    -0.205 F 
ATOM     67  C   UNL     1      10.963  14.469  -2.207  1.00  0.00     0.022 A 
BRANCH  65  68
ATOM     68  S   UNL     1      13.441  13.405  -1.713  1.00  0.00     0.127 S 
ATOM     69  O   UNL     1      13.888  13.510  -3.100  1.00  0.00    -0.237 OA
ATOM     70  O   UNL     1      13.587  14.632  -0.929  1.00  0.00    -0.237 OA
ATOM     71  O   UNL     1      13.846  12.193  -1.013  1.00  0.00    -0.744 OA
ENDBRANCH  65  68
ENDBRANCH  38  61
ENDBRANCH  12  13
ENDBRANCH   5   7
ENDBRANCH   2   3
ENDBRANCH   1   2
BRANCH   1  72
ATOM     72  C   UNL     1       4.419  -3.660   0.844  1.00  0.00     0.023 C 
BRANCH  72  73
ATOM     73  C   UNL     1       5.161  -4.433  -0.244  1.00  0.00     0.116 C 
BRANCH  73  74
ATOM     74  N   UNL     1       6.581  -4.641   0.023  1.00  0.00    -0.356 N 
ATOM     75  C   UNL     1       7.267  -5.801   0.292  1.00  0.00     0.227 C 
ATOM     76  H   UNL     1       7.131  -3.825   0.009  1.00  0.00     0.163 HD
ATOM     77  O   UNL     1       8.495  -5.794   0.205  1.00  0.00    -0.274 OA
BRANCH  75  78
ATOM     78  C   UNL     1       6.492  -7.025   0.771  1.00  0.00     0.103 C 
ATOM     79  C   UNL     1       6.524  -8.319   0.010  1.00  0.00    -0.016 C 
ATOM     80  C   UNL     1       7.078  -7.548   2.091  1.00  0.00     0.047 C 
ATOM     81  C   UNL     1       6.388  -9.344   0.875  1.00  0.00    -0.006 C 
ATOM     82  C   UNL     1       6.327  -8.853   2.311  1.00  0.00     0.106 C 
BRANCH  82  83
ATOM     83  N   UNL     1       4.905  -8.792   2.670  1.00  0.00    -0.349 N 
ATOM     84  C   UNL     1       4.127  -8.192   3.614  1.00  0.00     0.226 C 
ATOM     85  H   UNL     1       4.361  -9.338   2.057  1.00  0.00     0.164 HD
ATOM     86  O   UNL     1       2.973  -8.632   3.697  1.00  0.00    -0.274 OA
BRANCH  84  87
ATOM     87  C   UNL     1       4.562  -6.999   4.487  1.00  0.00     0.050 C 
ATOM     88  C   UNL     1       3.423  -6.541   5.460  1.00  0.00     0.020 C 
ATOM     89  C   UNL     1       4.775  -5.762   3.606  1.00  0.00     0.020 C 
ATOM     90  C   UNL     1       5.774  -7.346   5.369  1.00  0.00     0.020 C 
ATOM     91  C   UNL     1       3.860  -5.293   6.275  1.00  0.00    -0.010 C 
ATOM     92  C   UNL     1       5.332  -4.572   4.391  1.00  0.00    -0.010 C 
ATOM     93  C   UNL     1       6.239  -6.115   6.163  1.00  0.00    -0.010 C 
ATOM     94  C   UNL     1       5.108  -5.649   7.096  1.00  0.00     0.007 C 
ATOM     95  C   UNL     1       4.224  -4.122   5.343  1.00  0.00     0.007 C 
ATOM     96  C   UNL     1       6.583  -4.985   5.182  1.00  0.00     0.007 C 
ENDBRANCH  84  87
ENDBRANCH  82  83
ENDBRANCH  75  78
ENDBRANCH  73  74
ENDBRANCH  72  73
ENDBRANCH   1  72
TORSDOF 16
