REMARK SMILES C[N@H+](CCC(=O)Nc1sccc1C#N)CC(=O)NCCCCNC(=O)c1ccc(-c2c3nc(c(-c4cccc(S(=O)(=O)[O-])c4F)c4ccc([nH]4)c(-c4cccc(S(=O)(=O)[O-])c4F)c4nc(c(-c5cccc(S(=O)(=O)[O-])c5F)c5ccc2[nH]5)C=C4)C=C3)cc1
REMARK SMILES IDX 19 1 18 2 16 3 17 4 15 6 2 7 1 8 3 10 4 11 5 12 6 13 7 14
REMARK SMILES IDX 8 16 9 17 12 18 10 19 11 20 13 21 14 22 20 23 21 24 22 25
REMARK SMILES IDX 23 26 24 27 25 29 26 30 27 31 88 32 28 33 87 34 29 35 30 36
REMARK SMILES IDX 31 37 81 38 32 39 86 40 80 41 82 42 33 43 85 44 79 45 78 46
REMARK SMILES IDX 34 48 66 49 46 50 65 51 47 52 50 53 64 54 83 55 48 56 49 57
REMARK SMILES IDX 63 59 84 60 51 61 35 62 36 63 44 64 37 65 39 66 45 67 38 68
REMARK SMILES IDX 40 69 41 70 42 71 43 72 67 73 68 74 76 75 69 76 71 77 77 78
REMARK SMILES IDX 70 79 72 80 73 81 74 82 75 83 52 84 53 85 61 86 54 87 56 88
REMARK SMILES IDX 62 89 55 90 57 91 58 92 59 93 60 94
REMARK H PARENT 18 5 2 9 7 15 23 28 82 47 50 58
REMARK Flexibility Score: inf
ROOT
ATOM      1  C   UNL     1      -2.313  -0.264  -2.982  1.00  0.00     0.116 C 
ENDROOT
BRANCH   1   2
ATOM      2  N   UNL     1      -1.299   0.744  -3.200  1.00  0.00    -0.351 N 
ATOM      3  C   UNL     1      -0.180   1.162  -2.572  1.00  0.00     0.275 C 
ATOM      4  O   UNL     1       0.473   2.013  -3.196  1.00  0.00    -0.269 OA
ATOM      5  H   UNL     1      -1.469   1.259  -4.021  1.00  0.00     0.163 HD
BRANCH   3   6
ATOM      6  C   UNL     1       0.456   0.581  -1.321  1.00  0.00     0.363 C 
BRANCH   6   7
ATOM      7  N   UNL     1      -0.387   0.194  -0.187  1.00  0.00    -0.329 N 
ATOM      8  C   UNL     1      -0.016   1.034   0.975  1.00  0.00     0.333 C 
ATOM      9  H   UNL     1      -1.359   0.340  -0.460  1.00  0.00     0.348 HD
BRANCH   7  10
ATOM     10  C   UNL     1      -0.272  -1.237   0.174  1.00  0.00     0.272 C 
BRANCH  10  11
ATOM     11  C   UNL     1      -0.600  -2.324  -0.869  1.00  0.00     0.161 C 
BRANCH  11  12
ATOM     12  C   UNL     1       0.102  -2.717  -2.192  1.00  0.00     0.230 C 
ATOM     13  O   UNL     1      -0.574  -3.352  -3.020  1.00  0.00    -0.274 OA
ATOM     14  N   UNL     1       1.357  -2.401  -2.607  1.00  0.00    -0.316 N 
ATOM     15  H   UNL     1       1.501  -2.451  -3.579  1.00  0.00     0.170 HD
BRANCH  14  16
ATOM     16  C   UNL     1       2.450  -2.025  -1.877  1.00  0.00     0.113 A 
ATOM     17  S   UNL     1       3.498  -0.953  -2.699  1.00  0.00    -0.125 S 
ATOM     18  C   UNL     1       2.887  -2.299  -0.607  1.00  0.00     0.087 A 
ATOM     19  C   UNL     1       4.222  -0.486  -1.214  1.00  0.00     0.068 A 
ATOM     20  C   UNL     1       3.865  -1.343  -0.192  1.00  0.00     0.033 A 
BRANCH  18  21
ATOM     21  C   UNL     1       2.381  -3.376   0.176  1.00  0.00     0.102 C 
ATOM     22  N   UNL     1       1.933  -4.258   0.794  1.00  0.00    -0.192 NA
ENDBRANCH  18  21
ENDBRANCH  14  16
ENDBRANCH  11  12
ENDBRANCH  10  11
ENDBRANCH   7  10
ENDBRANCH   6   7
ENDBRANCH   3   6
ENDBRANCH   1   2
BRANCH   1  23
ATOM     23  C   UNL     1      -3.254   0.035  -1.821  1.00  0.00     0.023 C 
BRANCH  23  24
ATOM     24  C   UNL     1      -4.342   1.026  -2.212  1.00  0.00     0.023 C 
BRANCH  24  25
ATOM     25  C   UNL     1      -5.296   0.484  -3.263  1.00  0.00     0.116 C 
BRANCH  25  26
ATOM     26  N   UNL     1      -6.037  -0.691  -2.802  1.00  0.00    -0.352 N 
ATOM     27  C   UNL     1      -7.386  -0.915  -2.956  1.00  0.00     0.251 C 
ATOM     28  H   UNL     1      -5.520  -1.388  -2.336  1.00  0.00     0.163 HD
ATOM     29  O   UNL     1      -7.972  -1.827  -2.390  1.00  0.00    -0.269 OA
BRANCH  27  30
ATOM     30  C   UNL     1      -8.087   0.024  -3.845  1.00  0.00     0.039 A 
ATOM     31  C   UNL     1      -8.986   0.937  -3.296  1.00  0.00     0.014 A 
ATOM     32  C   UNL     1      -7.595   0.162  -5.146  1.00  0.00     0.014 A 
ATOM     33  C   UNL     1      -9.345   2.053  -4.049  1.00  0.00     0.010 A 
ATOM     34  C   UNL     1      -7.867   1.328  -5.840  1.00  0.00     0.010 A 
ATOM     35  C   UNL     1      -8.748   2.281  -5.301  1.00  0.00    -0.014 A 
BRANCH  35  36
ATOM     36  C   UNL     1      -9.023   3.515  -6.072  1.00  0.00     0.031 A 
ATOM     37  C   UNL     1      -9.623   3.398  -7.445  1.00  0.00     0.074 A 
ATOM     38  C   UNL     1      -8.652   4.715  -5.580  1.00  0.00     0.049 A 
ATOM     39  N   UNL     1      -9.877   4.341  -8.311  1.00  0.00    -0.248 NA
ATOM     40  C   UNL     1      -9.953   2.042  -7.922  1.00  0.00     0.031 C 
ATOM     41  C   UNL     1      -7.984   4.937  -4.294  1.00  0.00     0.029 A 
ATOM     42  N   UNL     1      -8.757   5.974  -6.116  1.00  0.00    -0.354 N 
ATOM     43  C   UNL     1     -10.350   3.692  -9.443  1.00  0.00     0.074 A 
ATOM     44  C   UNL     1     -10.322   2.274  -9.173  1.00  0.00     0.031 C 
ATOM     45  C   UNL     1      -7.746   6.250  -4.140  1.00  0.00     0.029 A 
ATOM     46  C   UNL     1      -8.197   6.958  -5.333  1.00  0.00     0.049 A 
ATOM     47  H   UNL     1      -9.192   6.157  -6.980  1.00  0.00     0.167 HD
ATOM     48  C   UNL     1     -10.790   4.233 -10.600  1.00  0.00     0.034 A 
ATOM     49  C   UNL     1      -8.039   8.276  -5.567  1.00  0.00     0.034 A 
ATOM     50  C   UNL     1     -10.854   5.645 -10.845  1.00  0.00     0.049 A 
ATOM     51  C   UNL     1      -8.560   8.848  -6.860  1.00  0.00     0.074 A 
ATOM     52  C   UNL     1     -11.386   6.298 -11.940  1.00  0.00     0.029 A 
ATOM     53  N   UNL     1     -10.344   6.616 -10.001  1.00  0.00    -0.354 N 
ATOM     54  N   UNL     1      -9.177   8.236  -7.842  1.00  0.00    -0.248 NA
ATOM     55  C   UNL     1      -8.386  10.293  -7.069  1.00  0.00     0.031 C 
ATOM     56  C   UNL     1     -11.144   7.665 -11.787  1.00  0.00     0.029 A 
ATOM     57  C   UNL     1     -10.514   7.865 -10.569  1.00  0.00     0.049 A 
ATOM     58  H   UNL     1      -9.924   6.444  -9.127  1.00  0.00     0.167 HD
ATOM     59  C   UNL     1      -9.487   9.224  -8.769  1.00  0.00     0.074 A 
ATOM     60  C   UNL     1      -9.023  10.478  -8.216  1.00  0.00     0.031 C 
ATOM     61  C   UNL     1     -10.084   9.105  -9.980  1.00  0.00     0.034 A 
BRANCH  48  62
ATOM     62  C   UNL     1     -11.258   3.307 -11.687  1.00  0.00     0.023 A 
ATOM     63  C   UNL     1     -12.477   2.614 -11.550  1.00  0.00     0.012 A 
ATOM     64  C   UNL     1     -10.533   3.210 -12.889  1.00  0.00     0.148 A 
ATOM     65  C   UNL     1     -12.962   1.827 -12.594  1.00  0.00     0.002 A 
ATOM     66  C   UNL     1     -11.047   2.466 -13.941  1.00  0.00     0.091 A 
ATOM     67  F   UNL     1      -9.362   3.857 -12.981  1.00  0.00    -0.205 F 
ATOM     68  C   UNL     1     -12.256   1.767 -13.793  1.00  0.00     0.022 A 
BRANCH  66  69
ATOM     69  S   UNL     1     -10.259   2.397 -15.553  1.00  0.00     0.127 S 
ATOM     70  O   UNL     1      -9.924   0.977 -15.656  1.00  0.00    -0.237 OA
ATOM     71  O   UNL     1     -11.339   2.836 -16.436  1.00  0.00    -0.237 OA
ATOM     72  O   UNL     1      -9.116   3.297 -15.485  1.00  0.00    -0.744 OA
ENDBRANCH  66  69
ENDBRANCH  48  62
BRANCH  49  73
ATOM     73  C   UNL     1      -7.354   9.152  -4.572  1.00  0.00     0.023 A 
ATOM     74  C   UNL     1      -8.066  10.186  -3.932  1.00  0.00     0.012 A 
ATOM     75  C   UNL     1      -5.985   8.986  -4.282  1.00  0.00     0.148 A 
ATOM     76  C   UNL     1      -7.417  11.070  -3.068  1.00  0.00     0.002 A 
ATOM     77  C   UNL     1      -5.360   9.829  -3.372  1.00  0.00     0.091 A 
ATOM     78  F   UNL     1      -5.319   8.005  -4.907  1.00  0.00    -0.205 F 
ATOM     79  C   UNL     1      -6.067  10.888  -2.783  1.00  0.00     0.022 A 
BRANCH  77  80
ATOM     80  S   UNL     1      -3.660   9.585  -2.849  1.00  0.00     0.127 S 
ATOM     81  O   UNL     1      -2.987  10.717  -3.480  1.00  0.00    -0.237 OA
ATOM     82  O   UNL     1      -3.778   9.669  -1.393  1.00  0.00    -0.237 OA
ATOM     83  O   UNL     1      -3.284   8.268  -3.344  1.00  0.00    -0.744 OA
ENDBRANCH  77  80
ENDBRANCH  49  73
BRANCH  61  84
ATOM     84  C   UNL     1     -10.301  10.361 -10.780  1.00  0.00     0.023 A 
ATOM     85  C   UNL     1      -9.203  11.021 -11.365  1.00  0.00     0.012 A 
ATOM     86  C   UNL     1     -11.606  10.833 -11.022  1.00  0.00     0.148 A 
ATOM     87  C   UNL     1      -9.398  12.154 -12.152  1.00  0.00     0.002 A 
ATOM     88  C   UNL     1     -11.796  11.928 -11.853  1.00  0.00     0.091 A 
ATOM     89  F   UNL     1     -12.634  10.192 -10.448  1.00  0.00    -0.205 F 
ATOM     90  C   UNL     1     -10.694  12.599 -12.406  1.00  0.00     0.022 A 
BRANCH  88  91
ATOM     91  S   UNL     1     -13.428  12.515 -12.318  1.00  0.00     0.127 S 
ATOM     92  O   UNL     1     -13.460  13.835 -11.688  1.00  0.00    -0.237 OA
ATOM     93  O   UNL     1     -13.341  12.537 -13.778  1.00  0.00    -0.237 OA
ATOM     94  O   UNL     1     -14.376  11.550 -11.778  1.00  0.00    -0.744 OA
ENDBRANCH  88  91
ENDBRANCH  61  84
ENDBRANCH  35  36
ENDBRANCH  27  30
ENDBRANCH  25  26
ENDBRANCH  24  25
ENDBRANCH  23  24
ENDBRANCH   1  23
TORSDOF 20
