REMARK SMILES Nn1c(S[C@@H](C(=O)NCCCCNC(=O)c2ccc(-c3c4nc(c(-c5cccc(S(=O)(=O)[O-])c5F)c5ccc([nH]5)c(-c5cccc(S(=O)(=O)[O-])c5F)c5nc(c(-c6cccc(S(=O)(=O)[O-])c6F)c6ccc3[nH]6)C=C5)C=C4)cc2)c2ccccc2)nc2ccc(Br)cc2c1=O
REMARK SMILES IDX 10 1 9 2 8 3 6 4 7 5 5 7 4 8 3 9 2 10 93 11 85 12 92 13
REMARK SMILES IDX 94 14 86 15 91 16 87 17 89 18 88 19 90 20 1 21 79 24 80 25
REMARK SMILES IDX 84 26 81 27 83 28 82 29 11 30 12 31 13 32 14 33 15 35 16 36
REMARK SMILES IDX 17 37 78 38 18 39 77 40 19 41 20 42 21 43 71 44 22 45 76 46
REMARK SMILES IDX 70 47 72 48 23 49 75 50 69 51 68 52 24 54 56 55 36 56 55 57
REMARK SMILES IDX 37 58 40 59 54 60 73 61 38 62 39 63 53 65 74 66 41 67 25 68
REMARK SMILES IDX 26 69 34 70 27 71 29 72 35 73 28 74 30 75 31 76 32 77 33 78
REMARK SMILES IDX 57 79 58 80 66 81 59 82 61 83 67 84 60 85 62 86 63 87 64 88
REMARK SMILES IDX 65 89 42 90 43 91 51 92 44 93 46 94 52 95 45 96 47 97 48 98
REMARK SMILES IDX 49 99 50 100
REMARK H PARENT 8 6 1 22 1 23 13 34 72 53 40 64
REMARK Flexibility Score: inf
ROOT
ATOM      1  C   UNL     1       4.545  -1.810   2.792  1.00  0.00     0.023 C 
ENDROOT
BRANCH   1   2
ATOM      2  C   UNL     1       4.787  -0.347   2.408  1.00  0.00     0.116 C 
BRANCH   2   3
ATOM      3  N   UNL     1       4.288   0.005   1.087  1.00  0.00    -0.355 N 
ATOM      4  C   UNL     1       3.180   0.713   0.705  1.00  0.00     0.238 C 
ATOM      5  O   UNL     1       3.087   0.961  -0.501  1.00  0.00    -0.273 OA
ATOM      6  H   UNL     1       4.841  -0.323   0.341  1.00  0.00     0.163 HD
BRANCH   4   7
ATOM      7  C   UNL     1       2.112   1.172   1.713  1.00  0.00     0.174 C 
BRANCH   7   8
ATOM      8  S   UNL     1       1.468  -0.158   2.723  1.00  0.00    -0.068 SA
BRANCH   8   9
ATOM      9  C   UNL     1       0.319  -1.201   1.938  1.00  0.00     0.191 A 
ATOM     10  N   UNL     1       0.228  -1.455   0.570  1.00  0.00    -0.202 N 
ATOM     11  C   UNL     1      -0.886  -2.122   0.036  1.00  0.00     0.280 A 
ATOM     12  N   UNL     1      -0.470  -1.765   2.800  1.00  0.00    -0.222 NA
ATOM     13  C   UNL     1      -1.731  -2.833   1.007  1.00  0.00     0.069 A 
ATOM     14  O   UNL     1      -1.204  -2.142  -1.152  1.00  0.00    -0.267 OA
ATOM     15  C   UNL     1      -1.436  -2.667   2.355  1.00  0.00     0.079 A 
ATOM     16  C   UNL     1      -2.752  -3.692   0.588  1.00  0.00     0.031 A 
ATOM     17  C   UNL     1      -2.140  -3.417   3.299  1.00  0.00     0.030 A 
ATOM     18  C   UNL     1      -3.459  -4.417   1.543  1.00  0.00     0.018 A 
ATOM     19  C   UNL     1      -3.147  -4.297   2.897  1.00  0.00     0.018 A 
ATOM     20  Br  UNL     1      -4.847  -5.579   1.003  1.00  0.00    -0.051 Br
BRANCH  10  21
ATOM     21  N   UNL     1       1.215  -1.127  -0.367  1.00  0.00    -0.334 N 
ATOM     22  H   UNL     1       2.031  -0.657  -0.079  1.00  0.00     0.178 HD
ATOM     23  H   UNL     1       1.093  -1.365  -1.314  1.00  0.00     0.178 HD
ENDBRANCH  10  21
ENDBRANCH   8   9
ENDBRANCH   7   8
BRANCH   7  24
ATOM     24  C   UNL     1       1.138   2.218   1.168  1.00  0.00    -0.025 A 
ATOM     25  C   UNL     1      -0.181   1.954   0.771  1.00  0.00     0.005 A 
ATOM     26  C   UNL     1       1.609   3.538   0.998  1.00  0.00     0.005 A 
ATOM     27  C   UNL     1      -0.989   2.953   0.218  1.00  0.00     0.000 A 
ATOM     28  C   UNL     1       0.798   4.539   0.456  1.00  0.00     0.000 A 
ATOM     29  C   UNL     1      -0.501   4.245   0.060  1.00  0.00     0.000 A 
ENDBRANCH   7  24
ENDBRANCH   4   7
ENDBRANCH   2   3
ENDBRANCH   1   2
BRANCH   1  30
ATOM     30  C   UNL     1       5.123  -2.854   1.840  1.00  0.00     0.023 C 
BRANCH  30  31
ATOM     31  C   UNL     1       6.620  -2.754   1.587  1.00  0.00     0.116 C 
BRANCH  31  32
ATOM     32  N   UNL     1       7.423  -2.874   2.795  1.00  0.00    -0.352 N 
ATOM     33  C   UNL     1       8.520  -3.674   3.035  1.00  0.00     0.251 C 
ATOM     34  H   UNL     1       7.143  -2.304   3.547  1.00  0.00     0.163 HD
ATOM     35  O   UNL     1       9.024  -3.704   4.152  1.00  0.00    -0.269 OA
BRANCH  33  36
ATOM     36  C   UNL     1       9.043  -4.531   1.949  1.00  0.00     0.039 A 
ATOM     37  C   UNL     1       9.257  -4.007   0.672  1.00  0.00     0.014 A 
ATOM     38  C   UNL     1       9.240  -5.892   2.195  1.00  0.00     0.014 A 
ATOM     39  C   UNL     1       9.467  -4.872  -0.396  1.00  0.00     0.010 A 
ATOM     40  C   UNL     1       9.535  -6.749   1.131  1.00  0.00     0.010 A 
ATOM     41  C   UNL     1       9.582  -6.256  -0.182  1.00  0.00    -0.014 A 
BRANCH  41  42
ATOM     42  C   UNL     1       9.708  -7.171  -1.347  1.00  0.00     0.031 A 
ATOM     43  C   UNL     1       8.623  -8.170  -1.659  1.00  0.00     0.074 A 
ATOM     44  C   UNL     1      10.778  -7.068  -2.158  1.00  0.00     0.049 A 
ATOM     45  N   UNL     1       8.565  -9.039  -2.636  1.00  0.00    -0.248 NA
ATOM     46  C   UNL     1       7.453  -8.203  -0.765  1.00  0.00     0.031 C 
ATOM     47  C   UNL     1      11.896  -6.143  -1.963  1.00  0.00     0.029 A 
ATOM     48  N   UNL     1      11.094  -7.734  -3.315  1.00  0.00    -0.354 N 
ATOM     49  C   UNL     1       7.383  -9.747  -2.450  1.00  0.00     0.074 A 
ATOM     50  C   UNL     1       6.750  -9.210  -1.267  1.00  0.00     0.031 C 
ATOM     51  C   UNL     1      12.754  -6.271  -2.986  1.00  0.00     0.029 A 
ATOM     52  C   UNL     1      12.274  -7.318  -3.883  1.00  0.00     0.049 A 
ATOM     53  H   UNL     1      10.529  -8.441  -3.701  1.00  0.00     0.167 HD
ATOM     54  C   UNL     1       6.862 -10.741  -3.207  1.00  0.00     0.034 A 
ATOM     55  C   UNL     1      12.906  -7.732  -4.998  1.00  0.00     0.034 A 
ATOM     56  C   UNL     1       7.455 -11.234  -4.420  1.00  0.00     0.049 A 
ATOM     57  C   UNL     1      12.294  -8.819  -5.832  1.00  0.00     0.074 A 
ATOM     58  C   UNL     1       6.978 -12.220  -5.267  1.00  0.00     0.029 A 
ATOM     59  N   UNL     1       8.639 -10.771  -4.969  1.00  0.00    -0.354 N 
ATOM     60  N   UNL     1      11.152  -9.439  -5.662  1.00  0.00    -0.248 NA
ATOM     61  C   UNL     1      13.046  -9.255  -7.018  1.00  0.00     0.031 C 
ATOM     62  C   UNL     1       7.873 -12.348  -6.334  1.00  0.00     0.029 A 
ATOM     63  C   UNL     1       8.905 -11.443  -6.148  1.00  0.00     0.049 A 
ATOM     64  H   UNL     1       9.206 -10.068  -4.577  1.00  0.00     0.167 HD
ATOM     65  C   UNL     1      11.041 -10.327  -6.724  1.00  0.00     0.074 A 
ATOM     66  C   UNL     1      12.222 -10.153  -7.544  1.00  0.00     0.031 C 
ATOM     67  C   UNL     1      10.057 -11.221  -6.982  1.00  0.00     0.034 A 
BRANCH  54  68
ATOM     68  C   UNL     1       5.546 -11.336  -2.788  1.00  0.00     0.023 A 
ATOM     69  C   UNL     1       4.354 -10.666  -3.121  1.00  0.00     0.012 A 
ATOM     70  C   UNL     1       5.486 -12.599  -2.168  1.00  0.00     0.148 A 
ATOM     71  C   UNL     1       3.116 -11.242  -2.837  1.00  0.00     0.002 A 
ATOM     72  C   UNL     1       4.248 -13.179  -1.912  1.00  0.00     0.091 A 
ATOM     73  F   UNL     1       6.636 -13.209  -1.849  1.00  0.00    -0.205 F 
ATOM     74  C   UNL     1       3.064 -12.501  -2.244  1.00  0.00     0.022 A 
BRANCH  72  75
ATOM     75  S   UNL     1       4.069 -14.819  -1.201  1.00  0.00     0.127 S 
ATOM     76  O   UNL     1       3.477 -14.511   0.101  1.00  0.00    -0.237 OA
ATOM     77  O   UNL     1       3.161 -15.467  -2.146  1.00  0.00    -0.237 OA
ATOM     78  O   UNL     1       5.409 -15.387  -1.153  1.00  0.00    -0.744 OA
ENDBRANCH  72  75
ENDBRANCH  54  68
BRANCH  55  79
ATOM     79  C   UNL     1      14.166  -7.058  -5.408  1.00  0.00     0.023 A 
ATOM     80  C   UNL     1      14.141  -6.153  -6.486  1.00  0.00     0.012 A 
ATOM     81  C   UNL     1      15.360  -7.240  -4.684  1.00  0.00     0.148 A 
ATOM     82  C   UNL     1      15.287  -5.441  -6.838  1.00  0.00     0.002 A 
ATOM     83  C   UNL     1      16.485  -6.494  -5.011  1.00  0.00     0.091 A 
ATOM     84  F   UNL     1      15.357  -8.115  -3.669  1.00  0.00    -0.205 F 
ATOM     85  C   UNL     1      16.453  -5.601  -6.094  1.00  0.00     0.022 A 
BRANCH  83  86
ATOM     86  S   UNL     1      17.992  -6.540  -4.036  1.00  0.00     0.127 S 
ATOM     87  O   UNL     1      18.933  -7.155  -4.970  1.00  0.00    -0.237 OA
ATOM     88  O   UNL     1      18.223  -5.119  -3.774  1.00  0.00    -0.237 OA
ATOM     89  O   UNL     1      17.674  -7.328  -2.853  1.00  0.00    -0.744 OA
ENDBRANCH  83  86
ENDBRANCH  55  79
BRANCH  67  90
ATOM     90  C   UNL     1      10.191 -12.083  -8.204  1.00  0.00     0.023 A 
ATOM     91  C   UNL     1      11.013 -13.225  -8.151  1.00  0.00     0.012 A 
ATOM     92  C   UNL     1       9.418 -11.832  -9.354  1.00  0.00     0.148 A 
ATOM     93  C   UNL     1      11.069 -14.105  -9.231  1.00  0.00     0.002 A 
ATOM     94  C   UNL     1       9.456 -12.729 -10.414  1.00  0.00     0.091 A 
ATOM     95  F   UNL     1       8.654 -10.731  -9.381  1.00  0.00    -0.205 F 
ATOM     96  C   UNL     1      10.284 -13.864 -10.356  1.00  0.00     0.022 A 
BRANCH  94  97
ATOM     97  S   UNL     1       8.428 -12.543 -11.875  1.00  0.00     0.127 S 
ATOM     98  O   UNL     1       9.419 -12.201 -12.895  1.00  0.00    -0.237 OA
ATOM     99  O   UNL     1       7.843 -13.876 -12.015  1.00  0.00    -0.237 OA
ATOM    100  O   UNL     1       7.470 -11.491 -11.562  1.00  0.00    -0.744 OA
ENDBRANCH  94  97
ENDBRANCH  67  90
ENDBRANCH  41  42
ENDBRANCH  33  36
ENDBRANCH  31  32
ENDBRANCH  30  31
ENDBRANCH   1  30
TORSDOF 18
