REMARK SMILES CCc1sc(C(=O)Nc2ccc(C(=O)NCCCCNC(=O)c3ccc(-c4c5nc(c(-c6cccc(S(=O)(=O)[O-])c6F)c6ccc([nH]6)c(-c6cccc(S(=O)(=O)[O-])c6F)c6nc(c(-c7cccc(S(=O)(=O)[O-])c7F)c7ccc4[nH]7)C=C6)C=C5)cc3)c(O)c2)cc1C
REMARK SMILES IDX 17 1 16 2 15 3 13 4 14 5 12 7 9 8 10 9 88 10 11 11 86 12
REMARK SMILES IDX 8 13 6 14 7 15 5 17 3 18 4 19 90 20 89 21 91 22 2 23 1 24
REMARK SMILES IDX 87 25 18 27 19 28 20 29 21 30 22 32 23 33 24 34 85 35 25 36
REMARK SMILES IDX 84 37 26 38 27 39 28 40 78 41 29 42 83 43 77 44 79 45 30 46
REMARK SMILES IDX 82 47 76 48 75 49 31 51 63 52 43 53 62 54 44 55 47 56 61 57
REMARK SMILES IDX 80 58 45 59 46 60 60 62 81 63 48 64 32 65 33 66 41 67 34 68
REMARK SMILES IDX 36 69 42 70 35 71 37 72 38 73 39 74 40 75 64 76 65 77 73 78
REMARK SMILES IDX 66 79 68 80 74 81 67 82 69 83 70 84 71 85 72 86 49 87 50 88
REMARK SMILES IDX 58 89 51 90 53 91 59 92 52 93 54 94 55 95 56 96 57 97
REMARK H PARENT 15 6 8 16 87 26 20 31 79 50 47 61
REMARK Flexibility Score: inf
ROOT
ATOM      1  C   UNL     1      -3.107   4.310  -5.027  1.00  0.00     0.023 C 
ENDROOT
BRANCH   1   2
ATOM      2  C   UNL     1      -3.322   4.977  -3.670  1.00  0.00     0.116 C 
BRANCH   2   3
ATOM      3  N   UNL     1      -4.215   4.266  -2.767  1.00  0.00    -0.352 N 
ATOM      4  C   UNL     1      -4.250   4.230  -1.391  1.00  0.00     0.255 C 
ATOM      5  O   UNL     1      -5.110   3.553  -0.831  1.00  0.00    -0.269 OA
ATOM      6  H   UNL     1      -4.905   3.722  -3.212  1.00  0.00     0.163 HD
BRANCH   4   7
ATOM      7  C   UNL     1      -3.236   4.927  -0.560  1.00  0.00     0.081 A 
ATOM      8  C   UNL     1      -0.996   5.878   0.842  1.00  0.00     0.045 A 
ATOM      9  C   UNL     1      -1.640   4.717   1.262  1.00  0.00     0.027 A 
ATOM     10  C   UNL     1      -1.618   6.675  -0.123  1.00  0.00     0.073 A 
ATOM     11  C   UNL     1      -2.728   4.220   0.537  1.00  0.00     0.020 A 
ATOM     12  C   UNL     1      -2.753   6.214  -0.794  1.00  0.00     0.130 A 
BRANCH   8  13
ATOM     13  N   UNL     1       0.242   6.312   1.340  1.00  0.00    -0.321 N 
ATOM     14  C   UNL     1       1.318   5.660   1.917  1.00  0.00     0.265 C 
ATOM     15  O   UNL     1       2.142   6.399   2.470  1.00  0.00    -0.268 OA
ATOM     16  H   UNL     1       0.373   7.285   1.262  1.00  0.00     0.170 HD
BRANCH  14  17
ATOM     17  C   UNL     1       1.536   4.217   1.858  1.00  0.00     0.093 A 
ATOM     18  C   UNL     1       1.401   1.778   1.472  1.00  0.00     0.008 A 
ATOM     19  S   UNL     1       0.971   3.195   0.610  1.00  0.00    -0.135 S 
ATOM     20  C   UNL     1       2.343   2.072   2.445  1.00  0.00    -0.036 A 
ATOM     21  C   UNL     1       2.390   3.491   2.674  1.00  0.00     0.029 A 
ATOM     22  C   UNL     1       3.162   1.093   3.219  1.00  0.00     0.045 C 
BRANCH  18  23
ATOM     23  C   UNL     1       0.776   0.463   1.099  1.00  0.00     0.043 C 
ATOM     24  C   UNL     1       1.243  -0.079  -0.238  1.00  0.00     0.010 C 
ENDBRANCH  18  23
ENDBRANCH  14  17
ENDBRANCH   8  13
BRANCH  12  25
ATOM     25  O   UNL     1      -3.337   7.099  -1.657  1.00  0.00    -0.507 OA
ATOM     26  H   UNL     1      -4.102   6.850  -2.137  1.00  0.00     0.293 HD
ENDBRANCH  12  25
ENDBRANCH   4   7
ENDBRANCH   2   3
ENDBRANCH   1   2
BRANCH   1  27
ATOM     27  C   UNL     1      -4.360   3.986  -5.841  1.00  0.00     0.023 C 
BRANCH  27  28
ATOM     28  C   UNL     1      -5.421   5.078  -5.929  1.00  0.00     0.116 C 
BRANCH  28  29
ATOM     29  N   UNL     1      -4.960   6.298  -6.578  1.00  0.00    -0.352 N 
ATOM     30  C   UNL     1      -5.414   6.916  -7.721  1.00  0.00     0.251 C 
ATOM     31  H   UNL     1      -4.209   6.750  -6.130  1.00  0.00     0.163 HD
ATOM     32  O   UNL     1      -4.829   7.907  -8.152  1.00  0.00    -0.269 OA
BRANCH  30  33
ATOM     33  C   UNL     1      -6.577   6.370  -8.456  1.00  0.00     0.039 A 
ATOM     34  C   UNL     1      -6.485   6.201  -9.841  1.00  0.00     0.014 A 
ATOM     35  C   UNL     1      -7.744   5.999  -7.786  1.00  0.00     0.014 A 
ATOM     36  C   UNL     1      -7.521   5.569 -10.536  1.00  0.00     0.010 A 
ATOM     37  C   UNL     1      -8.734   5.292  -8.463  1.00  0.00     0.010 A 
ATOM     38  C   UNL     1      -8.633   5.062  -9.844  1.00  0.00    -0.014 A 
BRANCH  38  39
ATOM     39  C   UNL     1      -9.694   4.274 -10.527  1.00  0.00     0.031 A 
ATOM     40  C   UNL     1     -11.120   4.758 -10.509  1.00  0.00     0.074 A 
ATOM     41  C   UNL     1      -9.401   3.069 -11.056  1.00  0.00     0.049 A 
ATOM     42  N   UNL     1     -12.203   4.155 -10.926  1.00  0.00    -0.248 NA
ATOM     43  C   UNL     1     -11.365   6.082  -9.912  1.00  0.00     0.031 C 
ATOM     44  C   UNL     1      -8.074   2.450 -11.074  1.00  0.00     0.029 A 
ATOM     45  N   UNL     1     -10.210   2.131 -11.652  1.00  0.00    -0.354 N 
ATOM     46  C   UNL     1     -13.258   4.998 -10.600  1.00  0.00     0.074 A 
ATOM     47  C   UNL     1     -12.688   6.142  -9.921  1.00  0.00     0.031 C 
ATOM     48  C   UNL     1      -8.158   1.240 -11.651  1.00  0.00     0.029 A 
ATOM     49  C   UNL     1      -9.548   0.979 -12.014  1.00  0.00     0.049 A 
ATOM     50  H   UNL     1     -11.172   2.269 -11.806  1.00  0.00     0.167 HD
ATOM     51  C   UNL     1     -14.578   4.853 -10.867  1.00  0.00     0.034 A 
ATOM     52  C   UNL     1     -10.008  -0.162 -12.565  1.00  0.00     0.034 A 
ATOM     53  C   UNL     1     -15.135   3.746 -11.594  1.00  0.00     0.049 A 
ATOM     54  C   UNL     1     -11.473  -0.278 -12.894  1.00  0.00     0.074 A 
ATOM     55  C   UNL     1     -16.446   3.550 -11.992  1.00  0.00     0.029 A 
ATOM     56  N   UNL     1     -14.414   2.648 -12.036  1.00  0.00    -0.354 N 
ATOM     57  N   UNL     1     -12.432   0.596 -12.708  1.00  0.00    -0.248 NA
ATOM     58  C   UNL     1     -11.914  -1.522 -13.542  1.00  0.00     0.031 C 
ATOM     59  C   UNL     1     -16.520   2.326 -12.664  1.00  0.00     0.029 A 
ATOM     60  C   UNL     1     -15.251   1.770 -12.703  1.00  0.00     0.049 A 
ATOM     61  H   UNL     1     -13.449   2.512 -11.897  1.00  0.00     0.167 HD
ATOM     62  C   UNL     1     -13.578   0.028 -13.252  1.00  0.00     0.074 A 
ATOM     63  C   UNL     1     -13.191  -1.261 -13.788  1.00  0.00     0.031 C 
ATOM     64  C   UNL     1     -14.839   0.522 -13.293  1.00  0.00     0.034 A 
BRANCH  51  65
ATOM     65  C   UNL     1     -15.505   5.955 -10.422  1.00  0.00     0.023 A 
ATOM     66  C   UNL     1     -15.468   7.200 -11.083  1.00  0.00     0.012 A 
ATOM     67  C   UNL     1     -16.441   5.748  -9.390  1.00  0.00     0.148 A 
ATOM     68  C   UNL     1     -16.319   8.235 -10.698  1.00  0.00     0.002 A 
ATOM     69  C   UNL     1     -17.318   6.771  -9.043  1.00  0.00     0.091 A 
ATOM     70  F   UNL     1     -16.449   4.566  -8.758  1.00  0.00    -0.205 F 
ATOM     71  C   UNL     1     -17.249   8.018  -9.686  1.00  0.00     0.022 A 
BRANCH  69  72
ATOM     72  S   UNL     1     -18.605   6.563  -7.807  1.00  0.00     0.127 S 
ATOM     73  O   UNL     1     -18.075   7.348  -6.694  1.00  0.00    -0.237 OA
ATOM     74  O   UNL     1     -19.768   7.154  -8.470  1.00  0.00    -0.237 OA
ATOM     75  O   UNL     1     -18.706   5.130  -7.572  1.00  0.00    -0.744 OA
ENDBRANCH  69  72
ENDBRANCH  51  65
BRANCH  52  76
ATOM     76  C   UNL     1      -9.060  -1.259 -12.913  1.00  0.00     0.023 A 
ATOM     77  C   UNL     1      -8.784  -1.521 -14.270  1.00  0.00     0.012 A 
ATOM     78  C   UNL     1      -8.415  -2.023 -11.922  1.00  0.00     0.148 A 
ATOM     79  C   UNL     1      -7.909  -2.544 -14.635  1.00  0.00     0.002 A 
ATOM     80  C   UNL     1      -7.503  -3.007 -12.292  1.00  0.00     0.091 A 
ATOM     81  F   UNL     1      -8.698  -1.768 -10.637  1.00  0.00    -0.205 F 
ATOM     82  C   UNL     1      -7.262  -3.280 -13.647  1.00  0.00     0.022 A 
BRANCH  80  83
ATOM     83  S   UNL     1      -6.528  -3.918 -11.089  1.00  0.00     0.127 S 
ATOM     84  O   UNL     1      -7.131  -5.246 -11.159  1.00  0.00    -0.237 OA
ATOM     85  O   UNL     1      -5.182  -3.822 -11.655  1.00  0.00    -0.237 OA
ATOM     86  O   UNL     1      -6.699  -3.209  -9.828  1.00  0.00    -0.744 OA
ENDBRANCH  80  83
ENDBRANCH  52  76
BRANCH  64  87
ATOM     87  C   UNL     1     -15.896  -0.299 -13.983  1.00  0.00     0.023 A 
ATOM     88  C   UNL     1     -16.407  -1.453 -13.358  1.00  0.00     0.012 A 
ATOM     89  C   UNL     1     -16.448   0.129 -15.207  1.00  0.00     0.148 A 
ATOM     90  C   UNL     1     -17.434  -2.184 -13.954  1.00  0.00     0.002 A 
ATOM     91  C   UNL     1     -17.503  -0.578 -15.771  1.00  0.00     0.091 A 
ATOM     92  F   UNL     1     -15.934   1.219 -15.794  1.00  0.00    -0.205 F 
ATOM     93  C   UNL     1     -17.991  -1.740 -15.151  1.00  0.00     0.022 A 
BRANCH  91  94
ATOM     94  S   UNL     1     -18.346  -0.025 -17.258  1.00  0.00     0.127 S 
ATOM     95  O   UNL     1     -17.878  -0.997 -18.244  1.00  0.00    -0.237 OA
ATOM     96  O   UNL     1     -19.754  -0.162 -16.887  1.00  0.00    -0.237 OA
ATOM     97  O   UNL     1     -17.911   1.348 -17.479  1.00  0.00    -0.744 OA
ENDBRANCH  91  94
ENDBRANCH  64  87
ENDBRANCH  38  39
ENDBRANCH  30  33
ENDBRANCH  28  29
ENDBRANCH  27  28
ENDBRANCH   1  27
TORSDOF 18
