REMARK SMILES CCOC(=O)c1noc(C)c1C(=O)NCCCCNC(=O)c1ccc(-c2c3nc(c(-c4cccc(S(=O)(=O)[O-])c4F)c4ccc([nH]4)c(-c4cccc(S(=O)(=O)[O-])c4F)c4nc(c(-c5cccc(S(=O)(=O)[O-])c5F)c5ccc2[nH]5)C=C4)C=C3)cc1
REMARK SMILES IDX 16 1 15 2 14 3 12 4 13 5 11 7 6 8 7 9 8 10 9 11 10 12 4 13
REMARK SMILES IDX 5 14 3 15 2 16 1 17 17 18 18 19 19 20 20 21 21 23 22 24
REMARK SMILES IDX 23 25 84 26 24 27 83 28 25 29 26 30 27 31 77 32 28 33 82 34
REMARK SMILES IDX 76 35 78 36 29 37 81 38 75 39 74 40 30 42 62 43 42 44 61 45
REMARK SMILES IDX 43 46 46 47 60 48 79 49 44 50 45 51 59 53 80 54 47 55 31 56
REMARK SMILES IDX 32 57 40 58 33 59 35 60 41 61 34 62 36 63 37 64 38 65 39 66
REMARK SMILES IDX 63 67 64 68 72 69 65 70 67 71 73 72 66 73 68 74 69 75 70 76
REMARK SMILES IDX 71 77 48 78 49 79 57 80 50 81 52 82 58 83 51 84 53 85 54 86
REMARK SMILES IDX 55 87 56 88
REMARK H PARENT 14 6 19 22 78 41 46 52
REMARK Flexibility Score: inf
ROOT
ATOM      1  C   UNL     1       0.816   5.393  -6.779  1.00  0.00     0.023 C 
ENDROOT
BRANCH   1   2
ATOM      2  C   UNL     1       1.621   5.786  -5.541  1.00  0.00     0.116 C 
BRANCH   2   3
ATOM      3  N   UNL     1       1.121   5.123  -4.363  1.00  0.00    -0.352 N 
ATOM      4  C   UNL     1       1.517   4.042  -3.629  1.00  0.00     0.257 C 
ATOM      5  O   UNL     1       0.877   3.892  -2.586  1.00  0.00    -0.269 OA
ATOM      6  H   UNL     1       0.308   5.548  -4.005  1.00  0.00     0.163 HD
BRANCH   4   7
ATOM      7  C   UNL     1       2.612   3.132  -3.950  1.00  0.00     0.117 A 
ATOM      8  C   UNL     1       3.088   2.143  -3.007  1.00  0.00     0.204 A 
ATOM      9  N   UNL     1       4.140   1.466  -3.486  1.00  0.00    -0.072 NA
ATOM     10  O   UNL     1       4.334   1.934  -4.753  1.00  0.00    -0.360 OA
ATOM     11  C   UNL     1       3.425   2.904  -5.052  1.00  0.00     0.147 A 
ATOM     12  C   UNL     1       3.596   3.384  -6.436  1.00  0.00     0.092 C 
BRANCH   8  13
ATOM     13  C   UNL     1       2.582   1.834  -1.675  1.00  0.00     0.361 C 
ATOM     14  O   UNL     1       3.260   1.934  -0.653  1.00  0.00    -0.244 OA
BRANCH  13  15
ATOM     15  O   UNL     1       1.300   1.364  -1.710  1.00  0.00    -0.461 OA
BRANCH  15  16
ATOM     16  C   UNL     1       0.679   1.163  -0.436  1.00  0.00     0.230 C 
ATOM     17  C   UNL     1       0.957  -0.241   0.066  1.00  0.00     0.049 C 
ENDBRANCH  15  16
ENDBRANCH  13  15
ENDBRANCH   8  13
ENDBRANCH   4   7
ENDBRANCH   2   3
ENDBRANCH   1   2
BRANCH   1  18
ATOM     18  C   UNL     1      -0.496   6.160  -6.971  1.00  0.00     0.023 C 
BRANCH  18  19
ATOM     19  C   UNL     1      -0.353   7.670  -7.139  1.00  0.00     0.116 C 
BRANCH  19  20
ATOM     20  N   UNL     1       0.567   8.056  -8.200  1.00  0.00    -0.352 N 
ATOM     21  C   UNL     1       0.548   9.192  -8.974  1.00  0.00     0.251 C 
ATOM     22  H   UNL     1       1.297   7.422  -8.386  1.00  0.00     0.163 HD
ATOM     23  O   UNL     1       1.352   9.327  -9.891  1.00  0.00    -0.269 OA
BRANCH  21  24
ATOM     24  C   UNL     1      -0.479  10.223  -8.719  1.00  0.00     0.039 A 
ATOM     25  C   UNL     1      -1.255  10.678  -9.788  1.00  0.00     0.014 A 
ATOM     26  C   UNL     1      -0.708  10.697  -7.426  1.00  0.00     0.014 A 
ATOM     27  C   UNL     1      -2.312  11.557  -9.546  1.00  0.00     0.010 A 
ATOM     28  C   UNL     1      -1.803  11.518  -7.178  1.00  0.00     0.010 A 
ATOM     29  C   UNL     1      -2.618  11.953  -8.234  1.00  0.00    -0.014 A 
BRANCH  29  30
ATOM     30  C   UNL     1      -3.806  12.793  -7.940  1.00  0.00     0.031 A 
ATOM     31  C   UNL     1      -3.642  14.164  -7.347  1.00  0.00     0.074 A 
ATOM     32  C   UNL     1      -5.038  12.273  -8.109  1.00  0.00     0.049 A 
ATOM     33  N   UNL     1      -4.562  15.016  -6.978  1.00  0.00    -0.248 NA
ATOM     34  C   UNL     1      -2.265  14.626  -7.106  1.00  0.00     0.031 C 
ATOM     35  C   UNL     1      -5.327  10.916  -8.578  1.00  0.00     0.029 A 
ATOM     36  N   UNL     1      -6.278  12.813  -7.872  1.00  0.00    -0.354 N 
ATOM     37  C   UNL     1      -3.882  16.094  -6.426  1.00  0.00     0.074 A 
ATOM     38  C   UNL     1      -2.471  15.776  -6.481  1.00  0.00     0.031 C 
ATOM     39  C   UNL     1      -6.657  10.729  -8.593  1.00  0.00     0.029 A 
ATOM     40  C   UNL     1      -7.314  11.942  -8.117  1.00  0.00     0.049 A 
ATOM     41  H   UNL     1      -6.413  13.736  -7.558  1.00  0.00     0.167 HD
ATOM     42  C   UNL     1      -4.383  17.257  -5.947  1.00  0.00     0.034 A 
ATOM     43  C   UNL     1      -8.645  12.101  -7.972  1.00  0.00     0.034 A 
ATOM     44  C   UNL     1      -5.781  17.592  -5.949  1.00  0.00     0.049 A 
ATOM     45  C   UNL     1      -9.176  13.431  -7.513  1.00  0.00     0.074 A 
ATOM     46  C   UNL     1      -6.379  18.790  -5.597  1.00  0.00     0.029 A 
ATOM     47  N   UNL     1      -6.801  16.728  -6.314  1.00  0.00    -0.354 N 
ATOM     48  N   UNL     1      -8.513  14.512  -7.179  1.00  0.00    -0.248 NA
ATOM     49  C   UNL     1     -10.637  13.580  -7.451  1.00  0.00     0.031 C 
ATOM     50  C   UNL     1      -7.763  18.644  -5.737  1.00  0.00     0.029 A 
ATOM     51  C   UNL     1      -8.026  17.361  -6.189  1.00  0.00     0.049 A 
ATOM     52  H   UNL     1      -6.673  15.800  -6.618  1.00  0.00     0.167 HD
ATOM     53  C   UNL     1      -9.473  15.476  -6.895  1.00  0.00     0.074 A 
ATOM     54  C   UNL     1     -10.764  14.859  -7.120  1.00  0.00     0.031 C 
ATOM     55  C   UNL     1      -9.301  16.752  -6.468  1.00  0.00     0.034 A 
BRANCH  42  56
ATOM     56  C   UNL     1      -3.404  18.283  -5.440  1.00  0.00     0.023 A 
ATOM     57  C   UNL     1      -2.600  18.986  -6.361  1.00  0.00     0.012 A 
ATOM     58  C   UNL     1      -3.314  18.590  -4.069  1.00  0.00     0.148 A 
ATOM     59  C   UNL     1      -1.699  19.954  -5.923  1.00  0.00     0.002 A 
ATOM     60  C   UNL     1      -2.443  19.587  -3.644  1.00  0.00     0.091 A 
ATOM     61  F   UNL     1      -4.068  17.894  -3.205  1.00  0.00    -0.205 F 
ATOM     62  C   UNL     1      -1.627  20.262  -4.567  1.00  0.00     0.022 A 
BRANCH  60  63
ATOM     63  S   UNL     1      -2.334  20.105  -1.927  1.00  0.00     0.127 S 
ATOM     64  O   UNL     1      -1.067  19.503  -1.517  1.00  0.00    -0.237 OA
ATOM     65  O   UNL     1      -2.306  21.564  -2.045  1.00  0.00    -0.237 OA
ATOM     66  O   UNL     1      -3.524  19.575  -1.276  1.00  0.00    -0.744 OA
ENDBRANCH  60  63
ENDBRANCH  42  56
BRANCH  43  67
ATOM     67  C   UNL     1      -9.566  10.992  -8.347  1.00  0.00     0.023 A 
ATOM     68  C   UNL     1     -10.345  11.107  -9.514  1.00  0.00     0.012 A 
ATOM     69  C   UNL     1      -9.639   9.809  -7.585  1.00  0.00     0.148 A 
ATOM     70  C   UNL     1     -11.201  10.075  -9.903  1.00  0.00     0.002 A 
ATOM     71  C   UNL     1     -10.453   8.764  -8.007  1.00  0.00     0.091 A 
ATOM     72  F   UNL     1      -8.899   9.724  -6.471  1.00  0.00    -0.205 F 
ATOM     73  C   UNL     1     -11.246   8.901  -9.157  1.00  0.00     0.022 A 
BRANCH  71  74
ATOM     74  S   UNL     1     -10.466   7.167  -7.185  1.00  0.00     0.127 S 
ATOM     75  O   UNL     1     -11.754   7.194  -6.498  1.00  0.00    -0.237 OA
ATOM     76  O   UNL     1     -10.389   6.241  -8.316  1.00  0.00    -0.237 OA
ATOM     77  O   UNL     1      -9.287   7.160  -6.329  1.00  0.00    -0.744 OA
ENDBRANCH  71  74
ENDBRANCH  43  67
BRANCH  55  78
ATOM     78  C   UNL     1     -10.535  17.581  -6.232  1.00  0.00     0.023 A 
ATOM     79  C   UNL     1     -11.335  17.332  -5.100  1.00  0.00     0.012 A 
ATOM     80  C   UNL     1     -10.857  18.656  -7.084  1.00  0.00     0.148 A 
ATOM     81  C   UNL     1     -12.452  18.123  -4.834  1.00  0.00     0.002 A 
ATOM     82  C   UNL     1     -11.946  19.468  -6.788  1.00  0.00     0.091 A 
ATOM     83  F   UNL     1     -10.096  18.864  -8.169  1.00  0.00    -0.205 F 
ATOM     84  C   UNL     1     -12.750  19.197  -5.669  1.00  0.00     0.022 A 
BRANCH  82  85
ATOM     85  S   UNL     1     -12.345  20.927  -7.758  1.00  0.00     0.127 S 
ATOM     86  O   UNL     1     -13.495  20.464  -8.533  1.00  0.00    -0.237 OA
ATOM     87  O   UNL     1     -12.662  21.913  -6.724  1.00  0.00    -0.237 OA
ATOM     88  O   UNL     1     -11.147  21.230  -8.530  1.00  0.00    -0.744 OA
ENDBRANCH  82  85
ENDBRANCH  55  78
ENDBRANCH  29  30
ENDBRANCH  21  24
ENDBRANCH  19  20
ENDBRANCH  18  19
ENDBRANCH   1  18
TORSDOF 17
