REMARK SMILES CC[C@@](O)(C(=O)NCCCCNC(=O)c1ccc(-c2c3nc(c(-c4cccc(S(=O)(=O)[O-])c4F)c4ccc([nH]4)c(-c4cccc(S(=O)(=O)[O-])c4F)c4nc(c(-c5cccc(S(=O)(=O)[O-])c5F)c5ccc2[nH]5)C=C4)C=C3)cc1)[C@@H]1CCOc2ccccc21
REMARK SMILES IDX 10 1 9 2 8 3 7 4 5 5 6 6 3 8 2 9 1 10 4 11 78 13 79 14 87 15
REMARK SMILES IDX 80 16 82 17 86 18 81 19 83 20 85 21 84 22 11 23 12 24 13 25
REMARK SMILES IDX 14 27 15 28 16 29 77 30 17 31 76 32 18 33 19 34 20 35 70 36
REMARK SMILES IDX 21 37 75 38 69 39 71 40 22 41 74 42 68 43 67 44 23 46 55 47
REMARK SMILES IDX 35 48 54 49 36 50 39 51 53 52 72 53 37 54 38 55 52 57 73 58
REMARK SMILES IDX 40 59 24 60 25 61 33 62 26 63 28 64 34 65 27 66 29 67 30 68
REMARK SMILES IDX 31 69 32 70 56 71 57 72 65 73 58 74 60 75 66 76 59 77 61 78
REMARK SMILES IDX 62 79 63 80 64 81 41 82 42 83 50 84 43 85 45 86 51 87 44 88
REMARK SMILES IDX 46 89 47 90 48 91 49 92
REMARK H PARENT 7 7 4 12 12 26 71 45 39 56
REMARK Flexibility Score: inf
ROOT
ATOM      1  C   UNL     1       1.822   6.034   5.927  1.00  0.00     0.023 C 
ENDROOT
BRANCH   1   2
ATOM      2  C   UNL     1       2.946   5.220   5.284  1.00  0.00     0.023 C 
BRANCH   2   3
ATOM      3  C   UNL     1       2.977   3.751   5.713  1.00  0.00     0.116 C 
BRANCH   3   4
ATOM      4  N   UNL     1       1.884   3.037   5.087  1.00  0.00    -0.354 N 
ATOM      5  C   UNL     1       1.861   2.261   3.964  1.00  0.00     0.252 C 
ATOM      6  O   UNL     1       0.738   1.987   3.527  1.00  0.00    -0.272 OA
ATOM      7  H   UNL     1       1.018   3.125   5.545  1.00  0.00     0.163 HD
BRANCH   5   8
ATOM      8  C   UNL     1       3.179   1.763   3.267  1.00  0.00     0.149 C 
BRANCH   8   9
ATOM      9  C   UNL     1       3.929   2.974   2.644  1.00  0.00     0.043 C 
ATOM     10  C   UNL     1       5.268   2.687   1.970  1.00  0.00     0.007 C 
ENDBRANCH   8   9
BRANCH   8  11
ATOM     11  O   UNL     1       4.011   1.246   4.333  1.00  0.00    -0.379 OA
ATOM     12  H   UNL     1       4.253   1.969   4.933  1.00  0.00     0.212 HD
ENDBRANCH   8  11
BRANCH   8  13
ATOM     13  C   UNL     1       2.785   0.564   2.282  1.00  0.00     0.068 C 
ATOM     14  C   UNL     1       3.524  -0.737   2.666  1.00  0.00     0.053 C 
ATOM     15  C   UNL     1       2.890   0.786   0.777  1.00  0.00     0.001 A 
ATOM     16  C   UNL     1       3.258  -1.796   1.619  1.00  0.00     0.230 C 
ATOM     17  C   UNL     1       3.491  -0.178  -0.048  1.00  0.00     0.122 A 
ATOM     18  C   UNL     1       2.370   1.935   0.164  1.00  0.00     0.008 A 
ATOM     19  O   UNL     1       3.883  -1.417   0.391  1.00  0.00    -0.493 OA
ATOM     20  C   UNL     1       3.741   0.087  -1.395  1.00  0.00     0.047 A 
ATOM     21  C   UNL     1       2.626   2.207  -1.182  1.00  0.00     0.001 A 
ATOM     22  C   UNL     1       3.338   1.295  -1.955  1.00  0.00     0.004 A 
ENDBRANCH   8  13
ENDBRANCH   5   8
ENDBRANCH   3   4
ENDBRANCH   2   3
ENDBRANCH   1   2
BRANCH   1  23
ATOM     23  C   UNL     1       1.850   6.062   7.449  1.00  0.00     0.116 C 
BRANCH  23  24
ATOM     24  N   UNL     1       3.125   6.520   7.981  1.00  0.00    -0.352 N 
ATOM     25  C   UNL     1       3.361   7.301   9.088  1.00  0.00     0.251 C 
ATOM     26  H   UNL     1       3.924   6.234   7.481  1.00  0.00     0.163 HD
ATOM     27  O   UNL     1       4.485   7.712   9.325  1.00  0.00    -0.269 OA
BRANCH  25  28
ATOM     28  C   UNL     1       2.226   7.655   9.965  1.00  0.00     0.039 A 
ATOM     29  C   UNL     1       2.060   8.989  10.344  1.00  0.00     0.014 A 
ATOM     30  C   UNL     1       1.317   6.679  10.381  1.00  0.00     0.014 A 
ATOM     31  C   UNL     1       0.947   9.352  11.103  1.00  0.00     0.010 A 
ATOM     32  C   UNL     1       0.169   7.056  11.068  1.00  0.00     0.010 A 
ATOM     33  C   UNL     1      -0.021   8.393  11.447  1.00  0.00    -0.014 A 
BRANCH  33  34
ATOM     34  C   UNL     1      -1.238   8.771  12.207  1.00  0.00     0.031 A 
ATOM     35  C   UNL     1      -1.484   8.194  13.574  1.00  0.00     0.074 A 
ATOM     36  C   UNL     1      -2.157   9.573  11.634  1.00  0.00     0.049 A 
ATOM     37  N   UNL     1      -2.499   8.379  14.376  1.00  0.00    -0.248 NA
ATOM     38  C   UNL     1      -0.470   7.262  14.098  1.00  0.00     0.031 C 
ATOM     39  C   UNL     1      -2.072  10.126  10.280  1.00  0.00     0.029 A 
ATOM     40  N   UNL     1      -3.355  10.043  12.109  1.00  0.00    -0.354 N 
ATOM     41  C   UNL     1      -2.267   7.566  15.478  1.00  0.00     0.074 A 
ATOM     42  C   UNL     1      -1.034   6.853  15.225  1.00  0.00     0.031 C 
ATOM     43  C   UNL     1      -3.165  10.869  10.039  1.00  0.00     0.029 A 
ATOM     44  C   UNL     1      -4.039  10.824  11.207  1.00  0.00     0.049 A 
ATOM     45  H   UNL     1      -3.693   9.841  13.011  1.00  0.00     0.167 HD
ATOM     46  C   UNL     1      -2.994   7.446  16.614  1.00  0.00     0.034 A 
ATOM     47  C   UNL     1      -5.235  11.435  11.310  1.00  0.00     0.034 A 
ATOM     48  C   UNL     1      -4.195   8.191  16.879  1.00  0.00     0.049 A 
ATOM     49  C   UNL     1      -6.000  11.323  12.601  1.00  0.00     0.074 A 
ATOM     50  C   UNL     1      -4.957   8.211  18.033  1.00  0.00     0.029 A 
ATOM     51  N   UNL     1      -4.813   9.041  15.975  1.00  0.00    -0.354 N 
ATOM     52  N   UNL     1      -5.680  10.680  13.698  1.00  0.00    -0.248 NA
ATOM     53  C   UNL     1      -7.273  12.054  12.684  1.00  0.00     0.031 C 
ATOM     54  C   UNL     1      -6.051   9.058  17.818  1.00  0.00     0.029 A 
ATOM     55  C   UNL     1      -5.952   9.587  16.541  1.00  0.00     0.049 A 
ATOM     56  H   UNL     1      -4.489   9.229  15.065  1.00  0.00     0.167 HD
ATOM     57  C   UNL     1      -6.689  10.960  14.613  1.00  0.00     0.074 A 
ATOM     58  C   UNL     1      -7.620  11.848  13.947  1.00  0.00     0.031 C 
ATOM     59  C   UNL     1      -6.840  10.512  15.884  1.00  0.00     0.034 A 
BRANCH  46  60
ATOM     60  C   UNL     1      -2.478   6.513  17.679  1.00  0.00     0.023 A 
ATOM     61  C   UNL     1      -1.315   6.856  18.400  1.00  0.00     0.012 A 
ATOM     62  C   UNL     1      -3.166   5.328  18.002  1.00  0.00     0.148 A 
ATOM     63  C   UNL     1      -0.823   6.016  19.397  1.00  0.00     0.002 A 
ATOM     64  C   UNL     1      -2.696   4.518  19.030  1.00  0.00     0.091 A 
ATOM     65  F   UNL     1      -4.257   5.006  17.293  1.00  0.00    -0.205 F 
ATOM     66  C   UNL     1      -1.518   4.854  19.719  1.00  0.00     0.022 A 
BRANCH  64  67
ATOM     67  S   UNL     1      -3.563   3.043  19.577  1.00  0.00     0.127 S 
ATOM     68  O   UNL     1      -2.676   1.985  19.097  1.00  0.00    -0.237 OA
ATOM     69  O   UNL     1      -3.576   3.215  21.030  1.00  0.00    -0.237 OA
ATOM     70  O   UNL     1      -4.875   3.093  18.948  1.00  0.00    -0.744 OA
ENDBRANCH  64  67
ENDBRANCH  46  60
BRANCH  47  71
ATOM     71  C   UNL     1      -5.746  12.271  10.187  1.00  0.00     0.023 A 
ATOM     72  C   UNL     1      -5.803  13.670  10.339  1.00  0.00     0.012 A 
ATOM     73  C   UNL     1      -6.151  11.696   8.967  1.00  0.00     0.148 A 
ATOM     74  C   UNL     1      -6.287  14.479   9.310  1.00  0.00     0.002 A 
ATOM     75  C   UNL     1      -6.580  12.511   7.927  1.00  0.00     0.091 A 
ATOM     76  F   UNL     1      -6.097  10.362   8.846  1.00  0.00    -0.205 F 
ATOM     77  C   UNL     1      -6.667  13.901   8.102  1.00  0.00     0.022 A 
BRANCH  75  78
ATOM     78  S   UNL     1      -6.963  11.868   6.294  1.00  0.00     0.127 S 
ATOM     79  O   UNL     1      -8.414  12.028   6.243  1.00  0.00    -0.237 OA
ATOM     80  O   UNL     1      -6.212  12.777   5.427  1.00  0.00    -0.237 OA
ATOM     81  O   UNL     1      -6.476  10.496   6.288  1.00  0.00    -0.744 OA
ENDBRANCH  75  78
ENDBRANCH  47  71
BRANCH  59  82
ATOM     82  C   UNL     1      -8.032  11.005  16.661  1.00  0.00     0.023 A 
ATOM     83  C   UNL     1      -9.323  10.542  16.337  1.00  0.00     0.012 A 
ATOM     84  C   UNL     1      -7.864  11.874  17.757  1.00  0.00     0.148 A 
ATOM     85  C   UNL     1     -10.431  10.964  17.069  1.00  0.00     0.002 A 
ATOM     86  C   UNL     1      -8.967  12.250  18.514  1.00  0.00     0.091 A 
ATOM     87  F   UNL     1      -6.630  12.319  18.038  1.00  0.00    -0.205 F 
ATOM     88  C   UNL     1     -10.252  11.808  18.163  1.00  0.00     0.022 A 
BRANCH  86  89
ATOM     89  S   UNL     1      -8.817  13.252  19.997  1.00  0.00     0.127 S 
ATOM     90  O   UNL     1      -9.344  14.538  19.543  1.00  0.00    -0.237 OA
ATOM     91  O   UNL     1      -9.679  12.539  20.942  1.00  0.00    -0.237 OA
ATOM     92  O   UNL     1      -7.403  13.242  20.346  1.00  0.00    -0.744 OA
ENDBRANCH  86  89
ENDBRANCH  59  82
ENDBRANCH  33  34
ENDBRANCH  25  28
ENDBRANCH  23  24
ENDBRANCH   1  23
TORSDOF 17
