REMARK SMILES Cc1ccc(C(=O)NCCCCNC(=O)c2ccc(-c3c4nc(c(-c5cccc(S(=O)(=O)[O-])c5F)c5ccc([nH]5)c(-c5cccc(S(=O)(=O)[O-])c5F)c5nc(c(-c6cccc(S(=O)(=O)[O-])c6F)c6ccc3[nH]6)C=C5)C=C4)cc2)c2c1N[C@H](c1ccccc1F)[C@H]1CC=C[C@@H]21
REMARK SMILES IDX 11 1 10 2 9 3 8 4 6 5 7 6 5 8 1 9 2 10 3 11 80 12 4 13 79 14
REMARK SMILES IDX 81 15 94 16 82 17 90 19 93 20 91 21 92 22 83 23 84 24 88 25
REMARK SMILES IDX 85 26 87 27 89 28 86 29 12 30 13 31 14 32 15 34 16 35 17 36
REMARK SMILES IDX 78 37 18 38 77 39 19 40 20 41 21 42 71 43 22 44 76 45 70 46
REMARK SMILES IDX 72 47 23 48 75 49 69 50 68 51 24 53 56 54 36 55 55 56 37 57
REMARK SMILES IDX 40 58 54 59 73 60 38 61 39 62 53 64 74 65 41 66 25 67 26 68
REMARK SMILES IDX 34 69 27 70 29 71 35 72 28 73 30 74 31 75 32 76 33 77 57 78
REMARK SMILES IDX 58 79 66 80 59 81 61 82 67 83 60 84 62 85 63 86 64 87 65 88
REMARK SMILES IDX 42 89 43 90 51 91 44 92 46 93 52 94 45 95 47 96 48 97 49 98
REMARK SMILES IDX 50 99
REMARK H PARENT 8 7 81 18 13 33 72 52 40 63
REMARK Flexibility Score: inf
ROOT
ATOM      1  C   UNL     1      -0.628  -3.527   7.417  1.00  0.00     0.023 C 
ENDROOT
BRANCH   1   2
ATOM      2  C   UNL     1      -0.608  -3.212   5.917  1.00  0.00     0.023 C 
BRANCH   2   3
ATOM      3  C   UNL     1      -1.708  -2.247   5.460  1.00  0.00     0.116 C 
BRANCH   3   4
ATOM      4  N   UNL     1      -1.421  -0.910   5.931  1.00  0.00    -0.352 N 
ATOM      5  C   UNL     1      -0.703   0.147   5.431  1.00  0.00     0.251 C 
ATOM      6  O   UNL     1      -0.528   1.063   6.232  1.00  0.00    -0.269 OA
ATOM      7  H   UNL     1      -1.832  -0.715   6.803  1.00  0.00     0.163 HD
BRANCH   5   8
ATOM      8  C   UNL     1      -0.169   0.234   4.020  1.00  0.00     0.045 A 
ATOM      9  C   UNL     1       1.273   0.330  -0.073  1.00  0.00     0.046 C 
ATOM     10  C   UNL     1       0.809   0.342   1.359  1.00  0.00    -0.028 A 
ATOM     11  C   UNL     1       0.614  -0.880   1.996  1.00  0.00     0.006 A 
ATOM     12  C   UNL     1       0.615   1.539   2.079  1.00  0.00     0.042 A 
ATOM     13  C   UNL     1       0.164  -0.925   3.312  1.00  0.00     0.014 A 
ATOM     14  C   UNL     1       0.087   1.494   3.397  1.00  0.00    -0.005 A 
ATOM     15  N   UNL     1       0.937   2.745   1.478  1.00  0.00    -0.377 N 
ATOM     16  C   UNL     1      -0.112   2.803   4.138  1.00  0.00     0.050 C 
ATOM     17  C   UNL     1       0.422   4.012   1.966  1.00  0.00     0.117 C 
ATOM     18  H   UNL     1       1.533   2.743   0.695  1.00  0.00     0.161 HD
ATOM     19  C   UNL     1       0.521   4.056   3.496  1.00  0.00     0.031 C 
ATOM     20  C   UNL     1      -1.542   3.244   4.317  1.00  0.00    -0.023 C 
ATOM     21  C   UNL     1      -0.308   5.217   4.080  1.00  0.00     0.034 C 
ATOM     22  C   UNL     1      -1.643   4.579   4.306  1.00  0.00    -0.030 C 
BRANCH  17  23
ATOM     23  C   UNL     1       1.115   5.128   1.188  1.00  0.00     0.010 A 
ATOM     24  C   UNL     1       0.783   5.296  -0.173  1.00  0.00     0.009 A 
ATOM     25  C   UNL     1       2.080   5.990   1.723  1.00  0.00     0.128 A 
ATOM     26  C   UNL     1       1.389   6.286  -0.952  1.00  0.00     0.001 A 
ATOM     27  C   UNL     1       2.683   6.983   0.951  1.00  0.00     0.039 A 
ATOM     28  F   UNL     1       2.459   5.908   3.004  1.00  0.00    -0.207 F 
ATOM     29  C   UNL     1       2.339   7.133  -0.388  1.00  0.00     0.003 A 
ENDBRANCH  17  23
ENDBRANCH   5   8
ENDBRANCH   3   4
ENDBRANCH   2   3
ENDBRANCH   1   2
BRANCH   1  30
ATOM     30  C   UNL     1      -1.896  -4.213   7.910  1.00  0.00     0.116 C 
BRANCH  30  31
ATOM     31  N   UNL     1      -2.176  -5.450   7.197  1.00  0.00    -0.352 N 
ATOM     32  C   UNL     1      -2.772  -6.588   7.685  1.00  0.00     0.251 C 
ATOM     33  H   UNL     1      -1.906  -5.475   6.250  1.00  0.00     0.163 HD
ATOM     34  O   UNL     1      -2.854  -7.597   7.005  1.00  0.00    -0.269 OA
BRANCH  32  35
ATOM     35  C   UNL     1      -3.282  -6.564   9.069  1.00  0.00     0.039 A 
ATOM     36  C   UNL     1      -2.771  -7.482   9.988  1.00  0.00     0.014 A 
ATOM     37  C   UNL     1      -4.215  -5.598   9.455  1.00  0.00     0.014 A 
ATOM     38  C   UNL     1      -3.167  -7.402  11.322  1.00  0.00     0.010 A 
ATOM     39  C   UNL     1      -4.578  -5.496  10.793  1.00  0.00     0.010 A 
ATOM     40  C   UNL     1      -4.059  -6.399  11.733  1.00  0.00    -0.014 A 
BRANCH  40  41
ATOM     41  C   UNL     1      -4.480  -6.293  13.146  1.00  0.00     0.031 A 
ATOM     42  C   UNL     1      -5.878  -6.675  13.534  1.00  0.00     0.074 A 
ATOM     43  C   UNL     1      -3.625  -5.801  14.062  1.00  0.00     0.049 A 
ATOM     44  N   UNL     1      -6.444  -6.633  14.710  1.00  0.00    -0.248 NA
ATOM     45  C   UNL     1      -6.762  -7.152  12.456  1.00  0.00     0.031 C 
ATOM     46  C   UNL     1      -2.262  -5.344  13.787  1.00  0.00     0.029 A 
ATOM     47  N   UNL     1      -3.784  -5.589  15.407  1.00  0.00    -0.354 N 
ATOM     48  C   UNL     1      -7.751  -7.056  14.513  1.00  0.00     0.074 A 
ATOM     49  C   UNL     1      -7.907  -7.326  13.101  1.00  0.00     0.031 C 
ATOM     50  C   UNL     1      -1.706  -4.910  14.931  1.00  0.00     0.029 A 
ATOM     51  C   UNL     1      -2.675  -5.049  16.014  1.00  0.00     0.049 A 
ATOM     52  H   UNL     1      -4.613  -5.803  15.893  1.00  0.00     0.167 HD
ATOM     53  C   UNL     1      -8.725  -7.238  15.434  1.00  0.00     0.034 A 
ATOM     54  C   UNL     1      -2.463  -4.714  17.302  1.00  0.00     0.034 A 
ATOM     55  C   UNL     1      -8.552  -7.020  16.842  1.00  0.00     0.049 A 
ATOM     56  C   UNL     1      -3.551  -4.957  18.311  1.00  0.00     0.074 A 
ATOM     57  C   UNL     1      -9.456  -7.247  17.863  1.00  0.00     0.029 A 
ATOM     58  N   UNL     1      -7.396  -6.530  17.427  1.00  0.00    -0.354 N 
ATOM     59  N   UNL     1      -4.739  -5.479  18.127  1.00  0.00    -0.248 NA
ATOM     60  C   UNL     1      -3.263  -4.593  19.706  1.00  0.00     0.031 C 
ATOM     61  C   UNL     1      -8.844  -6.898  19.070  1.00  0.00     0.029 A 
ATOM     62  C   UNL     1      -7.560  -6.450  18.797  1.00  0.00     0.049 A 
ATOM     63  H   UNL     1      -6.578  -6.277  16.940  1.00  0.00     0.167 HD
ATOM     64  C   UNL     1      -5.332  -5.530  19.383  1.00  0.00     0.074 A 
ATOM     65  C   UNL     1      -4.368  -4.996  20.323  1.00  0.00     0.031 C 
ATOM     66  C   UNL     1      -6.569  -5.966  19.722  1.00  0.00     0.034 A 
BRANCH  53  67
ATOM     67  C   UNL     1     -10.041  -7.777  14.955  1.00  0.00     0.023 A 
ATOM     68  C   UNL     1     -10.155  -9.158  14.698  1.00  0.00     0.012 A 
ATOM     69  C   UNL     1     -11.168  -6.947  14.820  1.00  0.00     0.148 A 
ATOM     70  C   UNL     1     -11.372  -9.705  14.297  1.00  0.00     0.002 A 
ATOM     71  C   UNL     1     -12.385  -7.504  14.444  1.00  0.00     0.091 A 
ATOM     72  F   UNL     1     -11.027  -5.634  15.052  1.00  0.00    -0.205 F 
ATOM     73  C   UNL     1     -12.487  -8.880  14.179  1.00  0.00     0.022 A 
BRANCH  71  74
ATOM     74  S   UNL     1     -13.895  -6.541  14.302  1.00  0.00     0.127 S 
ATOM     75  O   UNL     1     -14.156  -6.615  12.864  1.00  0.00    -0.237 OA
ATOM     76  O   UNL     1     -14.825  -7.306  15.131  1.00  0.00    -0.237 OA
ATOM     77  O   UNL     1     -13.576  -5.213  14.805  1.00  0.00    -0.744 OA
ENDBRANCH  71  74
ENDBRANCH  53  67
BRANCH  54  78
ATOM     78  C   UNL     1      -1.128  -4.207  17.717  1.00  0.00     0.023 A 
ATOM     79  C   UNL     1      -0.246  -5.080  18.381  1.00  0.00     0.012 A 
ATOM     80  C   UNL     1      -0.706  -2.900  17.406  1.00  0.00     0.148 A 
ATOM     81  C   UNL     1       1.034  -4.657  18.740  1.00  0.00     0.002 A 
ATOM     82  C   UNL     1       0.582  -2.496  17.738  1.00  0.00     0.091 A 
ATOM     83  F   UNL     1      -1.567  -2.090  16.774  1.00  0.00    -0.205 F 
ATOM     84  C   UNL     1       1.450  -3.370  18.412  1.00  0.00     0.022 A 
BRANCH  82  85
ATOM     85  S   UNL     1       1.248  -0.891  17.280  1.00  0.00     0.127 S 
ATOM     86  O   UNL     1       1.477  -0.280  18.587  1.00  0.00    -0.237 OA
ATOM     87  O   UNL     1       2.461  -1.269  16.554  1.00  0.00    -0.237 OA
ATOM     88  O   UNL     1       0.223  -0.256  16.463  1.00  0.00    -0.744 OA
ENDBRANCH  82  85
ENDBRANCH  54  78
BRANCH  66  89
ATOM     89  C   UNL     1      -6.970  -5.900  21.169  1.00  0.00     0.023 A 
ATOM     90  C   UNL     1      -7.426  -4.678  21.696  1.00  0.00     0.012 A 
ATOM     91  C   UNL     1      -7.031  -7.068  21.953  1.00  0.00     0.148 A 
ATOM     92  C   UNL     1      -7.940  -4.617  22.991  1.00  0.00     0.002 A 
ATOM     93  C   UNL     1      -7.573  -7.006  23.231  1.00  0.00     0.091 A 
ATOM     94  F   UNL     1      -6.580  -8.215  21.427  1.00  0.00    -0.205 F 
ATOM     95  C   UNL     1      -8.025  -5.782  23.752  1.00  0.00     0.022 A 
BRANCH  93  96
ATOM     96  S   UNL     1      -7.799  -8.462  24.258  1.00  0.00     0.127 S 
ATOM     97  O   UNL     1      -6.830  -8.226  25.327  1.00  0.00    -0.237 OA
ATOM     98  O   UNL     1      -9.199  -8.340  24.665  1.00  0.00    -0.237 OA
ATOM     99  O   UNL     1      -7.514  -9.607  23.404  1.00  0.00    -0.744 OA
ENDBRANCH  93  96
ENDBRANCH  66  89
ENDBRANCH  40  41
ENDBRANCH  32  35
ENDBRANCH  30  31
ENDBRANCH   1  30
TORSDOF 15
