REMARK SMILES Cc1ccc(S(=O)(=O)n2cc(C(=O)C(=O)NCC(=O)N[C@@H](Cc3c[nH]c4ccccc34)C(=O)NCCCCNC(=O)c3ccc(-c4c5nc(c(-c6cccc(S(=O)(=O)[O-])c6F)c6ccc([nH]6)c(-c6cccc(S(=O)(=O)[O-])c6F)c6nc(c(-c7cccc(S(=O)(=O)[O-])c7F)c7ccc4[nH]7)C=C6)C=C5)cc3)c3ccccc32)cc1
REMARK SMILES IDX 32 1 33 2 34 3 21 5 20 6 18 7 19 8 17 10 16 11 14 12 15 13
REMARK SMILES IDX 12 15 13 16 11 17 9 18 10 19 110 20 105 21 109 22 106 23
REMARK SMILES IDX 108 24 107 25 6 26 7 27 8 28 5 29 1 30 2 31 3 32 112 33 4 34
REMARK SMILES IDX 111 35 22 36 23 37 24 38 31 39 25 40 26 41 30 42 27 44 29 45
REMARK SMILES IDX 28 46 35 47 36 48 37 49 38 50 39 51 40 52 41 54 42 55 43 56
REMARK SMILES IDX 104 57 44 58 103 59 45 60 46 61 47 62 97 63 48 64 102 65
REMARK SMILES IDX 96 66 98 67 49 68 101 69 95 70 94 71 50 73 82 74 62 75 81 76
REMARK SMILES IDX 63 77 66 78 80 79 99 80 64 81 65 82 79 84 100 85 67 86 51 87
REMARK SMILES IDX 52 88 60 89 53 90 55 91 61 92 54 93 56 94 57 95 58 96 59 97
REMARK SMILES IDX 83 98 84 99 92 100 85 101 87 102 93 103 86 104 88 105 89 106
REMARK SMILES IDX 90 107 91 108 68 109 69 110 77 111 70 112 72 113 78 114
REMARK SMILES IDX 71 115 73 116 74 117 75 118 76 119
REMARK H PARENT 34 4 20 9 16 14 25 43 39 53 98 72 66 83
REMARK Flexibility Score: inf
ROOT
ATOM      1  C   UNL     1      -9.729   0.350   3.180  1.00  0.00     0.242 C 
ATOM      2  O   UNL     1      -8.800  -0.439   2.967  1.00  0.00    -0.273 OA
ATOM      3  N   UNL     1     -10.701  -0.063   4.041  1.00  0.00    -0.354 N 
ATOM      4  H   UNL     1     -10.798  -1.039   4.123  1.00  0.00     0.163 HD
ENDROOT
BRANCH   1   5
ATOM      5  C   UNL     1      -9.693   1.748   2.521  1.00  0.00     0.175 C 
BRANCH   5   6
ATOM      6  N   UNL     1     -11.002   2.257   2.094  1.00  0.00    -0.342 N 
ATOM      7  C   UNL     1     -11.547   2.193   0.842  1.00  0.00     0.240 C 
ATOM      8  O   UNL     1     -12.769   2.290   0.718  1.00  0.00    -0.273 OA
ATOM      9  H   UNL     1     -11.549   2.693   2.787  1.00  0.00     0.164 HD
BRANCH   7  10
ATOM     10  C   UNL     1     -10.627   1.952  -0.368  1.00  0.00     0.216 C 
BRANCH  10  11
ATOM     11  N   UNL     1      -9.539   2.939  -0.370  1.00  0.00    -0.340 N 
ATOM     12  C   UNL     1      -8.189   2.757  -0.625  1.00  0.00     0.292 C 
ATOM     13  O   UNL     1      -7.390   3.668  -0.446  1.00  0.00    -0.265 OA
ATOM     14  H   UNL     1      -9.807   3.863  -0.161  1.00  0.00     0.164 HD
BRANCH  12  15
ATOM     15  C   UNL     1      -7.699   1.402  -1.148  1.00  0.00     0.252 C 
ATOM     16  O   UNL     1      -8.366   0.912  -2.062  1.00  0.00    -0.283 OA
BRANCH  15  17
ATOM     17  C   UNL     1      -6.597   0.662  -0.509  1.00  0.00     0.054 A 
ATOM     18  N   UNL     1      -4.696  -0.024   0.532  1.00  0.00    -0.240 N 
ATOM     19  C   UNL     1      -5.344   1.081  -0.036  1.00  0.00     0.117 A 
ATOM     20  C   UNL     1      -5.659  -1.050   0.625  1.00  0.00     0.065 A 
ATOM     21  C   UNL     1      -6.608  -0.756  -0.349  1.00  0.00     0.012 A 
ATOM     22  C   UNL     1      -5.570  -2.331   1.206  1.00  0.00     0.028 A 
ATOM     23  C   UNL     1      -7.353  -1.819  -0.904  1.00  0.00     0.011 A 
ATOM     24  C   UNL     1      -6.223  -3.378   0.558  1.00  0.00     0.002 A 
ATOM     25  C   UNL     1      -7.075  -3.131  -0.509  1.00  0.00     0.001 A 
BRANCH  18  26
ATOM     26  S   UNL     1      -3.163  -0.711   0.021  1.00  0.00     0.268 S 
ATOM     27  O   UNL     1      -3.434  -1.119  -1.349  1.00  0.00    -0.201 OA
ATOM     28  O   UNL     1      -2.928  -1.699   1.067  1.00  0.00    -0.201 OA
BRANCH  26  29
ATOM     29  C   UNL     1      -1.569   0.019  -0.058  1.00  0.00     0.088 A 
ATOM     30  C   UNL     1       2.706   0.679  -0.030  1.00  0.00     0.044 C 
ATOM     31  C   UNL     1       1.216   0.504  -0.097  1.00  0.00    -0.051 A 
ATOM     32  C   UNL     1       0.749  -0.783  -0.299  1.00  0.00     0.005 A 
ATOM     33  C   UNL     1       0.280   1.549   0.092  1.00  0.00     0.005 A 
ATOM     34  C   UNL     1      -0.613  -1.007  -0.296  1.00  0.00     0.022 A 
ATOM     35  C   UNL     1      -1.124   1.315   0.120  1.00  0.00     0.022 A 
ENDBRANCH  26  29
ENDBRANCH  18  26
ENDBRANCH  15  17
ENDBRANCH  12  15
ENDBRANCH  10  11
ENDBRANCH   7  10
ENDBRANCH   5   6
BRANCH   5  36
ATOM     36  C   UNL     1      -8.803   2.789   3.227  1.00  0.00     0.072 C 
BRANCH  36  37
ATOM     37  C   UNL     1      -9.187   3.113   4.631  1.00  0.00    -0.020 A 
ATOM     38  C   UNL     1      -8.962   2.310   5.735  1.00  0.00     0.087 A 
ATOM     39  C   UNL     1      -9.812   4.305   5.116  1.00  0.00     0.003 A 
ATOM     40  N   UNL     1      -9.591   2.871   6.814  1.00  0.00    -0.361 N 
ATOM     41  C   UNL     1     -10.183   4.051   6.434  1.00  0.00     0.046 A 
ATOM     42  C   UNL     1     -10.130   5.564   4.565  1.00  0.00     0.010 A 
ATOM     43  H   UNL     1      -9.615   2.489   7.721  1.00  0.00     0.166 HD
ATOM     44  C   UNL     1     -10.984   4.920   7.173  1.00  0.00     0.026 A 
ATOM     45  C   UNL     1     -10.840   6.494   5.338  1.00  0.00     0.001 A 
ATOM     46  C   UNL     1     -11.296   6.157   6.608  1.00  0.00     0.002 A 
ENDBRANCH  36  37
ENDBRANCH   5  36
ENDBRANCH   1   5
BRANCH   3  47
ATOM     47  C   UNL     1     -11.617   0.715   4.855  1.00  0.00     0.116 C 
BRANCH  47  48
ATOM     48  C   UNL     1     -12.994   0.076   5.024  1.00  0.00     0.023 C 
BRANCH  48  49
ATOM     49  C   UNL     1     -13.012  -1.223   5.834  1.00  0.00     0.023 C 
BRANCH  49  50
ATOM     50  C   UNL     1     -12.438  -1.097   7.234  1.00  0.00     0.116 C 
BRANCH  50  51
ATOM     51  N   UNL     1     -13.313  -0.423   8.164  1.00  0.00    -0.352 N 
ATOM     52  C   UNL     1     -13.280  -0.427   9.543  1.00  0.00     0.251 C 
ATOM     53  H   UNL     1     -14.033   0.112   7.758  1.00  0.00     0.163 HD
ATOM     54  O   UNL     1     -14.333  -0.170  10.130  1.00  0.00    -0.269 OA
BRANCH  52  55
ATOM     55  C   UNL     1     -11.993  -0.532  10.290  1.00  0.00     0.039 A 
ATOM     56  C   UNL     1     -11.950   0.048  11.568  1.00  0.00     0.014 A 
ATOM     57  C   UNL     1     -10.800  -0.853   9.656  1.00  0.00     0.014 A 
ATOM     58  C   UNL     1     -10.761   0.585  12.048  1.00  0.00     0.010 A 
ATOM     59  C   UNL     1      -9.649  -0.236  10.061  1.00  0.00     0.010 A 
ATOM     60  C   UNL     1      -9.663   0.556  11.209  1.00  0.00    -0.014 A 
BRANCH  60  61
ATOM     61  C   UNL     1      -8.414   1.250  11.415  1.00  0.00     0.031 A 
ATOM     62  C   UNL     1      -7.332   0.505  12.077  1.00  0.00     0.074 A 
ATOM     63  C   UNL     1      -8.227   2.317  10.606  1.00  0.00     0.049 A 
ATOM     64  N   UNL     1      -6.168   0.979  12.332  1.00  0.00    -0.248 NA
ATOM     65  C   UNL     1      -7.504  -0.879  12.514  1.00  0.00     0.031 C 
ATOM     66  C   UNL     1      -6.974   2.828  10.074  1.00  0.00     0.029 A 
ATOM     67  N   UNL     1      -9.184   3.263  10.201  1.00  0.00    -0.354 N 
ATOM     68  C   UNL     1      -5.364  -0.080  12.713  1.00  0.00     0.074 A 
ATOM     69  C   UNL     1      -6.262  -1.192  12.889  1.00  0.00     0.031 C 
ATOM     70  C   UNL     1      -7.170   4.093   9.661  1.00  0.00     0.029 A 
ATOM     71  C   UNL     1      -8.493   4.486  10.128  1.00  0.00     0.049 A 
ATOM     72  H   UNL     1     -10.136   3.104  10.009  1.00  0.00     0.167 HD
ATOM     73  C   UNL     1      -4.013   0.095  12.689  1.00  0.00     0.034 A 
ATOM     74  C   UNL     1      -8.727   5.521  10.992  1.00  0.00     0.034 A 
ATOM     75  C   UNL     1      -3.711   1.491  12.338  1.00  0.00     0.049 A 
ATOM     76  C   UNL     1      -7.514   5.851  11.845  1.00  0.00     0.074 A 
ATOM     77  C   UNL     1      -3.447   2.110  11.127  1.00  0.00     0.029 A 
ATOM     78  N   UNL     1      -4.028   2.499  13.238  1.00  0.00    -0.354 N 
ATOM     79  N   UNL     1      -6.476   5.071  11.977  1.00  0.00    -0.248 NA
ATOM     80  C   UNL     1      -7.375   7.086  12.613  1.00  0.00     0.031 C 
ATOM     81  C   UNL     1      -3.734   3.495  11.280  1.00  0.00     0.029 A 
ATOM     82  C   UNL     1      -4.124   3.722  12.590  1.00  0.00     0.049 A 
ATOM     83  H   UNL     1      -4.166   2.365  14.204  1.00  0.00     0.167 HD
ATOM     84  C   UNL     1      -5.600   5.603  12.882  1.00  0.00     0.074 A 
ATOM     85  C   UNL     1      -6.181   6.897  13.204  1.00  0.00     0.031 C 
ATOM     86  C   UNL     1      -4.504   4.919  13.335  1.00  0.00     0.034 A 
BRANCH  73  87
ATOM     87  C   UNL     1      -2.948  -0.993  12.705  1.00  0.00     0.023 A 
ATOM     88  C   UNL     1      -1.657  -0.614  12.266  1.00  0.00     0.012 A 
ATOM     89  C   UNL     1      -3.097  -2.357  13.056  1.00  0.00     0.148 A 
ATOM     90  C   UNL     1      -0.608  -1.527  12.110  1.00  0.00     0.002 A 
ATOM     91  C   UNL     1      -2.059  -3.280  12.870  1.00  0.00     0.091 A 
ATOM     92  F   UNL     1      -4.224  -2.781  13.629  1.00  0.00    -0.205 F 
ATOM     93  C   UNL     1      -0.814  -2.867  12.391  1.00  0.00     0.022 A 
BRANCH  91  94
ATOM     94  S   UNL     1      -2.246  -5.047  13.188  1.00  0.00     0.127 S 
ATOM     95  O   UNL     1      -1.866  -5.632  11.900  1.00  0.00    -0.237 OA
ATOM     96  O   UNL     1      -1.284  -5.277  14.264  1.00  0.00    -0.237 OA
ATOM     97  O   UNL     1      -3.643  -5.255  13.549  1.00  0.00    -0.744 OA
ENDBRANCH  91  94
ENDBRANCH  73  87
BRANCH  74  98
ATOM     98  C   UNL     1     -10.149   5.645  11.437  1.00  0.00     0.023 A 
ATOM     99  C   UNL     1     -11.075   6.110  10.479  1.00  0.00     0.012 A 
ATOM    100  C   UNL     1     -10.629   4.932  12.551  1.00  0.00     0.148 A 
ATOM    101  C   UNL     1     -12.416   5.718  10.526  1.00  0.00     0.002 A 
ATOM    102  C   UNL     1     -11.968   4.541  12.590  1.00  0.00     0.091 A 
ATOM    103  F   UNL     1      -9.752   4.552  13.487  1.00  0.00    -0.205 F 
ATOM    104  C   UNL     1     -12.848   4.889  11.553  1.00  0.00     0.022 A 
BRANCH 102 105
ATOM    105  S   UNL     1     -12.625   3.462  13.870  1.00  0.00     0.127 S 
ATOM    106  O   UNL     1     -13.435   4.393  14.649  1.00  0.00    -0.237 OA
ATOM    107  O   UNL     1     -13.386   2.492  13.087  1.00  0.00    -0.237 OA
ATOM    108  O   UNL     1     -11.459   2.912  14.543  1.00  0.00    -0.744 OA
ENDBRANCH 102 105
ENDBRANCH  74  98
BRANCH  86 109
ATOM    109  C   UNL     1      -3.695   5.309  14.555  1.00  0.00     0.023 A 
ATOM    110  C   UNL     1      -4.241   6.085  15.594  1.00  0.00     0.012 A 
ATOM    111  C   UNL     1      -2.414   4.742  14.785  1.00  0.00     0.148 A 
ATOM    112  C   UNL     1      -3.534   6.344  16.773  1.00  0.00     0.002 A 
ATOM    113  C   UNL     1      -1.775   4.893  16.011  1.00  0.00     0.091 A 
ATOM    114  F   UNL     1      -1.800   4.057  13.809  1.00  0.00    -0.205 F 
ATOM    115  C   UNL     1      -2.313   5.724  16.994  1.00  0.00     0.022 A 
BRANCH 113 116
ATOM    116  S   UNL     1      -0.351   3.881  16.439  1.00  0.00     0.127 S 
ATOM    117  O   UNL     1       0.761   4.758  16.084  1.00  0.00    -0.237 OA
ATOM    118  O   UNL     1      -0.533   3.676  17.877  1.00  0.00    -0.237 OA
ATOM    119  O   UNL     1      -0.497   2.670  15.642  1.00  0.00    -0.744 OA
ENDBRANCH 113 116
ENDBRANCH  86 109
ENDBRANCH  60  61
ENDBRANCH  52  55
ENDBRANCH  50  51
ENDBRANCH  49  50
ENDBRANCH  48  49
ENDBRANCH  47  48
ENDBRANCH   3  47
TORSDOF 23
