REMARK SMILES CC(C)[NH2+][C@]1(C(=O)NCCCCNC(=O)c2ccc(-c3c4nc(c(-c5cccc(S(=O)(=O)[O-])c5F)c5ccc([nH]5)c(-c5cccc(S(=O)(=O)[O-])c5F)c5nc(c(-c6cccc(S(=O)(=O)[O-])c6F)c6ccc3[nH]6)C=C5)C=C4)cc2)CC[C@H]([N@H+](C)C2CCCC2)C1
REMARK SMILES IDX 11 1 10 2 9 3 8 4 6 5 7 6 5 8 79 9 89 10 80 11 81 12 4 13
REMARK SMILES IDX 2 16 1 17 3 18 82 19 83 20 84 22 85 23 88 24 86 25 87 26
REMARK SMILES IDX 12 27 13 28 14 29 15 31 16 32 17 33 78 34 18 35 77 36 19 37
REMARK SMILES IDX 20 38 21 39 71 40 22 41 76 42 70 43 72 44 23 45 75 46 69 47
REMARK SMILES IDX 68 48 24 50 56 51 36 52 55 53 37 54 40 55 54 56 73 57 38 58
REMARK SMILES IDX 39 59 53 61 74 62 41 63 25 64 26 65 34 66 27 67 29 68 35 69
REMARK SMILES IDX 28 70 30 71 31 72 32 73 33 74 57 75 58 76 66 77 59 78 61 79
REMARK SMILES IDX 67 80 60 81 62 82 63 83 64 84 65 85 42 86 43 87 51 88 44 89
REMARK SMILES IDX 46 90 52 91 45 92 47 93 48 94 49 95 50 96
REMARK H PARENT 8 7 4 14 4 15 82 21 13 30 72 49 40 60
REMARK Flexibility Score: inf
ROOT
ATOM      1  C   UNL     1       2.592   2.671  -1.713  1.00  0.00     0.023 C 
ENDROOT
BRANCH   1   2
ATOM      2  C   UNL     1       1.371   3.401  -1.162  1.00  0.00     0.023 C 
BRANCH   2   3
ATOM      3  C   UNL     1       0.044   2.657  -1.347  1.00  0.00     0.116 C 
BRANCH   3   4
ATOM      4  N   UNL     1      -0.077   1.610  -0.360  1.00  0.00    -0.351 N 
ATOM      5  C   UNL     1      -0.498   1.634   0.932  1.00  0.00     0.281 C 
ATOM      6  O   UNL     1      -0.208   0.617   1.579  1.00  0.00    -0.268 OA
ATOM      7  H   UNL     1       0.194   0.720  -0.680  1.00  0.00     0.163 HD
BRANCH   5   8
ATOM      8  C   UNL     1      -1.382   2.793   1.579  1.00  0.00     0.181 C 
ATOM      9  C   UNL     1      -0.980   4.227   1.249  1.00  0.00     0.085 C 
ATOM     10  C   UNL     1      -2.779   2.652   0.942  1.00  0.00     0.144 C 
ATOM     11  C   UNL     1      -2.237   4.972   0.793  1.00  0.00     0.072 C 
ATOM     12  C   UNL     1      -3.461   4.038   0.914  1.00  0.00     0.191 C 
BRANCH   8  13
ATOM     13  N   UNL     1      -1.300   2.535   3.034  1.00  0.00    -0.331 N 
ATOM     14  H   UNL     1      -1.571   1.559   3.148  1.00  0.00     0.347 HD
ATOM     15  H   UNL     1      -0.354   2.870   3.216  1.00  0.00     0.347 HD
BRANCH  13  16
ATOM     16  C   UNL     1      -2.019   3.253   4.070  1.00  0.00     0.176 C 
ATOM     17  C   UNL     1      -1.856   2.422   5.353  1.00  0.00     0.075 C 
ATOM     18  C   UNL     1      -1.548   4.676   4.366  1.00  0.00     0.075 C 
ENDBRANCH  13  16
ENDBRANCH   8  13
BRANCH  12  19
ATOM     19  N   UNL     1      -4.384   4.392   2.025  1.00  0.00    -0.332 N 
ATOM     20  C   UNL     1      -5.240   3.241   2.390  1.00  0.00     0.333 C 
ATOM     21  H   UNL     1      -3.770   4.661   2.794  1.00  0.00     0.348 HD
BRANCH  19  22
ATOM     22  C   UNL     1      -5.285   5.532   1.718  1.00  0.00     0.184 C 
ATOM     23  C   UNL     1      -5.973   6.091   2.978  1.00  0.00     0.065 C 
ATOM     24  C   UNL     1      -4.698   6.830   1.147  1.00  0.00     0.065 C 
ATOM     25  C   UNL     1      -6.633   7.383   2.509  1.00  0.00     0.006 C 
ATOM     26  C   UNL     1      -5.827   7.846   1.299  1.00  0.00     0.006 C 
ENDBRANCH  19  22
ENDBRANCH  12  19
ENDBRANCH   5   8
ENDBRANCH   3   4
ENDBRANCH   2   3
ENDBRANCH   1   2
BRANCH   1  27
ATOM     27  C   UNL     1       2.559   2.420  -3.211  1.00  0.00     0.116 C 
BRANCH  27  28
ATOM     28  N   UNL     1       2.315   3.626  -3.991  1.00  0.00    -0.352 N 
ATOM     29  C   UNL     1       2.857   3.977  -5.203  1.00  0.00     0.251 C 
ATOM     30  H   UNL     1       1.682   4.271  -3.601  1.00  0.00     0.163 HD
ATOM     31  O   UNL     1       2.634   5.081  -5.690  1.00  0.00    -0.269 OA
BRANCH  29  32
ATOM     32  C   UNL     1       3.741   3.015  -5.887  1.00  0.00     0.039 A 
ATOM     33  C   UNL     1       4.997   3.440  -6.324  1.00  0.00     0.014 A 
ATOM     34  C   UNL     1       3.352   1.679  -6.023  1.00  0.00     0.014 A 
ATOM     35  C   UNL     1       5.891   2.505  -6.844  1.00  0.00     0.010 A 
ATOM     36  C   UNL     1       4.276   0.739  -6.456  1.00  0.00     0.010 A 
ATOM     37  C   UNL     1       5.549   1.143  -6.882  1.00  0.00    -0.014 A 
BRANCH  37  38
ATOM     38  C   UNL     1       6.506   0.121  -7.371  1.00  0.00     0.031 A 
ATOM     39  C   UNL     1       6.170  -0.697  -8.588  1.00  0.00     0.074 A 
ATOM     40  C   UNL     1       7.628  -0.131  -6.669  1.00  0.00     0.049 A 
ATOM     41  N   UNL     1       6.849  -1.666  -9.142  1.00  0.00    -0.248 NA
ATOM     42  C   UNL     1       4.883  -0.415  -9.248  1.00  0.00     0.031 C 
ATOM     43  C   UNL     1       8.013   0.528  -5.418  1.00  0.00     0.029 A 
ATOM     44  N   UNL     1       8.641  -1.028  -6.896  1.00  0.00    -0.354 N 
ATOM     45  C   UNL     1       6.060  -2.133 -10.185  1.00  0.00     0.074 A 
ATOM     46  C   UNL     1       4.830  -1.373 -10.161  1.00  0.00     0.031 C 
ATOM     47  C   UNL     1       9.182   0.021  -4.995  1.00  0.00     0.029 A 
ATOM     48  C   UNL     1       9.621  -1.010  -5.931  1.00  0.00     0.049 A 
ATOM     49  H   UNL     1       8.665  -1.628  -7.676  1.00  0.00     0.167 HD
ATOM     50  C   UNL     1       6.347  -3.082 -11.107  1.00  0.00     0.034 A 
ATOM     51  C   UNL     1      10.748  -1.738  -5.818  1.00  0.00     0.034 A 
ATOM     52  C   UNL     1       7.597  -3.788 -11.163  1.00  0.00     0.049 A 
ATOM     53  C   UNL     1      11.081  -2.731  -6.900  1.00  0.00     0.074 A 
ATOM     54  C   UNL     1       8.032  -4.695 -12.113  1.00  0.00     0.029 A 
ATOM     55  N   UNL     1       8.616  -3.662 -10.232  1.00  0.00    -0.354 N 
ATOM     56  N   UNL     1      10.400  -3.036  -7.978  1.00  0.00    -0.248 NA
ATOM     57  C   UNL     1      12.358  -3.449  -6.773  1.00  0.00     0.031 C 
ATOM     58  C   UNL     1       9.312  -5.125 -11.749  1.00  0.00     0.029 A 
ATOM     59  C   UNL     1       9.680  -4.475 -10.582  1.00  0.00     0.049 A 
ATOM     60  H   UNL     1       8.587  -3.081  -9.438  1.00  0.00     0.167 HD
ATOM     61  C   UNL     1      11.178  -3.952  -8.675  1.00  0.00     0.074 A 
ATOM     62  C   UNL     1      12.393  -4.135  -7.908  1.00  0.00     0.031 C 
ATOM     63  C   UNL     1      10.906  -4.597  -9.836  1.00  0.00     0.034 A 
BRANCH  50  64
ATOM     64  C   UNL     1       5.317  -3.355 -12.170  1.00  0.00     0.023 A 
ATOM     65  C   UNL     1       5.088  -2.392 -13.175  1.00  0.00     0.012 A 
ATOM     66  C   UNL     1       4.609  -4.572 -12.206  1.00  0.00     0.148 A 
ATOM     67  C   UNL     1       4.146  -2.617 -14.176  1.00  0.00     0.002 A 
ATOM     68  C   UNL     1       3.703  -4.808 -13.234  1.00  0.00     0.091 A 
ATOM     69  F   UNL     1       4.821  -5.465 -11.230  1.00  0.00    -0.205 F 
ATOM     70  C   UNL     1       3.461  -3.829 -14.212  1.00  0.00     0.022 A 
BRANCH  68  71
ATOM     71  S   UNL     1       2.827  -6.367 -13.412  1.00  0.00     0.127 S 
ATOM     72  O   UNL     1       1.470  -5.989 -13.020  1.00  0.00    -0.237 OA
ATOM     73  O   UNL     1       2.993  -6.653 -14.838  1.00  0.00    -0.237 OA
ATOM     74  O   UNL     1       3.498  -7.306 -12.524  1.00  0.00    -0.744 OA
ENDBRANCH  68  71
ENDBRANCH  50  64
BRANCH  51  75
ATOM     75  C   UNL     1      11.690  -1.486  -4.691  1.00  0.00     0.023 A 
ATOM     76  C   UNL     1      12.922  -0.856  -4.952  1.00  0.00     0.012 A 
ATOM     77  C   UNL     1      11.363  -1.831  -3.365  1.00  0.00     0.148 A 
ATOM     78  C   UNL     1      13.826  -0.604  -3.920  1.00  0.00     0.002 A 
ATOM     79  C   UNL     1      12.246  -1.529  -2.334  1.00  0.00     0.091 A 
ATOM     80  F   UNL     1      10.191  -2.441  -3.137  1.00  0.00    -0.205 F 
ATOM     81  C   UNL     1      13.485  -0.931  -2.611  1.00  0.00     0.022 A 
BRANCH  79  82
ATOM     82  S   UNL     1      11.832  -1.796  -0.606  1.00  0.00     0.127 S 
ATOM     83  O   UNL     1      12.661  -2.951  -0.275  1.00  0.00    -0.237 OA
ATOM     84  O   UNL     1      12.257  -0.536   0.006  1.00  0.00    -0.237 OA
ATOM     85  O   UNL     1      10.392  -2.015  -0.581  1.00  0.00    -0.744 OA
ENDBRANCH  79  82
ENDBRANCH  51  75
BRANCH  63  86
ATOM     86  C   UNL     1      11.951  -5.539 -10.372  1.00  0.00     0.023 A 
ATOM     87  C   UNL     1      12.153  -6.785  -9.747  1.00  0.00     0.012 A 
ATOM     88  C   UNL     1      12.673  -5.223 -11.539  1.00  0.00     0.148 A 
ATOM     89  C   UNL     1      13.081  -7.690 -10.259  1.00  0.00     0.002 A 
ATOM     90  C   UNL     1      13.562  -6.149 -12.070  1.00  0.00     0.091 A 
ATOM     91  F   UNL     1      12.481  -4.023 -12.107  1.00  0.00    -0.205 F 
ATOM     92  C   UNL     1      13.776  -7.379 -11.426  1.00  0.00     0.022 A 
BRANCH  90  93
ATOM     93  S   UNL     1      14.425  -5.869 -13.621  1.00  0.00     0.127 S 
ATOM     94  O   UNL     1      15.771  -5.539 -13.158  1.00  0.00    -0.237 OA
ATOM     95  O   UNL     1      14.309  -7.168 -14.284  1.00  0.00    -0.237 OA
ATOM     96  O   UNL     1      13.706  -4.789 -14.285  1.00  0.00    -0.744 OA
ENDBRANCH  90  93
ENDBRANCH  63  86
ENDBRANCH  37  38
ENDBRANCH  29  32
ENDBRANCH  27  28
ENDBRANCH   1  27
TORSDOF 18
