REMARK SMILES Nc1nccc(N2CCC[C@@](Cc3ccc(F)cc3F)(C(=O)NCCCCNC(=O)c3ccc(-c4c5nc(c(-c6cccc(S(=O)(=O)[O-])c6F)c6ccc([nH]6)c(-c6cccc(S(=O)(=O)[O-])c6F)c6nc(c(-c7cccc(S(=O)(=O)[O-])c7F)c7ccc4[nH]7)C=C6)C=C5)cc3)C2)n1
REMARK SMILES IDX 26 1 25 2 24 3 23 4 21 5 22 6 11 8 7 9 8 10 94 11 9 12 10 13
REMARK SMILES IDX 6 14 2 15 3 16 95 17 4 18 5 19 1 20 12 23 13 24 14 25 19 26
REMARK SMILES IDX 15 27 18 28 20 29 16 30 17 31 27 32 28 33 29 34 30 36 31 37
REMARK SMILES IDX 32 38 93 39 33 40 92 41 34 42 35 43 36 44 86 45 37 46 91 47
REMARK SMILES IDX 85 48 87 49 38 50 90 51 84 52 83 53 39 55 71 56 51 57 70 58
REMARK SMILES IDX 52 59 55 60 69 61 88 62 53 63 54 64 68 66 89 67 56 68 40 69
REMARK SMILES IDX 41 70 49 71 42 72 44 73 50 74 43 75 45 76 46 77 47 78 48 79
REMARK SMILES IDX 72 80 73 81 81 82 74 83 76 84 82 85 75 86 77 87 78 88 79 89
REMARK SMILES IDX 80 90 57 91 58 92 66 93 59 94 61 95 67 96 60 97 62 98 63 99
REMARK SMILES IDX 64 100 65 101
REMARK H PARENT 23 7 1 21 1 22 28 35 87 54 55 65
REMARK Flexibility Score: inf
ROOT
ATOM      1  C   UNL     1       5.478  -8.303  -3.747  1.00  0.00     0.023 C 
ENDROOT
BRANCH   1   2
ATOM      2  C   UNL     1       5.434  -7.295  -2.599  1.00  0.00     0.023 C 
BRANCH   2   3
ATOM      3  C   UNL     1       4.948  -5.905  -2.986  1.00  0.00     0.116 C 
BRANCH   3   4
ATOM      4  N   UNL     1       3.509  -5.793  -3.106  1.00  0.00    -0.356 N 
ATOM      5  C   UNL     1       2.625  -4.856  -2.660  1.00  0.00     0.228 C 
ATOM      6  O   UNL     1       1.494  -4.919  -3.155  1.00  0.00    -0.274 OA
ATOM      7  H   UNL     1       3.090  -6.533  -3.603  1.00  0.00     0.163 HD
BRANCH   5   8
ATOM      8  C   UNL     1       2.971  -3.764  -1.621  1.00  0.00     0.071 C 
ATOM      9  N   UNL     1       1.831  -2.263  -0.030  1.00  0.00    -0.355 N 
ATOM     10  C   UNL     1       2.354  -2.843   1.192  1.00  0.00     0.118 C 
ATOM     11  C   UNL     1       1.583  -3.200  -1.127  1.00  0.00     0.135 C 
ATOM     12  C   UNL     1       3.708  -3.454   0.867  1.00  0.00     0.023 C 
ATOM     13  C   UNL     1       3.665  -4.368  -0.365  1.00  0.00     0.021 C 
BRANCH   9  14
ATOM     14  C   UNL     1       1.063  -1.120   0.076  1.00  0.00     0.134 A 
ATOM     15  C   UNL     1      -0.954  -0.043   0.030  1.00  0.00     0.221 A 
ATOM     16  N   UNL     1      -0.417   1.165   0.235  1.00  0.00    -0.222 NA
ATOM     17  N   UNL     1      -0.268  -1.186  -0.074  1.00  0.00    -0.196 NA
ATOM     18  C   UNL     1       0.918   1.201   0.357  1.00  0.00     0.119 A 
ATOM     19  C   UNL     1       1.706   0.082   0.303  1.00  0.00     0.067 A 
BRANCH  15  20
ATOM     20  N   UNL     1      -2.312  -0.108  -0.078  1.00  0.00    -0.368 N 
ATOM     21  H   UNL     1      -2.852   0.713  -0.006  1.00  0.00     0.159 HD
ATOM     22  H   UNL     1      -2.753  -0.975  -0.228  1.00  0.00     0.159 HD
ENDBRANCH  15  20
ENDBRANCH   9  14
BRANCH   8  23
ATOM     23  C   UNL     1       3.690  -2.541  -2.279  1.00  0.00     0.057 C 
BRANCH  23  24
ATOM     24  C   UNL     1       5.019  -2.700  -2.971  1.00  0.00    -0.011 A 
ATOM     25  C   UNL     1       5.079  -2.885  -4.362  1.00  0.00     0.010 A 
ATOM     26  C   UNL     1       6.221  -2.635  -2.254  1.00  0.00     0.129 A 
ATOM     27  C   UNL     1       6.312  -3.043  -5.000  1.00  0.00     0.040 A 
ATOM     28  C   UNL     1       7.451  -2.796  -2.880  1.00  0.00     0.078 A 
ATOM     29  F   UNL     1       6.200  -2.431  -0.930  1.00  0.00    -0.207 F 
ATOM     30  C   UNL     1       7.484  -3.004  -4.251  1.00  0.00     0.126 A 
ATOM     31  F   UNL     1       8.662  -3.171  -4.862  1.00  0.00    -0.207 F 
ENDBRANCH  23  24
ENDBRANCH   8  23
ENDBRANCH   5   8
ENDBRANCH   3   4
ENDBRANCH   2   3
ENDBRANCH   1   2
BRANCH   1  32
ATOM     32  C   UNL     1       6.202  -7.850  -5.014  1.00  0.00     0.116 C 
BRANCH  32  33
ATOM     33  N   UNL     1       7.556  -7.355  -4.788  1.00  0.00    -0.352 N 
ATOM     34  C   UNL     1       8.651  -7.500  -5.611  1.00  0.00     0.251 C 
ATOM     35  H   UNL     1       7.704  -6.861  -3.949  1.00  0.00     0.163 HD
ATOM     36  O   UNL     1       9.756  -7.090  -5.276  1.00  0.00    -0.269 OA
BRANCH  34  37
ATOM     37  C   UNL     1       8.468  -8.209  -6.892  1.00  0.00     0.039 A 
ATOM     38  C   UNL     1       9.165  -9.400  -7.112  1.00  0.00     0.014 A 
ATOM     39  C   UNL     1       7.509  -7.759  -7.803  1.00  0.00     0.014 A 
ATOM     40  C   UNL     1       8.827 -10.199  -8.206  1.00  0.00     0.010 A 
ATOM     41  C   UNL     1       7.139  -8.582  -8.859  1.00  0.00     0.010 A 
ATOM     42  C   UNL     1       7.776  -9.819  -9.057  1.00  0.00    -0.014 A 
BRANCH  42  43
ATOM     43  C   UNL     1       7.273 -10.710 -10.133  1.00  0.00     0.031 A 
ATOM     44  C   UNL     1       7.368 -10.271 -11.566  1.00  0.00     0.074 A 
ATOM     45  C   UNL     1       6.591 -11.828  -9.806  1.00  0.00     0.049 A 
ATOM     46  N   UNL     1       6.828 -10.807 -12.628  1.00  0.00    -0.248 NA
ATOM     47  C   UNL     1       8.142  -9.048 -11.836  1.00  0.00     0.031 C 
ATOM     48  C   UNL     1       6.364 -12.315  -8.443  1.00  0.00     0.029 A 
ATOM     49  N   UNL     1       5.918 -12.729 -10.595  1.00  0.00    -0.354 N 
ATOM     50  C   UNL     1       7.141  -9.957 -13.680  1.00  0.00     0.074 A 
ATOM     51  C   UNL     1       7.919  -8.868 -13.130  1.00  0.00     0.031 C 
ATOM     52  C   UNL     1       5.586 -13.409  -8.490  1.00  0.00     0.029 A 
ATOM     53  C   UNL     1       5.235 -13.686  -9.879  1.00  0.00     0.049 A 
ATOM     54  H   UNL     1       5.924 -12.693 -11.579  1.00  0.00     0.167 HD
ATOM     55  C   UNL     1       6.822 -10.082 -14.989  1.00  0.00     0.034 A 
ATOM     56  C   UNL     1       4.403 -14.663 -10.294  1.00  0.00     0.034 A 
ATOM     57  C   UNL     1       6.121 -11.207 -15.542  1.00  0.00     0.049 A 
ATOM     58  C   UNL     1       4.141 -14.824 -11.768  1.00  0.00     0.074 A 
ATOM     59  C   UNL     1       5.862 -11.486 -16.872  1.00  0.00     0.029 A 
ATOM     60  N   UNL     1       5.571 -12.239 -14.800  1.00  0.00    -0.354 N 
ATOM     61  N   UNL     1       4.597 -14.110 -12.767  1.00  0.00    -0.248 NA
ATOM     62  C   UNL     1       3.278 -15.944 -12.177  1.00  0.00     0.031 C 
ATOM     63  C   UNL     1       5.150 -12.687 -16.934  1.00  0.00     0.029 A 
ATOM     64  C   UNL     1       4.972 -13.156 -15.643  1.00  0.00     0.049 A 
ATOM     65  H   UNL     1       5.602 -12.309 -13.818  1.00  0.00     0.167 HD
ATOM     66  C   UNL     1       4.113 -14.716 -13.921  1.00  0.00     0.074 A 
ATOM     67  C   UNL     1       3.339 -15.864 -13.500  1.00  0.00     0.031 C 
ATOM     68  C   UNL     1       4.281 -14.343 -15.213  1.00  0.00     0.034 A 
BRANCH  55  69
ATOM     69  C   UNL     1       7.283  -9.010 -15.935  1.00  0.00     0.023 A 
ATOM     70  C   UNL     1       8.635  -8.971 -16.330  1.00  0.00     0.012 A 
ATOM     71  C   UNL     1       6.365  -8.105 -16.504  1.00  0.00     0.148 A 
ATOM     72  C   UNL     1       9.072  -8.035 -17.265  1.00  0.00     0.002 A 
ATOM     73  C   UNL     1       6.801  -7.199 -17.463  1.00  0.00     0.091 A 
ATOM     74  F   UNL     1       5.089  -8.148 -16.096  1.00  0.00    -0.205 F 
ATOM     75  C   UNL     1       8.154  -7.158 -17.840  1.00  0.00     0.022 A 
BRANCH  73  76
ATOM     76  S   UNL     1       5.686  -6.076 -18.313  1.00  0.00     0.127 S 
ATOM     77  O   UNL     1       6.079  -4.787 -17.747  1.00  0.00    -0.237 OA
ATOM     78  O   UNL     1       6.065  -6.268 -19.713  1.00  0.00    -0.237 OA
ATOM     79  O   UNL     1       4.340  -6.519 -17.981  1.00  0.00    -0.744 OA
ENDBRANCH  73  76
ENDBRANCH  55  69
BRANCH  56  80
ATOM     80  C   UNL     1       3.805 -15.608  -9.308  1.00  0.00     0.023 A 
ATOM     81  C   UNL     1       4.251 -16.944  -9.279  1.00  0.00     0.012 A 
ATOM     82  C   UNL     1       2.816 -15.197  -8.394  1.00  0.00     0.148 A 
ATOM     83  C   UNL     1       3.700 -17.861  -8.384  1.00  0.00     0.002 A 
ATOM     84  C   UNL     1       2.308 -16.104  -7.469  1.00  0.00     0.091 A 
ATOM     85  F   UNL     1       2.385 -13.929  -8.443  1.00  0.00    -0.205 F 
ATOM     86  C   UNL     1       2.735 -17.440  -7.472  1.00  0.00     0.022 A 
BRANCH  84  87
ATOM     87  S   UNL     1       1.165 -15.586  -6.182  1.00  0.00     0.127 S 
ATOM     88  O   UNL     1      -0.128 -15.885  -6.787  1.00  0.00    -0.237 OA
ATOM     89  O   UNL     1       1.536 -16.453  -5.062  1.00  0.00    -0.237 OA
ATOM     90  O   UNL     1       1.468 -14.177  -5.962  1.00  0.00    -0.744 OA
ENDBRANCH  84  87
ENDBRANCH  56  80
BRANCH  68  91
ATOM     91  C   UNL     1       3.667 -15.202 -16.284  1.00  0.00     0.023 A 
ATOM     92  C   UNL     1       2.286 -15.115 -16.538  1.00  0.00     0.012 A 
ATOM     93  C   UNL     1       4.480 -15.995 -17.117  1.00  0.00     0.148 A 
ATOM     94  C   UNL     1       1.718 -15.816 -17.601  1.00  0.00     0.002 A 
ATOM     95  C   UNL     1       3.915 -16.658 -18.199  1.00  0.00     0.091 A 
ATOM     96  F   UNL     1       5.791 -16.076 -16.843  1.00  0.00    -0.205 F 
ATOM     97  C   UNL     1       2.533 -16.575 -18.439  1.00  0.00     0.022 A 
BRANCH  95  98
ATOM     98  S   UNL     1       4.902 -17.578 -19.385  1.00  0.00     0.127 S 
ATOM     99  O   UNL     1       4.577 -18.960 -19.035  1.00  0.00    -0.237 OA
ATOM    100  O   UNL     1       4.355 -17.127 -20.665  1.00  0.00    -0.237 OA
ATOM    101  O   UNL     1       6.284 -17.182 -19.148  1.00  0.00    -0.744 OA
ENDBRANCH  95  98
ENDBRANCH  68  91
ENDBRANCH  42  43
ENDBRANCH  34  37
ENDBRANCH  32  33
ENDBRANCH   1  32
TORSDOF 18
