REMARK SMILES O=C(C[C@@H](C(=O)NCCCCNC(=O)c1ccc(-c2c3nc(c(-c4cccc(S(=O)(=O)[O-])c4F)c4ccc([nH]4)c(-c4cccc(S(=O)(=O)[O-])c4F)c4nc(c(-c5cccc(S(=O)(=O)[O-])c5F)c5ccc2[nH]5)C=C4)C=C3)cc1)c1ccccc1)Nc1cc(C(F)(F)F)ccc1-n1cncn1
REMARK SMILES IDX 9 1 8 2 7 3 5 4 6 5 4 7 3 8 2 9 1 10 84 11 85 13 86 14 94 15
REMARK SMILES IDX 87 16 93 17 92 18 95 19 96 20 99 21 97 22 98 23 88 24 89 25
REMARK SMILES IDX 90 26 91 27 78 28 79 29 83 30 80 31 82 32 81 33 10 34 11 35
REMARK SMILES IDX 12 36 13 37 14 39 15 40 16 41 77 42 17 43 76 44 18 45 19 46
REMARK SMILES IDX 20 47 70 48 21 49 75 50 69 51 71 52 22 53 74 54 68 55 67 56
REMARK SMILES IDX 23 58 55 59 35 60 54 61 36 62 39 63 53 64 72 65 37 66 38 67
REMARK SMILES IDX 52 69 73 70 40 71 24 72 25 73 33 74 26 75 28 76 34 77 27 78
REMARK SMILES IDX 29 79 30 80 31 81 32 82 56 83 57 84 65 85 58 86 60 87 66 88
REMARK SMILES IDX 59 89 61 90 62 91 63 92 64 93 41 94 42 95 50 96 43 97 45 98
REMARK SMILES IDX 51 99 44 100 46 101 47 102 48 103 49 104
REMARK H PARENT 7 6 84 12 12 38 71 57 39 68
REMARK Flexibility Score: inf
ROOT
ATOM      1  C   UNL     1       4.584   0.371  -2.877  1.00  0.00     0.023 C 
ENDROOT
BRANCH   1   2
ATOM      2  C   UNL     1       4.361  -1.136  -2.779  1.00  0.00     0.116 C 
BRANCH   2   3
ATOM      3  N   UNL     1       5.238  -1.650  -1.739  1.00  0.00    -0.356 N 
ATOM      4  C   UNL     1       5.077  -1.395  -0.406  1.00  0.00     0.228 C 
ATOM      5  O   UNL     1       6.016  -0.867   0.195  1.00  0.00    -0.274 OA
ATOM      6  H   UNL     1       5.994  -2.218  -2.013  1.00  0.00     0.163 HD
BRANCH   4   7
ATOM      7  C   UNL     1       3.794  -1.857   0.307  1.00  0.00     0.118 C 
BRANCH   7   8
ATOM      8  C   UNL     1       3.019  -0.637   0.840  1.00  0.00     0.118 C 
BRANCH   8   9
ATOM      9  C   UNL     1       2.185   0.090  -0.226  1.00  0.00     0.225 C 
ATOM     10  O   UNL     1       1.679  -0.476  -1.187  1.00  0.00    -0.275 OA
ATOM     11  N   UNL     1       1.992   1.427   0.084  1.00  0.00    -0.324 N 
ATOM     12  H   UNL     1       2.298   1.718   0.974  1.00  0.00     0.170 HD
BRANCH  11  13
ATOM     13  C   UNL     1       1.401   2.425  -0.737  1.00  0.00     0.067 A 
ATOM     14  C   UNL     1       1.988   2.756  -1.952  1.00  0.00     0.041 A 
ATOM     15  C   UNL     1       0.409   3.295  -0.262  1.00  0.00     0.090 A 
ATOM     16  C   UNL     1       1.762   4.012  -2.545  1.00  0.00     0.058 A 
ATOM     17  C   UNL     1      -0.049   4.390  -1.010  1.00  0.00     0.031 A 
ATOM     18  C   UNL     1       0.667   4.774  -2.138  1.00  0.00     0.015 A 
BRANCH  15  19
ATOM     19  N   UNL     1      -0.086   3.134   1.032  1.00  0.00    -0.219 N 
ATOM     20  C   UNL     1       0.646   3.195   2.190  1.00  0.00     0.226 A 
ATOM     21  N   UNL     1      -1.319   2.656   1.285  1.00  0.00    -0.155 NA
ATOM     22  N   UNL     1      -0.025   2.647   3.173  1.00  0.00    -0.223 NA
ATOM     23  C   UNL     1      -1.210   2.324   2.573  1.00  0.00     0.246 A 
ENDBRANCH  15  19
BRANCH  16  24
ATOM     24  C   UNL     1       2.876   4.644  -3.357  1.00  0.00     0.416 C 
ATOM     25  F   UNL     1       2.555   5.860  -3.873  1.00  0.00    -0.166 F 
ATOM     26  F   UNL     1       3.975   4.846  -2.576  1.00  0.00    -0.166 F 
ATOM     27  F   UNL     1       3.313   3.892  -4.385  1.00  0.00    -0.166 F 
ENDBRANCH  16  24
ENDBRANCH  11  13
ENDBRANCH   8   9
ENDBRANCH   7   8
BRANCH   7  28
ATOM     28  C   UNL     1       4.247  -2.828   1.421  1.00  0.00    -0.035 A 
ATOM     29  C   UNL     1       4.134  -4.215   1.229  1.00  0.00     0.004 A 
ATOM     30  C   UNL     1       4.955  -2.377   2.552  1.00  0.00     0.004 A 
ATOM     31  C   UNL     1       4.734  -5.116   2.118  1.00  0.00     0.000 A 
ATOM     32  C   UNL     1       5.563  -3.278   3.433  1.00  0.00     0.000 A 
ATOM     33  C   UNL     1       5.459  -4.648   3.212  1.00  0.00     0.000 A 
ENDBRANCH   7  28
ENDBRANCH   4   7
ENDBRANCH   2   3
ENDBRANCH   1   2
BRANCH   1  34
ATOM     34  C   UNL     1       4.355   1.048  -4.236  1.00  0.00     0.023 C 
BRANCH  34  35
ATOM     35  C   UNL     1       3.186   0.609  -5.128  1.00  0.00     0.116 C 
BRANCH  35  36
ATOM     36  N   UNL     1       1.921   1.344  -5.055  1.00  0.00    -0.352 N 
ATOM     37  C   UNL     1       1.357   2.397  -5.760  1.00  0.00     0.251 C 
ATOM     38  H   UNL     1       1.333   1.012  -4.338  1.00  0.00     0.163 HD
ATOM     39  O   UNL     1       0.163   2.640  -5.566  1.00  0.00    -0.269 OA
BRANCH  37  40
ATOM     40  C   UNL     1       2.130   3.337  -6.628  1.00  0.00     0.039 A 
ATOM     41  C   UNL     1       1.769   4.703  -6.635  1.00  0.00     0.014 A 
ATOM     42  C   UNL     1       3.263   2.957  -7.327  1.00  0.00     0.014 A 
ATOM     43  C   UNL     1       2.603   5.676  -7.221  1.00  0.00     0.010 A 
ATOM     44  C   UNL     1       4.131   3.924  -7.831  1.00  0.00     0.010 A 
ATOM     45  C   UNL     1       3.819   5.295  -7.795  1.00  0.00    -0.014 A 
BRANCH  45  46
ATOM     46  C   UNL     1       4.765   6.226  -8.483  1.00  0.00     0.031 A 
ATOM     47  C   UNL     1       5.104   5.932  -9.926  1.00  0.00     0.074 A 
ATOM     48  C   UNL     1       5.459   7.178  -7.823  1.00  0.00     0.049 A 
ATOM     49  N   UNL     1       6.120   6.332 -10.643  1.00  0.00    -0.248 NA
ATOM     50  C   UNL     1       4.212   4.988 -10.626  1.00  0.00     0.031 C 
ATOM     51  C   UNL     1       5.288   7.552  -6.419  1.00  0.00     0.029 A 
ATOM     52  N   UNL     1       6.504   7.970  -8.248  1.00  0.00    -0.354 N 
ATOM     53  C   UNL     1       6.050   5.605 -11.827  1.00  0.00     0.074 A 
ATOM     54  C   UNL     1       4.908   4.726 -11.720  1.00  0.00     0.031 C 
ATOM     55  C   UNL     1       6.207   8.481  -6.094  1.00  0.00     0.029 A 
ATOM     56  C   UNL     1       7.062   8.742  -7.251  1.00  0.00     0.049 A 
ATOM     57  H   UNL     1       6.824   7.983  -9.180  1.00  0.00     0.167 HD
ATOM     58  C   UNL     1       6.847   5.677 -12.918  1.00  0.00     0.034 A 
ATOM     59  C   UNL     1       8.149   9.545  -7.264  1.00  0.00     0.034 A 
ATOM     60  C   UNL     1       7.898   6.641 -13.079  1.00  0.00     0.049 A 
ATOM     61  C   UNL     1       8.957   9.685  -8.536  1.00  0.00     0.074 A 
ATOM     62  C   UNL     1       8.659   6.897 -14.206  1.00  0.00     0.029 A 
ATOM     63  N   UNL     1       8.322   7.518 -12.097  1.00  0.00    -0.354 N 
ATOM     64  N   UNL     1       8.788   9.097  -9.696  1.00  0.00    -0.248 NA
ATOM     65  C   UNL     1      10.091  10.627  -8.511  1.00  0.00     0.031 C 
ATOM     66  C   UNL     1       9.561   7.918 -13.898  1.00  0.00     0.029 A 
ATOM     67  C   UNL     1       9.333   8.320 -12.592  1.00  0.00     0.049 A 
ATOM     68  H   UNL     1       7.959   7.564 -11.183  1.00  0.00     0.167 HD
ATOM     69  C   UNL     1       9.748   9.641 -10.546  1.00  0.00     0.074 A 
ATOM     70  C   UNL     1      10.492  10.612  -9.775  1.00  0.00     0.031 C 
ATOM     71  C   UNL     1      10.000   9.352 -11.846  1.00  0.00     0.034 A 
BRANCH  58  72
ATOM     72  C   UNL     1       6.577   4.734 -14.060  1.00  0.00     0.023 A 
ATOM     73  C   UNL     1       5.413   4.888 -14.840  1.00  0.00     0.012 A 
ATOM     74  C   UNL     1       7.523   3.751 -14.414  1.00  0.00     0.148 A 
ATOM     75  C   UNL     1       5.174   4.053 -15.929  1.00  0.00     0.002 A 
ATOM     76  C   UNL     1       7.305   2.961 -15.535  1.00  0.00     0.091 A 
ATOM     77  F   UNL     1       8.617   3.612 -13.652  1.00  0.00    -0.205 F 
ATOM     78  C   UNL     1       6.124   3.100 -16.284  1.00  0.00     0.022 A 
BRANCH  76  79
ATOM     79  S   UNL     1       8.510   1.773 -16.136  1.00  0.00     0.127 S 
ATOM     80  O   UNL     1       7.793   0.509 -15.957  1.00  0.00    -0.237 OA
ATOM     81  O   UNL     1       8.674   2.187 -17.531  1.00  0.00    -0.237 OA
ATOM     82  O   UNL     1       9.692   1.936 -15.306  1.00  0.00    -0.744 OA
ENDBRANCH  76  79
ENDBRANCH  58  72
BRANCH  59  83
ATOM     83  C   UNL     1       8.535  10.342  -6.058  1.00  0.00     0.023 A 
ATOM     84  C   UNL     1       8.429  11.748  -6.108  1.00  0.00     0.012 A 
ATOM     85  C   UNL     1       9.053   9.740  -4.896  1.00  0.00     0.148 A 
ATOM     86  C   UNL     1       8.887  12.540  -5.053  1.00  0.00     0.002 A 
ATOM     87  C   UNL     1       9.453  10.533  -3.824  1.00  0.00     0.091 A 
ATOM     88  F   UNL     1       9.162   8.404  -4.865  1.00  0.00    -0.205 F 
ATOM     89  C   UNL     1       9.394  11.933  -3.910  1.00  0.00     0.022 A 
BRANCH  87  90
ATOM     90  S   UNL     1      10.007   9.838  -2.262  1.00  0.00     0.127 S 
ATOM     91  O   UNL     1      11.440  10.132  -2.294  1.00  0.00    -0.237 OA
ATOM     92  O   UNL     1       9.242  10.626  -1.293  1.00  0.00    -0.237 OA
ATOM     93  O   UNL     1       9.646   8.431  -2.309  1.00  0.00    -0.744 OA
ENDBRANCH  87  90
ENDBRANCH  59  83
BRANCH  71  94
ATOM     94  C   UNL     1      11.054  10.148 -12.572  1.00  0.00     0.023 A 
ATOM     95  C   UNL     1      12.419   9.930 -12.307  1.00  0.00     0.012 A 
ATOM     96  C   UNL     1      10.682  11.027 -13.611  1.00  0.00     0.148 A 
ATOM     97  C   UNL     1      13.398  10.592 -13.049  1.00  0.00     0.002 A 
ATOM     98  C   UNL     1      11.662  11.641 -14.380  1.00  0.00     0.091 A 
ATOM     99  F   UNL     1       9.376  11.230 -13.837  1.00  0.00    -0.205 F 
ATOM    100  C   UNL     1      13.020  11.434 -14.093  1.00  0.00     0.022 A 
BRANCH  98 101
ATOM    101  S   UNL     1      11.270  12.653 -15.812  1.00  0.00     0.127 S 
ATOM    102  O   UNL     1      11.646  13.987 -15.346  1.00  0.00    -0.237 OA
ATOM    103  O   UNL     1      12.152  12.094 -16.837  1.00  0.00    -0.237 OA
ATOM    104  O   UNL     1       9.848  12.461 -16.066  1.00  0.00    -0.744 OA
ENDBRANCH  98 101
ENDBRANCH  71  94
ENDBRANCH  45  46
ENDBRANCH  37  40
ENDBRANCH  35  36
ENDBRANCH  34  35
ENDBRANCH   1  34
TORSDOF 20
