REMARK SMILES C[NH2+][C@]1(C(=O)NCCCCNC(=O)c2ccc(-c3c4nc(c(-c5cccc(S(=O)(=O)[O-])c5F)c5ccc([nH]5)c(-c5cccc(S(=O)(=O)[O-])c5F)c5nc(c(-c6cccc(S(=O)(=O)[O-])c6F)c6ccc3[nH]6)C=C5)C=C4)cc2)CCC[C@@H]1CCn1nc(C)c(Cl)c1C
REMARK SMILES IDX 8 1 7 2 6 3 4 4 5 5 3 7 77 8 80 9 78 10 79 11 2 12 1 13
REMARK SMILES IDX 81 16 82 17 83 18 84 19 89 20 85 21 87 22 90 23 86 24 88 25
REMARK SMILES IDX 9 26 10 27 11 28 12 29 13 31 14 32 15 33 76 34 16 35 75 36
REMARK SMILES IDX 17 37 18 38 19 39 69 40 20 41 74 42 68 43 70 44 21 45 73 46
REMARK SMILES IDX 67 47 66 48 22 50 54 51 34 52 53 53 35 54 38 55 52 56 71 57
REMARK SMILES IDX 36 58 37 59 51 61 72 62 39 63 23 64 24 65 32 66 25 67 27 68
REMARK SMILES IDX 33 69 26 70 28 71 29 72 30 73 31 74 55 75 56 76 64 77 57 78
REMARK SMILES IDX 59 79 65 80 58 81 60 82 61 83 62 84 63 85 40 86 41 87 49 88
REMARK SMILES IDX 42 89 44 90 50 91 43 92 45 93 46 94 47 95 48 96
REMARK H PARENT 6 6 2 14 2 15 11 30 70 49 38 60
REMARK Flexibility Score: inf
ROOT
ATOM      1  C   UNL     1       0.921   3.848  -2.045  1.00  0.00     0.023 C 
ENDROOT
BRANCH   1   2
ATOM      2  C   UNL     1       0.902   2.325  -1.922  1.00  0.00     0.116 C 
BRANCH   2   3
ATOM      3  N   UNL     1       1.228   1.915  -0.571  1.00  0.00    -0.351 N 
ATOM      4  C   UNL     1       0.464   1.664   0.522  1.00  0.00     0.281 C 
ATOM      5  O   UNL     1       1.084   1.430   1.569  1.00  0.00    -0.268 OA
ATOM      6  H   UNL     1       2.193   1.796  -0.416  1.00  0.00     0.163 HD
BRANCH   4   7
ATOM      7  C   UNL     1      -1.101   1.548   0.501  1.00  0.00     0.178 C 
ATOM      8  C   UNL     1      -1.900   2.662  -0.197  1.00  0.00     0.079 C 
ATOM      9  C   UNL     1      -1.524   0.318  -0.353  1.00  0.00     0.062 C 
ATOM     10  C   UNL     1      -3.263   2.040  -0.503  1.00  0.00     0.008 C 
ATOM     11  C   UNL     1      -3.027   0.530  -0.604  1.00  0.00     0.011 C 
BRANCH   7  12
ATOM     12  N   UNL     1      -1.583   1.330   1.908  1.00  0.00    -0.336 N 
ATOM     13  C   UNL     1      -1.609   2.547   2.718  1.00  0.00     0.331 C 
ATOM     14  H   UNL     1      -2.529   0.950   1.868  1.00  0.00     0.346 HD
ATOM     15  H   UNL     1      -0.924   0.692   2.352  1.00  0.00     0.346 HD
ENDBRANCH   7  12
BRANCH   9  16
ATOM     16  C   UNL     1      -1.181  -1.063   0.234  1.00  0.00     0.034 C 
BRANCH  16  17
ATOM     17  C   UNL     1      -1.248  -2.200  -0.793  1.00  0.00     0.145 C 
BRANCH  17  18
ATOM     18  N   UNL     1      -0.150  -2.179  -1.750  1.00  0.00    -0.268 N 
ATOM     19  N   UNL     1       1.020  -2.737  -1.376  1.00  0.00    -0.176 NA
ATOM     20  C   UNL     1      -0.122  -1.670  -3.026  1.00  0.00     0.054 A 
ATOM     21  C   UNL     1       1.837  -2.537  -2.418  1.00  0.00     0.078 A 
ATOM     22  C   UNL     1       1.173  -1.858  -3.463  1.00  0.00     0.084 A 
ATOM     23  C   UNL     1      -1.267  -1.038  -3.727  1.00  0.00     0.068 C 
ATOM     24  C   UNL     1       3.236  -3.030  -2.362  1.00  0.00     0.070 C 
ATOM     25  Cl  UNL     1       1.836  -1.386  -4.952  1.00  0.00    -0.080 Cl
ENDBRANCH  17  18
ENDBRANCH  16  17
ENDBRANCH   9  16
ENDBRANCH   4   7
ENDBRANCH   2   3
ENDBRANCH   1   2
BRANCH   1  26
ATOM     26  C   UNL     1       2.325   4.447  -2.157  1.00  0.00     0.023 C 
BRANCH  26  27
ATOM     27  C   UNL     1       3.101   4.030  -3.402  1.00  0.00     0.116 C 
BRANCH  27  28
ATOM     28  N   UNL     1       2.412   4.354  -4.643  1.00  0.00    -0.352 N 
ATOM     29  C   UNL     1       2.959   4.687  -5.860  1.00  0.00     0.251 C 
ATOM     30  H   UNL     1       1.428   4.333  -4.605  1.00  0.00     0.163 HD
ATOM     31  O   UNL     1       2.239   5.040  -6.785  1.00  0.00    -0.269 OA
BRANCH  29  32
ATOM     32  C   UNL     1       4.428   4.652  -6.020  1.00  0.00     0.039 A 
ATOM     33  C   UNL     1       5.072   5.772  -6.551  1.00  0.00     0.014 A 
ATOM     34  C   UNL     1       5.164   3.538  -5.609  1.00  0.00     0.014 A 
ATOM     35  C   UNL     1       6.466   5.800  -6.609  1.00  0.00     0.010 A 
ATOM     36  C   UNL     1       6.553   3.595  -5.606  1.00  0.00     0.010 A 
ATOM     37  C   UNL     1       7.218   4.725  -6.106  1.00  0.00    -0.014 A 
BRANCH  37  38
ATOM     38  C   UNL     1       8.701   4.771  -6.075  1.00  0.00     0.031 A 
ATOM     39  C   UNL     1       9.505   3.789  -6.881  1.00  0.00     0.074 A 
ATOM     40  C   UNL     1       9.321   5.630  -5.242  1.00  0.00     0.049 A 
ATOM     41  N   UNL     1      10.802   3.635  -6.935  1.00  0.00    -0.248 NA
ATOM     42  C   UNL     1       8.753   2.835  -7.713  1.00  0.00     0.031 C 
ATOM     43  C   UNL     1       8.648   6.567  -4.340  1.00  0.00     0.029 A 
ATOM     44  N   UNL     1      10.655   5.832  -4.995  1.00  0.00    -0.354 N 
ATOM     45  C   UNL     1      11.021   2.547  -7.771  1.00  0.00     0.074 A 
ATOM     46  C   UNL     1       9.722   2.059  -8.178  1.00  0.00     0.031 C 
ATOM     47  C   UNL     1       9.572   7.242  -3.637  1.00  0.00     0.029 A 
ATOM     48  C   UNL     1      10.900   6.773  -4.021  1.00  0.00     0.049 A 
ATOM     49  H   UNL     1      11.370   5.350  -5.469  1.00  0.00     0.167 HD
ATOM     50  C   UNL     1      12.197   2.021  -8.186  1.00  0.00     0.034 A 
ATOM     51  C   UNL     1      12.062   7.206  -3.495  1.00  0.00     0.034 A 
ATOM     52  C   UNL     1      13.486   2.545  -7.824  1.00  0.00     0.049 A 
ATOM     53  C   UNL     1      13.356   6.653  -4.027  1.00  0.00     0.074 A 
ATOM     54  C   UNL     1      14.732   2.152  -8.277  1.00  0.00     0.029 A 
ATOM     55  N   UNL     1      13.695   3.575  -6.920  1.00  0.00    -0.354 N 
ATOM     56  N   UNL     1      13.545   5.745  -4.953  1.00  0.00    -0.248 NA
ATOM     57  C   UNL     1      14.598   7.212  -3.472  1.00  0.00     0.031 C 
ATOM     58  C   UNL     1      15.697   2.936  -7.636  1.00  0.00     0.029 A 
ATOM     59  C   UNL     1      15.050   3.827  -6.795  1.00  0.00     0.049 A 
ATOM     60  H   UNL     1      12.984   4.055  -6.437  1.00  0.00     0.167 HD
ATOM     61  C   UNL     1      14.922   5.645  -5.116  1.00  0.00     0.074 A 
ATOM     62  C   UNL     1      15.519   6.603  -4.208  1.00  0.00     0.031 C 
ATOM     63  C   UNL     1      15.628   4.823  -5.931  1.00  0.00     0.034 A 
BRANCH  50  64
ATOM     64  C   UNL     1      12.145   0.852  -9.134  1.00  0.00     0.023 A 
ATOM     65  C   UNL     1      11.751   1.064 -10.471  1.00  0.00     0.012 A 
ATOM     66  C   UNL     1      12.539  -0.436  -8.725  1.00  0.00     0.148 A 
ATOM     67  C   UNL     1      11.721   0.007 -11.379  1.00  0.00     0.002 A 
ATOM     68  C   UNL     1      12.547  -1.477  -9.647  1.00  0.00     0.091 A 
ATOM     69  F   UNL     1      12.888  -0.623  -7.444  1.00  0.00    -0.205 F 
ATOM     70  C   UNL     1      12.128  -1.259 -10.971  1.00  0.00     0.022 A 
BRANCH  68  71
ATOM     71  S   UNL     1      13.126  -3.127  -9.239  1.00  0.00     0.127 S 
ATOM     72  O   UNL     1      11.872  -3.879  -9.198  1.00  0.00    -0.237 OA
ATOM     73  O   UNL     1      13.989  -3.443 -10.378  1.00  0.00    -0.237 OA
ATOM     74  O   UNL     1      13.824  -3.003  -7.967  1.00  0.00    -0.744 OA
ENDBRANCH  68  71
ENDBRANCH  50  64
BRANCH  51  75
ATOM     75  C   UNL     1      12.053   8.278  -2.460  1.00  0.00     0.023 A 
ATOM     76  C   UNL     1      12.496   9.570  -2.803  1.00  0.00     0.012 A 
ATOM     77  C   UNL     1      11.571   8.041  -1.159  1.00  0.00     0.148 A 
ATOM     78  C   UNL     1      12.488  10.599  -1.861  1.00  0.00     0.002 A 
ATOM     79  C   UNL     1      11.515   9.083  -0.240  1.00  0.00     0.091 A 
ATOM     80  F   UNL     1      11.165   6.801  -0.848  1.00  0.00    -0.205 F 
ATOM     81  C   UNL     1      11.988  10.359  -0.584  1.00  0.00     0.022 A 
BRANCH  79  82
ATOM     82  S   UNL     1      10.762   8.897   1.380  1.00  0.00     0.127 S 
ATOM     83  O   UNL     1      11.932   8.896   2.255  1.00  0.00    -0.237 OA
ATOM     84  O   UNL     1       9.927  10.096   1.468  1.00  0.00    -0.237 OA
ATOM     85  O   UNL     1      10.012   7.650   1.320  1.00  0.00    -0.744 OA
ENDBRANCH  79  82
ENDBRANCH  51  75
BRANCH  63  86
ATOM     86  C   UNL     1      17.129   4.934  -5.905  1.00  0.00     0.023 A 
ATOM     87  C   UNL     1      17.847   4.422  -4.807  1.00  0.00     0.012 A 
ATOM     88  C   UNL     1      17.831   5.467  -7.004  1.00  0.00     0.148 A 
ATOM     89  C   UNL     1      19.241   4.462  -4.791  1.00  0.00     0.002 A 
ATOM     90  C   UNL     1      19.221   5.462  -7.001  1.00  0.00     0.091 A 
ATOM     91  F   UNL     1      17.129   5.968  -8.031  1.00  0.00    -0.205 F 
ATOM     92  C   UNL     1      19.927   4.970  -5.891  1.00  0.00     0.022 A 
BRANCH  90  93
ATOM     93  S   UNL     1      20.185   6.010  -8.415  1.00  0.00     0.127 S 
ATOM     94  O   UNL     1      20.666   7.313  -7.962  1.00  0.00    -0.237 OA
ATOM     95  O   UNL     1      21.218   4.977  -8.509  1.00  0.00    -0.237 OA
ATOM     96  O   UNL     1      19.260   6.038  -9.540  1.00  0.00    -0.744 OA
ENDBRANCH  90  93
ENDBRANCH  63  86
ENDBRANCH  37  38
ENDBRANCH  29  32
ENDBRANCH  27  28
ENDBRANCH  26  27
ENDBRANCH   1  26
TORSDOF 18
