REMARK SMILES COc1ccc(N2C(=O)/C(=C\c3ccc(-c4ccc(Cl)c(C(=O)NCCCCNC(=O)c5ccc(-c6c7nc(c(-c8cccc(S(=O)(=O)[O-])c8F)c8ccc([nH]8)c(-c8cccc(S(=O)(=O)[O-])c8F)c8nc(c(-c9cccc(S(=O)(=O)[O-])c9F)c9ccc6[nH]9)C=C8)C=C7)cc5)c4)o3)SC2=S)cc1
REMARK SMILES IDX 26 1 25 2 24 3 22 4 23 5 21 7 16 8 17 9 95 10 18 11 19 12
REMARK SMILES IDX 20 13 15 14 12 15 13 16 96 17 14 18 11 19 7 20 8 21 98 22
REMARK SMILES IDX 9 23 10 24 97 25 99 26 6 27 3 28 4 29 101 30 5 31 100 32
REMARK SMILES IDX 2 33 1 34 27 35 28 36 29 37 30 38 31 40 32 41 33 42 94 43
REMARK SMILES IDX 34 44 93 45 35 46 36 47 37 48 87 49 38 50 92 51 86 52 88 53
REMARK SMILES IDX 39 54 91 55 85 56 84 57 40 59 72 60 52 61 71 62 53 63 56 64
REMARK SMILES IDX 70 65 89 66 54 67 55 68 69 70 90 71 57 72 41 73 42 74 50 75
REMARK SMILES IDX 43 76 45 77 51 78 44 79 46 80 47 81 48 82 49 83 73 84 74 85
REMARK SMILES IDX 82 86 75 87 77 88 83 89 76 90 78 91 79 92 80 93 81 94 58 95
REMARK SMILES IDX 59 96 67 97 60 98 62 99 68 100 61 101 63 102 64 103 65 104
REMARK SMILES IDX 66 105
REMARK H PARENT 24 6 29 39 88 58 56 69
REMARK Flexibility Score: inf
ROOT
ATOM      1  C   UNL     1      -1.988  13.602   0.817  1.00  0.00     0.023 C 
ENDROOT
BRANCH   1   2
ATOM      2  C   UNL     1      -2.606  12.230   1.049  1.00  0.00     0.116 C 
BRANCH   2   3
ATOM      3  N   UNL     1      -4.055  12.205   1.229  1.00  0.00    -0.352 N 
ATOM      4  C   UNL     1      -5.041  11.360   0.737  1.00  0.00     0.252 C 
ATOM      5  O   UNL     1      -6.183  11.492   1.169  1.00  0.00    -0.269 OA
ATOM      6  H   UNL     1      -4.398  12.923   1.809  1.00  0.00     0.163 HD
BRANCH   4   7
ATOM      7  C   UNL     1      -4.746  10.326  -0.298  1.00  0.00     0.059 A 
ATOM      8  C   UNL     1      -2.993   9.014  -1.365  1.00  0.00     0.018 A 
ATOM      9  C   UNL     1      -3.836   8.753  -2.442  1.00  0.00     0.013 A 
ATOM     10  C   UNL     1      -3.520   9.664  -0.245  1.00  0.00     0.027 A 
ATOM     11  C   UNL     1      -5.159   9.208  -2.411  1.00  0.00     0.022 A 
ATOM     12  C   UNL     1      -5.605  10.033  -1.365  1.00  0.00     0.053 A 
ATOM     13  Cl  UNL     1      -7.207  10.662  -1.513  1.00  0.00    -0.083 Cl
BRANCH   8  14
ATOM     14  C   UNL     1      -1.553   8.799  -1.398  1.00  0.00     0.134 A 
ATOM     15  C   UNL     1       0.416   8.785  -2.417  1.00  0.00     0.128 A 
ATOM     16  C   UNL     1       0.649   8.743  -1.048  1.00  0.00     0.051 A 
ATOM     17  O   UNL     1      -0.943   8.860  -2.618  1.00  0.00    -0.457 OA
ATOM     18  C   UNL     1      -0.602   8.703  -0.405  1.00  0.00     0.051 A 
BRANCH  15  19
ATOM     19  C   UNL     1       1.377   8.656  -3.453  1.00  0.00     0.068 C 
ATOM     20  N   UNL     1       2.183   5.101  -3.621  1.00  0.00    -0.261 N 
ATOM     21  C   UNL     1       1.365   6.149  -3.219  1.00  0.00     0.270 C 
ATOM     22  C   UNL     1       3.243   5.432  -4.448  1.00  0.00     0.152 C 
ATOM     23  O   UNL     1       0.386   6.051  -2.486  1.00  0.00    -0.268 OA
ATOM     24  C   UNL     1       1.857   7.444  -3.767  1.00  0.00     0.084 C 
ATOM     25  S   UNL     1       3.201   7.169  -4.801  1.00  0.00    -0.054 SA
ATOM     26  S   UNL     1       4.388   4.448  -5.168  1.00  0.00    -0.051 S 
BRANCH  20  27
ATOM     27  C   UNL     1       1.865   3.795  -3.142  1.00  0.00     0.051 A 
ATOM     28  C   UNL     1       1.099   1.367  -1.951  1.00  0.00     0.119 A 
ATOM     29  C   UNL     1       0.155   2.141  -2.613  1.00  0.00     0.048 A 
ATOM     30  C   UNL     1       2.433   1.777  -1.916  1.00  0.00     0.048 A 
ATOM     31  C   UNL     1       0.533   3.350  -3.192  1.00  0.00     0.030 A 
ATOM     32  C   UNL     1       2.817   2.987  -2.512  1.00  0.00     0.030 A 
BRANCH  28  33
ATOM     33  O   UNL     1       0.645   0.197  -1.410  1.00  0.00    -0.497 OA
ATOM     34  C   UNL     1       1.088  -0.022  -0.074  1.00  0.00     0.278 C 
ENDBRANCH  28  33
ENDBRANCH  20  27
ENDBRANCH  15  19
ENDBRANCH   8  14
ENDBRANCH   4   7
ENDBRANCH   2   3
ENDBRANCH   1   2
BRANCH   1  35
ATOM     35  C   UNL     1      -2.080  14.600   1.962  1.00  0.00     0.023 C 
BRANCH  35  36
ATOM     36  C   UNL     1      -1.594  14.115   3.324  1.00  0.00     0.116 C 
BRANCH  36  37
ATOM     37  N   UNL     1      -0.218  13.633   3.328  1.00  0.00    -0.352 N 
ATOM     38  C   UNL     1       0.840  14.003   4.129  1.00  0.00     0.251 C 
ATOM     39  H   UNL     1      -0.015  12.939   2.660  1.00  0.00     0.163 HD
ATOM     40  O   UNL     1       1.955  13.529   3.927  1.00  0.00    -0.269 OA
BRANCH  38  41
ATOM     41  C   UNL     1       0.641  15.003   5.201  1.00  0.00     0.039 A 
ATOM     42  C   UNL     1       1.525  16.081   5.292  1.00  0.00     0.014 A 
ATOM     43  C   UNL     1      -0.441  14.908   6.079  1.00  0.00     0.014 A 
ATOM     44  C   UNL     1       1.262  17.117   6.192  1.00  0.00     0.010 A 
ATOM     45  C   UNL     1      -0.748  15.980   6.912  1.00  0.00     0.010 A 
ATOM     46  C   UNL     1       0.091  17.103   6.968  1.00  0.00    -0.014 A 
BRANCH  46  47
ATOM     47  C   UNL     1      -0.299  18.276   7.796  1.00  0.00     0.031 A 
ATOM     48  C   UNL     1      -0.456  18.144   9.287  1.00  0.00     0.074 A 
ATOM     49  C   UNL     1      -0.604  19.442   7.190  1.00  0.00     0.049 A 
ATOM     50  N   UNL     1      -0.837  19.044  10.157  1.00  0.00    -0.248 NA
ATOM     51  C   UNL     1      -0.173  16.825   9.876  1.00  0.00     0.031 C 
ATOM     52  C   UNL     1      -0.576  19.676   5.744  1.00  0.00     0.029 A 
ATOM     53  N   UNL     1      -1.025  20.642   7.708  1.00  0.00    -0.354 N 
ATOM     54  C   UNL     1      -0.870  18.396  11.386  1.00  0.00     0.074 A 
ATOM     55  C   UNL     1      -0.504  17.018  11.145  1.00  0.00     0.031 C 
ATOM     56  C   UNL     1      -0.953  20.940   5.493  1.00  0.00     0.029 A 
ATOM     57  C   UNL     1      -1.287  21.597   6.752  1.00  0.00     0.049 A 
ATOM     58  H   UNL     1      -1.129  20.805   8.674  1.00  0.00     0.167 HD
ATOM     59  C   UNL     1      -1.152  18.907  12.608  1.00  0.00     0.034 A 
ATOM     60  C   UNL     1      -1.757  22.854   6.871  1.00  0.00     0.034 A 
ATOM     61  C   UNL     1      -1.488  20.285  12.849  1.00  0.00     0.049 A 
ATOM     62  C   UNL     1      -2.041  23.402   8.243  1.00  0.00     0.074 A 
ATOM     63  C   UNL     1      -1.705  20.916  14.062  1.00  0.00     0.029 A 
ATOM     64  N   UNL     1      -1.673  21.241  11.863  1.00  0.00    -0.354 N 
ATOM     65  N   UNL     1      -1.905  22.819   9.409  1.00  0.00    -0.248 NA
ATOM     66  C   UNL     1      -2.513  24.792   8.319  1.00  0.00     0.031 C 
ATOM     67  C   UNL     1      -2.056  22.246  13.806  1.00  0.00     0.029 A 
ATOM     68  C   UNL     1      -2.019  22.453  12.437  1.00  0.00     0.049 A 
ATOM     69  H   UNL     1      -1.574  21.081  10.896  1.00  0.00     0.167 HD
ATOM     70  C   UNL     1      -2.240  23.779  10.357  1.00  0.00     0.074 A 
ATOM     71  C   UNL     1      -2.561  24.989   9.629  1.00  0.00     0.031 C 
ATOM     72  C   UNL     1      -2.292  23.664  11.707  1.00  0.00     0.034 A 
BRANCH  59  73
ATOM     73  C   UNL     1      -1.066  17.980  13.794  1.00  0.00     0.023 A 
ATOM     74  C   UNL     1       0.195  17.523  14.230  1.00  0.00     0.012 A 
ATOM     75  C   UNL     1      -2.219  17.619  14.518  1.00  0.00     0.148 A 
ATOM     76  C   UNL     1       0.304  16.695  15.347  1.00  0.00     0.002 A 
ATOM     77  C   UNL     1      -2.098  16.833  15.657  1.00  0.00     0.091 A 
ATOM     78  F   UNL     1      -3.410  18.049  14.077  1.00  0.00    -0.205 F 
ATOM     79  C   UNL     1      -0.840  16.360  16.066  1.00  0.00     0.022 A 
BRANCH  77  80
ATOM     80  S   UNL     1      -3.498  16.412  16.701  1.00  0.00     0.127 S 
ATOM     81  O   UNL     1      -3.612  14.972  16.473  1.00  0.00    -0.237 OA
ATOM     82  O   UNL     1      -3.011  16.782  18.030  1.00  0.00    -0.237 OA
ATOM     83  O   UNL     1      -4.616  17.209  16.217  1.00  0.00    -0.744 OA
ENDBRANCH  77  80
ENDBRANCH  59  73
BRANCH  60  84
ATOM     84  C   UNL     1      -1.944  23.702   5.658  1.00  0.00     0.023 A 
ATOM     85  C   UNL     1      -1.107  24.817   5.454  1.00  0.00     0.012 A 
ATOM     86  C   UNL     1      -2.936  23.405   4.704  1.00  0.00     0.148 A 
ATOM     87  C   UNL     1      -1.280  25.642   4.341  1.00  0.00     0.002 A 
ATOM     88  C   UNL     1      -3.063  24.196   3.568  1.00  0.00     0.091 A 
ATOM     89  F   UNL     1      -3.729  22.347   4.921  1.00  0.00    -0.205 F 
ATOM     90  C   UNL     1      -2.250  25.327   3.394  1.00  0.00     0.022 A 
BRANCH  88  91
ATOM     91  S   UNL     1      -4.193  23.789   2.233  1.00  0.00     0.127 S 
ATOM     92  O   UNL     1      -5.190  24.850   2.351  1.00  0.00    -0.237 OA
ATOM     93  O   UNL     1      -3.322  23.889   1.061  1.00  0.00    -0.237 OA
ATOM     94  O   UNL     1      -4.666  22.441   2.515  1.00  0.00    -0.744 OA
ENDBRANCH  88  91
ENDBRANCH  60  84
BRANCH  72  95
ATOM     95  C   UNL     1      -2.675  24.888  12.498  1.00  0.00     0.023 A 
ATOM     96  C   UNL     1      -4.003  25.360  12.466  1.00  0.00     0.012 A 
ATOM     97  C   UNL     1      -1.733  25.531  13.325  1.00  0.00     0.148 A 
ATOM     98  C   UNL     1      -4.377  26.475  13.215  1.00  0.00     0.002 A 
ATOM     99  C   UNL     1      -2.126  26.608  14.110  1.00  0.00     0.091 A 
ATOM    100  F   UNL     1      -0.471  25.077  13.329  1.00  0.00    -0.205 F 
ATOM    101  C   UNL     1      -3.443  27.091  14.045  1.00  0.00     0.022 A 
BRANCH  99 102
ATOM    102  S   UNL     1      -1.020  27.403  15.281  1.00  0.00     0.127 S 
ATOM    103  O   UNL     1      -0.798  28.702  14.647  1.00  0.00    -0.237 OA
ATOM    104  O   UNL     1      -1.836  27.448  16.495  1.00  0.00    -0.237 OA
ATOM    105  O   UNL     1       0.154  26.546  15.373  1.00  0.00    -0.744 OA
ENDBRANCH  99 102
ENDBRANCH  72  95
ENDBRANCH  46  47
ENDBRANCH  38  41
ENDBRANCH  36  37
ENDBRANCH  35  36
ENDBRANCH   1  35
TORSDOF 18
