REMARK SMILES CN(C)c1nccnc1N1CCC(Oc2ccc3ccccc3c2)(C(=O)NCCCCNC(=O)c2ccc(-c3c4nc(c(-c5cccc(S(=O)(=O)[O-])c5F)c5ccc([nH]5)c(-c5cccc(S(=O)(=O)[O-])c5F)c5nc(c(-c6cccc(S(=O)(=O)[O-])c6F)c6ccc3[nH]6)C=C5)C=C4)cc2)CC1
REMARK SMILES IDX 30 1 29 2 28 3 27 4 25 5 26 6 13 8 10 9 11 10 99 11 12 12
REMARK SMILES IDX 98 13 9 14 4 15 5 16 6 17 8 18 7 19 2 20 1 21 3 22 14 23
REMARK SMILES IDX 15 24 16 25 24 26 17 27 23 28 18 29 22 30 19 31 21 32 20 33
REMARK SMILES IDX 31 34 32 35 33 36 34 38 35 39 36 40 97 41 37 42 96 43 38 44
REMARK SMILES IDX 39 45 40 46 90 47 41 48 95 49 89 50 91 51 42 52 94 53 88 54
REMARK SMILES IDX 87 55 43 57 75 58 55 59 74 60 56 61 59 62 73 63 92 64 57 65
REMARK SMILES IDX 58 66 72 68 93 69 60 70 44 71 45 72 53 73 46 74 48 75 54 76
REMARK SMILES IDX 47 77 49 78 50 79 51 80 52 81 76 82 77 83 85 84 78 85 80 86
REMARK SMILES IDX 86 87 79 88 81 89 82 90 83 91 84 92 61 93 62 94 70 95 63 96
REMARK SMILES IDX 65 97 71 98 64 99 66 100 67 101 68 102 69 103
REMARK H PARENT 27 7 32 37 91 56 59 67
REMARK Flexibility Score: inf
ROOT
ATOM      1  C   UNL     1      -5.901  -6.827  -0.666  1.00  0.00     0.023 C 
ENDROOT
BRANCH   1   2
ATOM      2  C   UNL     1      -5.400  -6.184  -1.958  1.00  0.00     0.023 C 
BRANCH   2   3
ATOM      3  C   UNL     1      -6.097  -4.876  -2.325  1.00  0.00     0.116 C 
BRANCH   3   4
ATOM      4  N   UNL     1      -5.748  -3.818  -1.399  1.00  0.00    -0.353 N 
ATOM      5  C   UNL     1      -5.005  -2.688  -1.590  1.00  0.00     0.264 C 
ATOM      6  O   UNL     1      -4.946  -1.912  -0.631  1.00  0.00    -0.270 OA
ATOM      7  H   UNL     1      -6.104  -3.930  -0.488  1.00  0.00     0.163 HD
BRANCH   5   8
ATOM      8  C   UNL     1      -4.279  -2.406  -2.940  1.00  0.00     0.190 C 
ATOM      9  N   UNL     1      -1.545  -2.246  -2.122  1.00  0.00    -0.353 N 
ATOM     10  C   UNL     1      -2.154  -3.551  -2.213  1.00  0.00     0.123 C 
ATOM     11  C   UNL     1      -2.365  -1.068  -1.879  1.00  0.00     0.123 C 
ATOM     12  C   UNL     1      -3.245  -3.501  -3.261  1.00  0.00     0.080 C 
ATOM     13  C   UNL     1      -3.559  -1.040  -2.844  1.00  0.00     0.080 C 
BRANCH   9  14
ATOM     14  C   UNL     1      -0.234  -2.078  -2.529  1.00  0.00     0.171 A 
ATOM     15  C   UNL     1       0.723  -1.378  -1.724  1.00  0.00     0.171 A 
ATOM     16  N   UNL     1       1.964  -1.106  -2.211  1.00  0.00    -0.234 NA
ATOM     17  C   UNL     1       2.245  -1.579  -3.443  1.00  0.00     0.134 A 
ATOM     18  N   UNL     1       0.090  -2.566  -3.757  1.00  0.00    -0.234 NA
ATOM     19  C   UNL     1       1.336  -2.297  -4.192  1.00  0.00     0.134 A 
BRANCH  15  20
ATOM     20  N   UNL     1       0.442  -1.002  -0.400  1.00  0.00    -0.360 N 
ATOM     21  C   UNL     1       1.246   0.069   0.152  1.00  0.00     0.145 C 
ATOM     22  C   UNL     1       0.050  -2.090   0.490  1.00  0.00     0.145 C 
ENDBRANCH  15  20
ENDBRANCH   9  14
BRANCH   8  23
ATOM     23  O   UNL     1      -5.410  -2.341  -3.853  1.00  0.00    -0.477 OA
BRANCH  23  24
ATOM     24  C   UNL     1      -5.179  -2.108  -5.175  1.00  0.00     0.121 A 
ATOM     25  C   UNL     1      -4.585  -3.051  -6.005  1.00  0.00     0.047 A 
ATOM     26  C   UNL     1      -5.710  -0.941  -5.722  1.00  0.00     0.055 A 
ATOM     27  C   UNL     1      -4.390  -2.774  -7.357  1.00  0.00     0.012 A 
ATOM     28  C   UNL     1      -5.567  -0.666  -7.092  1.00  0.00    -0.015 A 
ATOM     29  C   UNL     1      -4.869  -1.582  -7.913  1.00  0.00    -0.018 A 
ATOM     30  C   UNL     1      -6.109   0.493  -7.671  1.00  0.00     0.009 A 
ATOM     31  C   UNL     1      -4.691  -1.297  -9.274  1.00  0.00     0.009 A 
ATOM     32  C   UNL     1      -5.942   0.752  -9.033  1.00  0.00     0.001 A 
ATOM     33  C   UNL     1      -5.224  -0.135  -9.831  1.00  0.00     0.001 A 
ENDBRANCH  23  24
ENDBRANCH   8  23
ENDBRANCH   5   8
ENDBRANCH   3   4
ENDBRANCH   2   3
ENDBRANCH   1   2
BRANCH   1  34
ATOM     34  C   UNL     1      -7.399  -7.104  -0.624  1.00  0.00     0.116 C 
BRANCH  34  35
ATOM     35  N   UNL     1      -7.853  -7.929  -1.734  1.00  0.00    -0.352 N 
ATOM     36  C   UNL     1      -8.718  -8.995  -1.716  1.00  0.00     0.251 C 
ATOM     37  H   UNL     1      -7.490  -7.690  -2.617  1.00  0.00     0.163 HD
ATOM     38  O   UNL     1      -8.880  -9.670  -2.730  1.00  0.00    -0.269 OA
BRANCH  36  39
ATOM     39  C   UNL     1      -9.427  -9.341  -0.467  1.00  0.00     0.039 A 
ATOM     40  C   UNL     1      -9.474 -10.678  -0.065  1.00  0.00     0.014 A 
ATOM     41  C   UNL     1     -10.026  -8.349   0.314  1.00  0.00     0.014 A 
ATOM     42  C   UNL     1     -10.072 -11.011   1.151  1.00  0.00     0.010 A 
ATOM     43  C   UNL     1     -10.546  -8.673   1.563  1.00  0.00     0.010 A 
ATOM     44  C   UNL     1     -10.585 -10.008   1.991  1.00  0.00    -0.014 A 
BRANCH  44  45
ATOM     45  C   UNL     1     -11.162 -10.338   3.319  1.00  0.00     0.031 A 
ATOM     46  C   UNL     1     -12.608 -10.040   3.614  1.00  0.00     0.074 A 
ATOM     47  C   UNL     1     -10.366 -10.838   4.285  1.00  0.00     0.049 A 
ATOM     48  N   UNL     1     -13.277 -10.224   4.722  1.00  0.00    -0.248 NA
ATOM     49  C   UNL     1     -13.399  -9.428   2.532  1.00  0.00     0.031 C 
ATOM     50  C   UNL     1      -8.930 -11.096   4.151  1.00  0.00     0.029 A 
ATOM     51  N   UNL     1     -10.646 -11.199   5.579  1.00  0.00    -0.354 N 
ATOM     52  C   UNL     1     -14.552  -9.724   4.484  1.00  0.00     0.074 A 
ATOM     53  C   UNL     1     -14.552  -9.191   3.139  1.00  0.00     0.031 C 
ATOM     54  C   UNL     1      -8.459 -11.582   5.310  1.00  0.00     0.029 A 
ATOM     55  C   UNL     1      -9.548 -11.642   6.279  1.00  0.00     0.049 A 
ATOM     56  H   UNL     1     -11.548 -11.146   5.970  1.00  0.00     0.167 HD
ATOM     57  C   UNL     1     -15.635  -9.735   5.297  1.00  0.00     0.034 A 
ATOM     58  C   UNL     1      -9.430 -12.047   7.559  1.00  0.00     0.034 A 
ATOM     59  C   UNL     1     -15.643 -10.301   6.619  1.00  0.00     0.049 A 
ATOM     60  C   UNL     1     -10.658 -12.086   8.428  1.00  0.00     0.074 A 
ATOM     61  C   UNL     1     -16.708 -10.435   7.491  1.00  0.00     0.029 A 
ATOM     62  N   UNL     1     -14.530 -10.817   7.265  1.00  0.00    -0.354 N 
ATOM     63  N   UNL     1     -11.891 -11.754   8.132  1.00  0.00    -0.248 NA
ATOM     64  C   UNL     1     -10.486 -12.592   9.798  1.00  0.00     0.031 C 
ATOM     65  C   UNL     1     -16.234 -11.009   8.675  1.00  0.00     0.029 A 
ATOM     66  C   UNL     1     -14.881 -11.265   8.527  1.00  0.00     0.049 A 
ATOM     67  H   UNL     1     -13.624 -10.860   6.883  1.00  0.00     0.167 HD
ATOM     68  C   UNL     1     -12.648 -12.050   9.260  1.00  0.00     0.074 A 
ATOM     69  C   UNL     1     -11.737 -12.608  10.238  1.00  0.00     0.031 C 
ATOM     70  C   UNL     1     -13.975 -11.867   9.472  1.00  0.00     0.034 A 
BRANCH  57  71
ATOM     71  C   UNL     1     -16.921  -9.162   4.758  1.00  0.00     0.023 A 
ATOM     72  C   UNL     1     -17.616  -9.845   3.739  1.00  0.00     0.012 A 
ATOM     73  C   UNL     1     -17.472  -7.983   5.297  1.00  0.00     0.148 A 
ATOM     74  C   UNL     1     -18.817  -9.345   3.237  1.00  0.00     0.002 A 
ATOM     75  C   UNL     1     -18.694  -7.517   4.827  1.00  0.00     0.091 A 
ATOM     76  F   UNL     1     -16.789  -7.336   6.252  1.00  0.00    -0.205 F 
ATOM     77  C   UNL     1     -19.361  -8.189   3.788  1.00  0.00     0.022 A 
BRANCH  75  78
ATOM     78  S   UNL     1     -19.521  -6.084   5.526  1.00  0.00     0.127 S 
ATOM     79  O   UNL     1     -19.408  -5.117   4.434  1.00  0.00    -0.237 OA
ATOM     80  O   UNL     1     -20.875  -6.591   5.753  1.00  0.00    -0.237 OA
ATOM     81  O   UNL     1     -18.787  -5.746   6.737  1.00  0.00    -0.744 OA
ENDBRANCH  75  78
ENDBRANCH  57  71
BRANCH  58  82
ATOM     82  C   UNL     1      -8.113 -12.514   8.078  1.00  0.00     0.023 A 
ATOM     83  C   UNL     1      -7.931 -13.878   8.379  1.00  0.00     0.012 A 
ATOM     84  C   UNL     1      -7.039 -11.622   8.259  1.00  0.00     0.148 A 
ATOM     85  C   UNL     1      -6.717 -14.339   8.889  1.00  0.00     0.002 A 
ATOM     86  C   UNL     1      -5.814 -12.098   8.712  1.00  0.00     0.091 A 
ATOM     87  F   UNL     1      -7.234 -10.327   7.974  1.00  0.00    -0.205 F 
ATOM     88  C   UNL     1      -5.656 -13.451   9.046  1.00  0.00     0.022 A 
BRANCH  86  89
ATOM     89  S   UNL     1      -4.356 -11.054   8.821  1.00  0.00     0.127 S 
ATOM     90  O   UNL     1      -4.176 -10.941  10.265  1.00  0.00    -0.237 OA
ATOM     91  O   UNL     1      -3.351 -11.867   8.135  1.00  0.00    -0.237 OA
ATOM     92  O   UNL     1      -4.703  -9.820   8.128  1.00  0.00    -0.744 OA
ENDBRANCH  86  89
ENDBRANCH  58  82
BRANCH  70  93
ATOM     93  C   UNL     1     -14.539 -12.316  10.795  1.00  0.00     0.023 A 
ATOM     94  C   UNL     1     -14.234 -11.604  11.972  1.00  0.00     0.012 A 
ATOM     95  C   UNL     1     -15.425 -13.410  10.859  1.00  0.00     0.148 A 
ATOM     96  C   UNL     1     -14.769 -11.999  13.197  1.00  0.00     0.002 A 
ATOM     97  C   UNL     1     -15.997 -13.764  12.075  1.00  0.00     0.091 A 
ATOM     98  F   UNL     1     -15.690 -14.086   9.732  1.00  0.00    -0.205 F 
ATOM     99  C   UNL     1     -15.658 -13.070  13.247  1.00  0.00     0.022 A 
BRANCH  97 100
ATOM    100  S   UNL     1     -17.228 -15.065  12.216  1.00  0.00     0.127 S 
ATOM    101  O   UNL     1     -16.465 -16.127  12.870  1.00  0.00    -0.237 OA
ATOM    102  O   UNL     1     -18.247 -14.437  13.059  1.00  0.00    -0.237 OA
ATOM    103  O   UNL     1     -17.664 -15.354  10.856  1.00  0.00    -0.744 OA
ENDBRANCH  97 100
ENDBRANCH  70  93
ENDBRANCH  44  45
ENDBRANCH  36  39
ENDBRANCH  34  35
ENDBRANCH   1  34
TORSDOF 18
