REMARK SMILES Cc1n[nH]c(C(=O)N[C@@H](CC(C)C)C(=O)NCCCCNC(=O)c2ccc(-c3c4nc(c(-c5cccc(S(=O)(=O)[O-])c5F)c5ccc([nH]5)c(-c5cccc(S(=O)(=O)[O-])c5F)c5nc(c(-c6cccc(S(=O)(=O)[O-])c6F)c6ccc3[nH]6)C=C5)C=C4)cc2)n1
REMARK SMILES IDX 19 1 18 2 17 3 16 4 14 5 15 6 9 8 8 9 6 10 7 11 5 13 1 14
REMARK SMILES IDX 2 15 3 16 87 17 4 18 10 20 11 21 12 22 13 23 20 24 21 25
REMARK SMILES IDX 22 26 23 28 24 29 25 30 86 31 26 32 85 33 27 34 28 35 29 36
REMARK SMILES IDX 79 37 30 38 84 39 78 40 80 41 31 42 83 43 77 44 76 45 32 47
REMARK SMILES IDX 64 48 44 49 63 50 45 51 48 52 62 53 81 54 46 55 47 56 61 58
REMARK SMILES IDX 82 59 49 60 33 61 34 62 42 63 35 64 37 65 43 66 36 67 38 68
REMARK SMILES IDX 39 69 40 70 41 71 65 72 66 73 74 74 67 75 69 76 75 77 68 78
REMARK SMILES IDX 70 79 71 80 72 81 73 82 50 83 51 84 59 85 52 86 54 87 60 88
REMARK SMILES IDX 53 89 55 90 56 91 57 92 58 93
REMARK H PARENT 16 7 8 12 4 19 21 27 80 46 48 57
REMARK Flexibility Score: inf
ROOT
ATOM      1  C   UNL     1      -0.111  10.410  -2.979  1.00  0.00     0.023 C 
ENDROOT
BRANCH   1   2
ATOM      2  C   UNL     1       0.515   9.529  -1.889  1.00  0.00     0.023 C 
BRANCH   2   3
ATOM      3  C   UNL     1      -0.465   8.704  -1.056  1.00  0.00     0.116 C 
BRANCH   3   4
ATOM      4  N   UNL     1      -1.161   7.676  -1.804  1.00  0.00    -0.354 N 
ATOM      5  C   UNL     1      -1.731   6.500  -1.416  1.00  0.00     0.242 C 
ATOM      6  O   UNL     1      -2.400   5.896  -2.262  1.00  0.00    -0.273 OA
ATOM      7  H   UNL     1      -1.237   7.861  -2.768  1.00  0.00     0.163 HD
BRANCH   5   8
ATOM      8  C   UNL     1      -1.575   5.878  -0.009  1.00  0.00     0.172 C 
BRANCH   8   9
ATOM      9  N   UNL     1      -0.161   5.698   0.319  1.00  0.00    -0.338 N 
ATOM     10  C   UNL     1       0.718   4.647   0.193  1.00  0.00     0.289 C 
ATOM     11  O   UNL     1       1.901   4.989   0.315  1.00  0.00    -0.266 OA
ATOM     12  H   UNL     1       0.249   6.501   0.714  1.00  0.00     0.164 HD
BRANCH  10  13
ATOM     13  C   UNL     1       0.334   3.255   0.007  1.00  0.00     0.214 A 
ATOM     14  C   UNL     1       1.103  -0.216  -0.021  1.00  0.00     0.092 C 
ATOM     15  C   UNL     1       0.500   1.129  -0.064  1.00  0.00     0.148 A 
ATOM     16  N   UNL     1      -0.810   1.326  -0.207  1.00  0.00    -0.159 NA
ATOM     17  N   UNL     1       1.231   2.275   0.065  1.00  0.00    -0.207 NA
ATOM     18  N   UNL     1      -0.885   2.669  -0.194  1.00  0.00    -0.255 N 
ATOM     19  H   UNL     1      -1.723   3.173  -0.315  1.00  0.00     0.192 HD
ENDBRANCH  10  13
ENDBRANCH   8   9
BRANCH   8  20
ATOM     20  C   UNL     1      -2.409   6.401   1.179  1.00  0.00     0.038 C 
BRANCH  20  21
ATOM     21  C   UNL     1      -2.549   7.912   1.409  1.00  0.00    -0.015 C 
ATOM     22  C   UNL     1      -3.615   8.530   0.498  1.00  0.00     0.007 C 
ATOM     23  C   UNL     1      -2.938   8.209   2.863  1.00  0.00     0.007 C 
ENDBRANCH  20  21
ENDBRANCH   8  20
ENDBRANCH   5   8
ENDBRANCH   3   4
ENDBRANCH   2   3
ENDBRANCH   1   2
BRANCH   1  24
ATOM     24  C   UNL     1      -1.202  11.363  -2.498  1.00  0.00     0.116 C 
BRANCH  24  25
ATOM     25  N   UNL     1      -0.708  12.373  -1.573  1.00  0.00    -0.352 N 
ATOM     26  C   UNL     1      -1.356  13.522  -1.158  1.00  0.00     0.251 C 
ATOM     27  H   UNL     1       0.191  12.221  -1.199  1.00  0.00     0.163 HD
ATOM     28  O   UNL     1      -0.730  14.434  -0.643  1.00  0.00    -0.269 OA
BRANCH  26  29
ATOM     29  C   UNL     1      -2.817  13.633  -1.355  1.00  0.00     0.039 A 
ATOM     30  C   UNL     1      -3.365  14.822  -1.843  1.00  0.00     0.014 A 
ATOM     31  C   UNL     1      -3.637  12.543  -1.052  1.00  0.00     0.014 A 
ATOM     32  C   UNL     1      -4.732  14.879  -2.099  1.00  0.00     0.010 A 
ATOM     33  C   UNL     1      -4.979  12.574  -1.375  1.00  0.00     0.010 A 
ATOM     34  C   UNL     1      -5.534  13.744  -1.890  1.00  0.00    -0.014 A 
BRANCH  34  35
ATOM     35  C   UNL     1      -6.896  13.723  -2.429  1.00  0.00     0.031 A 
ATOM     36  C   UNL     1      -6.952  14.012  -3.889  1.00  0.00     0.074 A 
ATOM     37  C   UNL     1      -7.983  13.291  -1.753  1.00  0.00     0.049 A 
ATOM     38  N   UNL     1      -7.447  15.059  -4.462  1.00  0.00    -0.248 NA
ATOM     39  C   UNL     1      -6.220  13.122  -4.807  1.00  0.00     0.031 C 
ATOM     40  C   UNL     1      -8.008  12.699  -0.412  1.00  0.00     0.029 A 
ATOM     41  N   UNL     1      -9.279  13.155  -2.170  1.00  0.00    -0.354 N 
ATOM     42  C   UNL     1      -7.339  14.814  -5.829  1.00  0.00     0.074 A 
ATOM     43  C   UNL     1      -6.383  13.751  -5.973  1.00  0.00     0.031 C 
ATOM     44  C   UNL     1      -9.177  12.046  -0.232  1.00  0.00     0.029 A 
ATOM     45  C   UNL     1     -10.038  12.297  -1.372  1.00  0.00     0.049 A 
ATOM     46  H   UNL     1      -9.643  13.619  -2.958  1.00  0.00     0.167 HD
ATOM     47  C   UNL     1      -8.283  15.283  -6.692  1.00  0.00     0.034 A 
ATOM     48  C   UNL     1     -11.264  11.786  -1.648  1.00  0.00     0.034 A 
ATOM     49  C   UNL     1      -9.094  16.301  -6.069  1.00  0.00     0.049 A 
ATOM     50  C   UNL     1     -11.891  12.665  -2.652  1.00  0.00     0.074 A 
ATOM     51  C   UNL     1      -8.873  17.524  -5.473  1.00  0.00     0.029 A 
ATOM     52  N   UNL     1     -10.339  15.889  -5.671  1.00  0.00    -0.354 N 
ATOM     53  N   UNL     1     -12.274  13.884  -2.401  1.00  0.00    -0.248 NA
ATOM     54  C   UNL     1     -11.793  12.315  -4.059  1.00  0.00     0.031 C 
ATOM     55  C   UNL     1      -9.841  17.612  -4.428  1.00  0.00     0.029 A 
ATOM     56  C   UNL     1     -10.649  16.475  -4.478  1.00  0.00     0.049 A 
ATOM     57  H   UNL     1     -10.918  15.267  -6.167  1.00  0.00     0.167 HD
ATOM     58  C   UNL     1     -11.973  14.571  -3.566  1.00  0.00     0.074 A 
ATOM     59  C   UNL     1     -11.861  13.538  -4.590  1.00  0.00     0.031 C 
ATOM     60  C   UNL     1     -11.534  15.863  -3.509  1.00  0.00     0.034 A 
BRANCH  47  61
ATOM     61  C   UNL     1      -8.800  14.523  -7.904  1.00  0.00     0.023 A 
ATOM     62  C   UNL     1      -9.739  15.191  -8.726  1.00  0.00     0.012 A 
ATOM     63  C   UNL     1      -8.671  13.127  -8.098  1.00  0.00     0.148 A 
ATOM     64  C   UNL     1     -10.552  14.499  -9.633  1.00  0.00     0.002 A 
ATOM     65  C   UNL     1      -9.419  12.458  -9.061  1.00  0.00     0.091 A 
ATOM     66  F   UNL     1      -7.929  12.397  -7.265  1.00  0.00    -0.205 F 
ATOM     67  C   UNL     1     -10.388  13.132  -9.805  1.00  0.00     0.022 A 
BRANCH  65  68
ATOM     68  S   UNL     1      -9.210  10.697  -9.358  1.00  0.00     0.127 S 
ATOM     69  O   UNL     1     -10.451  10.160  -8.806  1.00  0.00    -0.237 OA
ATOM     70  O   UNL     1      -9.107  10.654 -10.816  1.00  0.00    -0.237 OA
ATOM     71  O   UNL     1      -7.985  10.324  -8.662  1.00  0.00    -0.744 OA
ENDBRANCH  65  68
ENDBRANCH  47  61
BRANCH  48  72
ATOM     72  C   UNL     1     -11.892  10.500  -1.260  1.00  0.00     0.023 A 
ATOM     73  C   UNL     1     -13.291  10.348  -1.369  1.00  0.00     0.012 A 
ATOM     74  C   UNL     1     -11.110   9.340  -1.084  1.00  0.00     0.148 A 
ATOM     75  C   UNL     1     -13.884   9.079  -1.361  1.00  0.00     0.002 A 
ATOM     76  C   UNL     1     -11.704   8.081  -1.072  1.00  0.00     0.091 A 
ATOM     77  F   UNL     1      -9.777   9.462  -1.027  1.00  0.00    -0.205 F 
ATOM     78  C   UNL     1     -13.089   7.945  -1.226  1.00  0.00     0.022 A 
BRANCH  76  79
ATOM     79  S   UNL     1     -10.736   6.572  -0.934  1.00  0.00     0.127 S 
ATOM     80  O   UNL     1     -11.466   5.837   0.100  1.00  0.00    -0.237 OA
ATOM     81  O   UNL     1     -10.851   6.015  -2.278  1.00  0.00    -0.237 OA
ATOM     82  O   UNL     1      -9.398   6.992  -0.535  1.00  0.00    -0.744 OA
ENDBRANCH  76  79
ENDBRANCH  48  72
BRANCH  60  83
ATOM     83  C   UNL     1     -11.810  16.642  -2.249  1.00  0.00     0.023 A 
ATOM     84  C   UNL     1     -11.324  16.264  -0.980  1.00  0.00     0.012 A 
ATOM     85  C   UNL     1     -12.509  17.854  -2.373  1.00  0.00     0.148 A 
ATOM     86  C   UNL     1     -11.569  17.058   0.144  1.00  0.00     0.002 A 
ATOM     87  C   UNL     1     -12.705  18.665  -1.264  1.00  0.00     0.091 A 
ATOM     88  F   UNL     1     -12.970  18.201  -3.585  1.00  0.00    -0.205 F 
ATOM     89  C   UNL     1     -12.249  18.265   0.000  1.00  0.00     0.022 A 
BRANCH  87  90
ATOM     90  S   UNL     1     -13.471  20.278  -1.426  1.00  0.00     0.127 S 
ATOM     91  O   UNL     1     -14.842  20.009  -0.999  1.00  0.00    -0.237 OA
ATOM     92  O   UNL     1     -12.689  21.096  -0.496  1.00  0.00    -0.237 OA
ATOM     93  O   UNL     1     -13.306  20.655  -2.825  1.00  0.00    -0.744 OA
ENDBRANCH  87  90
ENDBRANCH  60  83
ENDBRANCH  34  35
ENDBRANCH  26  29
ENDBRANCH  24  25
ENDBRANCH   1  24
TORSDOF 18
