REMARK SMILES Cc1c(NS(=O)(=O)c2ncn(C)c2Cl)cccc1C(=O)NCCCCNC(=O)c1ccc(-c2c3nc(c(-c4cccc(S(=O)(=O)[O-])c4F)c4ccc([nH]4)c(-c4cccc(S(=O)(=O)[O-])c4F)c4nc(c(-c5cccc(S(=O)(=O)[O-])c5F)c5ccc2[nH]5)C=C4)C=C3)cc1
REMARK SMILES IDX 23 1 22 2 21 3 19 4 20 5 18 7 1 8 2 9 3 10 15 11 17 12 16 13
REMARK SMILES IDX 4 14 5 16 6 17 7 18 8 19 9 20 13 21 10 22 11 23 14 24 12 25
REMARK SMILES IDX 24 26 25 27 26 28 27 29 28 31 29 32 30 33 91 34 31 35 90 36
REMARK SMILES IDX 32 37 33 38 34 39 84 40 35 41 89 42 83 43 85 44 36 45 88 46
REMARK SMILES IDX 82 47 81 48 37 50 69 51 49 52 68 53 50 54 53 55 67 56 86 57
REMARK SMILES IDX 51 58 52 59 66 61 87 62 54 63 38 64 39 65 47 66 40 67 42 68
REMARK SMILES IDX 48 69 41 70 43 71 44 72 45 73 46 74 70 75 71 76 79 77 72 78
REMARK SMILES IDX 74 79 80 80 73 81 75 82 76 83 77 84 78 85 55 86 56 87 64 88
REMARK SMILES IDX 57 89 59 90 65 91 58 92 60 93 61 94 62 95 63 96
REMARK H PARENT 21 6 4 15 26 30 85 49 53 60
REMARK Flexibility Score: inf
ROOT
ATOM      1  C   UNL     1       4.213   1.690  -1.461  1.00  0.00     0.023 C 
ENDROOT
BRANCH   1   2
ATOM      2  C   UNL     1       3.711   1.970  -0.041  1.00  0.00     0.116 C 
BRANCH   2   3
ATOM      3  N   UNL     1       2.430   2.631  -0.050  1.00  0.00    -0.352 N 
ATOM      4  C   UNL     1       1.110   2.313  -0.145  1.00  0.00     0.251 C 
ATOM      5  O   UNL     1       0.406   3.337  -0.178  1.00  0.00    -0.269 OA
ATOM      6  H   UNL     1       2.544   3.605   0.040  1.00  0.00     0.163 HD
BRANCH   4   7
ATOM      7  C   UNL     1       0.391   0.971  -0.223  1.00  0.00     0.044 A 
ATOM      8  C   UNL     1       2.244  -0.735  -0.743  1.00  0.00     0.047 C 
ATOM      9  C   UNL     1       0.823  -0.375  -0.445  1.00  0.00    -0.014 A 
ATOM     10  C   UNL     1      -0.140  -1.432  -0.522  1.00  0.00     0.053 A 
ATOM     11  C   UNL     1      -1.480  -1.093  -0.684  1.00  0.00     0.027 A 
ATOM     12  C   UNL     1      -1.011   1.179  -0.147  1.00  0.00     0.014 A 
ATOM     13  C   UNL     1      -1.933   0.186  -0.431  1.00  0.00     0.003 A 
BRANCH  10  14
ATOM     14  N   UNL     1       0.256  -2.811  -0.742  1.00  0.00    -0.278 N 
ATOM     15  H   UNL     1       0.960  -2.999  -1.404  1.00  0.00     0.180 HD
BRANCH  14  16
ATOM     16  S   UNL     1      -0.446  -4.125   0.102  1.00  0.00     0.282 S 
ATOM     17  O   UNL     1      -0.174  -5.296  -0.703  1.00  0.00    -0.199 OA
ATOM     18  O   UNL     1       0.031  -4.060   1.470  1.00  0.00    -0.199 OA
BRANCH  16  19
ATOM     19  C   UNL     1      -2.174  -4.032   0.202  1.00  0.00     0.213 A 
ATOM     20  N   UNL     1      -3.029  -4.584  -0.750  1.00  0.00    -0.222 NA
ATOM     21  C   UNL     1      -2.899  -3.261   1.082  1.00  0.00     0.149 A 
ATOM     22  C   UNL     1      -4.210  -4.072  -0.490  1.00  0.00     0.202 A 
ATOM     23  N   UNL     1      -4.145  -3.156   0.529  1.00  0.00    -0.324 N 
ATOM     24  Cl  UNL     1      -2.462  -2.334   2.440  1.00  0.00    -0.061 Cl
ATOM     25  C   UNL     1      -5.101  -2.087   0.687  1.00  0.00     0.152 C 
ENDBRANCH  16  19
ENDBRANCH  14  16
ENDBRANCH  10  14
ENDBRANCH   4   7
ENDBRANCH   2   3
ENDBRANCH   1   2
BRANCH   1  26
ATOM     26  C   UNL     1       4.869   2.827  -2.249  1.00  0.00     0.023 C 
BRANCH  26  27
ATOM     27  C   UNL     1       6.332   3.145  -1.959  1.00  0.00     0.116 C 
BRANCH  27  28
ATOM     28  N   UNL     1       7.200   1.972  -2.034  1.00  0.00    -0.352 N 
ATOM     29  C   UNL     1       8.333   1.650  -1.308  1.00  0.00     0.251 C 
ATOM     30  H   UNL     1       6.937   1.305  -2.708  1.00  0.00     0.163 HD
ATOM     31  O   UNL     1       9.147   0.885  -1.816  1.00  0.00    -0.269 OA
BRANCH  29  32
ATOM     32  C   UNL     1       8.513   2.161   0.070  1.00  0.00     0.039 A 
ATOM     33  C   UNL     1       9.740   2.135   0.747  1.00  0.00     0.014 A 
ATOM     34  C   UNL     1       7.373   2.534   0.762  1.00  0.00     0.014 A 
ATOM     35  C   UNL     1       9.780   2.402   2.124  1.00  0.00     0.010 A 
ATOM     36  C   UNL     1       7.439   3.028   2.029  1.00  0.00     0.010 A 
ATOM     37  C   UNL     1       8.605   2.794   2.757  1.00  0.00    -0.014 A 
BRANCH  37  38
ATOM     38  C   UNL     1       8.319   2.739   4.185  1.00  0.00     0.031 A 
ATOM     39  C   UNL     1       8.574   3.870   5.076  1.00  0.00     0.074 A 
ATOM     40  C   UNL     1       7.352   1.834   4.472  1.00  0.00     0.049 A 
ATOM     41  N   UNL     1       8.320   3.857   6.340  1.00  0.00    -0.248 NA
ATOM     42  C   UNL     1       9.160   5.116   4.608  1.00  0.00     0.031 C 
ATOM     43  C   UNL     1       6.274   1.936   5.440  1.00  0.00     0.029 A 
ATOM     44  N   UNL     1       7.137   0.594   3.859  1.00  0.00    -0.354 N 
ATOM     45  C   UNL     1       8.350   5.169   6.760  1.00  0.00     0.074 A 
ATOM     46  C   UNL     1       9.068   5.859   5.715  1.00  0.00     0.031 C 
ATOM     47  C   UNL     1       5.676   0.737   5.538  1.00  0.00     0.029 A 
ATOM     48  C   UNL     1       6.496  -0.212   4.800  1.00  0.00     0.049 A 
ATOM     49  H   UNL     1       7.390   0.341   2.942  1.00  0.00     0.167 HD
ATOM     50  C   UNL     1       7.585   5.529   7.833  1.00  0.00     0.034 A 
ATOM     51  C   UNL     1       7.098  -1.321   5.324  1.00  0.00     0.034 A 
ATOM     52  C   UNL     1       6.968   4.335   8.457  1.00  0.00     0.049 A 
ATOM     53  C   UNL     1       7.379  -1.162   6.809  1.00  0.00     0.074 A 
ATOM     54  C   UNL     1       5.676   3.834   8.479  1.00  0.00     0.029 A 
ATOM     55  N   UNL     1       7.780   3.318   8.958  1.00  0.00    -0.354 N 
ATOM     56  N   UNL     1       7.090  -0.094   7.502  1.00  0.00    -0.248 NA
ATOM     57  C   UNL     1       8.027  -2.180   7.630  1.00  0.00     0.031 C 
ATOM     58  C   UNL     1       5.740   2.464   8.870  1.00  0.00     0.029 A 
ATOM     59  C   UNL     1       7.061   2.141   9.133  1.00  0.00     0.049 A 
ATOM     60  H   UNL     1       8.738   3.420   9.162  1.00  0.00     0.167 HD
ATOM     61  C   UNL     1       7.652  -0.171   8.745  1.00  0.00     0.074 A 
ATOM     62  C   UNL     1       8.128  -1.544   8.812  1.00  0.00     0.031 C 
ATOM     63  C   UNL     1       7.747   0.920   9.570  1.00  0.00     0.034 A 
BRANCH  50  64
ATOM     64  C   UNL     1       7.140   6.953   8.188  1.00  0.00     0.023 A 
ATOM     65  C   UNL     1       6.199   7.091   9.236  1.00  0.00     0.012 A 
ATOM     66  C   UNL     1       7.497   8.163   7.540  1.00  0.00     0.148 A 
ATOM     67  C   UNL     1       5.608   8.318   9.573  1.00  0.00     0.002 A 
ATOM     68  C   UNL     1       6.917   9.392   7.878  1.00  0.00     0.091 A 
ATOM     69  F   UNL     1       8.405   8.169   6.571  1.00  0.00    -0.205 F 
ATOM     70  C   UNL     1       5.959   9.470   8.888  1.00  0.00     0.022 A 
BRANCH  68  71
ATOM     71  S   UNL     1       7.335  10.931   7.029  1.00  0.00     0.127 S 
ATOM     72  O   UNL     1       6.034  11.358   6.511  1.00  0.00    -0.237 OA
ATOM     73  O   UNL     1       7.856  11.756   8.118  1.00  0.00    -0.237 OA
ATOM     74  O   UNL     1       8.310  10.591   6.000  1.00  0.00    -0.744 OA
ENDBRANCH  68  71
ENDBRANCH  50  64
BRANCH  51  75
ATOM     75  C   UNL     1       7.953  -2.043   4.326  1.00  0.00     0.023 A 
ATOM     76  C   UNL     1       7.269  -2.703   3.276  1.00  0.00     0.012 A 
ATOM     77  C   UNL     1       9.307  -1.702   4.140  1.00  0.00     0.148 A 
ATOM     78  C   UNL     1       7.874  -2.895   2.031  1.00  0.00     0.002 A 
ATOM     79  C   UNL     1       9.895  -1.869   2.883  1.00  0.00     0.091 A 
ATOM     80  F   UNL     1       9.957  -1.105   5.147  1.00  0.00    -0.205 F 
ATOM     81  C   UNL     1       9.171  -2.439   1.823  1.00  0.00     0.022 A 
BRANCH  79  82
ATOM     82  S   UNL     1      11.524  -1.204   2.499  1.00  0.00     0.127 S 
ATOM     83  O   UNL     1      12.357  -2.399   2.588  1.00  0.00    -0.237 OA
ATOM     84  O   UNL     1      11.344  -0.680   1.147  1.00  0.00    -0.237 OA
ATOM     85  O   UNL     1      11.761  -0.178   3.505  1.00  0.00    -0.744 OA
ENDBRANCH  79  82
ENDBRANCH  51  75
BRANCH  63  86
ATOM     86  C   UNL     1       8.542   0.956  10.862  1.00  0.00     0.023 A 
ATOM     87  C   UNL     1       9.635   0.103  11.102  1.00  0.00     0.012 A 
ATOM     88  C   UNL     1       8.305   1.974  11.821  1.00  0.00     0.148 A 
ATOM     89  C   UNL     1      10.417   0.210  12.259  1.00  0.00     0.002 A 
ATOM     90  C   UNL     1       9.160   2.154  12.904  1.00  0.00     0.091 A 
ATOM     91  F   UNL     1       7.234   2.773  11.699  1.00  0.00    -0.205 F 
ATOM     92  C   UNL     1      10.197   1.253  13.147  1.00  0.00     0.022 A 
BRANCH  90  93
ATOM     93  S   UNL     1       9.060   3.644  13.907  1.00  0.00     0.127 S 
ATOM     94  O   UNL     1       8.124   3.247  14.955  1.00  0.00    -0.237 OA
ATOM     95  O   UNL     1      10.442   3.818  14.358  1.00  0.00    -0.237 OA
ATOM     96  O   UNL     1       8.603   4.678  12.987  1.00  0.00    -0.744 OA
ENDBRANCH  90  93
ENDBRANCH  63  86
ENDBRANCH  37  38
ENDBRANCH  29  32
ENDBRANCH  27  28
ENDBRANCH  26  27
ENDBRANCH   1  26
TORSDOF 17
