REMARK SMILES C[NH2+]CCCC(=O)N[C@H]1C=C[C@@H](C(=O)NCCCCNC(=O)c2ccc(-c3c4nc(c(-c5cccc(S(=O)(=O)[O-])c5F)c5ccc([nH]5)c(-c5cccc(S(=O)(=O)[O-])c5F)c5nc(c(-c6cccc(S(=O)(=O)[O-])c6F)c6ccc3[nH]6)C=C5)C=C4)cc2)C1
REMARK SMILES IDX 16 1 15 2 13 3 14 4 12 6 9 7 10 8 86 9 11 10 8 11 6 12 7 13
REMARK SMILES IDX 5 15 4 16 3 17 2 18 1 19 17 22 18 23 19 24 20 25 21 26 22 28
REMARK SMILES IDX 23 29 24 30 85 31 25 32 84 33 26 34 27 35 28 36 78 37 29 38
REMARK SMILES IDX 83 39 77 40 79 41 30 42 82 43 76 44 75 45 31 47 63 48 43 49
REMARK SMILES IDX 62 50 44 51 47 52 61 53 80 54 45 55 46 56 60 58 81 59 48 60
REMARK SMILES IDX 32 61 33 62 41 63 34 64 36 65 42 66 35 67 37 68 38 69 39 70
REMARK SMILES IDX 40 71 64 72 65 73 73 74 66 75 68 76 74 77 67 78 69 79 70 80
REMARK SMILES IDX 71 81 72 82 49 83 50 84 58 85 51 86 53 87 59 88 52 89 54 90
REMARK SMILES IDX 55 91 56 92 57 93
REMARK H PARENT 15 5 8 14 2 20 2 21 20 27 79 46 47 57
REMARK Flexibility Score: inf
ROOT
ATOM      1  C   UNL     1       0.933   1.966   2.709  1.00  0.00     0.116 C 
ENDROOT
BRANCH   1   2
ATOM      2  N   UNL     1       1.662   0.924   2.013  1.00  0.00    -0.356 N 
ATOM      3  C   UNL     1       2.215   0.892   0.768  1.00  0.00     0.227 C 
ATOM      4  O   UNL     1       2.831  -0.133   0.452  1.00  0.00    -0.274 OA
ATOM      5  H   UNL     1       1.778   0.094   2.530  1.00  0.00     0.163 HD
BRANCH   3   6
ATOM      6  C   UNL     1       2.074   2.028  -0.264  1.00  0.00     0.103 C 
ATOM      7  C   UNL     1       0.332   3.599  -0.988  1.00  0.00     0.106 C 
ATOM      8  C   UNL     1       1.369   4.272  -0.148  1.00  0.00    -0.006 C 
ATOM      9  C   UNL     1       0.671   2.117  -0.875  1.00  0.00     0.047 C 
ATOM     10  C   UNL     1       2.336   3.421   0.223  1.00  0.00    -0.016 C 
BRANCH   7  11
ATOM     11  N   UNL     1      -0.999   4.108  -0.696  1.00  0.00    -0.350 N 
ATOM     12  C   UNL     1      -2.168   3.613  -0.217  1.00  0.00     0.220 C 
ATOM     13  O   UNL     1      -3.194   4.252  -0.470  1.00  0.00    -0.275 OA
ATOM     14  H   UNL     1      -1.070   5.069  -0.900  1.00  0.00     0.164 HD
BRANCH  12  15
ATOM     15  C   UNL     1      -2.235   2.416   0.691  1.00  0.00     0.106 C 
BRANCH  15  16
ATOM     16  C   UNL     1      -3.061   1.229   0.193  1.00  0.00     0.071 C 
BRANCH  16  17
ATOM     17  C   UNL     1      -2.301   0.183  -0.634  1.00  0.00     0.260 C 
BRANCH  17  18
ATOM     18  N   UNL     1      -1.295  -0.516   0.169  1.00  0.00    -0.349 N 
ATOM     19  C   UNL     1      -0.536  -1.487  -0.613  1.00  0.00     0.330 C 
ATOM     20  H   UNL     1      -0.648   0.171   0.554  1.00  0.00     0.346 HD
ATOM     21  H   UNL     1      -1.784  -1.024   0.906  1.00  0.00     0.346 HD
ENDBRANCH  17  18
ENDBRANCH  16  17
ENDBRANCH  15  16
ENDBRANCH  12  15
ENDBRANCH   7  11
ENDBRANCH   3   6
ENDBRANCH   1   2
BRANCH   1  22
ATOM     22  C   UNL     1      -0.418   1.487   3.238  1.00  0.00     0.023 C 
BRANCH  22  23
ATOM     23  C   UNL     1      -0.434   0.773   4.574  1.00  0.00     0.023 C 
BRANCH  23  24
ATOM     24  C   UNL     1       0.177   1.544   5.726  1.00  0.00     0.116 C 
BRANCH  24  25
ATOM     25  N   UNL     1      -0.309   2.910   5.884  1.00  0.00    -0.352 N 
ATOM     26  C   UNL     1      -0.545   3.609   7.052  1.00  0.00     0.251 C 
ATOM     27  H   UNL     1      -0.494   3.397   5.049  1.00  0.00     0.163 HD
ATOM     28  O   UNL     1      -0.984   4.747   7.015  1.00  0.00    -0.269 OA
BRANCH  26  29
ATOM     29  C   UNL     1      -0.305   2.932   8.347  1.00  0.00     0.039 A 
ATOM     30  C   UNL     1      -1.286   2.994   9.339  1.00  0.00     0.014 A 
ATOM     31  C   UNL     1       0.836   2.154   8.534  1.00  0.00     0.014 A 
ATOM     32  C   UNL     1      -1.156   2.198  10.480  1.00  0.00     0.010 A 
ATOM     33  C   UNL     1       0.890   1.263   9.594  1.00  0.00     0.010 A 
ATOM     34  C   UNL     1      -0.092   1.288  10.593  1.00  0.00    -0.014 A 
BRANCH  34  35
ATOM     35  C   UNL     1       0.028   0.364  11.750  1.00  0.00     0.031 A 
ATOM     36  C   UNL     1       1.270   0.388  12.604  1.00  0.00     0.074 A 
ATOM     37  C   UNL     1      -0.930  -0.558  11.975  1.00  0.00     0.049 A 
ATOM     38  N   UNL     1       1.582  -0.366  13.626  1.00  0.00    -0.248 NA
ATOM     39  C   UNL     1       2.325   1.348  12.233  1.00  0.00     0.031 C 
ATOM     40  C   UNL     1      -2.121  -0.769  11.146  1.00  0.00     0.029 A 
ATOM     41  N   UNL     1      -1.046  -1.506  12.961  1.00  0.00    -0.354 N 
ATOM     42  C   UNL     1       2.877  -0.005  13.981  1.00  0.00     0.074 A 
ATOM     43  C   UNL     1       3.317   0.988  13.030  1.00  0.00     0.031 C 
ATOM     44  C   UNL     1      -2.858  -1.759  11.675  1.00  0.00     0.029 A 
ATOM     45  C   UNL     1      -2.188  -2.268  12.867  1.00  0.00     0.049 A 
ATOM     46  H   UNL     1      -0.374  -1.629  13.671  1.00  0.00     0.167 HD
ATOM     47  C   UNL     1       3.618  -0.422  15.034  1.00  0.00     0.034 A 
ATOM     48  C   UNL     1      -2.649  -3.253  13.662  1.00  0.00     0.034 A 
ATOM     49  C   UNL     1       3.140  -1.344  16.026  1.00  0.00     0.049 A 
ATOM     50  C   UNL     1      -1.863  -3.614  14.895  1.00  0.00     0.074 A 
ATOM     51  C   UNL     1       3.758  -1.751  17.194  1.00  0.00     0.029 A 
ATOM     52  N   UNL     1       1.917  -1.994  15.970  1.00  0.00    -0.354 N 
ATOM     53  N   UNL     1      -0.717  -3.132  15.312  1.00  0.00    -0.248 NA
ATOM     54  C   UNL     1      -2.454  -4.617  15.791  1.00  0.00     0.031 C 
ATOM     55  C   UNL     1       2.910  -2.655  17.842  1.00  0.00     0.029 A 
ATOM     56  C   UNL     1       1.756  -2.795  17.086  1.00  0.00     0.049 A 
ATOM     57  H   UNL     1       1.260  -1.900  15.243  1.00  0.00     0.167 HD
ATOM     58  C   UNL     1      -0.470  -3.740  16.538  1.00  0.00     0.074 A 
ATOM     59  C   UNL     1      -1.597  -4.612  16.803  1.00  0.00     0.031 C 
ATOM     60  C   UNL     1       0.598  -3.603  17.362  1.00  0.00     0.034 A 
BRANCH  47  61
ATOM     61  C   UNL     1       4.987   0.182  15.207  1.00  0.00     0.023 A 
ATOM     62  C   UNL     1       5.106   1.539  15.574  1.00  0.00     0.012 A 
ATOM     63  C   UNL     1       6.152  -0.593  15.045  1.00  0.00     0.148 A 
ATOM     64  C   UNL     1       6.359   2.128  15.732  1.00  0.00     0.002 A 
ATOM     65  C   UNL     1       7.398  -0.011  15.252  1.00  0.00     0.091 A 
ATOM     66  F   UNL     1       6.022  -1.874  14.673  1.00  0.00    -0.205 F 
ATOM     67  C   UNL     1       7.504   1.351  15.582  1.00  0.00     0.022 A 
BRANCH  65  68
ATOM     68  S   UNL     1       8.929  -0.946  15.165  1.00  0.00     0.127 S 
ATOM     69  O   UNL     1       9.513  -0.440  13.923  1.00  0.00    -0.237 OA
ATOM     70  O   UNL     1       9.621  -0.518  16.381  1.00  0.00    -0.237 OA
ATOM     71  O   UNL     1       8.542  -2.349  15.149  1.00  0.00    -0.744 OA
ENDBRANCH  65  68
ENDBRANCH  47  61
BRANCH  48  72
ATOM     72  C   UNL     1      -3.971  -3.882  13.382  1.00  0.00     0.023 A 
ATOM     73  C   UNL     1      -5.062  -3.596  14.226  1.00  0.00     0.012 A 
ATOM     74  C   UNL     1      -4.167  -4.728  12.274  1.00  0.00     0.148 A 
ATOM     75  C   UNL     1      -6.314  -4.167  13.994  1.00  0.00     0.002 A 
ATOM     76  C   UNL     1      -5.430  -5.252  12.017  1.00  0.00     0.091 A 
ATOM     77  F   UNL     1      -3.116  -4.997  11.486  1.00  0.00    -0.205 F 
ATOM     78  C   UNL     1      -6.500  -4.987  12.885  1.00  0.00     0.022 A 
BRANCH  76  79
ATOM     79  S   UNL     1      -5.791  -6.209  10.540  1.00  0.00     0.127 S 
ATOM     80  O   UNL     1      -5.926  -7.558  11.082  1.00  0.00    -0.237 OA
ATOM     81  O   UNL     1      -7.042  -5.602  10.082  1.00  0.00    -0.237 OA
ATOM     82  O   UNL     1      -4.660  -5.992   9.648  1.00  0.00    -0.744 OA
ENDBRANCH  76  79
ENDBRANCH  48  72
BRANCH  60  83
ATOM     83  C   UNL     1       0.587  -4.375  18.653  1.00  0.00     0.023 A 
ATOM     84  C   UNL     1       0.794  -5.768  18.638  1.00  0.00     0.012 A 
ATOM     85  C   UNL     1       0.453  -3.706  19.885  1.00  0.00     0.148 A 
ATOM     86  C   UNL     1       0.836  -6.489  19.831  1.00  0.00     0.002 A 
ATOM     87  C   UNL     1       0.544  -4.424  21.071  1.00  0.00     0.091 A 
ATOM     88  F   UNL     1       0.235  -2.383  19.876  1.00  0.00    -0.205 F 
ATOM     89  C   UNL     1       0.724  -5.816  21.046  1.00  0.00     0.022 A 
BRANCH  87  90
ATOM     90  S   UNL     1       0.512  -3.621  22.677  1.00  0.00     0.127 S 
ATOM     91  O   UNL     1      -0.846  -3.915  23.130  1.00  0.00    -0.237 OA
ATOM     92  O   UNL     1       1.565  -4.332  23.404  1.00  0.00    -0.237 OA
ATOM     93  O   UNL     1       0.801  -2.216  22.424  1.00  0.00    -0.744 OA
ENDBRANCH  87  90
ENDBRANCH  60  83
ENDBRANCH  34  35
ENDBRANCH  26  29
ENDBRANCH  24  25
ENDBRANCH  23  24
ENDBRANCH  22  23
ENDBRANCH   1  22
TORSDOF 19
