REMARK SMILES C[C@@H](C(=O)NCCCCNC(=O)c1ccc(-c2c3nc(c(-c4cccc(S(=O)(=O)[O-])c4F)c4ccc([nH]4)c(-c4cccc(S(=O)(=O)[O-])c4F)c4nc(c(-c5cccc(S(=O)(=O)[O-])c5F)c5ccc2[nH]5)C=C4)C=C3)cc1)c1ccc(O[C@H]2CCCC2=O)cc1F
REMARK SMILES IDX 7 1 6 2 5 3 3 4 4 5 2 7 1 8 76 9 77 10 88 11 78 12 87 13
REMARK SMILES IDX 89 14 79 15 80 16 81 17 82 18 85 19 83 20 84 21 86 22 8 23
REMARK SMILES IDX 9 24 10 25 11 26 12 28 13 29 14 30 75 31 15 32 74 33 16 34
REMARK SMILES IDX 17 35 18 36 68 37 19 38 73 39 67 40 69 41 20 42 72 43 66 44
REMARK SMILES IDX 65 45 21 47 53 48 33 49 52 50 34 51 37 52 51 53 70 54 35 55
REMARK SMILES IDX 36 56 50 58 71 59 38 60 22 61 23 62 31 63 24 64 26 65 32 66
REMARK SMILES IDX 25 67 27 68 28 69 29 70 30 71 54 72 55 73 63 74 56 75 58 76
REMARK SMILES IDX 64 77 57 78 59 79 60 80 61 81 62 82 39 83 40 84 48 85 41 86
REMARK SMILES IDX 43 87 49 88 42 89 44 90 45 91 46 92 47 93
REMARK H PARENT 5 6 10 27 69 46 37 57
REMARK Flexibility Score: inf
ROOT
ATOM      1  C   UNL     1       4.327   1.221   0.060  1.00  0.00     0.023 C 
ENDROOT
BRANCH   1   2
ATOM      2  C   UNL     1       3.513   1.064   1.347  1.00  0.00     0.116 C 
BRANCH   2   3
ATOM      3  N   UNL     1       2.527   2.116   1.487  1.00  0.00    -0.356 N 
ATOM      4  C   UNL     1       1.171   2.102   1.329  1.00  0.00     0.227 C 
ATOM      5  O   UNL     1       0.613   3.192   1.457  1.00  0.00    -0.274 OA
ATOM      6  H   UNL     1       2.898   2.992   1.739  1.00  0.00     0.163 HD
BRANCH   4   7
ATOM      7  C   UNL     1       0.439   0.781   1.030  1.00  0.00     0.108 C 
ATOM      8  C   UNL     1       0.705   0.313  -0.404  1.00  0.00     0.023 C 
BRANCH   7   9
ATOM      9  C   UNL     1      -1.071   0.752   1.270  1.00  0.00     0.000 A 
ATOM     10  C   UNL     1      -1.912   1.866   1.179  1.00  0.00     0.011 A 
ATOM     11  C   UNL     1      -1.685  -0.485   1.522  1.00  0.00     0.130 A 
ATOM     12  C   UNL     1      -3.292   1.740   1.368  1.00  0.00     0.047 A 
ATOM     13  C   UNL     1      -3.066  -0.622   1.683  1.00  0.00     0.086 A 
ATOM     14  F   UNL     1      -0.932  -1.594   1.586  1.00  0.00    -0.207 F 
ATOM     15  C   UNL     1      -3.881   0.497   1.602  1.00  0.00     0.123 A 
BRANCH  15  16
ATOM     16  O   UNL     1      -5.232   0.541   1.759  1.00  0.00    -0.483 OA
BRANCH  16  17
ATOM     17  C   UNL     1      -6.040  -0.578   1.490  1.00  0.00     0.239 C 
ATOM     18  C   UNL     1      -6.076  -0.995   0.011  1.00  0.00     0.054 C 
ATOM     19  C   UNL     1      -5.926  -1.901   2.238  1.00  0.00     0.173 C 
ATOM     20  C   UNL     1      -5.758  -2.487  -0.037  1.00  0.00     0.012 C 
ATOM     21  C   UNL     1      -6.133  -3.069   1.317  1.00  0.00     0.080 C 
ATOM     22  O   UNL     1      -5.746  -2.018   3.444  1.00  0.00    -0.296 OA
ENDBRANCH  16  17
ENDBRANCH  15  16
ENDBRANCH   7   9
ENDBRANCH   4   7
ENDBRANCH   2   3
ENDBRANCH   1   2
BRANCH   1  23
ATOM     23  C   UNL     1       5.103   2.534  -0.064  1.00  0.00     0.023 C 
BRANCH  23  24
ATOM     24  C   UNL     1       6.056   2.842   1.083  1.00  0.00     0.116 C 
BRANCH  24  25
ATOM     25  N   UNL     1       7.058   1.805   1.276  1.00  0.00    -0.352 N 
ATOM     26  C   UNL     1       8.413   1.935   1.461  1.00  0.00     0.251 C 
ATOM     27  H   UNL     1       6.717   0.881   1.272  1.00  0.00     0.163 HD
ATOM     28  O   UNL     1       9.127   0.935   1.469  1.00  0.00    -0.269 OA
BRANCH  26  29
ATOM     29  C   UNL     1       9.010   3.278   1.622  1.00  0.00     0.039 A 
ATOM     30  C   UNL     1      10.161   3.596   0.896  1.00  0.00     0.014 A 
ATOM     31  C   UNL     1       8.431   4.224   2.472  1.00  0.00     0.014 A 
ATOM     32  C   UNL     1      10.694   4.885   0.974  1.00  0.00     0.010 A 
ATOM     33  C   UNL     1       8.921   5.527   2.492  1.00  0.00     0.010 A 
ATOM     34  C   UNL     1      10.059   5.870   1.747  1.00  0.00    -0.014 A 
BRANCH  34  35
ATOM     35  C   UNL     1      10.561   7.269   1.778  1.00  0.00     0.031 A 
ATOM     36  C   UNL     1      11.053   7.871   3.066  1.00  0.00     0.074 A 
ATOM     37  C   UNL     1      10.488   8.026   0.665  1.00  0.00     0.049 A 
ATOM     38  N   UNL     1      11.475   9.086   3.299  1.00  0.00    -0.248 NA
ATOM     39  C   UNL     1      11.043   7.002   4.255  1.00  0.00     0.031 C 
ATOM     40  C   UNL     1       9.953   7.584  -0.625  1.00  0.00     0.029 A 
ATOM     41  N   UNL     1      10.838   9.335   0.448  1.00  0.00    -0.354 N 
ATOM     42  C   UNL     1      11.745   9.141   4.661  1.00  0.00     0.074 A 
ATOM     43  C   UNL     1      11.407   7.846   5.210  1.00  0.00     0.031 C 
ATOM     44  C   UNL     1      10.014   8.602  -1.498  1.00  0.00     0.029 A 
ATOM     45  C   UNL     1      10.564   9.775  -0.826  1.00  0.00     0.049 A 
ATOM     46  H   UNL     1      11.246   9.906   1.139  1.00  0.00     0.167 HD
ATOM     47  C   UNL     1      12.258  10.164   5.386  1.00  0.00     0.034 A 
ATOM     48  C   UNL     1      10.731  10.989  -1.389  1.00  0.00     0.034 A 
ATOM     49  C   UNL     1      12.635  11.435   4.829  1.00  0.00     0.049 A 
ATOM     50  C   UNL     1      11.340  12.096  -0.573  1.00  0.00     0.074 A 
ATOM     51  C   UNL     1      13.251  12.502   5.459  1.00  0.00     0.029 A 
ATOM     52  N   UNL     1      12.424  11.817   3.513  1.00  0.00    -0.354 N 
ATOM     53  N   UNL     1      11.748  12.075   0.673  1.00  0.00    -0.248 NA
ATOM     54  C   UNL     1      11.548  13.384  -1.251  1.00  0.00     0.031 C 
ATOM     55  C   UNL     1      13.392  13.537   4.529  1.00  0.00     0.029 A 
ATOM     56  C   UNL     1      12.887  13.106   3.313  1.00  0.00     0.049 A 
ATOM     57  H   UNL     1      12.006  11.254   2.822  1.00  0.00     0.167 HD
ATOM     58  C   UNL     1      12.289  13.332   0.918  1.00  0.00     0.074 A 
ATOM     59  C   UNL     1      12.178  14.082  -0.316  1.00  0.00     0.031 C 
ATOM     60  C   UNL     1      12.817  13.825   2.066  1.00  0.00     0.034 A 
BRANCH  47  61
ATOM     61  C   UNL     1      12.492   9.931   6.856  1.00  0.00     0.023 A 
ATOM     62  C   UNL     1      13.529   9.067   7.265  1.00  0.00     0.012 A 
ATOM     63  C   UNL     1      11.726  10.599   7.830  1.00  0.00     0.148 A 
ATOM     64  C   UNL     1      13.775   8.842   8.619  1.00  0.00     0.002 A 
ATOM     65  C   UNL     1      12.008  10.405   9.178  1.00  0.00     0.091 A 
ATOM     66  F   UNL     1      10.731  11.400   7.425  1.00  0.00    -0.205 F 
ATOM     67  C   UNL     1      13.022   9.518   9.574  1.00  0.00     0.022 A 
BRANCH  65  68
ATOM     68  S   UNL     1      11.148  11.290  10.484  1.00  0.00     0.127 S 
ATOM     69  O   UNL     1      10.318  10.233  11.060  1.00  0.00    -0.237 OA
ATOM     70  O   UNL     1      12.253  11.730  11.337  1.00  0.00    -0.237 OA
ATOM     71  O   UNL     1      10.424  12.369   9.827  1.00  0.00    -0.744 OA
ENDBRANCH  65  68
ENDBRANCH  47  61
BRANCH  48  72
ATOM     72  C   UNL     1      10.380  11.197  -2.823  1.00  0.00     0.023 A 
ATOM     73  C   UNL     1      11.411  11.379  -3.765  1.00  0.00     0.012 A 
ATOM     74  C   UNL     1       9.043  11.182  -3.263  1.00  0.00     0.148 A 
ATOM     75  C   UNL     1      11.116  11.573  -5.115  1.00  0.00     0.002 A 
ATOM     76  C   UNL     1       8.758  11.321  -4.616  1.00  0.00     0.091 A 
ATOM     77  F   UNL     1       8.075  11.018  -2.349  1.00  0.00    -0.205 F 
ATOM     78  C   UNL     1       9.792  11.533  -5.542  1.00  0.00     0.022 A 
BRANCH  76  79
ATOM     79  S   UNL     1       7.095  11.152  -5.275  1.00  0.00     0.127 S 
ATOM     80  O   UNL     1       6.793  12.523  -5.679  1.00  0.00    -0.237 OA
ATOM     81  O   UNL     1       7.302  10.215  -6.380  1.00  0.00    -0.237 OA
ATOM     82  O   UNL     1       6.292  10.622  -4.182  1.00  0.00    -0.744 OA
ENDBRANCH  76  79
ENDBRANCH  48  72
BRANCH  60  83
ATOM     83  C   UNL     1      13.347  15.235   2.043  1.00  0.00     0.023 A 
ATOM     84  C   UNL     1      12.450  16.320   1.994  1.00  0.00     0.012 A 
ATOM     85  C   UNL     1      14.730  15.485   2.148  1.00  0.00     0.148 A 
ATOM     86  C   UNL     1      12.922  17.632   2.018  1.00  0.00     0.002 A 
ATOM     87  C   UNL     1      15.190  16.795   2.221  1.00  0.00     0.091 A 
ATOM     88  F   UNL     1      15.569  14.440   2.175  1.00  0.00    -0.205 F 
ATOM     89  C   UNL     1      14.288  17.869   2.144  1.00  0.00     0.022 A 
BRANCH  87  90
ATOM     90  S   UNL     1      16.922  17.194   2.481  1.00  0.00     0.127 S 
ATOM     91  O   UNL     1      17.312  17.699   1.165  1.00  0.00    -0.237 OA
ATOM     92  O   UNL     1      16.852  18.213   3.529  1.00  0.00    -0.237 OA
ATOM     93  O   UNL     1      17.563  15.952   2.889  1.00  0.00    -0.744 OA
ENDBRANCH  87  90
ENDBRANCH  60  83
ENDBRANCH  34  35
ENDBRANCH  26  29
ENDBRANCH  24  25
ENDBRANCH  23  24
ENDBRANCH   1  23
TORSDOF 17
