REMARK SMILES Cn1cncc1COc1c(F)cc(C(=O)NCCCCNC(=O)c2ccc(-c3c4nc(c(-c5cccc(S(=O)(=O)[O-])c5F)c5ccc([nH]5)c(-c5cccc(S(=O)(=O)[O-])c5F)c5nc(c(-c6cccc(S(=O)(=O)[O-])c6F)c6ccc3[nH]6)C=C5)C=C4)cc2)cc1F
REMARK SMILES IDX 18 1 17 2 16 3 14 4 15 5 13 7 9 8 10 9 88 10 11 11 12 12
REMARK SMILES IDX 87 13 89 14 8 15 7 16 6 17 1 18 2 19 3 20 4 21 5 22 19 23
REMARK SMILES IDX 20 24 21 25 22 26 23 28 24 29 25 30 86 31 26 32 85 33 27 34
REMARK SMILES IDX 28 35 29 36 79 37 30 38 84 39 78 40 80 41 31 42 83 43 77 44
REMARK SMILES IDX 76 45 32 47 64 48 44 49 63 50 45 51 48 52 62 53 81 54 46 55
REMARK SMILES IDX 47 56 61 58 82 59 49 60 33 61 34 62 42 63 35 64 37 65 43 66
REMARK SMILES IDX 36 67 38 68 39 69 40 70 41 71 65 72 66 73 74 74 67 75 69 76
REMARK SMILES IDX 75 77 68 78 70 79 71 80 72 81 73 82 50 83 51 84 59 85 52 86
REMARK SMILES IDX 54 87 60 88 53 89 55 90 56 91 57 92 58 93
REMARK H PARENT 16 6 21 27 80 46 48 57
REMARK Flexibility Score: inf
ROOT
ATOM      1  C   UNL     1      -0.588   1.726   6.062  1.00  0.00     0.023 C 
ENDROOT
BRANCH   1   2
ATOM      2  C   UNL     1       0.813   1.107   6.055  1.00  0.00     0.116 C 
BRANCH   2   3
ATOM      3  N   UNL     1       0.860  -0.142   6.797  1.00  0.00    -0.352 N 
ATOM      4  C   UNL     1       0.799  -1.451   6.386  1.00  0.00     0.251 C 
ATOM      5  O   UNL     1       1.021  -2.336   7.212  1.00  0.00    -0.269 OA
ATOM      6  H   UNL     1       0.952  -0.029   7.771  1.00  0.00     0.163 HD
BRANCH   4   7
ATOM      7  C   UNL     1       0.498  -1.855   4.984  1.00  0.00     0.045 A 
ATOM      8  C   UNL     1      -0.062  -2.747   2.365  1.00  0.00     0.191 A 
ATOM      9  C   UNL     1      -0.577  -1.550   2.840  1.00  0.00     0.168 A 
ATOM     10  C   UNL     1       0.678  -3.538   3.239  1.00  0.00     0.168 A 
ATOM     11  F   UNL     1      -1.383  -0.794   2.086  1.00  0.00    -0.203 F 
ATOM     12  C   UNL     1      -0.298  -1.103   4.125  1.00  0.00     0.057 A 
ATOM     13  C   UNL     1       0.960  -3.104   4.537  1.00  0.00     0.057 A 
ATOM     14  F   UNL     1       1.128  -4.737   2.842  1.00  0.00    -0.203 F 
BRANCH   8  15
ATOM     15  O   UNL     1      -0.372  -3.189   1.107  1.00  0.00    -0.481 OA
BRANCH  15  16
ATOM     16  C   UNL     1       0.524  -2.671   0.109  1.00  0.00     0.285 C 
BRANCH  16  17
ATOM     17  C   UNL     1       0.027  -1.348  -0.361  1.00  0.00     0.075 A 
ATOM     18  C   UNL     1       2.164  -0.030  -0.091  1.00  0.00     0.151 C 
ATOM     19  N   UNL     1       0.765  -0.188  -0.401  1.00  0.00    -0.335 N 
ATOM     20  C   UNL     1      -0.064   0.823  -0.798  1.00  0.00     0.199 A 
ATOM     21  N   UNL     1      -1.266   0.378  -1.081  1.00  0.00    -0.245 NA
ATOM     22  C   UNL     1      -1.225  -0.963  -0.805  1.00  0.00     0.138 A 
ENDBRANCH  16  17
ENDBRANCH  15  16
ENDBRANCH   8  15
ENDBRANCH   4   7
ENDBRANCH   2   3
ENDBRANCH   1   2
BRANCH   1  23
ATOM     23  C   UNL     1      -0.921   2.587   7.278  1.00  0.00     0.023 C 
BRANCH  23  24
ATOM     24  C   UNL     1      -0.051   3.823   7.456  1.00  0.00     0.116 C 
BRANCH  24  25
ATOM     25  N   UNL     1      -0.052   4.712   6.305  1.00  0.00    -0.352 N 
ATOM     26  C   UNL     1       0.132   6.077   6.282  1.00  0.00     0.251 C 
ATOM     27  H   UNL     1      -0.203   4.284   5.431  1.00  0.00     0.163 HD
ATOM     28  O   UNL     1       0.020   6.695   5.234  1.00  0.00    -0.269 OA
BRANCH  26  29
ATOM     29  C   UNL     1       0.422   6.787   7.548  1.00  0.00     0.039 A 
ATOM     30  C   UNL     1      -0.315   7.933   7.857  1.00  0.00     0.014 A 
ATOM     31  C   UNL     1       1.387   6.308   8.437  1.00  0.00     0.014 A 
ATOM     32  C   UNL     1      -0.120   8.566   9.086  1.00  0.00     0.010 A 
ATOM     33  C   UNL     1       1.520   6.891   9.693  1.00  0.00     0.010 A 
ATOM     34  C   UNL     1       0.779   8.034  10.026  1.00  0.00    -0.014 A 
BRANCH  34  35
ATOM     35  C   UNL     1       0.955   8.665  11.358  1.00  0.00     0.031 A 
ATOM     36  C   UNL     1       2.285   9.249  11.753  1.00  0.00     0.074 A 
ATOM     37  C   UNL     1      -0.065   8.653  12.240  1.00  0.00     0.049 A 
ATOM     38  N   UNL     1       2.624   9.844  12.867  1.00  0.00    -0.248 NA
ATOM     39  C   UNL     1       3.386   9.122  10.784  1.00  0.00     0.031 C 
ATOM     40  C   UNL     1      -1.371   8.028  12.016  1.00  0.00     0.029 A 
ATOM     41  N   UNL     1      -0.156   9.164  13.510  1.00  0.00    -0.354 N 
ATOM     42  C   UNL     1       3.978  10.133  12.747  1.00  0.00     0.074 A 
ATOM     43  C   UNL     1       4.410   9.608  11.470  1.00  0.00     0.031 C 
ATOM     44  C   UNL     1      -2.136   8.206  13.105  1.00  0.00     0.029 A 
ATOM     45  C   UNL     1      -1.373   8.941  14.109  1.00  0.00     0.049 A 
ATOM     46  H   UNL     1       0.581   9.646  13.950  1.00  0.00     0.167 HD
ATOM     47  C   UNL     1       4.784  10.806  13.602  1.00  0.00     0.034 A 
ATOM     48  C   UNL     1      -1.827   9.298  15.327  1.00  0.00     0.034 A 
ATOM     49  C   UNL     1       4.339  11.371  14.847  1.00  0.00     0.049 A 
ATOM     50  C   UNL     1      -0.935  10.111  16.227  1.00  0.00     0.074 A 
ATOM     51  C   UNL     1       5.050  12.153  15.741  1.00  0.00     0.029 A 
ATOM     52  N   UNL     1       3.068  11.213  15.377  1.00  0.00    -0.354 N 
ATOM     53  N   UNL     1       0.289  10.530  16.017  1.00  0.00    -0.248 NA
ATOM     54  C   UNL     1      -1.505  10.540  17.512  1.00  0.00     0.031 C 
ATOM     55  C   UNL     1       4.211  12.454  16.820  1.00  0.00     0.029 A 
ATOM     56  C   UNL     1       2.973  11.879  16.587  1.00  0.00     0.049 A 
ATOM     57  H   UNL     1       2.340  10.703  14.955  1.00  0.00     0.167 HD
ATOM     58  C   UNL     1       0.624  11.299  17.126  1.00  0.00     0.074 A 
ATOM     59  C   UNL     1      -0.538  11.311  17.991  1.00  0.00     0.031 C 
ATOM     60  C   UNL     1       1.793  11.924  17.413  1.00  0.00     0.034 A 
BRANCH  47  61
ATOM     61  C   UNL     1       6.215  11.027  13.185  1.00  0.00     0.023 A 
ATOM     62  C   UNL     1       6.500  11.928  12.138  1.00  0.00     0.012 A 
ATOM     63  C   UNL     1       7.276  10.387  13.853  1.00  0.00     0.148 A 
ATOM     64  C   UNL     1       7.815  12.160  11.737  1.00  0.00     0.002 A 
ATOM     65  C   UNL     1       8.588  10.658  13.478  1.00  0.00     0.091 A 
ATOM     66  F   UNL     1       6.986   9.517  14.831  1.00  0.00    -0.205 F 
ATOM     67  C   UNL     1       8.858  11.534  12.413  1.00  0.00     0.022 A 
BRANCH  65  68
ATOM     68  S   UNL     1      10.005   9.962  14.335  1.00  0.00     0.127 S 
ATOM     69  O   UNL     1      10.506   9.007  13.347  1.00  0.00    -0.237 OA
ATOM     70  O   UNL     1      10.854  11.138  14.531  1.00  0.00    -0.237 OA
ATOM     71  O   UNL     1       9.484   9.378  15.562  1.00  0.00    -0.744 OA
ENDBRANCH  65  68
ENDBRANCH  47  61
BRANCH  48  72
ATOM     72  C   UNL     1      -3.223   8.967  15.728  1.00  0.00     0.023 A 
ATOM     73  C   UNL     1      -4.176  10.001  15.828  1.00  0.00     0.012 A 
ATOM     74  C   UNL     1      -3.619   7.642  15.987  1.00  0.00     0.148 A 
ATOM     75  C   UNL     1      -5.489   9.725  16.212  1.00  0.00     0.002 A 
ATOM     76  C   UNL     1      -4.942   7.367  16.316  1.00  0.00     0.091 A 
ATOM     77  F   UNL     1      -2.696   6.674  15.898  1.00  0.00    -0.205 F 
ATOM     78  C   UNL     1      -5.874   8.408  16.447  1.00  0.00     0.022 A 
BRANCH  76  79
ATOM     79  S   UNL     1      -5.556   5.689  16.506  1.00  0.00     0.127 S 
ATOM     80  O   UNL     1      -5.750   5.604  17.951  1.00  0.00    -0.237 OA
ATOM     81  O   UNL     1      -6.789   5.727  15.719  1.00  0.00    -0.237 OA
ATOM     82  O   UNL     1      -4.519   4.829  15.953  1.00  0.00    -0.744 OA
ENDBRANCH  76  79
ENDBRANCH  48  72
BRANCH  60  83
ATOM     83  C   UNL     1       1.868  12.699  18.702  1.00  0.00     0.023 A 
ATOM     84  C   UNL     1       1.911  12.011  19.931  1.00  0.00     0.012 A 
ATOM     85  C   UNL     1       1.950  14.106  18.695  1.00  0.00     0.148 A 
ATOM     86  C   UNL     1       1.993  12.711  21.134  1.00  0.00     0.002 A 
ATOM     87  C   UNL     1       2.082  14.794  19.895  1.00  0.00     0.091 A 
ATOM     88  F   UNL     1       1.886  14.746  17.518  1.00  0.00    -0.205 F 
ATOM     89  C   UNL     1       2.090  14.101  21.115  1.00  0.00     0.022 A 
BRANCH  87  90
ATOM     90  S   UNL     1       2.310  16.576  19.953  1.00  0.00     0.127 S 
ATOM     91  O   UNL     1       0.976  17.036  20.331  1.00  0.00    -0.237 OA
ATOM     92  O   UNL     1       3.326  16.728  20.995  1.00  0.00    -0.237 OA
ATOM     93  O   UNL     1       2.757  16.960  18.620  1.00  0.00    -0.744 OA
ENDBRANCH  87  90
ENDBRANCH  60  83
ENDBRANCH  34  35
ENDBRANCH  26  29
ENDBRANCH  24  25
ENDBRANCH  23  24
ENDBRANCH   1  23
TORSDOF 17
