REMARK SMILES COc1ccc(CCNc2ncnc3sc(C(=O)NCCCCNC(=O)c4ccc(-c5c6nc(c(-c7cccc(S(=O)(=O)[O-])c7F)c7ccc([nH]7)c(-c7cccc(S(=O)(=O)[O-])c7F)c7nc(c(-c8cccc(S(=O)(=O)[O-])c8F)c8ccc5[nH]8)C=C7)C=C6)cc4)c(C)c23)cc1OC
REMARK SMILES IDX 20 1 19 2 17 3 18 4 16 6 10 7 11 8 92 9 12 10 14 11 90 12
REMARK SMILES IDX 13 13 15 14 91 15 9 16 8 18 7 19 6 20 3 21 4 22 94 23 5 24
REMARK SMILES IDX 93 25 2 26 1 27 95 28 96 29 21 30 22 31 23 32 24 33 25 34
REMARK SMILES IDX 26 36 27 37 28 38 89 39 29 40 88 41 30 42 31 43 32 44 82 45
REMARK SMILES IDX 33 46 87 47 81 48 83 49 34 50 86 51 80 52 79 53 35 55 67 56
REMARK SMILES IDX 47 57 66 58 48 59 51 60 65 61 84 62 49 63 50 64 64 66 85 67
REMARK SMILES IDX 52 68 36 69 37 70 45 71 38 72 40 73 46 74 39 75 41 76 42 77
REMARK SMILES IDX 43 78 44 79 68 80 69 81 77 82 70 83 72 84 78 85 71 86 73 87
REMARK SMILES IDX 74 88 75 89 76 90 53 91 54 92 62 93 55 94 57 95 63 96 56 97
REMARK SMILES IDX 58 98 59 99 60 100 61 101
REMARK H PARENT 19 5 9 17 24 35 83 54 51 65
REMARK Flexibility Score: inf
ROOT
ATOM      1  C   UNL     1      -6.675  -4.952  -8.173  1.00  0.00     0.116 C 
ENDROOT
BRANCH   1   2
ATOM      2  N   UNL     1      -6.215  -4.081  -7.119  1.00  0.00    -0.351 N 
ATOM      3  C   UNL     1      -5.233  -4.202  -6.170  1.00  0.00     0.261 C 
ATOM      4  O   UNL     1      -5.324  -3.378  -5.255  1.00  0.00    -0.268 OA
ATOM      5  H   UNL     1      -6.705  -3.229  -7.071  1.00  0.00     0.163 HD
BRANCH   3   6
ATOM      6  C   UNL     1      -4.143  -5.183  -6.228  1.00  0.00     0.098 A 
ATOM      7  C   UNL     1      -0.636  -6.447  -5.612  1.00  0.00     0.138 A 
ATOM      8  N   UNL     1      -0.045  -7.501  -6.216  1.00  0.00    -0.219 NA
ATOM      9  C   UNL     1      -1.990  -6.157  -5.926  1.00  0.00     0.057 A 
ATOM     10  C   UNL     1      -0.783  -8.282  -7.018  1.00  0.00     0.225 A 
ATOM     11  C   UNL     1      -2.623  -7.069  -6.750  1.00  0.00     0.129 A 
ATOM     12  C   UNL     1      -2.891  -5.049  -5.620  1.00  0.00    -0.014 A 
ATOM     13  N   UNL     1      -2.080  -8.163  -7.308  1.00  0.00    -0.225 NA
ATOM     14  S   UNL     1      -4.256  -6.703  -6.997  1.00  0.00    -0.110 S 
ATOM     15  C   UNL     1      -2.470  -3.861  -4.821  1.00  0.00     0.047 C 
BRANCH   7  16
ATOM     16  N   UNL     1       0.083  -5.722  -4.691  1.00  0.00    -0.369 N 
ATOM     17  H   UNL     1      -0.392  -5.355  -3.910  1.00  0.00     0.162 HD
BRANCH  16  18
ATOM     18  C   UNL     1       1.508  -5.471  -4.811  1.00  0.00     0.119 C 
BRANCH  18  19
ATOM     19  C   UNL     1       1.809  -3.954  -4.830  1.00  0.00     0.057 C 
BRANCH  19  20
ATOM     20  C   UNL     1       1.677  -3.239  -3.497  1.00  0.00    -0.042 A 
ATOM     21  C   UNL     1       1.394  -1.857  -1.046  1.00  0.00     0.160 A 
ATOM     22  C   UNL     1       0.276  -2.363  -1.701  1.00  0.00     0.051 A 
ATOM     23  C   UNL     1       2.668  -2.040  -1.602  1.00  0.00     0.160 A 
ATOM     24  C   UNL     1       0.427  -3.018  -2.919  1.00  0.00     0.008 A 
ATOM     25  C   UNL     1       2.795  -2.734  -2.822  1.00  0.00     0.054 A 
BRANCH  21  26
ATOM     26  O   UNL     1       1.211  -1.256   0.170  1.00  0.00    -0.493 OA
ATOM     27  C   UNL     1       0.482  -0.031   0.053  1.00  0.00     0.278 C 
ENDBRANCH  21  26
BRANCH  23  28
ATOM     28  O   UNL     1       3.870  -1.624  -1.091  1.00  0.00    -0.493 OA
ATOM     29  C   UNL     1       3.836  -0.622  -0.086  1.00  0.00     0.278 C 
ENDBRANCH  23  28
ENDBRANCH  19  20
ENDBRANCH  18  19
ENDBRANCH  16  18
ENDBRANCH   7  16
ENDBRANCH   3   6
ENDBRANCH   1   2
BRANCH   1  30
ATOM     30  C   UNL     1      -7.697  -5.954  -7.628  1.00  0.00     0.023 C 
BRANCH  30  31
ATOM     31  C   UNL     1      -9.076  -5.356  -7.306  1.00  0.00     0.023 C 
BRANCH  31  32
ATOM     32  C   UNL     1      -9.838  -4.829  -8.517  1.00  0.00     0.116 C 
BRANCH  32  33
ATOM     33  N   UNL     1     -10.060  -5.860  -9.533  1.00  0.00    -0.352 N 
ATOM     34  C   UNL     1     -10.444  -5.697 -10.853  1.00  0.00     0.251 C 
ATOM     35  H   UNL     1      -9.919  -6.789  -9.239  1.00  0.00     0.163 HD
ATOM     36  O   UNL     1     -10.944  -6.611 -11.484  1.00  0.00    -0.269 OA
BRANCH  34  37
ATOM     37  C   UNL     1     -10.206  -4.388 -11.484  1.00  0.00     0.039 A 
ATOM     38  C   UNL     1     -11.181  -3.751 -12.254  1.00  0.00     0.014 A 
ATOM     39  C   UNL     1      -8.979  -3.783 -11.236  1.00  0.00     0.014 A 
ATOM     40  C   UNL     1     -10.937  -2.453 -12.698  1.00  0.00     0.010 A 
ATOM     41  C   UNL     1      -8.808  -2.457 -11.527  1.00  0.00     0.010 A 
ATOM     42  C   UNL     1      -9.754  -1.806 -12.311  1.00  0.00    -0.014 A 
BRANCH  42  43
ATOM     43  C   UNL     1      -9.526  -0.399 -12.615  1.00  0.00     0.031 A 
ATOM     44  C   UNL     1     -10.567   0.527 -12.091  1.00  0.00     0.074 A 
ATOM     45  C   UNL     1      -8.346   0.042 -13.106  1.00  0.00     0.049 A 
ATOM     46  N   UNL     1     -11.418   1.222 -12.771  1.00  0.00    -0.248 NA
ATOM     47  C   UNL     1     -10.793   0.571 -10.637  1.00  0.00     0.031 C 
ATOM     48  C   UNL     1      -7.124  -0.739 -13.350  1.00  0.00     0.029 A 
ATOM     49  N   UNL     1      -7.933   1.317 -13.339  1.00  0.00    -0.354 N 
ATOM     50  C   UNL     1     -12.112   1.987 -11.834  1.00  0.00     0.074 A 
ATOM     51  C   UNL     1     -11.852   1.380 -10.556  1.00  0.00     0.031 C 
ATOM     52  C   UNL     1      -6.064   0.093 -13.424  1.00  0.00     0.029 A 
ATOM     53  C   UNL     1      -6.551   1.458 -13.424  1.00  0.00     0.049 A 
ATOM     54  H   UNL     1      -8.556   2.072 -13.438  1.00  0.00     0.167 HD
ATOM     55  C   UNL     1     -12.611   3.213 -12.158  1.00  0.00     0.034 A 
ATOM     56  C   UNL     1      -5.852   2.618 -13.447  1.00  0.00     0.034 A 
ATOM     57  C   UNL     1     -12.591   3.415 -13.587  1.00  0.00     0.049 A 
ATOM     58  C   UNL     1      -6.792   3.679 -13.867  1.00  0.00     0.074 A 
ATOM     59  C   UNL     1     -13.148   2.787 -14.681  1.00  0.00     0.029 A 
ATOM     60  N   UNL     1     -11.566   4.192 -14.073  1.00  0.00    -0.354 N 
ATOM     61  N   UNL     1      -7.342   3.721 -15.048  1.00  0.00    -0.248 NA
ATOM     62  C   UNL     1      -7.464   4.447 -12.833  1.00  0.00     0.031 C 
ATOM     63  C   UNL     1     -12.146   2.858 -15.694  1.00  0.00     0.029 A 
ATOM     64  C   UNL     1     -11.064   3.583 -15.189  1.00  0.00     0.049 A 
ATOM     65  H   UNL     1     -11.250   5.039 -13.685  1.00  0.00     0.167 HD
ATOM     66  C   UNL     1      -8.653   4.107 -14.799  1.00  0.00     0.074 A 
ATOM     67  C   UNL     1      -8.630   4.665 -13.448  1.00  0.00     0.031 C 
ATOM     68  C   UNL     1      -9.675   3.663 -15.590  1.00  0.00     0.034 A 
BRANCH  55  69
ATOM     69  C   UNL     1     -12.734   4.402 -11.221  1.00  0.00     0.023 A 
ATOM     70  C   UNL     1     -13.345   5.566 -11.747  1.00  0.00     0.012 A 
ATOM     71  C   UNL     1     -12.042   4.549  -9.997  1.00  0.00     0.148 A 
ATOM     72  C   UNL     1     -13.198   6.819 -11.141  1.00  0.00     0.002 A 
ATOM     73  C   UNL     1     -11.961   5.784  -9.359  1.00  0.00     0.091 A 
ATOM     74  F   UNL     1     -11.343   3.533  -9.491  1.00  0.00    -0.205 F 
ATOM     75  C   UNL     1     -12.504   6.928  -9.945  1.00  0.00     0.022 A 
BRANCH  73  76
ATOM     76  S   UNL     1     -11.108   5.979  -7.787  1.00  0.00     0.127 S 
ATOM     77  O   UNL     1      -9.901   6.689  -8.197  1.00  0.00    -0.237 OA
ATOM     78  O   UNL     1     -12.070   6.777  -7.025  1.00  0.00    -0.237 OA
ATOM     79  O   UNL     1     -10.915   4.628  -7.275  1.00  0.00    -0.744 OA
ENDBRANCH  73  76
ENDBRANCH  55  69
BRANCH  56  80
ATOM     80  C   UNL     1      -4.509   2.919 -12.904  1.00  0.00     0.023 A 
ATOM     81  C   UNL     1      -3.782   4.021 -13.397  1.00  0.00     0.012 A 
ATOM     82  C   UNL     1      -4.061   2.301 -11.715  1.00  0.00     0.148 A 
ATOM     83  C   UNL     1      -2.664   4.511 -12.710  1.00  0.00     0.002 A 
ATOM     84  C   UNL     1      -2.947   2.788 -11.038  1.00  0.00     0.091 A 
ATOM     85  F   UNL     1      -4.782   1.294 -11.203  1.00  0.00    -0.205 F 
ATOM     86  C   UNL     1      -2.252   3.902 -11.527  1.00  0.00     0.022 A 
BRANCH  84  87
ATOM     87  S   UNL     1      -2.374   2.074  -9.490  1.00  0.00     0.127 S 
ATOM     88  O   UNL     1      -0.953   1.859  -9.765  1.00  0.00    -0.237 OA
ATOM     89  O   UNL     1      -2.658   3.145  -8.539  1.00  0.00    -0.237 OA
ATOM     90  O   UNL     1      -3.142   0.849  -9.307  1.00  0.00    -0.744 OA
ENDBRANCH  84  87
ENDBRANCH  56  80
BRANCH  68  91
ATOM     91  C   UNL     1      -9.320   2.974 -16.885  1.00  0.00     0.023 A 
ATOM     92  C   UNL     1      -8.644   1.736 -16.927  1.00  0.00     0.012 A 
ATOM     93  C   UNL     1      -9.839   3.503 -18.077  1.00  0.00     0.148 A 
ATOM     94  C   UNL     1      -8.475   1.051 -18.134  1.00  0.00     0.002 A 
ATOM     95  C   UNL     1      -9.711   2.798 -19.267  1.00  0.00     0.091 A 
ATOM     96  F   UNL     1     -10.485   4.677 -18.018  1.00  0.00    -0.205 F 
ATOM     97  C   UNL     1      -9.021   1.576 -19.302  1.00  0.00     0.022 A 
BRANCH  95  98
ATOM     98  S   UNL     1     -10.501   3.357 -20.777  1.00  0.00     0.127 S 
ATOM     99  O   UNL     1      -9.363   3.833 -21.559  1.00  0.00    -0.237 OA
ATOM    100  O   UNL     1     -11.120   2.129 -21.280  1.00  0.00    -0.237 OA
ATOM    101  O   UNL     1     -11.457   4.381 -20.375  1.00  0.00    -0.744 OA
ENDBRANCH  95  98
ENDBRANCH  68  91
ENDBRANCH  42  43
ENDBRANCH  34  37
ENDBRANCH  32  33
ENDBRANCH  31  32
ENDBRANCH  30  31
ENDBRANCH   1  30
TORSDOF 20
