REMARK SMILES CCCC[C@@H](Sc1nc(OCCC2CCCCC2)cc(OCCC2CCCCC2)n1)C(=O)NCCCCNC(=O)c1ccc(-c2c3nc(c(-c4cccc(S(=O)(=O)[O-])c4F)c4ccc([nH]4)c(-c4cccc(S(=O)(=O)[O-])c4F)c4nc(c(-c5cccc(S(=O)(=O)[O-])c5F)c5ccc2[nH]5)C=C4)C=C3)cc1
REMARK SMILES IDX 34 1 33 2 31 3 32 4 5 6 4 7 3 8 2 9 1 10 6 11 7 12 8 13
REMARK SMILES IDX 30 14 9 15 20 16 19 17 10 18 11 19 12 20 13 21 14 22 18 23
REMARK SMILES IDX 15 24 17 25 16 26 21 27 22 28 23 29 24 30 25 31 29 32 26 33
REMARK SMILES IDX 28 34 27 35 35 36 36 37 37 38 38 39 39 40 40 42 41 43 42 44
REMARK SMILES IDX 103 45 43 46 102 47 44 48 45 49 46 50 96 51 47 52 101 53
REMARK SMILES IDX 95 54 97 55 48 56 100 57 94 58 93 59 49 61 81 62 61 63 80 64
REMARK SMILES IDX 62 65 65 66 79 67 98 68 63 69 64 70 78 72 99 73 66 74 50 75
REMARK SMILES IDX 51 76 59 77 52 78 54 79 60 80 53 81 55 82 56 83 57 84 58 85
REMARK SMILES IDX 82 86 83 87 91 88 84 89 86 90 92 91 85 92 87 93 88 94 89 95
REMARK SMILES IDX 90 96 67 97 68 98 76 99 69 100 71 101 77 102 70 103 72 104
REMARK SMILES IDX 73 105 74 106 75 107
REMARK H PARENT 33 5 38 41 97 60 65 71
REMARK Flexibility Score: inf
ROOT
ATOM      1  C   UNL     1      -0.511   3.776  -4.535  1.00  0.00     0.116 C 
ENDROOT
BRANCH   1   2
ATOM      2  N   UNL     1      -1.214   2.499  -4.535  1.00  0.00    -0.355 N 
ATOM      3  C   UNL     1      -1.517   1.644  -3.505  1.00  0.00     0.233 C 
ATOM      4  O   UNL     1      -2.159   0.624  -3.768  1.00  0.00    -0.274 OA
ATOM      5  H   UNL     1      -1.522   2.201  -5.421  1.00  0.00     0.163 HD
BRANCH   3   6
ATOM      6  C   UNL     1      -1.082   1.948  -2.052  1.00  0.00     0.144 C 
BRANCH   6   7
ATOM      7  C   UNL     1       0.469   2.021  -2.064  1.00  0.00     0.025 C 
BRANCH   7   8
ATOM      8  C   UNL     1       1.317   1.887  -0.802  1.00  0.00     0.001 C 
BRANCH   8   9
ATOM      9  C   UNL     1       0.970   0.756   0.158  1.00  0.00    -0.003 C 
ATOM     10  C   UNL     1       1.328  -0.610  -0.394  1.00  0.00     0.004 C 
ENDBRANCH   8   9
ENDBRANCH   7   8
ENDBRANCH   6   7
BRANCH   6  11
ATOM     11  S   UNL     1      -2.240   3.333  -1.581  1.00  0.00    -0.073 SA
BRANCH  11  12
ATOM     12  C   UNL     1      -2.003   3.579   0.146  1.00  0.00     0.195 A 
ATOM     13  N   UNL     1      -2.834   4.467   0.729  1.00  0.00    -0.187 NA
ATOM     14  N   UNL     1      -0.816   3.227   0.628  1.00  0.00    -0.187 NA
ATOM     15  C   UNL     1      -2.309   5.223   1.696  1.00  0.00     0.221 A 
ATOM     16  C   UNL     1      -0.315   4.026   1.558  1.00  0.00     0.221 A 
ATOM     17  C   UNL     1      -0.983   5.133   1.994  1.00  0.00     0.136 A 
BRANCH  15  18
ATOM     18  O   UNL     1      -3.191   6.056   2.338  1.00  0.00    -0.477 OA
BRANCH  18  19
ATOM     19  C   UNL     1      -2.705   6.973   3.326  1.00  0.00     0.231 C 
BRANCH  19  20
ATOM     20  C   UNL     1      -2.778   6.491   4.797  1.00  0.00     0.045 C 
BRANCH  20  21
ATOM     21  C   UNL     1      -2.182   5.103   5.087  1.00  0.00    -0.008 C 
ATOM     22  C   UNL     1      -1.468   5.000   6.444  1.00  0.00     0.004 C 
ATOM     23  C   UNL     1      -3.228   3.990   4.986  1.00  0.00     0.004 C 
ATOM     24  C   UNL     1      -0.774   3.640   6.591  1.00  0.00     0.000 C 
ATOM     25  C   UNL     1      -2.540   2.630   5.024  1.00  0.00     0.000 C 
ATOM     26  C   UNL     1      -1.683   2.450   6.277  1.00  0.00     0.000 C 
ENDBRANCH  20  21
ENDBRANCH  19  20
ENDBRANCH  18  19
ENDBRANCH  15  18
BRANCH  16  27
ATOM     27  O   UNL     1       1.009   3.838   1.867  1.00  0.00    -0.477 OA
BRANCH  27  28
ATOM     28  C   UNL     1       1.222   3.269   3.165  1.00  0.00     0.231 C 
BRANCH  28  29
ATOM     29  C   UNL     1       2.478   3.898   3.822  1.00  0.00     0.045 C 
BRANCH  29  30
ATOM     30  C   UNL     1       2.597   5.408   3.556  1.00  0.00    -0.008 C 
ATOM     31  C   UNL     1       1.433   6.195   4.151  1.00  0.00     0.004 C 
ATOM     32  C   UNL     1       3.860   6.106   4.066  1.00  0.00     0.004 C 
ATOM     33  C   UNL     1       1.343   7.511   3.389  1.00  0.00     0.000 C 
ATOM     34  C   UNL     1       3.887   7.572   3.575  1.00  0.00     0.000 C 
ATOM     35  C   UNL     1       2.566   8.345   3.731  1.00  0.00     0.000 C 
ENDBRANCH  29  30
ENDBRANCH  28  29
ENDBRANCH  27  28
ENDBRANCH  16  27
ENDBRANCH  11  12
ENDBRANCH   6  11
ENDBRANCH   3   6
ENDBRANCH   1   2
BRANCH   1  36
ATOM     36  C   UNL     1       0.877   3.657  -5.170  1.00  0.00     0.023 C 
BRANCH  36  37
ATOM     37  C   UNL     1       0.852   3.490  -6.687  1.00  0.00     0.023 C 
BRANCH  37  38
ATOM     38  C   UNL     1       0.154   4.617  -7.436  1.00  0.00     0.116 C 
BRANCH  38  39
ATOM     39  N   UNL     1       0.763   5.922  -7.204  1.00  0.00    -0.352 N 
ATOM     40  C   UNL     1       0.985   6.920  -8.122  1.00  0.00     0.251 C 
ATOM     41  H   UNL     1       1.048   6.110  -6.280  1.00  0.00     0.163 HD
ATOM     42  O   UNL     1       1.625   7.924  -7.821  1.00  0.00    -0.269 OA
BRANCH  40  43
ATOM     43  C   UNL     1       0.465   6.740  -9.491  1.00  0.00     0.039 A 
ATOM     44  C   UNL     1       1.341   6.844 -10.573  1.00  0.00     0.014 A 
ATOM     45  C   UNL     1      -0.869   6.371  -9.683  1.00  0.00     0.014 A 
ATOM     46  C   UNL     1       0.893   6.504 -11.850  1.00  0.00     0.010 A 
ATOM     47  C   UNL     1      -1.286   5.954 -10.940  1.00  0.00     0.010 A 
ATOM     48  C   UNL     1      -0.412   6.017 -12.036  1.00  0.00    -0.014 A 
BRANCH  48  49
ATOM     49  C   UNL     1      -0.893   5.559 -13.364  1.00  0.00     0.031 A 
ATOM     50  C   UNL     1      -2.062   6.250 -14.011  1.00  0.00     0.074 A 
ATOM     51  C   UNL     1      -0.355   4.461 -13.931  1.00  0.00     0.049 A 
ATOM     52  N   UNL     1      -2.704   5.934 -15.104  1.00  0.00    -0.248 NA
ATOM     53  C   UNL     1      -2.602   7.433 -13.319  1.00  0.00     0.031 C 
ATOM     54  C   UNL     1       0.735   3.662 -13.366  1.00  0.00     0.029 A 
ATOM     55  N   UNL     1      -0.678   3.804 -15.092  1.00  0.00    -0.354 N 
ATOM     56  C   UNL     1      -3.746   6.847 -15.207  1.00  0.00     0.074 A 
ATOM     57  C   UNL     1      -3.671   7.710 -14.050  1.00  0.00     0.031 C 
ATOM     58  C   UNL     1       0.987   2.623 -14.178  1.00  0.00     0.029 A 
ATOM     59  C   UNL     1       0.054   2.657 -15.300  1.00  0.00     0.049 A 
ATOM     60  H   UNL     1      -1.369   4.122 -15.717  1.00  0.00     0.167 HD
ATOM     61  C   UNL     1      -4.668   6.974 -16.191  1.00  0.00     0.034 A 
ATOM     62  C   UNL     1      -0.030   1.728 -16.273  1.00  0.00     0.034 A 
ATOM     63  C   UNL     1      -4.711   6.140 -17.360  1.00  0.00     0.049 A 
ATOM     64  C   UNL     1      -1.046   1.908 -17.370  1.00  0.00     0.074 A 
ATOM     65  C   UNL     1      -5.545   6.245 -18.459  1.00  0.00     0.029 A 
ATOM     66  N   UNL     1      -3.894   5.042 -17.580  1.00  0.00    -0.354 N 
ATOM     67  N   UNL     1      -1.923   2.869 -17.531  1.00  0.00    -0.248 NA
ATOM     68  C   UNL     1      -1.064   0.895 -18.436  1.00  0.00     0.031 C 
ATOM     69  C   UNL     1      -5.254   5.191 -19.329  1.00  0.00     0.029 A 
ATOM     70  C   UNL     1      -4.213   4.452 -18.790  1.00  0.00     0.049 A 
ATOM     71  H   UNL     1      -3.191   4.729 -16.966  1.00  0.00     0.167 HD
ATOM     72  C   UNL     1      -2.567   2.600 -18.734  1.00  0.00     0.074 A 
ATOM     73  C   UNL     1      -1.970   1.393 -19.267  1.00  0.00     0.031 C 
ATOM     74  C   UNL     1      -3.568   3.286 -19.337  1.00  0.00     0.034 A 
BRANCH  61  75
ATOM     75  C   UNL     1      -5.680   8.082 -16.066  1.00  0.00     0.023 A 
ATOM     76  C   UNL     1      -5.270   9.423 -16.216  1.00  0.00     0.012 A 
ATOM     77  C   UNL     1      -7.043   7.795 -15.860  1.00  0.00     0.148 A 
ATOM     78  C   UNL     1      -6.193  10.463 -16.126  1.00  0.00     0.002 A 
ATOM     79  C   UNL     1      -7.965   8.834 -15.821  1.00  0.00     0.091 A 
ATOM     80  F   UNL     1      -7.411   6.516 -15.699  1.00  0.00    -0.205 F 
ATOM     81  C   UNL     1      -7.541  10.168 -15.940  1.00  0.00     0.022 A 
BRANCH  79  82
ATOM     82  S   UNL     1      -9.733   8.556 -15.670  1.00  0.00     0.127 S 
ATOM     83  O   UNL     1      -9.998   9.061 -14.324  1.00  0.00    -0.237 OA
ATOM     84  O   UNL     1     -10.267   9.387 -16.749  1.00  0.00    -0.237 OA
ATOM     85  O   UNL     1      -9.932   7.125 -15.850  1.00  0.00    -0.744 OA
ENDBRANCH  79  82
ENDBRANCH  61  75
BRANCH  62  86
ATOM     86  C   UNL     1       0.909   0.570 -16.284  1.00  0.00     0.023 A 
ATOM     87  C   UNL     1       1.903   0.493 -17.279  1.00  0.00     0.012 A 
ATOM     88  C   UNL     1       0.838  -0.441 -15.306  1.00  0.00     0.148 A 
ATOM     89  C   UNL     1       2.787  -0.586 -17.321  1.00  0.00     0.002 A 
ATOM     90  C   UNL     1       1.757  -1.484 -15.320  1.00  0.00     0.091 A 
ATOM     91  F   UNL     1      -0.120  -0.355 -14.372  1.00  0.00    -0.205 F 
ATOM     92  C   UNL     1       2.720  -1.568 -16.338  1.00  0.00     0.022 A 
BRANCH  90  93
ATOM     93  S   UNL     1       1.831  -2.724 -14.023  1.00  0.00     0.127 S 
ATOM     94  O   UNL     1       1.383  -3.922 -14.728  1.00  0.00    -0.237 OA
ATOM     95  O   UNL     1       3.252  -2.709 -13.674  1.00  0.00    -0.237 OA
ATOM     96  O   UNL     1       0.949  -2.243 -12.968  1.00  0.00    -0.744 OA
ENDBRANCH  90  93
ENDBRANCH  62  86
BRANCH  74  97
ATOM     97  C   UNL     1      -4.059   2.792 -20.672  1.00  0.00     0.023 A 
ATOM     98  C   UNL     1      -4.849   1.629 -20.748  1.00  0.00     0.012 A 
ATOM     99  C   UNL     1      -3.821   3.546 -21.839  1.00  0.00     0.148 A 
ATOM    100  C   UNL     1      -5.378   1.212 -21.969  1.00  0.00     0.002 A 
ATOM    101  C   UNL     1      -4.394   3.153 -23.042  1.00  0.00     0.091 A 
ATOM    102  F   UNL     1      -3.053   4.641 -21.745  1.00  0.00    -0.205 F 
ATOM    103  C   UNL     1      -5.162   1.980 -23.111  1.00  0.00     0.022 A 
BRANCH 101 104
ATOM    104  S   UNL     1      -4.257   4.133 -24.541  1.00  0.00     0.127 S 
ATOM    105  O   UNL     1      -3.417   3.278 -25.379  1.00  0.00    -0.237 OA
ATOM    106  O   UNL     1      -5.652   4.230 -24.974  1.00  0.00    -0.237 OA
ATOM    107  O   UNL     1      -3.655   5.399 -24.145  1.00  0.00    -0.744 OA
ENDBRANCH 101 104
ENDBRANCH  74  97
ENDBRANCH  48  49
ENDBRANCH  40  43
ENDBRANCH  38  39
ENDBRANCH  37  38
ENDBRANCH  36  37
ENDBRANCH   1  36
TORSDOF 27
