REMARK SMILES CC(C)Oc1ccc(/C=C(\NC(=O)c2ccccc2)C(=O)NCCCCNC(=O)c2ccc(-c3c4nc(c(-c5cccc(S(=O)(=O)[O-])c5F)c5ccc([nH]5)c(-c5cccc(S(=O)(=O)[O-])c5F)c5nc(c(-c6cccc(S(=O)(=O)[O-])c6F)c6ccc3[nH]6)C=C5)C=C4)cc2)cc1
REMARK SMILES IDX 24 1 23 2 22 3 20 4 21 5 10 7 9 8 8 9 5 10 6 11 94 12 7 13
REMARK SMILES IDX 93 14 4 15 2 16 1 17 3 18 11 19 12 20 13 22 14 23 15 24
REMARK SMILES IDX 19 25 16 26 18 27 17 28 25 29 26 30 27 31 28 32 29 34 30 35
REMARK SMILES IDX 31 36 92 37 32 38 91 39 33 40 34 41 35 42 85 43 36 44 90 45
REMARK SMILES IDX 84 46 86 47 37 48 89 49 83 50 82 51 38 53 70 54 50 55 69 56
REMARK SMILES IDX 51 57 54 58 68 59 87 60 52 61 53 62 67 64 88 65 55 66 39 67
REMARK SMILES IDX 40 68 48 69 41 70 43 71 49 72 42 73 44 74 45 75 46 76 47 77
REMARK SMILES IDX 71 78 72 79 80 80 73 81 75 82 81 83 74 84 76 85 77 86 78 87
REMARK SMILES IDX 79 88 56 89 57 90 65 91 58 92 60 93 66 94 59 95 61 96 62 97
REMARK SMILES IDX 63 98 64 99
REMARK H PARENT 22 6 11 21 27 33 86 52 54 63
REMARK Flexibility Score: inf
ROOT
ATOM      1  C   UNL     1      -7.884  -3.086   4.683  1.00  0.00     0.023 C 
ENDROOT
BRANCH   1   2
ATOM      2  C   UNL     1      -8.218  -1.833   3.868  1.00  0.00     0.116 C 
BRANCH   2   3
ATOM      3  N   UNL     1      -7.972  -0.491   4.378  1.00  0.00    -0.351 N 
ATOM      4  C   UNL     1      -6.876   0.325   4.253  1.00  0.00     0.267 C 
ATOM      5  O   UNL     1      -7.058   1.514   3.977  1.00  0.00    -0.268 OA
ATOM      6  H   UNL     1      -8.714  -0.106   4.897  1.00  0.00     0.163 HD
BRANCH   4   7
ATOM      7  C   UNL     1      -5.489  -0.195   4.485  1.00  0.00     0.107 C 
ATOM      8  C   UNL     1      -4.611   0.242   3.554  1.00  0.00     0.040 C 
BRANCH   8   9
ATOM      9  C   UNL     1      -3.333  -0.288   3.028  1.00  0.00    -0.023 A 
ATOM     10  C   UNL     1      -1.465  -0.898   1.002  1.00  0.00     0.119 A 
ATOM     11  C   UNL     1      -2.534  -1.754   1.260  1.00  0.00     0.047 A 
ATOM     12  C   UNL     1      -1.284   0.230   1.798  1.00  0.00     0.047 A 
ATOM     13  C   UNL     1      -3.444  -1.469   2.283  1.00  0.00     0.012 A 
ATOM     14  C   UNL     1      -2.216   0.536   2.811  1.00  0.00     0.012 A 
BRANCH  10  15
ATOM     15  O   UNL     1      -0.792  -1.114  -0.167  1.00  0.00    -0.491 OA
BRANCH  15  16
ATOM     16  C   UNL     1       0.615  -1.382  -0.129  1.00  0.00     0.167 C 
ATOM     17  C   UNL     1       1.449  -0.105  -0.145  1.00  0.00     0.052 C 
ATOM     18  C   UNL     1       1.044  -2.367   0.953  1.00  0.00     0.052 C 
ENDBRANCH  15  16
ENDBRANCH  10  15
ENDBRANCH   8   9
BRANCH   7  19
ATOM     19  N   UNL     1      -5.169  -1.030   5.526  1.00  0.00    -0.317 N 
ATOM     20  C   UNL     1      -5.749  -1.315   6.758  1.00  0.00     0.255 C 
ATOM     21  H   UNL     1      -4.344  -1.543   5.365  1.00  0.00     0.170 HD
ATOM     22  O   UNL     1      -5.258  -2.280   7.356  1.00  0.00    -0.269 OA
BRANCH  20  23
ATOM     23  C   UNL     1      -6.891  -0.585   7.430  1.00  0.00     0.040 A 
ATOM     24  C   UNL     1      -7.528  -1.240   8.505  1.00  0.00     0.014 A 
ATOM     25  C   UNL     1      -7.370   0.684   7.104  1.00  0.00     0.014 A 
ATOM     26  C   UNL     1      -8.685  -0.725   9.106  1.00  0.00     0.001 A 
ATOM     27  C   UNL     1      -8.565   1.177   7.654  1.00  0.00     0.001 A 
ATOM     28  C   UNL     1      -9.231   0.465   8.645  1.00  0.00     0.000 A 
ENDBRANCH  20  23
ENDBRANCH   7  19
ENDBRANCH   4   7
ENDBRANCH   2   3
ENDBRANCH   1   2
BRANCH   1  29
ATOM     29  C   UNL     1      -8.587  -3.427   6.008  1.00  0.00     0.023 C 
BRANCH  29  30
ATOM     30  C   UNL     1     -10.019  -2.965   6.278  1.00  0.00     0.116 C 
BRANCH  30  31
ATOM     31  N   UNL     1     -11.010  -3.861   5.702  1.00  0.00    -0.352 N 
ATOM     32  C   UNL     1     -12.205  -4.292   6.238  1.00  0.00     0.251 C 
ATOM     33  H   UNL     1     -10.798  -4.208   4.805  1.00  0.00     0.163 HD
ATOM     34  O   UNL     1     -12.806  -5.219   5.697  1.00  0.00    -0.269 OA
BRANCH  32  35
ATOM     35  C   UNL     1     -12.784  -3.663   7.456  1.00  0.00     0.039 A 
ATOM     36  C   UNL     1     -13.372  -4.478   8.434  1.00  0.00     0.014 A 
ATOM     37  C   UNL     1     -12.839  -2.274   7.598  1.00  0.00     0.014 A 
ATOM     38  C   UNL     1     -13.982  -3.907   9.561  1.00  0.00     0.010 A 
ATOM     39  C   UNL     1     -13.418  -1.708   8.739  1.00  0.00     0.010 A 
ATOM     40  C   UNL     1     -14.005  -2.515   9.729  1.00  0.00    -0.014 A 
BRANCH  40  41
ATOM     41  C   UNL     1     -14.650  -1.876  10.912  1.00  0.00     0.031 A 
ATOM     42  C   UNL     1     -15.886  -1.031  10.739  1.00  0.00     0.074 A 
ATOM     43  C   UNL     1     -14.083  -1.975  12.130  1.00  0.00     0.049 A 
ATOM     44  N   UNL     1     -16.533  -0.316  11.625  1.00  0.00    -0.248 NA
ATOM     45  C   UNL     1     -16.455  -0.967   9.385  1.00  0.00     0.031 C 
ATOM     46  C   UNL     1     -12.874  -2.739  12.438  1.00  0.00     0.029 A 
ATOM     47  N   UNL     1     -14.432  -1.405  13.332  1.00  0.00    -0.354 N 
ATOM     48  C   UNL     1     -17.557   0.318  10.930  1.00  0.00     0.074 A 
ATOM     49  C   UNL     1     -17.430  -0.083   9.544  1.00  0.00     0.031 C 
ATOM     50  C   UNL     1     -12.580  -2.588  13.739  1.00  0.00     0.029 A 
ATOM     51  C   UNL     1     -13.554  -1.689  14.352  1.00  0.00     0.049 A 
ATOM     52  H   UNL     1     -15.234  -0.847  13.450  1.00  0.00     0.167 HD
ATOM     53  C   UNL     1     -18.523   1.147  11.398  1.00  0.00     0.034 A 
ATOM     54  C   UNL     1     -13.525  -1.263  15.632  1.00  0.00     0.034 A 
ATOM     55  C   UNL     1     -18.663   1.527  12.779  1.00  0.00     0.049 A 
ATOM     56  C   UNL     1     -14.599  -0.332  16.129  1.00  0.00     0.074 A 
ATOM     57  C   UNL     1     -19.653   2.298  13.364  1.00  0.00     0.029 A 
ATOM     58  N   UNL     1     -17.779   1.183  13.790  1.00  0.00    -0.354 N 
ATOM     59  N   UNL     1     -15.632   0.156  15.485  1.00  0.00    -0.248 NA
ATOM     60  C   UNL     1     -14.520   0.085  17.538  1.00  0.00     0.031 C 
ATOM     61  C   UNL     1     -19.343   2.456  14.719  1.00  0.00     0.029 A 
ATOM     62  C   UNL     1     -18.187   1.742  14.990  1.00  0.00     0.049 A 
ATOM     63  H   UNL     1     -16.978   0.622  13.673  1.00  0.00     0.167 HD
ATOM     64  C   UNL     1     -16.352   0.893  16.420  1.00  0.00     0.074 A 
ATOM     65  C   UNL     1     -15.637   0.788  17.675  1.00  0.00     0.031 C 
ATOM     66  C   UNL     1     -17.502   1.592  16.249  1.00  0.00     0.034 A 
BRANCH  53  67
ATOM     67  C   UNL     1     -19.517   1.691  10.401  1.00  0.00     0.023 A 
ATOM     68  C   UNL     1     -20.453   0.828   9.795  1.00  0.00     0.012 A 
ATOM     69  C   UNL     1     -19.540   3.063  10.079  1.00  0.00     0.148 A 
ATOM     70  C   UNL     1     -21.354   1.307   8.844  1.00  0.00     0.002 A 
ATOM     71  C   UNL     1     -20.474   3.543   9.168  1.00  0.00     0.091 A 
ATOM     72  F   UNL     1     -18.635   3.871  10.650  1.00  0.00    -0.205 F 
ATOM     73  C   UNL     1     -21.369   2.664   8.537  1.00  0.00     0.022 A 
BRANCH  71  74
ATOM     74  S   UNL     1     -20.627   5.289   8.773  1.00  0.00     0.127 S 
ATOM     75  O   UNL     1     -20.022   5.344   7.443  1.00  0.00    -0.237 OA
ATOM     76  O   UNL     1     -22.077   5.486   8.791  1.00  0.00    -0.237 OA
ATOM     77  O   UNL     1     -19.908   5.999   9.821  1.00  0.00    -0.744 OA
ENDBRANCH  71  74
ENDBRANCH  53  67
BRANCH  54  78
ATOM     78  C   UNL     1     -12.474  -1.774  16.558  1.00  0.00     0.023 A 
ATOM     79  C   UNL     1     -12.838  -2.675  17.578  1.00  0.00     0.012 A 
ATOM     80  C   UNL     1     -11.122  -1.410  16.413  1.00  0.00     0.148 A 
ATOM     81  C   UNL     1     -11.879  -3.188  18.451  1.00  0.00     0.002 A 
ATOM     82  C   UNL     1     -10.163  -1.965  17.253  1.00  0.00     0.091 A 
ATOM     83  F   UNL     1     -10.799  -0.547  15.439  1.00  0.00    -0.205 F 
ATOM     84  C   UNL     1     -10.541  -2.841  18.282  1.00  0.00     0.022 A 
BRANCH  82  85
ATOM     85  S   UNL     1      -8.403  -1.676  17.043  1.00  0.00     0.127 S 
ATOM     86  O   UNL     1      -8.060  -0.993  18.286  1.00  0.00    -0.237 OA
ATOM     87  O   UNL     1      -7.890  -3.040  16.924  1.00  0.00    -0.237 OA
ATOM     88  O   UNL     1      -8.276  -0.872  15.832  1.00  0.00    -0.744 OA
ENDBRANCH  82  85
ENDBRANCH  54  78
BRANCH  66  89
ATOM     89  C   UNL     1     -18.114   2.258  17.456  1.00  0.00     0.023 A 
ATOM     90  C   UNL     1     -17.522   3.409  18.011  1.00  0.00     0.012 A 
ATOM     91  C   UNL     1     -19.337   1.790  17.979  1.00  0.00     0.148 A 
ATOM     92  C   UNL     1     -18.127   4.071  19.081  1.00  0.00     0.002 A 
ATOM     93  C   UNL     1     -19.960   2.484  19.009  1.00  0.00     0.091 A 
ATOM     94  F   UNL     1     -19.875   0.681  17.450  1.00  0.00    -0.205 F 
ATOM     95  C   UNL     1     -19.350   3.618  19.570  1.00  0.00     0.022 A 
BRANCH  93  96
ATOM     96  S   UNL     1     -21.584   2.036  19.632  1.00  0.00     0.127 S 
ATOM     97  O   UNL     1     -21.266   1.554  20.976  1.00  0.00    -0.237 OA
ATOM     98  O   UNL     1     -22.293   3.316  19.595  1.00  0.00    -0.237 OA
ATOM     99  O   UNL     1     -22.104   1.028  18.718  1.00  0.00    -0.744 OA
ENDBRANCH  93  96
ENDBRANCH  66  89
ENDBRANCH  40  41
ENDBRANCH  32  35
ENDBRANCH  30  31
ENDBRANCH  29  30
ENDBRANCH   1  29
TORSDOF 19
