REMARK SMILES O=C(NCCCCNC(=O)c1sccc1S(=O)(=O)Nc1ccc(-c2nc3ccccc3n2C(F)F)cc1)c1ccc(-c2c3nc(c(-c4cccc(S(=O)(=O)[O-])c4F)c4ccc([nH]4)c(-c4cccc(S(=O)(=O)[O-])c4F)c4nc(c(-c5cccc(S(=O)(=O)[O-])c5F)c5ccc2[nH]5)C=C4)C=C3)cc1
REMARK SMILES IDX 6 1 5 2 4 3 3 4 1 5 2 6 38 8 39 9 100 10 40 11 99 12 41 13
REMARK SMILES IDX 42 14 43 15 93 16 44 17 98 18 92 19 94 20 45 21 97 22 91 23
REMARK SMILES IDX 90 24 46 26 78 27 58 28 77 29 59 30 62 31 76 32 95 33 60 34
REMARK SMILES IDX 61 35 75 37 96 38 63 39 47 40 48 41 56 42 49 43 51 44 57 45
REMARK SMILES IDX 50 46 52 47 53 48 54 49 55 50 79 51 80 52 88 53 81 54 83 55
REMARK SMILES IDX 89 56 82 57 84 58 85 59 86 60 87 61 64 62 65 63 73 64 66 65
REMARK SMILES IDX 68 66 74 67 67 68 69 69 70 70 71 71 72 72 7 73 8 74 9 75
REMARK SMILES IDX 10 77 11 78 12 79 15 80 13 81 14 82 16 83 17 84 18 85 19 86
REMARK SMILES IDX 20 88 21 89 37 90 22 91 36 92 23 93 24 94 25 95 32 96 26 97
REMARK SMILES IDX 31 98 27 99 30 100 28 101 29 102 33 103 34 104 35 105
REMARK H PARENT 3 7 94 25 62 36 8 76 19 87
REMARK Flexibility Score: inf
ROOT
ATOM      1  C   UNL     1       3.860  -1.455   3.343  1.00  0.00     0.023 C 
ENDROOT
BRANCH   1   2
ATOM      2  C   UNL     1       4.532  -0.517   2.335  1.00  0.00     0.023 C 
BRANCH   2   3
ATOM      3  C   UNL     1       4.433  -0.943   0.872  1.00  0.00     0.116 C 
BRANCH   3   4
ATOM      4  N   UNL     1       3.108  -1.119   0.325  1.00  0.00    -0.352 N 
ATOM      5  O   UNL     1       1.192  -0.713  -0.716  1.00  0.00    -0.269 OA
ATOM      6  C   UNL     1       2.139  -0.244  -0.084  1.00  0.00     0.251 C 
ATOM      7  H   UNL     1       2.849  -2.063   0.226  1.00  0.00     0.163 HD
BRANCH   6   8
ATOM      8  C   UNL     1       2.131   1.190   0.284  1.00  0.00     0.039 A 
ATOM      9  C   UNL     1       3.272   1.971   0.471  1.00  0.00     0.014 A 
ATOM     10  C   UNL     1       0.863   1.768   0.458  1.00  0.00     0.014 A 
ATOM     11  C   UNL     1       3.155   3.273   0.944  1.00  0.00     0.010 A 
ATOM     12  C   UNL     1       0.740   3.080   0.891  1.00  0.00     0.010 A 
ATOM     13  C   UNL     1       1.889   3.819   1.170  1.00  0.00    -0.014 A 
BRANCH  13  14
ATOM     14  C   UNL     1       1.806   5.227   1.546  1.00  0.00     0.031 A 
ATOM     15  C   UNL     1       2.244   6.192   0.496  1.00  0.00     0.074 A 
ATOM     16  C   UNL     1       1.204   5.660   2.671  1.00  0.00     0.049 A 
ATOM     17  N   UNL     1       3.167   7.097   0.572  1.00  0.00    -0.248 NA
ATOM     18  C   UNL     1       1.628   6.074  -0.834  1.00  0.00     0.031 C 
ATOM     19  C   UNL     1       0.431   4.860   3.625  1.00  0.00     0.029 A 
ATOM     20  N   UNL     1       1.020   6.940   3.109  1.00  0.00    -0.354 N 
ATOM     21  C   UNL     1       3.106   7.800  -0.634  1.00  0.00     0.074 A 
ATOM     22  C   UNL     1       2.255   7.037  -1.508  1.00  0.00     0.031 C 
ATOM     23  C   UNL     1      -0.344   5.687   4.360  1.00  0.00     0.029 A 
ATOM     24  C   UNL     1      -0.027   7.062   4.016  1.00  0.00     0.049 A 
ATOM     25  H   UNL     1       1.572   7.700   2.813  1.00  0.00     0.167 HD
ATOM     26  C   UNL     1       3.587   9.066  -0.762  1.00  0.00     0.034 A 
ATOM     27  C   UNL     1      -0.654   8.205   4.382  1.00  0.00     0.034 A 
ATOM     28  C   UNL     1       4.462   9.426   0.320  1.00  0.00     0.049 A 
ATOM     29  C   UNL     1       0.227   9.342   4.037  1.00  0.00     0.074 A 
ATOM     30  C   UNL     1       5.648   8.947   0.835  1.00  0.00     0.029 A 
ATOM     31  N   UNL     1       3.966  10.296   1.258  1.00  0.00    -0.354 N 
ATOM     32  N   UNL     1       1.353   9.603   4.638  1.00  0.00    -0.248 NA
ATOM     33  C   UNL     1       0.024  10.019   2.767  1.00  0.00     0.031 C 
ATOM     34  C   UNL     1       5.569   9.197   2.236  1.00  0.00     0.029 A 
ATOM     35  C   UNL     1       4.350   9.831   2.484  1.00  0.00     0.049 A 
ATOM     36  H   UNL     1       3.432  11.105   1.081  1.00  0.00     0.167 HD
ATOM     37  C   UNL     1       2.170  10.108   3.638  1.00  0.00     0.074 A 
ATOM     38  C   UNL     1       1.261  10.471   2.555  1.00  0.00     0.031 C 
ATOM     39  C   UNL     1       3.522   9.909   3.666  1.00  0.00     0.034 A 
BRANCH  26  40
ATOM     40  C   UNL     1       3.015  10.128  -1.677  1.00  0.00     0.023 A 
ATOM     41  C   UNL     1       3.748  11.330  -1.815  1.00  0.00     0.012 A 
ATOM     42  C   UNL     1       1.688  10.130  -2.163  1.00  0.00     0.148 A 
ATOM     43  C   UNL     1       3.172  12.489  -2.347  1.00  0.00     0.002 A 
ATOM     44  C   UNL     1       1.148  11.261  -2.767  1.00  0.00     0.091 A 
ATOM     45  F   UNL     1       0.885   9.088  -1.924  1.00  0.00    -0.205 F 
ATOM     46  C   UNL     1       1.872  12.453  -2.830  1.00  0.00     0.022 A 
BRANCH  44  47
ATOM     47  S   UNL     1      -0.507  11.244  -3.466  1.00  0.00     0.127 S 
ATOM     48  O   UNL     1      -1.273  11.918  -2.423  1.00  0.00    -0.237 OA
ATOM     49  O   UNL     1      -0.324  12.014  -4.697  1.00  0.00    -0.237 OA
ATOM     50  O   UNL     1      -0.812   9.835  -3.688  1.00  0.00    -0.744 OA
ENDBRANCH  44  47
ENDBRANCH  26  40
BRANCH  27  51
ATOM     51  C   UNL     1      -2.055   8.411   4.812  1.00  0.00     0.023 A 
ATOM     52  C   UNL     1      -2.393   9.553   5.565  1.00  0.00     0.012 A 
ATOM     53  C   UNL     1      -3.104   7.634   4.272  1.00  0.00     0.148 A 
ATOM     54  C   UNL     1      -3.729   9.922   5.754  1.00  0.00     0.002 A 
ATOM     55  C   UNL     1      -4.432   7.996   4.476  1.00  0.00     0.091 A 
ATOM     56  F   UNL     1      -2.800   6.595   3.483  1.00  0.00    -0.205 F 
ATOM     57  C   UNL     1      -4.748   9.147   5.207  1.00  0.00     0.022 A 
BRANCH  55  58
ATOM     58  S   UNL     1      -5.795   7.045   3.792  1.00  0.00     0.127 S 
ATOM     59  O   UNL     1      -6.710   6.959   4.931  1.00  0.00    -0.237 OA
ATOM     60  O   UNL     1      -6.250   7.907   2.705  1.00  0.00    -0.237 OA
ATOM     61  O   UNL     1      -5.222   5.766   3.392  1.00  0.00    -0.744 OA
ENDBRANCH  55  58
ENDBRANCH  27  51
BRANCH  39  62
ATOM     62  C   UNL     1       4.148   9.421   4.947  1.00  0.00     0.023 A 
ATOM     63  C   UNL     1       3.798   8.183   5.524  1.00  0.00     0.012 A 
ATOM     64  C   UNL     1       5.236  10.135   5.478  1.00  0.00     0.148 A 
ATOM     65  C   UNL     1       4.496   7.684   6.625  1.00  0.00     0.002 A 
ATOM     66  C   UNL     1       5.962   9.609   6.540  1.00  0.00     0.091 A 
ATOM     67  F   UNL     1       5.564  11.308   4.915  1.00  0.00    -0.205 F 
ATOM     68  C   UNL     1       5.588   8.390   7.124  1.00  0.00     0.022 A 
BRANCH  66  69
ATOM     69  S   UNL     1       7.464  10.396   7.129  1.00  0.00     0.127 S 
ATOM     70  O   UNL     1       7.007  11.057   8.348  1.00  0.00    -0.237 OA
ATOM     71  O   UNL     1       8.353   9.253   7.349  1.00  0.00    -0.237 OA
ATOM     72  O   UNL     1       7.897  11.280   6.053  1.00  0.00    -0.744 OA
ENDBRANCH  66  69
ENDBRANCH  39  62
ENDBRANCH  13  14
ENDBRANCH   6   8
ENDBRANCH   3   4
ENDBRANCH   2   3
ENDBRANCH   1   2
BRANCH   1  73
ATOM     73  C   UNL     1       4.374  -2.891   3.333  1.00  0.00     0.116 C 
BRANCH  73  74
ATOM     74  N   UNL     1       5.764  -2.973   3.729  1.00  0.00    -0.351 N 
ATOM     75  C   UNL     1       6.465  -4.055   4.192  1.00  0.00     0.262 C 
ATOM     76  H   UNL     1       6.276  -2.136   3.656  1.00  0.00     0.163 HD
ATOM     77  O   UNL     1       7.576  -3.834   4.676  1.00  0.00    -0.268 OA
BRANCH  75  78
ATOM     78  C   UNL     1       5.861  -5.369   4.174  1.00  0.00     0.112 A 
ATOM     79  S   UNL     1       5.820  -6.166   5.709  1.00  0.00    -0.137 S 
ATOM     80  C   UNL     1       5.352  -6.186   3.179  1.00  0.00     0.111 A 
ATOM     81  C   UNL     1       5.040  -7.536   5.072  1.00  0.00     0.067 A 
ATOM     82  C   UNL     1       4.838  -7.420   3.719  1.00  0.00     0.035 A 
BRANCH  80  83
ATOM     83  S   UNL     1       5.293  -5.942   1.459  1.00  0.00     0.263 S 
ATOM     84  O   UNL     1       5.957  -7.107   0.930  1.00  0.00    -0.201 OA
ATOM     85  O   UNL     1       3.873  -5.733   1.221  1.00  0.00    -0.201 OA
BRANCH  83  86
ATOM     86  N   UNL     1       6.043  -4.585   0.868  1.00  0.00    -0.280 N 
ATOM     87  H   UNL     1       5.510  -3.992   0.291  1.00  0.00     0.180 HD
BRANCH  86  88
ATOM     88  C   UNL     1       7.382  -4.206   1.123  1.00  0.00     0.049 A 
ATOM     89  C   UNL     1       7.688  -2.853   0.954  1.00  0.00     0.027 A 
ATOM     90  C   UNL     1       8.331  -5.051   1.673  1.00  0.00     0.027 A 
ATOM     91  C   UNL     1       8.839  -2.303   1.524  1.00  0.00     0.014 A 
ATOM     92  C   UNL     1       9.486  -4.500   2.229  1.00  0.00     0.014 A 
ATOM     93  C   UNL     1       9.717  -3.109   2.243  1.00  0.00     0.018 A 
BRANCH  93  94
ATOM     94  C   UNL     1      10.839  -2.623   3.063  1.00  0.00     0.145 A 
ATOM     95  N   UNL     1      11.867  -3.407   3.352  1.00  0.00    -0.228 NA
ATOM     96  N   UNL     1      10.955  -1.432   3.764  1.00  0.00    -0.266 N 
ATOM     97  C   UNL     1      12.578  -2.782   4.330  1.00  0.00     0.089 A 
ATOM     98  C   UNL     1      12.034  -1.539   4.625  1.00  0.00     0.074 A 
ATOM     99  C   UNL     1      13.702  -3.243   5.026  1.00  0.00     0.030 A 
ATOM    100  C   UNL     1      12.578  -0.707   5.615  1.00  0.00     0.029 A 
ATOM    101  C   UNL     1      14.256  -2.432   6.019  1.00  0.00     0.002 A 
ATOM    102  C   UNL     1      13.700  -1.185   6.306  1.00  0.00     0.002 A 
BRANCH  96 103
ATOM    103  C   UNL     1      10.112  -0.259   3.664  1.00  0.00     0.451 C 
ATOM    104  F   UNL     1      10.215   0.309   2.432  1.00  0.00    -0.185 F 
ATOM    105  F   UNL     1       8.798  -0.544   3.861  1.00  0.00    -0.185 F 
ENDBRANCH  96 103
ENDBRANCH  93  94
ENDBRANCH  86  88
ENDBRANCH  83  86
ENDBRANCH  80  83
ENDBRANCH  75  78
ENDBRANCH  73  74
ENDBRANCH   1  73
TORSDOF 19
