REMARK SMILES Cc1ccc(C)c(/C=C2\SC(=S)N(CC(=O)NCCCCNC(=O)c3ccc(-c4c5nc(c(-c6cccc(S(=O)(=O)[O-])c6F)c6ccc([nH]6)c(-c6cccc(S(=O)(=O)[O-])c6F)c6nc(c(-c7cccc(S(=O)(=O)[O-])c7F)c7ccc4[nH]7)C=C6)C=C5)cc3)C2=O)c1
REMARK SMILES IDX 20 1 19 2 18 3 17 4 15 5 16 6 14 8 13 9 8 10 9 11 10 12
REMARK SMILES IDX 88 13 11 14 89 15 12 16 7 17 1 18 2 19 3 20 90 21 4 22 5 23
REMARK SMILES IDX 6 24 21 25 22 26 23 27 24 29 25 30 26 31 87 32 27 33 86 34
REMARK SMILES IDX 28 35 29 36 30 37 80 38 31 39 85 40 79 41 81 42 32 43 84 44
REMARK SMILES IDX 78 45 77 46 33 48 65 49 45 50 64 51 46 52 49 53 63 54 82 55
REMARK SMILES IDX 47 56 48 57 62 59 83 60 50 61 34 62 35 63 43 64 36 65 38 66
REMARK SMILES IDX 44 67 37 68 39 69 40 70 41 71 42 72 66 73 67 74 75 75 68 76
REMARK SMILES IDX 70 77 76 78 69 79 71 80 72 81 73 82 74 83 51 84 52 85 60 86
REMARK SMILES IDX 53 87 55 88 61 89 54 90 56 91 57 92 58 93 59 94
REMARK H PARENT 17 7 22 28 81 47 49 58
REMARK Flexibility Score: inf
ROOT
ATOM      1  C   UNL     1      -4.984   2.668  -4.102  1.00  0.00     0.023 C 
ENDROOT
BRANCH   1   2
ATOM      2  C   UNL     1      -3.650   3.434  -4.166  1.00  0.00     0.023 C 
BRANCH   2   3
ATOM      3  C   UNL     1      -3.679   4.956  -4.347  1.00  0.00     0.116 C 
BRANCH   3   4
ATOM      4  N   UNL     1      -4.319   5.655  -3.260  1.00  0.00    -0.355 N 
ATOM      5  C   UNL     1      -3.789   6.466  -2.300  1.00  0.00     0.240 C 
ATOM      6  O   UNL     1      -4.575   7.012  -1.526  1.00  0.00    -0.273 OA
ATOM      7  H   UNL     1      -5.293   5.526  -3.202  1.00  0.00     0.163 HD
BRANCH   5   8
ATOM      8  C   UNL     1      -2.281   6.722  -2.208  1.00  0.00     0.227 C 
BRANCH   8   9
ATOM      9  N   UNL     1      -1.537   5.474  -2.027  1.00  0.00    -0.283 N 
ATOM     10  C   UNL     1      -1.264   2.504  -0.005  1.00  0.00     0.029 C 
ATOM     11  C   UNL     1      -1.058   3.450  -0.931  1.00  0.00     0.081 C 
ATOM     12  S   UNL     1      -0.017   3.417  -2.294  1.00  0.00    -0.054 SA
ATOM     13  C   UNL     1      -1.813   4.728  -0.892  1.00  0.00     0.266 C 
ATOM     14  C   UNL     1      -0.503   5.027  -2.817  1.00  0.00     0.148 C 
ATOM     15  O   UNL     1      -2.547   5.034   0.025  1.00  0.00    -0.268 OA
ATOM     16  S   UNL     1       0.267   5.797  -4.080  1.00  0.00    -0.052 S 
BRANCH  10  17
ATOM     17  C   UNL     1      -0.621   1.185   0.034  1.00  0.00    -0.021 A 
ATOM     18  C   UNL     1       2.957  -0.140   0.088  1.00  0.00     0.044 C 
ATOM     19  C   UNL     1       1.458  -0.099   0.088  1.00  0.00    -0.051 A 
ATOM     20  C   UNL     1       0.716  -1.280   0.058  1.00  0.00     0.004 A 
ATOM     21  C   UNL     1       0.782   1.124   0.099  1.00  0.00     0.011 A 
ATOM     22  C   UNL     1      -0.680  -1.234   0.033  1.00  0.00     0.004 A 
ATOM     23  C   UNL     1      -1.367  -0.008   0.018  1.00  0.00    -0.044 A 
ATOM     24  C   UNL     1      -2.871  -0.052  -0.031  1.00  0.00     0.045 C 
ENDBRANCH  10  17
ENDBRANCH   8   9
ENDBRANCH   5   8
ENDBRANCH   3   4
ENDBRANCH   2   3
ENDBRANCH   1   2
BRANCH   1  25
ATOM     25  C   UNL     1      -5.808   2.491  -5.385  1.00  0.00     0.116 C 
BRANCH  25  26
ATOM     26  N   UNL     1      -5.051   1.912  -6.508  1.00  0.00    -0.352 N 
ATOM     27  C   UNL     1      -5.027   2.182  -7.871  1.00  0.00     0.251 C 
ATOM     28  H   UNL     1      -4.440   1.189  -6.240  1.00  0.00     0.163 HD
ATOM     29  O   UNL     1      -4.575   1.335  -8.638  1.00  0.00    -0.269 OA
BRANCH  27  30
ATOM     30  C   UNL     1      -5.492   3.481  -8.410  1.00  0.00     0.039 A 
ATOM     31  C   UNL     1      -5.748   3.729  -9.762  1.00  0.00     0.014 A 
ATOM     32  C   UNL     1      -5.598   4.530  -7.521  1.00  0.00     0.014 A 
ATOM     33  C   UNL     1      -6.078   5.032 -10.162  1.00  0.00     0.010 A 
ATOM     34  C   UNL     1      -6.150   5.726  -7.850  1.00  0.00     0.010 A 
ATOM     35  C   UNL     1      -6.243   6.027  -9.188  1.00  0.00    -0.014 A 
BRANCH  35  36
ATOM     36  C   UNL     1      -6.512   7.423  -9.472  1.00  0.00     0.031 A 
ATOM     37  C   UNL     1      -7.853   7.691 -10.020  1.00  0.00     0.074 A 
ATOM     38  C   UNL     1      -5.761   8.427  -8.961  1.00  0.00     0.049 A 
ATOM     39  N   UNL     1      -8.142   8.034 -11.228  1.00  0.00    -0.248 NA
ATOM     40  C   UNL     1      -9.019   7.420  -9.167  1.00  0.00     0.031 C 
ATOM     41  C   UNL     1      -4.635   8.335  -8.016  1.00  0.00     0.029 A 
ATOM     42  N   UNL     1      -5.963   9.768  -9.055  1.00  0.00    -0.354 N 
ATOM     43  C   UNL     1      -9.510   8.269 -11.217  1.00  0.00     0.074 A 
ATOM     44  C   UNL     1     -10.019   7.651 -10.020  1.00  0.00     0.031 C 
ATOM     45  C   UNL     1      -4.421   9.545  -7.454  1.00  0.00     0.029 A 
ATOM     46  C   UNL     1      -5.269  10.519  -8.113  1.00  0.00     0.049 A 
ATOM     47  H   UNL     1      -6.550  10.173  -9.733  1.00  0.00     0.167 HD
ATOM     48  C   UNL     1     -10.072   9.190 -12.044  1.00  0.00     0.034 A 
ATOM     49  C   UNL     1      -5.423  11.843  -7.868  1.00  0.00     0.034 A 
ATOM     50  C   UNL     1      -9.134   9.663 -13.034  1.00  0.00     0.049 A 
ATOM     51  C   UNL     1      -6.079  12.431  -9.059  1.00  0.00     0.074 A 
ATOM     52  C   UNL     1      -8.337   9.070 -13.993  1.00  0.00     0.029 A 
ATOM     53  N   UNL     1      -8.618  10.924 -12.842  1.00  0.00    -0.354 N 
ATOM     54  N   UNL     1      -5.512  12.517 -10.230  1.00  0.00    -0.248 NA
ATOM     55  C   UNL     1      -7.526  12.568  -9.054  1.00  0.00     0.031 C 
ATOM     56  C   UNL     1      -7.124   9.820 -13.981  1.00  0.00     0.029 A 
ATOM     57  C   UNL     1      -7.266  10.854 -13.053  1.00  0.00     0.049 A 
ATOM     58  H   UNL     1      -9.127  11.730 -12.598  1.00  0.00     0.167 HD
ATOM     59  C   UNL     1      -6.537  12.261 -11.131  1.00  0.00     0.074 A 
ATOM     60  C   UNL     1      -7.766  12.439 -10.362  1.00  0.00     0.031 C 
ATOM     61  C   UNL     1      -6.290  11.638 -12.323  1.00  0.00     0.034 A 
BRANCH  48  62
ATOM     62  C   UNL     1     -11.348   9.938 -11.761  1.00  0.00     0.023 A 
ATOM     63  C   UNL     1     -11.933  10.641 -12.837  1.00  0.00     0.012 A 
ATOM     64  C   UNL     1     -11.869  10.187 -10.472  1.00  0.00     0.148 A 
ATOM     65  C   UNL     1     -12.961  11.566 -12.635  1.00  0.00     0.002 A 
ATOM     66  C   UNL     1     -12.957  11.032 -10.290  1.00  0.00     0.091 A 
ATOM     67  F   UNL     1     -11.234   9.728  -9.388  1.00  0.00    -0.205 F 
ATOM     68  C   UNL     1     -13.487  11.749 -11.363  1.00  0.00     0.022 A 
BRANCH  66  69
ATOM     69  S   UNL     1     -13.717  11.227  -8.675  1.00  0.00     0.127 S 
ATOM     70  O   UNL     1     -13.122  12.478  -8.219  1.00  0.00    -0.237 OA
ATOM     71  O   UNL     1     -15.139  11.301  -9.013  1.00  0.00    -0.237 OA
ATOM     72  O   UNL     1     -13.347  10.024  -7.938  1.00  0.00    -0.744 OA
ENDBRANCH  66  69
ENDBRANCH  48  62
BRANCH  49  73
ATOM     73  C   UNL     1      -5.220  12.618  -6.625  1.00  0.00     0.023 A 
ATOM     74  C   UNL     1      -5.015  14.011  -6.696  1.00  0.00     0.012 A 
ATOM     75  C   UNL     1      -5.495  12.050  -5.362  1.00  0.00     0.148 A 
ATOM     76  C   UNL     1      -5.120  14.816  -5.555  1.00  0.00     0.002 A 
ATOM     77  C   UNL     1      -5.591  12.854  -4.229  1.00  0.00     0.091 A 
ATOM     78  F   UNL     1      -5.752  10.737  -5.290  1.00  0.00    -0.205 F 
ATOM     79  C   UNL     1      -5.417  14.240  -4.324  1.00  0.00     0.022 A 
BRANCH  77  80
ATOM     80  S   UNL     1      -5.988  12.181  -2.611  1.00  0.00     0.127 S 
ATOM     81  O   UNL     1      -4.980  12.819  -1.763  1.00  0.00    -0.237 OA
ATOM     82  O   UNL     1      -7.352  12.662  -2.411  1.00  0.00    -0.237 OA
ATOM     83  O   UNL     1      -5.835  10.739  -2.746  1.00  0.00    -0.744 OA
ENDBRANCH  77  80
ENDBRANCH  49  73
BRANCH  61  84
ATOM     84  C   UNL     1      -4.851  11.492 -12.767  1.00  0.00     0.023 A 
ATOM     85  C   UNL     1      -3.906  10.763 -12.015  1.00  0.00     0.012 A 
ATOM     86  C   UNL     1      -4.489  11.945 -14.048  1.00  0.00     0.148 A 
ATOM     87  C   UNL     1      -2.624  10.516 -12.514  1.00  0.00     0.002 A 
ATOM     88  C   UNL     1      -3.229  11.656 -14.561  1.00  0.00     0.091 A 
ATOM     89  F   UNL     1      -5.396  12.633 -14.758  1.00  0.00    -0.205 F 
ATOM     90  C   UNL     1      -2.290  10.951 -13.793  1.00  0.00     0.022 A 
BRANCH  88  91
ATOM     91  S   UNL     1      -2.785  12.071 -16.250  1.00  0.00     0.127 S 
ATOM     92  O   UNL     1      -1.939  13.248 -16.064  1.00  0.00    -0.237 OA
ATOM     93  O   UNL     1      -2.073  10.871 -16.694  1.00  0.00    -0.237 OA
ATOM     94  O   UNL     1      -4.044  12.304 -16.947  1.00  0.00    -0.744 OA
ENDBRANCH  88  91
ENDBRANCH  61  84
ENDBRANCH  35  36
ENDBRANCH  27  30
ENDBRANCH  25  26
ENDBRANCH   1  25
TORSDOF 16
