REMARK SMILES CC[C@H](C)CN(CC)C(=O)c1ccc(/C=C/C(=O)NCCCCNC(=O)c2ccc(-c3c4nc(c(-c5cccc(S(=O)(=O)[O-])c5F)c5ccc([nH]5)c(-c5cccc(S(=O)(=O)[O-])c5F)c5nc(c(-c6cccc(S(=O)(=O)[O-])c6F)c6ccc3[nH]6)C=C5)C=C4)cc2)cn1
REMARK SMILES IDX 20 1 19 2 17 3 18 4 16 6 15 7 14 8 11 9 12 10 91 11 13 12
REMARK SMILES IDX 90 13 9 14 10 15 6 16 5 17 3 18 4 19 2 20 1 21 7 22 8 23
REMARK SMILES IDX 21 24 22 25 23 26 24 27 25 28 26 30 27 31 28 32 89 33 29 34
REMARK SMILES IDX 88 35 30 36 31 37 32 38 82 39 33 40 87 41 81 42 83 43 34 44
REMARK SMILES IDX 86 45 80 46 79 47 35 49 67 50 47 51 66 52 48 53 51 54 65 55
REMARK SMILES IDX 84 56 49 57 50 58 64 60 85 61 52 62 36 63 37 64 45 65 38 66
REMARK SMILES IDX 40 67 46 68 39 69 41 70 42 71 43 72 44 73 68 74 69 75 77 76
REMARK SMILES IDX 70 77 72 78 78 79 71 80 73 81 74 82 75 83 76 84 53 85 54 86
REMARK SMILES IDX 62 87 55 88 57 89 63 90 56 91 58 92 59 93 60 94 61 95
REMARK H PARENT 19 5 24 29 83 48 51 59
REMARK Flexibility Score: inf
ROOT
ATOM      1  C   UNL     1       3.428 -10.663   4.278  1.00  0.00     0.116 C 
ENDROOT
BRANCH   1   2
ATOM      2  N   UNL     1       3.687 -10.995   2.887  1.00  0.00    -0.353 N 
ATOM      3  C   UNL     1       3.661 -10.203   1.779  1.00  0.00     0.243 C 
ATOM      4  O   UNL     1       4.031 -10.635   0.692  1.00  0.00    -0.270 OA
ATOM      5  H   UNL     1       3.916 -11.938   2.720  1.00  0.00     0.163 HD
BRANCH   3   6
ATOM      6  C   UNL     1       3.270  -8.780   1.896  1.00  0.00     0.072 C 
ATOM      7  C   UNL     1       2.128  -8.397   2.483  1.00  0.00     0.015 C 
BRANCH   7   8
ATOM      8  C   UNL     1       1.678  -7.014   2.665  1.00  0.00    -0.007 A 
ATOM      9  C   UNL     1       0.703  -4.474   2.974  1.00  0.00     0.128 A 
ATOM     10  C   UNL     1       0.249  -5.456   3.840  1.00  0.00     0.035 A 
ATOM     11  N   UNL     1       1.611  -4.680   1.988  1.00  0.00    -0.250 NA
ATOM     12  C   UNL     1       0.763  -6.739   3.690  1.00  0.00     0.012 A 
ATOM     13  C   UNL     1       2.056  -5.951   1.845  1.00  0.00     0.120 A 
BRANCH   9  14
ATOM     14  C   UNL     1       0.093  -3.129   3.042  1.00  0.00     0.272 C 
ATOM     15  O   UNL     1      -0.976  -2.960   2.456  1.00  0.00    -0.267 OA
BRANCH  14  16
ATOM     16  N   UNL     1       0.743  -2.125   3.767  1.00  0.00    -0.337 N 
BRANCH  16  17
ATOM     17  C   UNL     1       0.213  -0.767   3.660  1.00  0.00     0.123 C 
BRANCH  17  18
ATOM     18  C   UNL     1       0.927   0.086   2.585  1.00  0.00     0.005 C 
ATOM     19  C   UNL     1       1.052  -0.618   1.230  1.00  0.00     0.009 C 
BRANCH  18  20
ATOM     20  C   UNL     1       0.250   1.465   2.437  1.00  0.00     0.002 C 
ATOM     21  C   UNL     1      -1.112   1.446   1.750  1.00  0.00     0.004 C 
ENDBRANCH  18  20
ENDBRANCH  17  18
ENDBRANCH  16  17
BRANCH  16  22
ATOM     22  C   UNL     1       1.920  -2.338   4.614  1.00  0.00     0.116 C 
ATOM     23  C   UNL     1       1.543  -2.924   5.970  1.00  0.00     0.027 C 
ENDBRANCH  16  22
ENDBRANCH  14  16
ENDBRANCH   9  14
ENDBRANCH   7   8
ENDBRANCH   3   6
ENDBRANCH   1   2
BRANCH   1  24
ATOM     24  C   UNL     1       2.086 -11.224   4.749  1.00  0.00     0.023 C 
BRANCH  24  25
ATOM     25  C   UNL     1       2.095 -12.725   5.052  1.00  0.00     0.023 C 
BRANCH  25  26
ATOM     26  C   UNL     1       3.039 -13.154   6.169  1.00  0.00     0.116 C 
BRANCH  26  27
ATOM     27  N   UNL     1       2.778 -12.486   7.436  1.00  0.00    -0.352 N 
ATOM     28  C   UNL     1       2.979 -12.969   8.708  1.00  0.00     0.251 C 
ATOM     29  H   UNL     1       2.412 -11.573   7.375  1.00  0.00     0.163 HD
ATOM     30  O   UNL     1       2.616 -12.317   9.683  1.00  0.00    -0.269 OA
BRANCH  28  31
ATOM     31  C   UNL     1       3.598 -14.300   8.882  1.00  0.00     0.039 A 
ATOM     32  C   UNL     1       2.959 -15.241   9.693  1.00  0.00     0.014 A 
ATOM     33  C   UNL     1       4.774 -14.630   8.204  1.00  0.00     0.014 A 
ATOM     34  C   UNL     1       3.464 -16.541   9.768  1.00  0.00     0.010 A 
ATOM     35  C   UNL     1       5.235 -15.942   8.227  1.00  0.00     0.010 A 
ATOM     36  C   UNL     1       4.585 -16.911   9.007  1.00  0.00    -0.014 A 
BRANCH  36  37
ATOM     37  C   UNL     1       5.082 -18.309   8.992  1.00  0.00     0.031 A 
ATOM     38  C   UNL     1       6.459 -18.628   9.504  1.00  0.00     0.074 A 
ATOM     39  C   UNL     1       4.335 -19.273   8.417  1.00  0.00     0.049 A 
ATOM     40  N   UNL     1       7.091 -19.773   9.508  1.00  0.00    -0.248 NA
ATOM     41  C   UNL     1       7.240 -17.509  10.057  1.00  0.00     0.031 C 
ATOM     42  C   UNL     1       3.022 -19.070   7.800  1.00  0.00     0.029 A 
ATOM     43  N   UNL     1       4.587 -20.609   8.228  1.00  0.00    -0.354 N 
ATOM     44  C   UNL     1       8.354 -19.506  10.022  1.00  0.00     0.074 A 
ATOM     45  C   UNL     1       8.410 -18.086  10.291  1.00  0.00     0.031 C 
ATOM     46  C   UNL     1       2.585 -20.238   7.302  1.00  0.00     0.029 A 
ATOM     47  C   UNL     1       3.593 -21.267   7.541  1.00  0.00     0.049 A 
ATOM     48  H   UNL     1       5.402 -21.054   8.554  1.00  0.00     0.167 HD
ATOM     49  C   UNL     1       9.365 -20.369  10.278  1.00  0.00     0.034 A 
ATOM     50  C   UNL     1       3.504 -22.552   7.147  1.00  0.00     0.034 A 
ATOM     51  C   UNL     1       9.285 -21.788  10.062  1.00  0.00     0.049 A 
ATOM     52  C   UNL     1       4.613 -23.504   7.504  1.00  0.00     0.074 A 
ATOM     53  C   UNL     1      10.214 -22.762  10.386  1.00  0.00     0.029 A 
ATOM     54  N   UNL     1       8.216 -22.438   9.466  1.00  0.00    -0.354 N 
ATOM     55  N   UNL     1       5.729 -23.265   8.150  1.00  0.00    -0.248 NA
ATOM     56  C   UNL     1       4.436 -24.910   7.114  1.00  0.00     0.031 C 
ATOM     57  C   UNL     1       9.711 -24.000   9.972  1.00  0.00     0.029 A 
ATOM     58  C   UNL     1       8.462 -23.799   9.407  1.00  0.00     0.049 A 
ATOM     59  H   UNL     1       7.401 -21.997   9.134  1.00  0.00     0.167 HD
ATOM     60  C   UNL     1       6.368 -24.492   8.277  1.00  0.00     0.074 A 
ATOM     61  C   UNL     1       5.506 -25.477   7.656  1.00  0.00     0.031 C 
ATOM     62  C   UNL     1       7.567 -24.776   8.841  1.00  0.00     0.034 A 
BRANCH  49  63
ATOM     63  C   UNL     1      10.625 -19.809  10.884  1.00  0.00     0.023 A 
ATOM     64  C   UNL     1      10.616 -19.381  12.227  1.00  0.00     0.012 A 
ATOM     65  C   UNL     1      11.825 -19.754  10.149  1.00  0.00     0.148 A 
ATOM     66  C   UNL     1      11.771 -18.873  12.819  1.00  0.00     0.002 A 
ATOM     67  C   UNL     1      12.984 -19.286  10.760  1.00  0.00     0.091 A 
ATOM     68  F   UNL     1      11.810 -20.143   8.866  1.00  0.00    -0.205 F 
ATOM     69  C   UNL     1      12.956 -18.835  12.090  1.00  0.00     0.022 A 
BRANCH  67  70
ATOM     70  S   UNL     1      14.576 -19.270   9.927  1.00  0.00     0.127 S 
ATOM     71  O   UNL     1      14.749 -17.845   9.651  1.00  0.00    -0.237 OA
ATOM     72  O   UNL     1      15.469 -19.804  10.956  1.00  0.00    -0.237 OA
ATOM     73  O   UNL     1      14.422 -20.123   8.757  1.00  0.00    -0.744 OA
ENDBRANCH  67  70
ENDBRANCH  49  63
BRANCH  50  74
ATOM     74  C   UNL     1       2.280 -23.029   6.442  1.00  0.00     0.023 A 
ATOM     75  C   UNL     1       1.380 -23.872   7.122  1.00  0.00     0.012 A 
ATOM     76  C   UNL     1       1.982 -22.622   5.127  1.00  0.00     0.148 A 
ATOM     77  C   UNL     1       0.220 -24.327   6.495  1.00  0.00     0.002 A 
ATOM     78  C   UNL     1       0.798 -23.035   4.528  1.00  0.00     0.091 A 
ATOM     79  F   UNL     1       2.857 -21.829   4.494  1.00  0.00    -0.205 F 
ATOM     80  C   UNL     1      -0.077 -23.900   5.203  1.00  0.00     0.022 A 
BRANCH  78  81
ATOM     81  S   UNL     1       0.271 -22.428   2.921  1.00  0.00     0.127 S 
ATOM     82  O   UNL     1       0.474 -23.602   2.076  1.00  0.00    -0.237 OA
ATOM     83  O   UNL     1      -1.129 -22.083   3.171  1.00  0.00    -0.237 OA
ATOM     84  O   UNL     1       1.127 -21.284   2.637  1.00  0.00    -0.744 OA
ENDBRANCH  78  81
ENDBRANCH  50  74
BRANCH  62  85
ATOM     85  C   UNL     1       8.014 -26.214   8.851  1.00  0.00     0.023 A 
ATOM     86  C   UNL     1       8.465 -26.813   7.659  1.00  0.00     0.012 A 
ATOM     87  C   UNL     1       8.070 -26.941  10.057  1.00  0.00     0.148 A 
ATOM     88  C   UNL     1       8.939 -28.125   7.661  1.00  0.00     0.002 A 
ATOM     89  C   UNL     1       8.586 -28.231  10.059  1.00  0.00     0.091 A 
ATOM     90  F   UNL     1       7.617 -26.359  11.177  1.00  0.00    -0.205 F 
ATOM     91  C   UNL     1       9.012 -28.828   8.862  1.00  0.00     0.022 A 
BRANCH  89  92
ATOM     92  S   UNL     1       8.805 -29.174  11.573  1.00  0.00     0.127 S 
ATOM     93  O   UNL     1       7.714 -30.141  11.482  1.00  0.00    -0.237 OA
ATOM     94  O   UNL     1      10.142 -29.743  11.396  1.00  0.00    -0.237 OA
ATOM     95  O   UNL     1       8.701 -28.210  12.661  1.00  0.00    -0.744 OA
ENDBRANCH  89  92
ENDBRANCH  62  85
ENDBRANCH  36  37
ENDBRANCH  28  31
ENDBRANCH  26  27
ENDBRANCH  25  26
ENDBRANCH  24  25
ENDBRANCH   1  24
TORSDOF 21
