REMARK SMILES Cc1c(C[NH2+]C2CCCCC2)c(C(=O)NCCCCNC(=O)c2ccc(-c3c4nc(c(-c5cccc(S(=O)(=O)[O-])c5F)c5ccc([nH]5)c(-c5cccc(S(=O)(=O)[O-])c5F)c5nc(c(-c6cccc(S(=O)(=O)[O-])c6F)c6ccc3[nH]6)C=C5)C=C4)cc2)c(C)n1Cc1ccccc1
REMARK SMILES IDX 17 1 16 2 15 3 13 4 14 5 12 7 1 8 2 9 3 10 88 11 86 12 87 13
REMARK SMILES IDX 4 14 5 15 6 18 7 19 11 20 8 21 10 22 9 23 89 24 90 25 91 26
REMARK SMILES IDX 95 27 92 28 94 29 93 30 18 31 19 32 20 33 21 34 22 36 23 37
REMARK SMILES IDX 24 38 85 39 25 40 84 41 26 42 27 43 28 44 78 45 29 46 83 47
REMARK SMILES IDX 77 48 79 49 30 50 82 51 76 52 75 53 31 55 63 56 43 57 62 58
REMARK SMILES IDX 44 59 47 60 61 61 80 62 45 63 46 64 60 66 81 67 48 68 32 69
REMARK SMILES IDX 33 70 41 71 34 72 36 73 42 74 35 75 37 76 38 77 39 78 40 79
REMARK SMILES IDX 64 80 65 81 73 82 66 83 68 84 74 85 67 86 69 87 70 88 71 89
REMARK SMILES IDX 72 90 49 91 50 92 58 93 51 94 53 95 59 96 52 97 54 98 55 99
REMARK SMILES IDX 56 100 57 101
REMARK H PARENT 15 6 5 16 5 17 20 35 79 54 47 65
REMARK Flexibility Score: inf
ROOT
ATOM      1  C   UNL     1      -2.578  -1.902   7.057  1.00  0.00     0.023 C 
ENDROOT
BRANCH   1   2
ATOM      2  C   UNL     1      -1.278  -1.791   6.271  1.00  0.00     0.116 C 
BRANCH   2   3
ATOM      3  N   UNL     1      -0.773  -2.985   5.643  1.00  0.00    -0.352 N 
ATOM      4  C   UNL     1      -0.074  -3.127   4.463  1.00  0.00     0.253 C 
ATOM      5  O   UNL     1       0.220  -4.301   4.168  1.00  0.00    -0.269 OA
ATOM      6  H   UNL     1      -0.953  -3.823   6.128  1.00  0.00     0.163 HD
BRANCH   4   7
ATOM      7  C   UNL     1       0.179  -2.003   3.535  1.00  0.00     0.069 A 
ATOM      8  C   UNL     1       0.864  -0.433   0.187  1.00  0.00     0.065 C 
ATOM      9  C   UNL     1       0.495  -0.854   1.570  1.00  0.00     0.025 A 
ATOM     10  C   UNL     1       0.546  -2.133   2.132  1.00  0.00     0.040 A 
ATOM     11  N   UNL     1       0.051   0.002   2.565  1.00  0.00    -0.343 N 
ATOM     12  C   UNL     1       0.316  -0.628   3.774  1.00  0.00     0.028 A 
ATOM     13  C   UNL     1       0.717   0.141   4.990  1.00  0.00     0.065 C 
BRANCH  10  14
ATOM     14  C   UNL     1       0.903  -3.417   1.406  1.00  0.00     0.300 C 
BRANCH  14  15
ATOM     15  N   UNL     1       2.214  -3.901   1.852  1.00  0.00    -0.340 N 
ATOM     16  H   UNL     1       2.177  -4.050   2.861  1.00  0.00     0.346 HD
ATOM     17  H   UNL     1       2.900  -3.193   1.590  1.00  0.00     0.346 HD
BRANCH  15  18
ATOM     18  C   UNL     1       2.626  -5.161   1.210  1.00  0.00     0.182 C 
ATOM     19  C   UNL     1       4.125  -5.415   1.478  1.00  0.00     0.065 C 
ATOM     20  C   UNL     1       1.809  -6.370   1.705  1.00  0.00     0.065 C 
ATOM     21  C   UNL     1       4.606  -6.727   0.851  1.00  0.00     0.006 C 
ATOM     22  C   UNL     1       2.288  -7.682   1.080  1.00  0.00     0.006 C 
ATOM     23  C   UNL     1       3.775  -7.917   1.317  1.00  0.00     0.000 C 
ENDBRANCH  15  18
ENDBRANCH  14  15
ENDBRANCH  10  14
BRANCH  11  24
ATOM     24  C   UNL     1      -0.361   1.407   2.415  1.00  0.00     0.157 C 
BRANCH  24  25
ATOM     25  C   UNL     1      -1.844   1.693   2.619  1.00  0.00    -0.028 A 
ATOM     26  C   UNL     1      -2.564   2.410   1.646  1.00  0.00     0.005 A 
ATOM     27  C   UNL     1      -2.510   1.400   3.820  1.00  0.00     0.005 A 
ATOM     28  C   UNL     1      -3.886   2.817   1.871  1.00  0.00     0.000 A 
ATOM     29  C   UNL     1      -3.831   1.804   4.048  1.00  0.00     0.000 A 
ATOM     30  C   UNL     1      -4.519   2.518   3.075  1.00  0.00     0.000 A 
ENDBRANCH  24  25
ENDBRANCH  11  24
ENDBRANCH   4   7
ENDBRANCH   2   3
ENDBRANCH   1   2
BRANCH   1  31
ATOM     31  C   UNL     1      -2.663  -2.853   8.256  1.00  0.00     0.023 C 
BRANCH  31  32
ATOM     32  C   UNL     1      -1.416  -3.074   9.125  1.00  0.00     0.116 C 
BRANCH  32  33
ATOM     33  N   UNL     1      -1.410  -2.321  10.359  1.00  0.00    -0.352 N 
ATOM     34  C   UNL     1      -0.833  -2.689  11.566  1.00  0.00     0.251 C 
ATOM     35  H   UNL     1      -1.867  -1.450  10.340  1.00  0.00     0.163 HD
ATOM     36  O   UNL     1      -1.017  -1.940  12.526  1.00  0.00    -0.269 OA
BRANCH  34  37
ATOM     37  C   UNL     1      -0.162  -4.032  11.739  1.00  0.00     0.039 A 
ATOM     38  C   UNL     1      -0.898  -5.024  12.360  1.00  0.00     0.014 A 
ATOM     39  C   UNL     1       1.181  -4.340  11.451  1.00  0.00     0.014 A 
ATOM     40  C   UNL     1      -0.319  -6.298  12.625  1.00  0.00     0.010 A 
ATOM     41  C   UNL     1       1.799  -5.614  11.834  1.00  0.00     0.010 A 
ATOM     42  C   UNL     1       1.077  -6.649  12.458  1.00  0.00    -0.014 A 
BRANCH  42  43
ATOM     43  C   UNL     1       1.624  -7.840  13.444  1.00  0.00     0.031 A 
ATOM     44  C   UNL     1       0.933  -7.489  14.718  1.00  0.00     0.074 A 
ATOM     45  C   UNL     1       2.539  -8.894  13.593  1.00  0.00     0.049 A 
ATOM     46  N   UNL     1       1.053  -6.274  15.177  1.00  0.00    -0.248 NA
ATOM     47  C   UNL     1      -0.217  -8.217  15.261  1.00  0.00     0.031 C 
ATOM     48  C   UNL     1       3.620  -9.305  12.680  1.00  0.00     0.029 A 
ATOM     49  N   UNL     1       2.736  -9.881  14.630  1.00  0.00    -0.354 N 
ATOM     50  C   UNL     1       0.295  -6.210  16.303  1.00  0.00     0.074 A 
ATOM     51  C   UNL     1      -0.661  -7.297  16.129  1.00  0.00     0.031 C 
ATOM     52  C   UNL     1       4.217 -10.472  13.076  1.00  0.00     0.029 A 
ATOM     53  C   UNL     1       3.655 -10.969  14.334  1.00  0.00     0.049 A 
ATOM     54  H   UNL     1       2.271  -9.820  15.496  1.00  0.00     0.167 HD
ATOM     55  C   UNL     1       0.987  -5.830  17.416  1.00  0.00     0.034 A 
ATOM     56  C   UNL     1       4.014 -12.114  15.061  1.00  0.00     0.034 A 
ATOM     57  C   UNL     1       1.225  -6.936  18.300  1.00  0.00     0.049 A 
ATOM     58  C   UNL     1       3.804 -11.749  16.468  1.00  0.00     0.074 A 
ATOM     59  C   UNL     1       0.457  -8.022  18.682  1.00  0.00     0.029 A 
ATOM     60  N   UNL     1       2.539  -7.291  18.500  1.00  0.00    -0.354 N 
ATOM     61  N   UNL     1       4.683 -11.043  17.113  1.00  0.00    -0.248 NA
ATOM     62  C   UNL     1       2.713 -12.285  17.274  1.00  0.00     0.031 C 
ATOM     63  C   UNL     1       1.324  -9.129  18.560  1.00  0.00     0.029 A 
ATOM     64  C   UNL     1       2.632  -8.668  18.545  1.00  0.00     0.049 A 
ATOM     65  H   UNL     1       3.292  -6.664  18.597  1.00  0.00     0.167 HD
ATOM     66  C   UNL     1       3.980 -10.607  18.191  1.00  0.00     0.074 A 
ATOM     67  C   UNL     1       2.935 -11.594  18.394  1.00  0.00     0.031 C 
ATOM     68  C   UNL     1       3.931  -9.266  18.364  1.00  0.00     0.034 A 
BRANCH  55  69
ATOM     69  C   UNL     1       1.936  -4.666  17.184  1.00  0.00     0.023 A 
ATOM     70  C   UNL     1       1.583  -3.434  17.756  1.00  0.00     0.012 A 
ATOM     71  C   UNL     1       3.025  -4.699  16.267  1.00  0.00     0.148 A 
ATOM     72  C   UNL     1       2.243  -2.260  17.381  1.00  0.00     0.002 A 
ATOM     73  C   UNL     1       3.592  -3.514  15.806  1.00  0.00     0.091 A 
ATOM     74  F   UNL     1       3.492  -5.886  15.848  1.00  0.00    -0.205 F 
ATOM     75  C   UNL     1       3.213  -2.293  16.378  1.00  0.00     0.022 A 
BRANCH  73  76
ATOM     76  S   UNL     1       4.633  -3.455  14.331  1.00  0.00     0.127 S 
ATOM     77  O   UNL     1       4.098  -2.295  13.610  1.00  0.00    -0.237 OA
ATOM     78  O   UNL     1       5.970  -3.253  14.878  1.00  0.00    -0.237 OA
ATOM     79  O   UNL     1       4.426  -4.717  13.628  1.00  0.00    -0.744 OA
ENDBRANCH  73  76
ENDBRANCH  55  69
BRANCH  56  80
ATOM     80  C   UNL     1       4.771 -13.506  15.075  1.00  0.00     0.023 A 
ATOM     81  C   UNL     1       5.536 -13.853  16.251  1.00  0.00     0.012 A 
ATOM     82  C   UNL     1       4.416 -14.619  14.277  1.00  0.00     0.148 A 
ATOM     83  C   UNL     1       5.805 -15.170  16.676  1.00  0.00     0.002 A 
ATOM     84  C   UNL     1       4.726 -15.949  14.688  1.00  0.00     0.091 A 
ATOM     85  F   UNL     1       3.691 -14.400  13.173  1.00  0.00    -0.205 F 
ATOM     86  C   UNL     1       5.386 -16.224  15.897  1.00  0.00     0.022 A 
BRANCH  84  87
ATOM     87  S   UNL     1       4.238 -17.434  13.775  1.00  0.00     0.127 S 
ATOM     88  O   UNL     1       5.436 -18.270  13.853  1.00  0.00    -0.237 OA
ATOM     89  O   UNL     1       3.111 -17.919  14.564  1.00  0.00    -0.237 OA
ATOM     90  O   UNL     1       3.917 -16.968  12.428  1.00  0.00    -0.744 OA
ENDBRANCH  84  87
ENDBRANCH  56  80
BRANCH  68  91
ATOM     91  C   UNL     1       5.197  -8.471  18.116  1.00  0.00     0.023 A 
ATOM     92  C   UNL     1       5.993  -8.541  16.951  1.00  0.00     0.012 A 
ATOM     93  C   UNL     1       5.599  -7.587  19.128  1.00  0.00     0.148 A 
ATOM     94  C   UNL     1       7.157  -7.773  16.817  1.00  0.00     0.002 A 
ATOM     95  C   UNL     1       6.717  -6.778  18.969  1.00  0.00     0.091 A 
ATOM     96  F   UNL     1       4.867  -7.549  20.253  1.00  0.00    -0.205 F 
ATOM     97  C   UNL     1       7.508  -6.873  17.819  1.00  0.00     0.022 A 
BRANCH  95  98
ATOM     98  S   UNL     1       7.128  -5.564  20.222  1.00  0.00     0.127 S 
ATOM     99  O   UNL     1       8.123  -6.279  21.020  1.00  0.00    -0.237 OA
ATOM    100  O   UNL     1       7.657  -4.443  19.450  1.00  0.00    -0.237 OA
ATOM    101  O   UNL     1       5.868  -5.279  20.903  1.00  0.00    -0.744 OA
ENDBRANCH  95  98
ENDBRANCH  68  91
ENDBRANCH  42  43
ENDBRANCH  34  37
ENDBRANCH  32  33
ENDBRANCH  31  32
ENDBRANCH   1  31
TORSDOF 19
