REMARK SMILES O=C(C[C@H](Cc1ccc(Cl)cc1)C(=O)Nc1cc(Cl)ccc1Cl)NCCCCNC(=O)c1ccc(-c2c3nc(c(-c4cccc(S(=O)(=O)[O-])c4F)c4ccc([nH]4)c(-c4cccc(S(=O)(=O)[O-])c4F)c4nc(c(-c5cccc(S(=O)(=O)[O-])c5F)c5ccc2[nH]5)C=C4)C=C3)cc1
REMARK SMILES IDX 26 1 25 2 24 3 1 4 2 5 3 7 4 8 13 9 14 10 15 11 16 13 17 14
REMARK SMILES IDX 22 15 18 16 21 17 23 18 19 19 20 20 5 21 6 22 7 23 12 24
REMARK SMILES IDX 8 25 11 26 9 27 10 28 27 29 28 30 29 31 30 32 31 34 32 35
REMARK SMILES IDX 33 36 94 37 34 38 93 39 35 40 36 41 37 42 87 43 38 44 92 45
REMARK SMILES IDX 86 46 88 47 39 48 91 49 85 50 84 51 40 53 72 54 52 55 71 56
REMARK SMILES IDX 53 57 56 58 70 59 89 60 54 61 55 62 69 64 90 65 57 66 41 67
REMARK SMILES IDX 42 68 50 69 43 70 45 71 51 72 44 73 46 74 47 75 48 76 49 77
REMARK SMILES IDX 73 78 74 79 82 80 75 81 77 82 83 83 76 84 78 85 79 86 80 87
REMARK SMILES IDX 81 88 58 89 59 90 67 91 60 92 62 93 68 94 61 95 63 96 64 97
REMARK SMILES IDX 65 98 66 99
REMARK H PARENT 24 6 15 12 29 33 88 52 56 63
REMARK Flexibility Score: inf
ROOT
ATOM      1  C   UNL     1       7.516   2.035   5.007  1.00  0.00     0.023 C 
ENDROOT
BRANCH   1   2
ATOM      2  C   UNL     1       6.160   1.335   5.017  1.00  0.00     0.116 C 
BRANCH   2   3
ATOM      3  N   UNL     1       5.536   1.370   3.709  1.00  0.00    -0.356 N 
ATOM      4  O   UNL     1       5.667  -0.886   3.416  1.00  0.00    -0.275 OA
ATOM      5  C   UNL     1       5.367   0.228   2.982  1.00  0.00     0.220 C 
ATOM      6  H   UNL     1       5.230   2.229   3.340  1.00  0.00     0.163 HD
BRANCH   5   7
ATOM      7  C   UNL     1       4.904   0.351   1.548  1.00  0.00     0.113 C 
BRANCH   7   8
ATOM      8  C   UNL     1       3.999   1.496   1.101  1.00  0.00     0.092 C 
BRANCH   8   9
ATOM      9  C   UNL     1       4.818   2.821   0.991  1.00  0.00     0.228 C 
ATOM     10  O   UNL     1       4.702   3.626   1.929  1.00  0.00    -0.274 OA
ATOM     11  N   UNL     1       5.825   3.073   0.093  1.00  0.00    -0.324 N 
ATOM     12  H   UNL     1       6.383   3.859   0.296  1.00  0.00     0.169 HD
BRANCH  11  13
ATOM     13  C   UNL     1       6.176   2.374  -1.073  1.00  0.00     0.061 A 
ATOM     14  C   UNL     1       5.147   1.819  -1.826  1.00  0.00     0.048 A 
ATOM     15  C   UNL     1       7.476   2.187  -1.485  1.00  0.00     0.064 A 
ATOM     16  C   UNL     1       5.203   0.567  -2.638  1.00  0.00     0.043 A 
ATOM     17  C   UNL     1       7.708   1.289  -2.512  1.00  0.00     0.024 A 
ATOM     18  Cl  UNL     1       8.798   2.963  -0.709  1.00  0.00    -0.082 Cl
ATOM     19  Cl  UNL     1       3.354  -1.046  -2.980  1.00  0.00    -0.084 Cl
ATOM     20  C   UNL     1       6.653   0.476  -3.022  1.00  0.00     0.022 A 
ENDBRANCH  11  13
ENDBRANCH   8   9
BRANCH   8  21
ATOM     21  C   UNL     1       2.983   1.052  -0.004  1.00  0.00     0.049 C 
BRANCH  21  22
ATOM     22  C   UNL     1       3.483   0.348  -1.268  1.00  0.00    -0.047 A 
ATOM     23  C   UNL     1       3.087   1.131  -2.898  1.00  0.00     0.005 A 
ATOM     24  C   UNL     1       4.712  -1.002  -1.212  1.00  0.00     0.005 A 
ATOM     25  C   UNL     1       3.931   0.569  -4.411  1.00  0.00     0.021 A 
ATOM     26  C   UNL     1       5.470  -1.631  -2.740  1.00  0.00     0.021 A 
ATOM     27  C   UNL     1       5.066  -0.843  -4.344  1.00  0.00     0.041 A 
ATOM     28  Cl  UNL     1       5.678  -1.529  -5.801  1.00  0.00    -0.084 Cl
ENDBRANCH  21  22
ENDBRANCH   8  21
ENDBRANCH   7   8
ENDBRANCH   5   7
ENDBRANCH   2   3
ENDBRANCH   1   2
BRANCH   1  29
ATOM     29  C   UNL     1       7.459   3.514   4.621  1.00  0.00     0.023 C 
BRANCH  29  30
ATOM     30  C   UNL     1       6.432   4.338   5.389  1.00  0.00     0.116 C 
BRANCH  30  31
ATOM     31  N   UNL     1       6.666   4.319   6.826  1.00  0.00    -0.352 N 
ATOM     32  C   UNL     1       6.735   5.374   7.703  1.00  0.00     0.251 C 
ATOM     33  H   UNL     1       6.791   3.428   7.224  1.00  0.00     0.163 HD
ATOM     34  O   UNL     1       7.097   5.189   8.861  1.00  0.00    -0.269 OA
BRANCH  32  35
ATOM     35  C   UNL     1       6.399   6.735   7.235  1.00  0.00     0.039 A 
ATOM     36  C   UNL     1       7.252   7.791   7.564  1.00  0.00     0.014 A 
ATOM     37  C   UNL     1       5.262   6.964   6.455  1.00  0.00     0.014 A 
ATOM     38  C   UNL     1       6.996   9.067   7.058  1.00  0.00     0.010 A 
ATOM     39  C   UNL     1       5.058   8.216   5.883  1.00  0.00     0.010 A 
ATOM     40  C   UNL     1       5.918   9.283   6.183  1.00  0.00    -0.014 A 
BRANCH  40  41
ATOM     41  C   UNL     1       5.688  10.613   5.561  1.00  0.00     0.031 A 
ATOM     42  C   UNL     1       4.413  11.366   5.826  1.00  0.00     0.074 A 
ATOM     43  C   UNL     1       6.595  11.108   4.695  1.00  0.00     0.049 A 
ATOM     44  N   UNL     1       4.021  12.517   5.343  1.00  0.00    -0.248 NA
ATOM     45  C   UNL     1       3.439  10.735   6.732  1.00  0.00     0.031 C 
ATOM     46  C   UNL     1       7.838  10.443   4.298  1.00  0.00     0.029 A 
ATOM     47  N   UNL     1       6.602  12.277   3.975  1.00  0.00    -0.354 N 
ATOM     48  C   UNL     1       2.746  12.730   5.854  1.00  0.00     0.074 A 
ATOM     49  C   UNL     1       2.416  11.574   6.658  1.00  0.00     0.031 C 
ATOM     50  C   UNL     1       8.490  11.217   3.417  1.00  0.00     0.029 A 
ATOM     51  C   UNL     1       7.697  12.413   3.154  1.00  0.00     0.049 A 
ATOM     52  H   UNL     1       5.890  12.954   4.039  1.00  0.00     0.167 HD
ATOM     53  C   UNL     1       1.933  13.800   5.690  1.00  0.00     0.034 A 
ATOM     54  C   UNL     1       8.022  13.384   2.278  1.00  0.00     0.034 A 
ATOM     55  C   UNL     1       2.275  14.960   4.911  1.00  0.00     0.049 A 
ATOM     56  C   UNL     1       7.107  14.569   2.126  1.00  0.00     0.074 A 
ATOM     57  C   UNL     1       1.557  16.132   4.755  1.00  0.00     0.029 A 
ATOM     58  N   UNL     1       3.421  15.088   4.142  1.00  0.00    -0.354 N 
ATOM     59  N   UNL     1       5.977  14.823   2.738  1.00  0.00    -0.248 NA
ATOM     60  C   UNL     1       7.530  15.618   1.187  1.00  0.00     0.031 C 
ATOM     61  C   UNL     1       2.245  16.950   3.853  1.00  0.00     0.029 A 
ATOM     62  C   UNL     1       3.420  16.310   3.490  1.00  0.00     0.049 A 
ATOM     63  H   UNL     1       4.131  14.411   4.069  1.00  0.00     0.167 HD
ATOM     64  C   UNL     1       5.574  16.076   2.291  1.00  0.00     0.074 A 
ATOM     65  C   UNL     1       6.592  16.537   1.369  1.00  0.00     0.031 C 
ATOM     66  C   UNL     1       4.458  16.778   2.608  1.00  0.00     0.034 A 
BRANCH  53  67
ATOM     67  C   UNL     1       0.597  13.780   6.389  1.00  0.00     0.023 A 
ATOM     68  C   UNL     1       0.537  13.877   7.795  1.00  0.00     0.012 A 
ATOM     69  C   UNL     1      -0.601  13.723   5.650  1.00  0.00     0.148 A 
ATOM     70  C   UNL     1      -0.691  13.876   8.456  1.00  0.00     0.002 A 
ATOM     71  C   UNL     1      -1.822  13.774   6.312  1.00  0.00     0.091 A 
ATOM     72  F   UNL     1      -0.525  13.613   4.316  1.00  0.00    -0.205 F 
ATOM     73  C   UNL     1      -1.869  13.835   7.715  1.00  0.00     0.022 A 
BRANCH  71  74
ATOM     74  S   UNL     1      -3.394  13.813   5.445  1.00  0.00     0.127 S 
ATOM     75  O   UNL     1      -3.954  12.507   5.791  1.00  0.00    -0.237 OA
ATOM     76  O   UNL     1      -4.064  14.950   6.077  1.00  0.00    -0.237 OA
ATOM     77  O   UNL     1      -3.074  14.000   4.037  1.00  0.00    -0.744 OA
ENDBRANCH  71  74
ENDBRANCH  53  67
BRANCH  54  78
ATOM     78  C   UNL     1       9.296  13.300   1.508  1.00  0.00     0.023 A 
ATOM     79  C   UNL     1      10.336  14.208   1.785  1.00  0.00     0.012 A 
ATOM     80  C   UNL     1       9.487  12.317   0.518  1.00  0.00     0.148 A 
ATOM     81  C   UNL     1      11.530  14.164   1.064  1.00  0.00     0.002 A 
ATOM     82  C   UNL     1      10.700  12.242  -0.157  1.00  0.00     0.091 A 
ATOM     83  F   UNL     1       8.482  11.467   0.265  1.00  0.00    -0.205 F 
ATOM     84  C   UNL     1      11.715  13.176   0.101  1.00  0.00     0.022 A 
BRANCH  82  85
ATOM     85  S   UNL     1      11.075  10.928  -1.323  1.00  0.00     0.127 S 
ATOM     86  O   UNL     1      11.165  11.662  -2.582  1.00  0.00    -0.237 OA
ATOM     87  O   UNL     1      12.349  10.426  -0.808  1.00  0.00    -0.237 OA
ATOM     88  O   UNL     1       9.971   9.983  -1.224  1.00  0.00    -0.744 OA
ENDBRANCH  82  85
ENDBRANCH  54  78
BRANCH  66  89
ATOM     89  C   UNL     1       4.292  18.146   1.997  1.00  0.00     0.023 A 
ATOM     90  C   UNL     1       4.013  18.281   0.622  1.00  0.00     0.012 A 
ATOM     91  C   UNL     1       4.345  19.299   2.807  1.00  0.00     0.148 A 
ATOM     92  C   UNL     1       3.828  19.542   0.057  1.00  0.00     0.002 A 
ATOM     93  C   UNL     1       4.104  20.547   2.248  1.00  0.00     0.091 A 
ATOM     94  F   UNL     1       4.627  19.152   4.109  1.00  0.00    -0.205 F 
ATOM     95  C   UNL     1       3.861  20.672   0.871  1.00  0.00     0.022 A 
BRANCH  93  96
ATOM     96  S   UNL     1       4.025  22.047   3.233  1.00  0.00     0.127 S 
ATOM     97  O   UNL     1       5.228  22.753   2.795  1.00  0.00    -0.237 OA
ATOM     98  O   UNL     1       2.768  22.645   2.783  1.00  0.00    -0.237 OA
ATOM     99  O   UNL     1       4.027  21.617   4.625  1.00  0.00    -0.744 OA
ENDBRANCH  93  96
ENDBRANCH  66  89
ENDBRANCH  40  41
ENDBRANCH  32  35
ENDBRANCH  30  31
ENDBRANCH  29  30
ENDBRANCH   1  29
TORSDOF 19
