REMARK SMILES C[C@]1(C(=O)N2CCC(CC(=O)NCCCCNC(=O)c3ccc(-c4c5nc(c(-c6cccc(S(=O)(=O)[O-])c6F)c6ccc([nH]6)c(-c6cccc(S(=O)(=O)[O-])c6F)c6nc(c(-c7cccc(S(=O)(=O)[O-])c7F)c7ccc4[nH]7)C=C6)C=C5)cc3)CC2)CCC[NH2+]C1
REMARK SMILES IDX 15 1 14 2 13 3 12 4 10 5 11 6 9 8 8 9 3 10 4 11 5 12 6 13
REMARK SMILES IDX 84 14 7 15 83 16 2 17 1 18 85 19 89 20 86 21 88 22 87 23
REMARK SMILES IDX 16 26 17 27 18 28 19 30 20 31 21 32 82 33 22 34 81 35 23 36
REMARK SMILES IDX 24 37 25 38 75 39 26 40 80 41 74 42 76 43 27 44 79 45 73 46
REMARK SMILES IDX 72 47 28 49 60 50 40 51 59 52 41 53 44 54 58 55 77 56 42 57
REMARK SMILES IDX 43 58 57 60 78 61 45 62 29 63 30 64 38 65 31 66 33 67 39 68
REMARK SMILES IDX 32 69 34 70 35 71 36 72 37 73 61 74 62 75 70 76 63 77 65 78
REMARK SMILES IDX 71 79 64 80 66 81 67 82 68 83 69 84 46 85 47 86 55 87 48 88
REMARK SMILES IDX 50 89 56 90 49 91 51 92 52 93 53 94 54 95
REMARK H PARENT 12 7 88 24 88 25 17 29 76 48 44 59
REMARK Flexibility Score: inf
ROOT
ATOM      1  C   UNL     1       2.711  -6.473  -0.520  1.00  0.00     0.023 C 
ENDROOT
BRANCH   1   2
ATOM      2  C   UNL     1       3.015  -5.036  -0.139  1.00  0.00     0.023 C 
BRANCH   2   3
ATOM      3  C   UNL     1       4.343  -4.807   0.592  1.00  0.00     0.116 C 
BRANCH   3   4
ATOM      4  N   UNL     1       5.445  -4.632  -0.340  1.00  0.00    -0.356 N 
ATOM      5  C   UNL     1       6.116  -3.509  -0.732  1.00  0.00     0.220 C 
ATOM      6  O   UNL     1       6.989  -3.618  -1.595  1.00  0.00    -0.275 OA
ATOM      7  H   UNL     1       5.762  -5.464  -0.760  1.00  0.00     0.163 HD
BRANCH   5   8
ATOM      8  C   UNL     1       5.804  -2.150  -0.123  1.00  0.00     0.103 C 
BRANCH   8   9
ATOM      9  C   UNL     1       4.814  -1.289  -0.944  1.00  0.00     0.002 C 
ATOM     10  C   UNL     1       1.114   0.511   0.025  1.00  0.00     0.234 C 
ATOM     11  O   UNL     1       0.776   1.678  -0.202  1.00  0.00    -0.274 OA
ATOM     12  N   UNL     1       2.264   0.012  -0.559  1.00  0.00    -0.342 N 
ATOM     13  C   UNL     1       3.424   0.866  -0.753  1.00  0.00     0.120 C 
ATOM     14  C   UNL     1       2.268  -1.151  -1.417  1.00  0.00     0.120 C 
ATOM     15  C   UNL     1       4.673   0.108  -0.298  1.00  0.00     0.026 C 
ATOM     16  C   UNL     1       3.466  -2.007  -1.066  1.00  0.00     0.026 C 
BRANCH  10  17
ATOM     17  C   UNL     1       0.501  -0.272   1.233  1.00  0.00     0.095 C 
ATOM     18  C   UNL     1       1.463   0.009   2.413  1.00  0.00     0.028 C 
ATOM     19  C   UNL     1      -0.888   0.323   1.581  1.00  0.00     0.028 C 
ATOM     20  C   UNL     1       0.341  -1.802   1.124  1.00  0.00     0.277 C 
ATOM     21  C   UNL     1      -1.957  -0.157   0.599  1.00  0.00     0.063 C 
ATOM     22  N   UNL     1      -0.698  -2.240   0.188  1.00  0.00    -0.345 N 
ATOM     23  C   UNL     1      -2.003  -1.680   0.540  1.00  0.00     0.260 C 
ATOM     24  H   UNL     1      -0.448  -1.933  -0.752  1.00  0.00     0.346 HD
ATOM     25  H   UNL     1      -0.762  -3.257   0.232  1.00  0.00     0.346 HD
ENDBRANCH  10  17
ENDBRANCH   8   9
ENDBRANCH   5   8
ENDBRANCH   3   4
ENDBRANCH   2   3
ENDBRANCH   1   2
BRANCH   1  26
ATOM     26  C   UNL     1       2.426  -7.378   0.659  1.00  0.00     0.116 C 
BRANCH  26  27
ATOM     27  N   UNL     1       1.308  -6.926   1.479  1.00  0.00    -0.352 N 
ATOM     28  C   UNL     1       0.266  -7.665   1.992  1.00  0.00     0.251 C 
ATOM     29  H   UNL     1       1.297  -5.965   1.694  1.00  0.00     0.163 HD
ATOM     30  O   UNL     1      -0.663  -7.110   2.563  1.00  0.00    -0.269 OA
BRANCH  28  31
ATOM     31  C   UNL     1       0.280  -9.132   1.809  1.00  0.00     0.039 A 
ATOM     32  C   UNL     1      -0.877  -9.779   1.374  1.00  0.00     0.014 A 
ATOM     33  C   UNL     1       1.464  -9.848   1.999  1.00  0.00     0.014 A 
ATOM     34  C   UNL     1      -0.824 -11.140   1.068  1.00  0.00     0.010 A 
ATOM     35  C   UNL     1       1.544 -11.164   1.577  1.00  0.00     0.010 A 
ATOM     36  C   UNL     1       0.395 -11.835   1.137  1.00  0.00    -0.014 A 
BRANCH  36  37
ATOM     37  C   UNL     1       0.492 -13.276   0.803  1.00  0.00     0.031 A 
ATOM     38  C   UNL     1       0.956 -14.251   1.854  1.00  0.00     0.074 A 
ATOM     39  C   UNL     1       0.255 -13.693  -0.456  1.00  0.00     0.049 A 
ATOM     40  N   UNL     1       1.162 -15.537   1.753  1.00  0.00    -0.248 NA
ATOM     41  C   UNL     1       1.274 -13.700   3.185  1.00  0.00     0.031 C 
ATOM     42  C   UNL     1      -0.093 -12.829  -1.587  1.00  0.00     0.029 A 
ATOM     43  N   UNL     1       0.294 -14.951  -1.001  1.00  0.00    -0.354 N 
ATOM     44  C   UNL     1       1.676 -15.934   2.981  1.00  0.00     0.074 A 
ATOM     45  C   UNL     1       1.804 -14.748   3.795  1.00  0.00     0.031 C 
ATOM     46  C   UNL     1      -0.255 -13.586  -2.686  1.00  0.00     0.029 A 
ATOM     47  C   UNL     1      -0.004 -14.982  -2.344  1.00  0.00     0.049 A 
ATOM     48  H   UNL     1       0.515 -15.757  -0.481  1.00  0.00     0.167 HD
ATOM     49  C   UNL     1       1.970 -17.182   3.415  1.00  0.00     0.034 A 
ATOM     50  C   UNL     1      -0.078 -16.023  -3.196  1.00  0.00     0.034 A 
ATOM     51  C   UNL     1       1.761 -18.365   2.630  1.00  0.00     0.049 A 
ATOM     52  C   UNL     1       0.157 -17.412  -2.663  1.00  0.00     0.074 A 
ATOM     53  C   UNL     1       1.919 -19.687   3.004  1.00  0.00     0.029 A 
ATOM     54  N   UNL     1       1.336 -18.368   1.310  1.00  0.00    -0.354 N 
ATOM     55  N   UNL     1       0.475 -17.786  -1.446  1.00  0.00    -0.248 NA
ATOM     56  C   UNL     1      -0.020 -18.525  -3.606  1.00  0.00     0.031 C 
ATOM     57  C   UNL     1       1.596 -20.490   1.905  1.00  0.00     0.029 A 
ATOM     58  C   UNL     1       1.223 -19.668   0.853  1.00  0.00     0.049 A 
ATOM     59  H   UNL     1       1.144 -17.563   0.777  1.00  0.00     0.167 HD
ATOM     60  C   UNL     1       0.498 -19.175  -1.468  1.00  0.00     0.074 A 
ATOM     61  C   UNL     1       0.141 -19.576  -2.814  1.00  0.00     0.031 C 
ATOM     62  C   UNL     1       0.805 -20.043  -0.472  1.00  0.00     0.034 A 
BRANCH  49  63
ATOM     63  C   UNL     1       2.470 -17.329   4.828  1.00  0.00     0.023 A 
ATOM     64  C   UNL     1       1.585 -17.105   5.904  1.00  0.00     0.012 A 
ATOM     65  C   UNL     1       3.796 -17.718   5.095  1.00  0.00     0.148 A 
ATOM     66  C   UNL     1       2.021 -17.224   7.222  1.00  0.00     0.002 A 
ATOM     67  C   UNL     1       4.211 -17.880   6.412  1.00  0.00     0.091 A 
ATOM     68  F   UNL     1       4.631 -17.901   4.062  1.00  0.00    -0.205 F 
ATOM     69  C   UNL     1       3.330 -17.622   7.476  1.00  0.00     0.022 A 
BRANCH  67  70
ATOM     70  S   UNL     1       5.855 -18.464   6.844  1.00  0.00     0.127 S 
ATOM     71  O   UNL     1       6.471 -17.246   7.369  1.00  0.00    -0.237 OA
ATOM     72  O   UNL     1       5.564 -19.484   7.852  1.00  0.00    -0.237 OA
ATOM     73  O   UNL     1       6.433 -18.977   5.610  1.00  0.00    -0.744 OA
ENDBRANCH  67  70
ENDBRANCH  49  63
BRANCH  50  74
ATOM     74  C   UNL     1      -0.490 -15.802  -4.611  1.00  0.00     0.023 A 
ATOM     75  C   UNL     1      -1.765 -16.231  -5.030  1.00  0.00     0.012 A 
ATOM     76  C   UNL     1       0.350 -15.146  -5.531  1.00  0.00     0.148 A 
ATOM     77  C   UNL     1      -2.183 -16.042  -6.348  1.00  0.00     0.002 A 
ATOM     78  C   UNL     1      -0.094 -14.914  -6.829  1.00  0.00     0.091 A 
ATOM     79  F   UNL     1       1.563 -14.754  -5.117  1.00  0.00    -0.205 F 
ATOM     80  C   UNL     1      -1.352 -15.376  -7.244  1.00  0.00     0.022 A 
BRANCH  78  81
ATOM     81  S   UNL     1       0.857 -13.951  -8.011  1.00  0.00     0.127 S 
ATOM     82  O   UNL     1       1.340 -14.986  -8.920  1.00  0.00    -0.237 OA
ATOM     83  O   UNL     1      -0.164 -13.065  -8.571  1.00  0.00    -0.237 OA
ATOM     84  O   UNL     1       1.876 -13.267  -7.225  1.00  0.00    -0.744 OA
ENDBRANCH  78  81
ENDBRANCH  50  74
BRANCH  62  85
ATOM     85  C   UNL     1       0.734 -21.514  -0.783  1.00  0.00     0.023 A 
ATOM     86  C   UNL     1       1.730 -22.107  -1.582  1.00  0.00     0.012 A 
ATOM     87  C   UNL     1      -0.271 -22.320  -0.214  1.00  0.00     0.148 A 
ATOM     88  C   UNL     1       1.710 -23.477  -1.837  1.00  0.00     0.002 A 
ATOM     89  C   UNL     1      -0.257 -23.692  -0.432  1.00  0.00     0.091 A 
ATOM     90  F   UNL     1      -1.221 -21.732   0.528  1.00  0.00    -0.205 F 
ATOM     91  C   UNL     1       0.725 -24.270  -1.252  1.00  0.00     0.022 A 
BRANCH  89  92
ATOM     92  S   UNL     1      -1.428 -24.797   0.363  1.00  0.00     0.127 S 
ATOM     93  O   UNL     1      -2.351 -25.091  -0.731  1.00  0.00    -0.237 OA
ATOM     94  O   UNL     1      -0.578 -25.920   0.763  1.00  0.00    -0.237 OA
ATOM     95  O   UNL     1      -1.990 -24.045   1.477  1.00  0.00    -0.744 OA
ENDBRANCH  89  92
ENDBRANCH  62  85
ENDBRANCH  36  37
ENDBRANCH  28  31
ENDBRANCH  26  27
ENDBRANCH   1  26
TORSDOF 16
