REMARK SMILES O=C(NCCCCNC(=O)c1[nH]ncc1C[N@H+]1CCC[C@H](C(=O)c2ccc3ccccc3c2)C1)c1ccc(-c2c3nc(c(-c4cccc(S(=O)(=O)[O-])c4F)c4ccc([nH]4)c(-c4cccc(S(=O)(=O)[O-])c4F)c4nc(c(-c5cccc(S(=O)(=O)[O-])c5F)c5ccc2[nH]5)C=C4)C=C3)cc1
REMARK SMILES IDX 6 1 5 2 4 3 3 4 1 5 2 6 35 8 36 9 97 10 37 11 96 12 38 13
REMARK SMILES IDX 39 14 40 15 90 16 41 17 95 18 89 19 91 20 42 21 94 22 88 23
REMARK SMILES IDX 87 24 43 26 75 27 55 28 74 29 56 30 59 31 73 32 92 33 57 34
REMARK SMILES IDX 58 35 72 37 93 38 60 39 44 40 45 41 53 42 46 43 48 44 54 45
REMARK SMILES IDX 47 46 49 47 50 48 51 49 52 50 76 51 77 52 85 53 78 54 80 55
REMARK SMILES IDX 86 56 79 57 81 58 82 59 83 60 84 61 61 62 62 63 70 64 63 65
REMARK SMILES IDX 65 66 71 67 64 68 66 69 67 70 68 71 69 72 7 73 8 74 9 75
REMARK SMILES IDX 10 77 11 78 12 79 15 80 13 81 14 83 16 84 17 85 18 86 34 87
REMARK SMILES IDX 19 89 21 90 20 91 22 92 23 93 24 94 25 95 33 96 26 97 32 98
REMARK SMILES IDX 27 99 31 100 28 101 30 102 29 103
REMARK H PARENT 3 7 91 25 59 36 8 76 12 82 17 88
REMARK Flexibility Score: inf
ROOT
ATOM      1  C   UNL     1       4.540   1.899   3.297  1.00  0.00     0.023 C 
ENDROOT
BRANCH   1   2
ATOM      2  C   UNL     1       5.042   1.816   1.857  1.00  0.00     0.023 C 
BRANCH   2   3
ATOM      3  C   UNL     1       4.715   0.519   1.126  1.00  0.00     0.116 C 
BRANCH   3   4
ATOM      4  N   UNL     1       3.286   0.262   1.036  1.00  0.00    -0.352 N 
ATOM      5  O   UNL     1       1.285  -0.003   0.035  1.00  0.00    -0.269 OA
ATOM      6  C   UNL     1       2.505   0.069  -0.080  1.00  0.00     0.251 C 
ATOM      7  H   UNL     1       2.810   0.221   1.897  1.00  0.00     0.163 HD
BRANCH   6   8
ATOM      8  C   UNL     1       3.142  -0.015  -1.411  1.00  0.00     0.039 A 
ATOM      9  C   UNL     1       4.265  -0.822  -1.609  1.00  0.00     0.014 A 
ATOM     10  C   UNL     1       2.622   0.740  -2.465  1.00  0.00     0.014 A 
ATOM     11  C   UNL     1       4.959  -0.750  -2.812  1.00  0.00     0.010 A 
ATOM     12  C   UNL     1       3.274   0.743  -3.702  1.00  0.00     0.010 A 
ATOM     13  C   UNL     1       4.470   0.029  -3.873  1.00  0.00    -0.014 A 
BRANCH  13  14
ATOM     14  C   UNL     1       5.195   0.030  -5.169  1.00  0.00     0.031 A 
ATOM     15  C   UNL     1       5.837   1.279  -5.708  1.00  0.00     0.074 A 
ATOM     16  C   UNL     1       5.280  -1.125  -5.857  1.00  0.00     0.049 A 
ATOM     17  N   UNL     1       6.539   1.432  -6.801  1.00  0.00    -0.248 NA
ATOM     18  C   UNL     1       5.668   2.516  -4.929  1.00  0.00     0.031 C 
ATOM     19  C   UNL     1       4.658  -2.389  -5.454  1.00  0.00     0.029 A 
ATOM     20  N   UNL     1       5.922  -1.430  -7.029  1.00  0.00    -0.354 N 
ATOM     21  C   UNL     1       6.864   2.782  -6.864  1.00  0.00     0.074 A 
ATOM     22  C   UNL     1       6.277   3.409  -5.699  1.00  0.00     0.031 C 
ATOM     23  C   UNL     1       4.976  -3.339  -6.344  1.00  0.00     0.029 A 
ATOM     24  C   UNL     1       5.784  -2.746  -7.403  1.00  0.00     0.049 A 
ATOM     25  H   UNL     1       6.433  -0.771  -7.552  1.00  0.00     0.167 HD
ATOM     26  C   UNL     1       7.600   3.434  -7.796  1.00  0.00     0.034 A 
ATOM     27  C   UNL     1       6.249  -3.405  -8.481  1.00  0.00     0.034 A 
ATOM     28  C   UNL     1       8.221   2.797  -8.928  1.00  0.00     0.049 A 
ATOM     29  C   UNL     1       7.091  -2.663  -9.478  1.00  0.00     0.074 A 
ATOM     30  C   UNL     1       9.037   3.362  -9.893  1.00  0.00     0.029 A 
ATOM     31  N   UNL     1       8.094   1.454  -9.250  1.00  0.00    -0.354 N 
ATOM     32  N   UNL     1       7.491  -1.415  -9.450  1.00  0.00    -0.248 NA
ATOM     33  C   UNL     1       7.567  -3.423 -10.641  1.00  0.00     0.031 C 
ATOM     34  C   UNL     1       9.399   2.361 -10.802  1.00  0.00     0.029 A 
ATOM     35  C   UNL     1       8.813   1.172 -10.400  1.00  0.00     0.049 A 
ATOM     36  H   UNL     1       7.571   0.797  -8.737  1.00  0.00     0.167 HD
ATOM     37  C   UNL     1       8.278  -1.243 -10.580  1.00  0.00     0.074 A 
ATOM     38  C   UNL     1       8.325  -2.524 -11.256  1.00  0.00     0.031 C 
ATOM     39  C   UNL     1       8.887  -0.120 -11.032  1.00  0.00     0.034 A 
BRANCH  26  40
ATOM     40  C   UNL     1       7.828   4.910  -7.607  1.00  0.00     0.023 A 
ATOM     41  C   UNL     1       8.768   5.346  -6.652  1.00  0.00     0.012 A 
ATOM     42  C   UNL     1       7.180   5.859  -8.422  1.00  0.00     0.148 A 
ATOM     43  C   UNL     1       9.046   6.704  -6.496  1.00  0.00     0.002 A 
ATOM     44  C   UNL     1       7.487   7.210  -8.284  1.00  0.00     0.091 A 
ATOM     45  F   UNL     1       6.271   5.429  -9.309  1.00  0.00    -0.205 F 
ATOM     46  C   UNL     1       8.414   7.633  -7.318  1.00  0.00     0.022 A 
BRANCH  44  47
ATOM     47  S   UNL     1       6.772   8.473  -9.344  1.00  0.00     0.127 S 
ATOM     48  O   UNL     1       5.773   9.070  -8.459  1.00  0.00    -0.237 OA
ATOM     49  O   UNL     1       7.923   9.330  -9.629  1.00  0.00    -0.237 OA
ATOM     50  O   UNL     1       6.246   7.766 -10.503  1.00  0.00    -0.744 OA
ENDBRANCH  44  47
ENDBRANCH  26  40
BRANCH  27  51
ATOM     51  C   UNL     1       5.975  -4.861  -8.624  1.00  0.00     0.023 A 
ATOM     52  C   UNL     1       7.027  -5.780  -8.455  1.00  0.00     0.012 A 
ATOM     53  C   UNL     1       4.671  -5.342  -8.851  1.00  0.00     0.148 A 
ATOM     54  C   UNL     1       6.788  -7.153  -8.523  1.00  0.00     0.002 A 
ATOM     55  C   UNL     1       4.430  -6.711  -8.858  1.00  0.00     0.091 A 
ATOM     56  F   UNL     1       3.686  -4.451  -9.033  1.00  0.00    -0.205 F 
ATOM     57  C   UNL     1       5.488  -7.619  -8.708  1.00  0.00     0.022 A 
BRANCH  55  58
ATOM     58  S   UNL     1       2.762  -7.374  -8.932  1.00  0.00     0.127 S 
ATOM     59  O   UNL     1       2.649  -7.746 -10.339  1.00  0.00    -0.237 OA
ATOM     60  O   UNL     1       2.835  -8.501  -8.000  1.00  0.00    -0.237 OA
ATOM     61  O   UNL     1       1.900  -6.289  -8.482  1.00  0.00    -0.744 OA
ENDBRANCH  55  58
ENDBRANCH  27  51
BRANCH  39  62
ATOM     62  C   UNL     1       9.662  -0.226 -12.317  1.00  0.00     0.023 A 
ATOM     63  C   UNL     1       8.965  -0.289 -13.540  1.00  0.00     0.012 A 
ATOM     64  C   UNL     1      11.070  -0.200 -12.322  1.00  0.00     0.148 A 
ATOM     65  C   UNL     1       9.658  -0.352 -14.747  1.00  0.00     0.002 A 
ATOM     66  C   UNL     1      11.754  -0.223 -13.532  1.00  0.00     0.091 A 
ATOM     67  F   UNL     1      11.715  -0.164 -11.146  1.00  0.00    -0.205 F 
ATOM     68  C   UNL     1      11.050  -0.308 -14.744  1.00  0.00     0.022 A 
BRANCH  66  69
ATOM     69  S   UNL     1      13.543  -0.087 -13.616  1.00  0.00     0.127 S 
ATOM     70  O   UNL     1      13.939  -1.479 -13.819  1.00  0.00    -0.237 OA
ATOM     71  O   UNL     1      13.740   0.779 -14.780  1.00  0.00    -0.237 OA
ATOM     72  O   UNL     1      13.952   0.508 -12.351  1.00  0.00    -0.744 OA
ENDBRANCH  66  69
ENDBRANCH  39  62
ENDBRANCH  13  14
ENDBRANCH   6   8
ENDBRANCH   3   4
ENDBRANCH   2   3
ENDBRANCH   1   2
BRANCH   1  73
ATOM     73  C   UNL     1       4.890   0.703   4.176  1.00  0.00     0.116 C 
BRANCH  73  74
ATOM     74  N   UNL     1       6.324   0.515   4.323  1.00  0.00    -0.351 N 
ATOM     75  C   UNL     1       7.067   0.451   5.474  1.00  0.00     0.269 C 
ATOM     76  H   UNL     1       6.830   0.421   3.484  1.00  0.00     0.163 HD
ATOM     77  O   UNL     1       8.291   0.500   5.397  1.00  0.00    -0.268 OA
BRANCH  75  78
ATOM     78  C   UNL     1       6.379   0.394   6.731  1.00  0.00     0.131 A 
ATOM     79  N   UNL     1       6.699   1.227   7.765  1.00  0.00    -0.272 N 
ATOM     80  C   UNL     1       5.387  -0.448   7.220  1.00  0.00     0.057 A 
ATOM     81  N   UNL     1       5.875   1.119   8.820  1.00  0.00    -0.183 NA
ATOM     82  H   UNL     1       7.462   1.849   7.739  1.00  0.00     0.190 HD
ATOM     83  C   UNL     1       5.079   0.101   8.487  1.00  0.00     0.145 A 
BRANCH  80  84
ATOM     84  C   UNL     1       4.783  -1.639   6.545  1.00  0.00     0.303 C 
BRANCH  84  85
ATOM     85  N   UNL     1       5.056  -2.918   7.212  1.00  0.00    -0.330 N 
ATOM     86  C   UNL     1       6.459  -3.103   7.589  1.00  0.00     0.262 C 
ATOM     87  C   UNL     1       4.135  -3.223   8.303  1.00  0.00     0.274 C 
ATOM     88  H   UNL     1       4.871  -3.617   6.493  1.00  0.00     0.348 HD
ATOM     89  C   UNL     1       6.729  -4.545   8.005  1.00  0.00     0.062 C 
ATOM     90  C   UNL     1       4.277  -4.672   8.779  1.00  0.00     0.116 C 
ATOM     91  C   UNL     1       5.733  -5.066   9.041  1.00  0.00     0.023 C 
BRANCH  90  92
ATOM     92  C   UNL     1       3.432  -5.624   7.926  1.00  0.00     0.171 C 
ATOM     93  O   UNL     1       2.348  -6.048   8.331  1.00  0.00    -0.294 OA
BRANCH  92  94
ATOM     94  C   UNL     1       3.824  -5.965   6.541  1.00  0.00     0.019 A 
ATOM     95  C   UNL     1       4.912  -6.796   6.290  1.00  0.00     0.012 A 
ATOM     96  C   UNL     1       3.029  -5.506   5.485  1.00  0.00     0.020 A 
ATOM     97  C   UNL     1       5.276  -7.082   4.972  1.00  0.00     0.009 A 
ATOM     98  C   UNL     1       3.367  -5.813   4.155  1.00  0.00    -0.018 A 
ATOM     99  C   UNL     1       4.522  -6.590   3.897  1.00  0.00    -0.018 A 
ATOM    100  C   UNL     1       2.587  -5.369   3.075  1.00  0.00     0.009 A 
ATOM    101  C   UNL     1       4.882  -6.868   2.569  1.00  0.00     0.009 A 
ATOM    102  C   UNL     1       2.951  -5.669   1.760  1.00  0.00     0.001 A 
ATOM    103  C   UNL     1       4.102  -6.409   1.507  1.00  0.00     0.001 A 
ENDBRANCH  92  94
ENDBRANCH  90  92
ENDBRANCH  84  85
ENDBRANCH  80  84
ENDBRANCH  75  78
ENDBRANCH  73  74
ENDBRANCH   1  73
TORSDOF 18
