REMARK SMILES COc1ccc(NCc2cc(C(=O)NCCCCNC(=O)c3ccc(-c4c5nc(c(-c6cccc(S(=O)(=O)[O-])c6F)c6ccc([nH]6)c(-c6cccc(S(=O)(=O)[O-])c6F)c6nc(c(-c7cccc(S(=O)(=O)[O-])c7F)c7ccc4[nH]7)C=C6)C=C5)cc3)cs2)cc1Br
REMARK SMILES IDX 16 1 15 2 14 3 12 4 13 5 11 7 9 8 10 9 86 10 85 11 8 12 7 13
REMARK SMILES IDX 6 15 3 16 4 17 88 18 5 19 87 20 89 21 2 22 1 23 17 24 18 25
REMARK SMILES IDX 19 26 20 27 21 29 22 30 23 31 84 32 24 33 83 34 25 35 26 36
REMARK SMILES IDX 27 37 77 38 28 39 82 40 76 41 78 42 29 43 81 44 75 45 74 46
REMARK SMILES IDX 30 48 62 49 42 50 61 51 43 52 46 53 60 54 79 55 44 56 45 57
REMARK SMILES IDX 59 59 80 60 47 61 31 62 32 63 40 64 33 65 35 66 41 67 34 68
REMARK SMILES IDX 36 69 37 70 38 71 39 72 63 73 64 74 72 75 65 76 67 77 73 78
REMARK SMILES IDX 66 79 68 80 69 81 70 82 71 83 48 84 49 85 57 86 50 87 52 88
REMARK SMILES IDX 58 89 51 90 53 91 54 92 55 93 56 94
REMARK H PARENT 14 6 7 14 19 28 78 47 46 58
REMARK Flexibility Score: inf
ROOT
ATOM      1  C   UNL     1      -3.095   6.354  -3.499  1.00  0.00     0.023 C 
ENDROOT
BRANCH   1   2
ATOM      2  C   UNL     1      -3.066   6.887  -4.931  1.00  0.00     0.116 C 
BRANCH   2   3
ATOM      3  N   UNL     1      -2.415   8.179  -4.984  1.00  0.00    -0.352 N 
ATOM      4  C   UNL     1      -1.149   8.554  -5.352  1.00  0.00     0.252 C 
ATOM      5  O   UNL     1      -0.897   9.757  -5.345  1.00  0.00    -0.269 OA
ATOM      6  H   UNL     1      -2.989   8.928  -4.703  1.00  0.00     0.163 HD
BRANCH   4   7
ATOM      7  C   UNL     1      -0.152   7.575  -5.800  1.00  0.00     0.050 A 
ATOM      8  C   UNL     1       0.958   5.558  -6.296  1.00  0.00     0.024 A 
ATOM      9  C   UNL     1      -0.054   6.161  -5.574  1.00  0.00     0.031 A 
ATOM     10  S   UNL     1       1.939   6.716  -7.076  1.00  0.00    -0.146 S 
ATOM     11  C   UNL     1       0.944   7.994  -6.542  1.00  0.00     0.079 A 
BRANCH   8  12
ATOM     12  C   UNL     1       1.256   4.094  -6.413  1.00  0.00     0.159 C 
BRANCH  12  13
ATOM     13  N   UNL     1       2.040   3.587  -5.306  1.00  0.00    -0.380 N 
ATOM     14  H   UNL     1       2.978   3.883  -5.266  1.00  0.00     0.160 HD
BRANCH  13  15
ATOM     15  C   UNL     1       1.627   2.740  -4.301  1.00  0.00     0.036 A 
ATOM     16  C   UNL     1       1.007   0.823  -2.297  1.00  0.00     0.133 A 
ATOM     17  C   UNL     1       0.033   1.265  -3.195  1.00  0.00     0.050 A 
ATOM     18  C   UNL     1       2.298   1.342  -2.397  1.00  0.00     0.062 A 
ATOM     19  C   UNL     1       0.341   2.212  -4.184  1.00  0.00     0.029 A 
ATOM     20  C   UNL     1       2.589   2.298  -3.381  1.00  0.00     0.045 A 
ATOM     21  Br  UNL     1       3.759   0.747  -1.341  1.00  0.00    -0.047 Br
BRANCH  16  22
ATOM     22  O   UNL     1       0.627  -0.206  -1.478  1.00  0.00    -0.496 OA
ATOM     23  C   UNL     1       0.723   0.086  -0.086  1.00  0.00     0.278 C 
ENDBRANCH  16  22
ENDBRANCH  13  15
ENDBRANCH  12  13
ENDBRANCH   8  12
ENDBRANCH   4   7
ENDBRANCH   2   3
ENDBRANCH   1   2
BRANCH   1  24
ATOM     24  C   UNL     1      -4.203   6.969  -2.637  1.00  0.00     0.023 C 
BRANCH  24  25
ATOM     25  C   UNL     1      -5.623   6.737  -3.148  1.00  0.00     0.116 C 
BRANCH  25  26
ATOM     26  N   UNL     1      -5.943   5.328  -3.331  1.00  0.00    -0.352 N 
ATOM     27  C   UNL     1      -7.138   4.687  -3.110  1.00  0.00     0.251 C 
ATOM     28  H   UNL     1      -5.206   4.760  -3.655  1.00  0.00     0.163 HD
ATOM     29  O   UNL     1      -7.209   3.466  -3.197  1.00  0.00    -0.269 OA
BRANCH  27  30
ATOM     30  C   UNL     1      -8.323   5.483  -2.731  1.00  0.00     0.039 A 
ATOM     31  C   UNL     1      -9.070   5.091  -1.619  1.00  0.00     0.014 A 
ATOM     32  C   UNL     1      -8.663   6.638  -3.441  1.00  0.00     0.014 A 
ATOM     33  C   UNL     1     -10.120   5.897  -1.178  1.00  0.00     0.010 A 
ATOM     34  C   UNL     1      -9.659   7.478  -2.954  1.00  0.00     0.010 A 
ATOM     35  C   UNL     1     -10.398   7.118  -1.817  1.00  0.00    -0.014 A 
BRANCH  35  36
ATOM     36  C   UNL     1     -11.435   8.039  -1.285  1.00  0.00     0.031 A 
ATOM     37  C   UNL     1     -12.638   8.398  -2.114  1.00  0.00     0.074 A 
ATOM     38  C   UNL     1     -11.254   8.611  -0.078  1.00  0.00     0.049 A 
ATOM     39  N   UNL     1     -13.632   9.195  -1.819  1.00  0.00    -0.248 NA
ATOM     40  C   UNL     1     -12.726   7.806  -3.460  1.00  0.00     0.031 C 
ATOM     41  C   UNL     1     -10.087   8.413   0.785  1.00  0.00     0.029 A 
ATOM     42  N   UNL     1     -12.038   9.492   0.624  1.00  0.00    -0.354 N 
ATOM     43  C   UNL     1     -14.444   9.225  -2.946  1.00  0.00     0.074 A 
ATOM     44  C   UNL     1     -13.808   8.396  -3.946  1.00  0.00     0.031 C 
ATOM     45  C   UNL     1     -10.238   9.139   1.905  1.00  0.00     0.029 A 
ATOM     46  C   UNL     1     -11.493   9.880   1.826  1.00  0.00     0.049 A 
ATOM     47  H   UNL     1     -12.909   9.816   0.299  1.00  0.00     0.167 HD
ATOM     48  C   UNL     1     -15.627   9.860  -3.123  1.00  0.00     0.034 A 
ATOM     49  C   UNL     1     -11.947  10.741   2.758  1.00  0.00     0.034 A 
ATOM     50  C   UNL     1     -16.271  10.660  -2.116  1.00  0.00     0.049 A 
ATOM     51  C   UNL     1     -13.278  11.409   2.547  1.00  0.00     0.074 A 
ATOM     52  C   UNL     1     -17.512  11.271  -2.168  1.00  0.00     0.029 A 
ATOM     53  N   UNL     1     -15.723  10.974  -0.882  1.00  0.00    -0.354 N 
ATOM     54  N   UNL     1     -14.111  11.291   1.543  1.00  0.00    -0.248 NA
ATOM     55  C   UNL     1     -13.749  12.301   3.616  1.00  0.00     0.031 C 
ATOM     56  C   UNL     1     -17.697  11.986  -0.980  1.00  0.00     0.029 A 
ATOM     57  C   UNL     1     -16.591  11.785  -0.171  1.00  0.00     0.049 A 
ATOM     58  H   UNL     1     -14.845  10.665  -0.560  1.00  0.00     0.167 HD
ATOM     59  C   UNL     1     -15.218  12.065   1.873  1.00  0.00     0.074 A 
ATOM     60  C   UNL     1     -14.959  12.625   3.183  1.00  0.00     0.031 C 
ATOM     61  C   UNL     1     -16.341  12.303   1.150  1.00  0.00     0.034 A 
BRANCH  48  62
ATOM     62  C   UNL     1     -16.327   9.682  -4.447  1.00  0.00     0.023 A 
ATOM     63  C   UNL     1     -16.893   8.433  -4.776  1.00  0.00     0.012 A 
ATOM     64  C   UNL     1     -16.481  10.765  -5.335  1.00  0.00     0.148 A 
ATOM     65  C   UNL     1     -17.569   8.254  -5.982  1.00  0.00     0.002 A 
ATOM     66  C   UNL     1     -17.198  10.591  -6.513  1.00  0.00     0.091 A 
ATOM     67  F   UNL     1     -15.920  11.939  -5.015  1.00  0.00    -0.205 F 
ATOM     68  C   UNL     1     -17.731   9.334  -6.844  1.00  0.00     0.022 A 
BRANCH  66  69
ATOM     69  S   UNL     1     -17.534  11.938  -7.653  1.00  0.00     0.127 S 
ATOM     70  O   UNL     1     -16.728  11.553  -8.810  1.00  0.00    -0.237 OA
ATOM     71  O   UNL     1     -18.979  11.819  -7.849  1.00  0.00    -0.237 OA
ATOM     72  O   UNL     1     -17.110  13.155  -6.975  1.00  0.00    -0.744 OA
ENDBRANCH  66  69
ENDBRANCH  48  62
BRANCH  49  73
ATOM     73  C   UNL     1     -11.159  10.981   4.001  1.00  0.00     0.023 A 
ATOM     74  C   UNL     1     -11.653  10.520   5.237  1.00  0.00     0.012 A 
ATOM     75  C   UNL     1      -9.921  11.649   3.962  1.00  0.00     0.148 A 
ATOM     76  C   UNL     1     -10.946  10.754   6.417  1.00  0.00     0.002 A 
ATOM     77  C   UNL     1      -9.193  11.826   5.133  1.00  0.00     0.091 A 
ATOM     78  F   UNL     1      -9.473  12.087   2.778  1.00  0.00    -0.205 F 
ATOM     79  C   UNL     1      -9.713  11.398   6.364  1.00  0.00     0.022 A 
BRANCH  77  80
ATOM     80  S   UNL     1      -7.538  12.524   5.142  1.00  0.00     0.127 S 
ATOM     81  O   UNL     1      -7.758  13.806   5.806  1.00  0.00    -0.237 OA
ATOM     82  O   UNL     1      -6.801  11.537   5.931  1.00  0.00    -0.237 OA
ATOM     83  O   UNL     1      -7.135  12.597   3.744  1.00  0.00    -0.744 OA
ENDBRANCH  77  80
ENDBRANCH  49  73
BRANCH  61  84
ATOM     84  C   UNL     1     -17.396  13.180   1.773  1.00  0.00     0.023 A 
ATOM     85  C   UNL     1     -17.163  14.562   1.929  1.00  0.00     0.012 A 
ATOM     86  C   UNL     1     -18.643  12.643   2.151  1.00  0.00     0.148 A 
ATOM     87  C   UNL     1     -18.137  15.386   2.491  1.00  0.00     0.002 A 
ATOM     88  C   UNL     1     -19.629  13.480   2.659  1.00  0.00     0.091 A 
ATOM     89  F   UNL     1     -18.841  11.325   2.010  1.00  0.00    -0.205 F 
ATOM     90  C   UNL     1     -19.373  14.848   2.845  1.00  0.00     0.022 A 
BRANCH  88  91
ATOM     91  S   UNL     1     -21.282  12.896   3.050  1.00  0.00     0.127 S 
ATOM     92  O   UNL     1     -21.279  12.948   4.511  1.00  0.00    -0.237 OA
ATOM     93  O   UNL     1     -22.126  13.902   2.405  1.00  0.00    -0.237 OA
ATOM     94  O   UNL     1     -21.384  11.562   2.474  1.00  0.00    -0.744 OA
ENDBRANCH  88  91
ENDBRANCH  61  84
ENDBRANCH  35  36
ENDBRANCH  27  30
ENDBRANCH  25  26
ENDBRANCH  24  25
ENDBRANCH   1  24
TORSDOF 18
