REMARK SMILES C[C@@H]1[C@H](C(=O)NCCCCNC(=O)c2ccc(-c3c4nc(c(-c5cccc(S(=O)(=O)[O-])c5F)c5ccc([nH]5)c(-c5cccc(S(=O)(=O)[O-])c5F)c5nc(c(-c6cccc(S(=O)(=O)[O-])c6F)c6ccc3[nH]6)C=C5)C=C4)cc2)[C@@H](C)CC(=O)N1CC(C)(C)S(C)(=O)=O
REMARK SMILES IDX 8 1 7 2 6 3 4 4 5 5 3 7 1 8 2 9 82 10 77 11 80 12 79 13
REMARK SMILES IDX 78 14 81 15 83 16 84 17 85 18 86 19 87 20 88 21 89 22 90 23
REMARK SMILES IDX 9 24 10 25 11 26 12 27 13 29 14 30 15 31 76 32 16 33 75 34
REMARK SMILES IDX 17 35 18 36 19 37 69 38 20 39 74 40 68 41 70 42 21 43 73 44
REMARK SMILES IDX 67 45 66 46 22 48 54 49 34 50 53 51 35 52 38 53 52 54 71 55
REMARK SMILES IDX 36 56 37 57 51 59 72 60 39 61 23 62 24 63 32 64 25 65 27 66
REMARK SMILES IDX 33 67 26 68 28 69 29 70 30 71 31 72 55 73 56 74 64 75 57 76
REMARK SMILES IDX 59 77 65 78 58 79 60 80 61 81 62 82 63 83 40 84 41 85 49 86
REMARK SMILES IDX 42 87 44 88 50 89 43 90 45 91 46 92 47 93 48 94
REMARK H PARENT 6 6 11 28 70 47 38 58
REMARK Flexibility Score: inf
ROOT
ATOM      1  C   UNL     1       2.200  -1.999   0.055  1.00  0.00     0.023 C 
ENDROOT
BRANCH   1   2
ATOM      2  C   UNL     1       1.100  -1.610  -0.937  1.00  0.00     0.116 C 
BRANCH   2   3
ATOM      3  N   UNL     1      -0.225  -1.594  -0.337  1.00  0.00    -0.356 N 
ATOM      4  C   UNL     1      -1.117  -0.590  -0.119  1.00  0.00     0.225 C 
ATOM      5  O   UNL     1      -2.144  -0.874   0.506  1.00  0.00    -0.275 OA
ATOM      6  H   UNL     1      -0.534  -2.477  -0.029  1.00  0.00     0.163 HD
BRANCH   4   7
ATOM      7  C   UNL     1      -0.904   0.861  -0.581  1.00  0.00     0.104 C 
ATOM      8  C   UNL     1       1.035   0.902   1.124  1.00  0.00     0.032 C 
ATOM      9  C   UNL     1       0.008   1.706   0.346  1.00  0.00     0.094 C 
ATOM     10  N   UNL     1       0.649   2.914  -0.252  1.00  0.00    -0.338 N 
ATOM     11  C   UNL     1      -0.669   1.013  -2.085  1.00  0.00     0.010 C 
ATOM     12  C   UNL     1       0.534   3.230  -1.599  1.00  0.00     0.223 C 
ATOM     13  C   UNL     1      -0.474   2.476  -2.428  1.00  0.00     0.104 C 
ATOM     14  C   UNL     1      -1.873   0.479  -2.883  1.00  0.00     0.009 C 
ATOM     15  O   UNL     1       1.075   4.211  -2.106  1.00  0.00    -0.275 OA
BRANCH  10  16
ATOM     16  C   UNL     1       1.086   3.978   0.684  1.00  0.00     0.142 C 
BRANCH  16  17
ATOM     17  C   UNL     1       2.526   4.587   0.784  1.00  0.00     0.084 C 
ATOM     18  C   UNL     1       3.053   5.226  -0.508  1.00  0.00     0.030 C 
ATOM     19  C   UNL     1       2.427   5.731   1.830  1.00  0.00     0.030 C 
BRANCH  17  20
ATOM     20  S   UNL     1       3.802   3.413   1.364  1.00  0.00     0.154 S 
ATOM     21  C   UNL     1       3.402   3.013   3.055  1.00  0.00     0.158 C 
ATOM     22  O   UNL     1       3.714   2.194   0.585  1.00  0.00    -0.229 OA
ATOM     23  O   UNL     1       5.069   4.123   1.427  1.00  0.00    -0.229 OA
ENDBRANCH  17  20
ENDBRANCH  16  17
ENDBRANCH  10  16
ENDBRANCH   4   7
ENDBRANCH   2   3
ENDBRANCH   1   2
BRANCH   1  24
ATOM     24  C   UNL     1       2.262  -3.468   0.438  1.00  0.00     0.023 C 
BRANCH  24  25
ATOM     25  C   UNL     1       2.524  -4.414  -0.718  1.00  0.00     0.116 C 
BRANCH  25  26
ATOM     26  N   UNL     1       3.729  -4.094  -1.472  1.00  0.00    -0.352 N 
ATOM     27  C   UNL     1       4.680  -4.958  -1.968  1.00  0.00     0.251 C 
ATOM     28  H   UNL     1       3.884  -3.138  -1.649  1.00  0.00     0.163 HD
ATOM     29  O   UNL     1       5.693  -4.534  -2.502  1.00  0.00    -0.269 OA
BRANCH  27  30
ATOM     30  C   UNL     1       4.462  -6.410  -1.808  1.00  0.00     0.039 A 
ATOM     31  C   UNL     1       5.486  -7.197  -1.278  1.00  0.00     0.014 A 
ATOM     32  C   UNL     1       3.218  -6.967  -2.111  1.00  0.00     0.014 A 
ATOM     33  C   UNL     1       5.237  -8.540  -0.994  1.00  0.00     0.010 A 
ATOM     34  C   UNL     1       2.942  -8.271  -1.729  1.00  0.00     0.010 A 
ATOM     35  C   UNL     1       3.954  -9.078  -1.188  1.00  0.00    -0.014 A 
BRANCH  35  36
ATOM     36  C   UNL     1       3.647 -10.495  -0.877  1.00  0.00     0.031 A 
ATOM     37  C   UNL     1       3.194 -11.410  -1.983  1.00  0.00     0.074 A 
ATOM     38  C   UNL     1       3.681 -10.928   0.399  1.00  0.00     0.049 A 
ATOM     39  N   UNL     1       2.797 -12.653  -1.914  1.00  0.00    -0.248 NA
ATOM     40  C   UNL     1       3.138 -10.840  -3.342  1.00  0.00     0.031 C 
ATOM     41  C   UNL     1       4.012 -10.107   1.567  1.00  0.00     0.029 A 
ATOM     42  N   UNL     1       3.407 -12.162   0.929  1.00  0.00    -0.354 N 
ATOM     43  C   UNL     1       2.400 -12.994  -3.202  1.00  0.00     0.074 A 
ATOM     44  C   UNL     1       2.558 -11.816  -4.023  1.00  0.00     0.031 C 
ATOM     45  C   UNL     1       3.931 -10.864   2.674  1.00  0.00     0.029 A 
ATOM     46  C   UNL     1       3.522 -12.214   2.299  1.00  0.00     0.049 A 
ATOM     47  H   UNL     1       3.152 -12.940   0.381  1.00  0.00     0.167 HD
ATOM     48  C   UNL     1       1.981 -14.192  -3.670  1.00  0.00     0.034 A 
ATOM     49  C   UNL     1       3.322 -13.238   3.152  1.00  0.00     0.034 A 
ATOM     50  C   UNL     1       1.904 -15.378  -2.865  1.00  0.00     0.049 A 
ATOM     51  C   UNL     1       2.942 -14.583   2.592  1.00  0.00     0.074 A 
ATOM     52  C   UNL     1       1.596 -16.667  -3.258  1.00  0.00     0.029 A 
ATOM     53  N   UNL     1       2.149 -15.420  -1.501  1.00  0.00    -0.354 N 
ATOM     54  N   UNL     1       2.732 -14.927   1.344  1.00  0.00    -0.248 NA
ATOM     55  C   UNL     1       2.814 -15.691   3.550  1.00  0.00     0.031 C 
ATOM     56  C   UNL     1       1.646 -17.489  -2.128  1.00  0.00     0.029 A 
ATOM     57  C   UNL     1       2.001 -16.713  -1.035  1.00  0.00     0.049 A 
ATOM     58  H   UNL     1       2.391 -14.644  -0.946  1.00  0.00     0.167 HD
ATOM     59  C   UNL     1       2.485 -16.295   1.362  1.00  0.00     0.074 A 
ATOM     60  C   UNL     1       2.594 -16.720   2.743  1.00  0.00     0.031 C 
ATOM     61  C   UNL     1       2.179 -17.124   0.334  1.00  0.00     0.034 A 
BRANCH  48  62
ATOM     62  C   UNL     1       1.647 -14.293  -5.135  1.00  0.00     0.023 A 
ATOM     63  C   UNL     1       2.685 -14.238  -6.088  1.00  0.00     0.012 A 
ATOM     64  C   UNL     1       0.322 -14.489  -5.567  1.00  0.00     0.148 A 
ATOM     65  C   UNL     1       2.406 -14.338  -7.450  1.00  0.00     0.002 A 
ATOM     66  C   UNL     1       0.056 -14.635  -6.924  1.00  0.00     0.091 A 
ATOM     67  F   UNL     1      -0.654 -14.515  -4.648  1.00  0.00    -0.205 F 
ATOM     68  C   UNL     1       1.095 -14.547  -7.866  1.00  0.00     0.022 A 
BRANCH  66  69
ATOM     69  S   UNL     1      -1.587 -14.986  -7.558  1.00  0.00     0.127 S 
ATOM     70  O   UNL     1      -1.924 -13.725  -8.218  1.00  0.00    -0.237 OA
ATOM     71  O   UNL     1      -1.332 -16.102  -8.470  1.00  0.00    -0.237 OA
ATOM     72  O   UNL     1      -2.402 -15.322  -6.400  1.00  0.00    -0.744 OA
ENDBRANCH  66  69
ENDBRANCH  48  62
BRANCH  49  73
ATOM     73  C   UNL     1       3.565 -13.055   4.612  1.00  0.00     0.023 A 
ATOM     74  C   UNL     1       4.682 -13.676   5.205  1.00  0.00     0.012 A 
ATOM     75  C   UNL     1       2.720 -12.260   5.409  1.00  0.00     0.148 A 
ATOM     76  C   UNL     1       4.932 -13.540   6.571  1.00  0.00     0.002 A 
ATOM     77  C   UNL     1       3.005 -12.084   6.759  1.00  0.00     0.091 A 
ATOM     78  F   UNL     1       1.656 -11.685   4.830  1.00  0.00    -0.205 F 
ATOM     79  C   UNL     1       4.100 -12.737   7.346  1.00  0.00     0.022 A 
BRANCH  77  80
ATOM     80  S   UNL     1       2.061 -10.965   7.800  1.00  0.00     0.127 S 
ATOM     81  O   UNL     1       1.271 -11.896   8.602  1.00  0.00    -0.237 OA
ATOM     82  O   UNL     1       3.117 -10.264   8.532  1.00  0.00    -0.237 OA
ATOM     83  O   UNL     1       1.310 -10.119   6.882  1.00  0.00    -0.744 OA
ENDBRANCH  77  80
ENDBRANCH  49  73
BRANCH  61  84
ATOM     84  C   UNL     1       1.978 -18.582   0.647  1.00  0.00     0.023 A 
ATOM     85  C   UNL     1       0.804 -19.000   1.302  1.00  0.00     0.012 A 
ATOM     86  C   UNL     1       2.910 -19.544   0.211  1.00  0.00     0.148 A 
ATOM     87  C   UNL     1       0.574 -20.352   1.546  1.00  0.00     0.002 A 
ATOM     88  C   UNL     1       2.651 -20.893   0.415  1.00  0.00     0.091 A 
ATOM     89  F   UNL     1       4.030 -19.123  -0.394  1.00  0.00    -0.205 F 
ATOM     90  C   UNL     1       1.490 -21.299   1.092  1.00  0.00     0.022 A 
BRANCH  88  91
ATOM     91  S   UNL     1       3.727 -22.182  -0.225  1.00  0.00     0.127 S 
ATOM     92  O   UNL     1       4.410 -22.629   0.987  1.00  0.00    -0.237 OA
ATOM     93  O   UNL     1       2.769 -23.143  -0.776  1.00  0.00    -0.237 OA
ATOM     94  O   UNL     1       4.572 -21.538  -1.222  1.00  0.00    -0.744 OA
ENDBRANCH  88  91
ENDBRANCH  61  84
ENDBRANCH  35  36
ENDBRANCH  27  30
ENDBRANCH  25  26
ENDBRANCH  24  25
ENDBRANCH   1  24
TORSDOF 17
