REMARK SMILES C[C@H](NC(=O)c1c(C(=O)NCCCCNC(=O)c2ccc(-c3c4nc(c(-c5cccc(S(=O)(=O)[O-])c5F)c5ccc([nH]5)c(-c5cccc(S(=O)(=O)[O-])c5F)c5nc(c(-c6cccc(S(=O)(=O)[O-])c6F)c6ccc3[nH]6)C=C5)C=C4)cc2)cnn1C)[C@]12C[C@H]3C[C@H](C[C@H](C3)C1)C2
REMARK SMILES IDX 12 1 11 2 10 3 8 4 9 5 7 7 6 8 83 9 81 10 82 11 84 12 4 13
REMARK SMILES IDX 3 14 5 16 2 17 1 18 85 19 86 20 93 21 94 22 87 23 91 24
REMARK SMILES IDX 89 25 88 26 92 27 90 28 13 29 14 30 15 31 16 32 17 34 18 35
REMARK SMILES IDX 19 36 80 37 20 38 79 39 21 40 22 41 23 42 73 43 24 44 78 45
REMARK SMILES IDX 72 46 74 47 25 48 77 49 71 50 70 51 26 53 58 54 38 55 57 56
REMARK SMILES IDX 39 57 42 58 56 59 75 60 40 61 41 62 55 64 76 65 43 66 27 67
REMARK SMILES IDX 28 68 36 69 29 70 31 71 37 72 30 73 32 74 33 75 34 76 35 77
REMARK SMILES IDX 59 78 60 79 68 80 61 81 63 82 69 83 62 84 64 85 65 86 66 87
REMARK SMILES IDX 67 88 44 89 45 90 53 91 46 92 48 93 54 94 47 95 49 96 50 97
REMARK SMILES IDX 51 98 52 99
REMARK H PARENT 10 6 3 15 15 33 74 52 42 63
REMARK Flexibility Score: inf
ROOT
ATOM      1  C   UNL     1      -1.082   1.258  -2.788  1.00  0.00     0.023 C 
ENDROOT
BRANCH   1   2
ATOM      2  C   UNL     1       0.152   1.840  -2.113  1.00  0.00     0.116 C 
BRANCH   2   3
ATOM      3  N   UNL     1       0.146   3.273  -2.017  1.00  0.00    -0.352 N 
ATOM      4  C   UNL     1       0.587   4.125  -1.042  1.00  0.00     0.255 C 
ATOM      5  O   UNL     1       0.368   5.321  -1.262  1.00  0.00    -0.269 OA
ATOM      6  H   UNL     1      -0.247   3.725  -2.797  1.00  0.00     0.163 HD
BRANCH   4   7
ATOM      7  C   UNL     1       1.276   3.746   0.195  1.00  0.00     0.090 A 
ATOM      8  C   UNL     1       1.862   2.590   0.727  1.00  0.00     0.138 A 
ATOM      9  N   UNL     1       2.603   3.038   1.801  1.00  0.00    -0.262 N 
ATOM     10  C   UNL     1       1.546   4.730   1.192  1.00  0.00     0.149 A 
ATOM     11  N   UNL     1       2.297   4.283   2.195  1.00  0.00    -0.180 NA
ATOM     12  C   UNL     1       3.693   2.374   2.480  1.00  0.00     0.174 C 
BRANCH   8  13
ATOM     13  C   UNL     1       2.007   1.264   0.208  1.00  0.00     0.270 C 
ATOM     14  N   UNL     1       1.321   0.198   0.738  1.00  0.00    -0.348 N 
ATOM     15  H   UNL     1       1.444  -0.613   0.194  1.00  0.00     0.164 HD
ATOM     16  O   UNL     1       2.757   1.019  -0.737  1.00  0.00    -0.267 OA
BRANCH  14  17
ATOM     17  C   UNL     1       0.448  -0.065   1.900  1.00  0.00     0.085 C 
ATOM     18  C   UNL     1       0.932   0.605   3.183  1.00  0.00     0.031 C 
BRANCH  17  19
ATOM     19  C   UNL     1      -1.109  -0.005   1.675  1.00  0.00    -0.009 C 
ATOM     20  C   UNL     1      -1.815  -0.802   2.822  1.00  0.00     0.012 C 
ATOM     21  C   UNL     1      -1.534  -0.695   0.352  1.00  0.00     0.012 C 
ATOM     22  C   UNL     1      -1.677   1.437   1.674  1.00  0.00     0.012 C 
ATOM     23  C   UNL     1      -3.342  -0.815   2.658  1.00  0.00    -0.010 C 
ATOM     24  C   UNL     1      -3.066  -0.684   0.169  1.00  0.00    -0.010 C 
ATOM     25  C   UNL     1      -3.214   1.429   1.529  1.00  0.00    -0.010 C 
ATOM     26  C   UNL     1      -3.845   0.636   2.684  1.00  0.00     0.007 C 
ATOM     27  C   UNL     1      -3.708  -1.471   1.319  1.00  0.00     0.007 C 
ATOM     28  C   UNL     1      -3.600   0.757   0.205  1.00  0.00     0.007 C 
ENDBRANCH  17  19
ENDBRANCH  14  17
ENDBRANCH   8  13
ENDBRANCH   4   7
ENDBRANCH   2   3
ENDBRANCH   1   2
BRANCH   1  29
ATOM     29  C   UNL     1      -1.210   1.473  -4.283  1.00  0.00     0.023 C 
BRANCH  29  30
ATOM     30  C   UNL     1      -0.014   1.016  -5.103  1.00  0.00     0.116 C 
BRANCH  30  31
ATOM     31  N   UNL     1       0.375  -0.373  -4.860  1.00  0.00    -0.352 N 
ATOM     32  C   UNL     1       0.394  -1.450  -5.716  1.00  0.00     0.251 C 
ATOM     33  H   UNL     1       0.669  -0.567  -3.941  1.00  0.00     0.163 HD
ATOM     34  O   UNL     1       0.657  -2.574  -5.292  1.00  0.00    -0.269 OA
BRANCH  32  35
ATOM     35  C   UNL     1       0.058  -1.252  -7.140  1.00  0.00     0.039 A 
ATOM     36  C   UNL     1      -0.866  -2.101  -7.755  1.00  0.00     0.014 A 
ATOM     37  C   UNL     1       0.600  -0.176  -7.841  1.00  0.00     0.014 A 
ATOM     38  C   UNL     1      -1.332  -1.797  -9.036  1.00  0.00     0.010 A 
ATOM     39  C   UNL     1       0.051   0.189  -9.061  1.00  0.00     0.010 A 
ATOM     40  C   UNL     1      -0.923  -0.615  -9.673  1.00  0.00    -0.014 A 
BRANCH  40  41
ATOM     41  C   UNL     1      -1.493  -0.171 -10.972  1.00  0.00     0.031 A 
ATOM     42  C   UNL     1      -0.575   0.075 -12.140  1.00  0.00     0.074 A 
ATOM     43  C   UNL     1      -2.799   0.152 -11.058  1.00  0.00     0.049 A 
ATOM     44  N   UNL     1      -0.839   0.624 -13.296  1.00  0.00    -0.248 NA
ATOM     45  C   UNL     1       0.839  -0.300 -11.963  1.00  0.00     0.031 C 
ATOM     46  C   UNL     1      -3.774   0.052  -9.970  1.00  0.00     0.029 A 
ATOM     47  N   UNL     1      -3.524   0.671 -12.103  1.00  0.00    -0.354 N 
ATOM     48  C   UNL     1       0.381   0.717 -13.955  1.00  0.00     0.074 A 
ATOM     49  C   UNL     1       1.390   0.204 -13.056  1.00  0.00     0.031 C 
ATOM     50  C   UNL     1      -4.967   0.490 -10.404  1.00  0.00     0.029 A 
ATOM     51  C   UNL     1      -4.837   0.935 -11.788  1.00  0.00     0.049 A 
ATOM     52  H   UNL     1      -3.140   0.838 -12.994  1.00  0.00     0.167 HD
ATOM     53  C   UNL     1       0.637   1.156 -15.210  1.00  0.00     0.034 A 
ATOM     54  C   UNL     1      -5.823   1.480 -12.527  1.00  0.00     0.034 A 
ATOM     55  C   UNL     1      -0.380   1.587 -16.129  1.00  0.00     0.049 A 
ATOM     56  C   UNL     1      -5.534   1.875 -13.950  1.00  0.00     0.074 A 
ATOM     57  C   UNL     1      -0.243   1.942 -17.458  1.00  0.00     0.029 A 
ATOM     58  N   UNL     1      -1.724   1.711 -15.816  1.00  0.00    -0.354 N 
ATOM     59  N   UNL     1      -4.403   1.806 -14.611  1.00  0.00    -0.248 NA
ATOM     60  C   UNL     1      -6.661   2.387 -14.742  1.00  0.00     0.031 C 
ATOM     61  C   UNL     1      -1.508   2.286 -17.949  1.00  0.00     0.029 A 
ATOM     62  C   UNL     1      -2.432   2.133 -16.927  1.00  0.00     0.049 A 
ATOM     63  H   UNL     1      -2.118   1.525 -14.932  1.00  0.00     0.167 HD
ATOM     64  C   UNL     1      -4.689   2.231 -15.903  1.00  0.00     0.074 A 
ATOM     65  C   UNL     1      -6.104   2.539 -15.937  1.00  0.00     0.031 C 
ATOM     66  C   UNL     1      -3.852   2.371 -16.960  1.00  0.00     0.034 A 
BRANCH  53  67
ATOM     67  C   UNL     1       2.067   1.118 -15.681  1.00  0.00     0.023 A 
ATOM     68  C   UNL     1       2.678  -0.127 -15.939  1.00  0.00     0.012 A 
ATOM     69  C   UNL     1       2.797   2.303 -15.895  1.00  0.00     0.148 A 
ATOM     70  C   UNL     1       4.004  -0.195 -16.360  1.00  0.00     0.002 A 
ATOM     71  C   UNL     1       4.106   2.228 -16.359  1.00  0.00     0.091 A 
ATOM     72  F   UNL     1       2.211   3.477 -15.619  1.00  0.00    -0.205 F 
ATOM     73  C   UNL     1       4.715   0.982 -16.579  1.00  0.00     0.022 A 
BRANCH  71  74
ATOM     74  S   UNL     1       5.073   3.691 -16.747  1.00  0.00     0.127 S 
ATOM     75  O   UNL     1       5.969   3.768 -15.594  1.00  0.00    -0.237 OA
ATOM     76  O   UNL     1       5.725   3.310 -18.000  1.00  0.00    -0.237 OA
ATOM     77  O   UNL     1       4.113   4.779 -16.874  1.00  0.00    -0.744 OA
ENDBRANCH  71  74
ENDBRANCH  53  67
BRANCH  54  78
ATOM     78  C   UNL     1      -7.196   1.599 -11.960  1.00  0.00     0.023 A 
ATOM     79  C   UNL     1      -8.206   0.736 -12.427  1.00  0.00     0.012 A 
ATOM     80  C   UNL     1      -7.499   2.519 -10.937  1.00  0.00     0.148 A 
ATOM     81  C   UNL     1      -9.499   0.802 -11.906  1.00  0.00     0.002 A 
ATOM     82  C   UNL     1      -8.776   2.545 -10.386  1.00  0.00     0.091 A 
ATOM     83  F   UNL     1      -6.527   3.338 -10.512  1.00  0.00    -0.205 F 
ATOM     84  C   UNL     1      -9.781   1.699 -10.880  1.00  0.00     0.022 A 
BRANCH  82  85
ATOM     85  S   UNL     1      -9.197   3.572  -8.973  1.00  0.00     0.127 S 
ATOM     86  O   UNL     1     -10.060   4.580  -9.582  1.00  0.00    -0.237 OA
ATOM     87  O   UNL     1      -9.883   2.619  -8.100  1.00  0.00    -0.237 OA
ATOM     88  O   UNL     1      -7.927   4.057  -8.449  1.00  0.00    -0.744 OA
ENDBRANCH  82  85
ENDBRANCH  54  78
BRANCH  66  89
ATOM     89  C   UNL     1      -4.441   2.842 -18.262  1.00  0.00     0.023 A 
ATOM     90  C   UNL     1      -4.793   4.197 -18.418  1.00  0.00     0.012 A 
ATOM     91  C   UNL     1      -4.558   1.964 -19.358  1.00  0.00     0.148 A 
ATOM     92  C   UNL     1      -5.274   4.666 -19.640  1.00  0.00     0.002 A 
ATOM     93  C   UNL     1      -4.996   2.449 -20.584  1.00  0.00     0.091 A 
ATOM     94  F   UNL     1      -4.237   0.674 -19.181  1.00  0.00    -0.205 F 
ATOM     95  C   UNL     1      -5.363   3.797 -20.725  1.00  0.00     0.022 A 
BRANCH  93  96
ATOM     96  S   UNL     1      -5.049   1.420 -22.056  1.00  0.00     0.127 S 
ATOM     97  O   UNL     1      -6.481   1.159 -22.186  1.00  0.00    -0.237 OA
ATOM     98  O   UNL     1      -4.497   2.309 -23.080  1.00  0.00    -0.237 OA
ATOM     99  O   UNL     1      -4.222   0.258 -21.760  1.00  0.00    -0.744 OA
ENDBRANCH  93  96
ENDBRANCH  66  89
ENDBRANCH  40  41
ENDBRANCH  32  35
ENDBRANCH  30  31
ENDBRANCH  29  30
ENDBRANCH   1  29
TORSDOF 17
