REMARK SMILES C#Cc1cc(Cl)c2c(c1)C=C(C(=O)NCCCCNC(=O)c1ccc(-c3c4nc(c(-c5cccc(S(=O)(=O)[O-])c5F)c5ccc([nH]5)c(-c5cccc(S(=O)(=O)[O-])c5F)c5nc(c(-c6cccc(S(=O)(=O)[O-])c6F)c6ccc3[nH]6)C=C5)C=C4)cc1)[C@@H](C(F)(F)F)O2
REMARK SMILES IDX 17 1 16 2 15 3 14 4 12 5 13 6 11 8 3 9 4 10 9 11 5 12 8 13
REMARK SMILES IDX 6 14 7 15 10 16 90 17 85 18 2 19 1 20 86 21 87 22 88 23
REMARK SMILES IDX 89 24 18 25 19 26 20 27 21 29 22 30 23 31 84 32 24 33 83 34
REMARK SMILES IDX 25 35 26 36 27 37 77 38 28 39 82 40 76 41 78 42 29 43 81 44
REMARK SMILES IDX 75 45 74 46 30 48 62 49 42 50 61 51 43 52 46 53 60 54 79 55
REMARK SMILES IDX 44 56 45 57 59 59 80 60 47 61 31 62 32 63 40 64 33 65 35 66
REMARK SMILES IDX 41 67 34 68 36 69 37 70 38 71 39 72 63 73 64 74 72 75 65 76
REMARK SMILES IDX 67 77 73 78 66 79 68 80 69 81 70 82 71 83 48 84 49 85 57 86
REMARK SMILES IDX 50 87 52 88 58 89 51 90 53 91 54 92 55 93 56 94
REMARK H PARENT 14 7 19 28 78 47 46 58
REMARK Flexibility Score: inf
ROOT
ATOM      1  C   UNL     1     -10.883   3.691   1.555  1.00  0.00     0.023 C 
ENDROOT
BRANCH   1   2
ATOM      2  C   UNL     1      -9.820   2.608   1.410  1.00  0.00     0.023 C 
BRANCH   2   3
ATOM      3  C   UNL     1      -9.069   2.680   0.087  1.00  0.00     0.116 C 
BRANCH   3   4
ATOM      4  N   UNL     1      -7.962   3.620   0.132  1.00  0.00    -0.352 N 
ATOM      5  C   UNL     1      -6.611   3.559   0.053  1.00  0.00     0.251 C 
ATOM      6  O   UNL     1      -6.017   4.641   0.081  1.00  0.00    -0.270 OA
ATOM      7  H   UNL     1      -8.277   4.546   0.250  1.00  0.00     0.163 HD
BRANCH   5   8
ATOM      8  C   UNL     1      -5.824   2.293  -0.056  1.00  0.00     0.067 C 
ATOM      9  C   UNL     1      -1.516   0.089  -0.077  1.00  0.00     0.027 A 
ATOM     10  C   UNL     1      -2.143  -1.158  -0.078  1.00  0.00     0.041 A 
ATOM     11  C   UNL     1      -2.276   1.263  -0.051  1.00  0.00     0.029 A 
ATOM     12  C   UNL     1      -3.531  -1.229  -0.053  1.00  0.00     0.084 A 
ATOM     13  C   UNL     1      -3.674   1.194  -0.026  1.00  0.00     0.020 A 
ATOM     14  Cl  UNL     1      -4.278  -2.788  -0.045  1.00  0.00    -0.080 Cl
ATOM     15  C   UNL     1      -4.296  -0.059  -0.034  1.00  0.00     0.146 A 
ATOM     16  C   UNL     1      -4.488   2.402   0.060  1.00  0.00     0.025 C 
ATOM     17  O   UNL     1      -5.651  -0.195   0.030  1.00  0.00    -0.474 OA
ATOM     18  C   UNL     1      -6.455   0.958  -0.307  1.00  0.00     0.314 C 
BRANCH   9  19
ATOM     19  C   UNL     1      -0.088   0.148  -0.085  1.00  0.00    -0.070 C 
ATOM     20  C   UNL     1       1.113   0.160  -0.085  1.00  0.00     0.010 C 
ENDBRANCH   9  19
BRANCH  18  21
ATOM     21  C   UNL     1      -6.965   0.812  -1.754  1.00  0.00     0.429 C 
ATOM     22  F   UNL     1      -7.872  -0.193  -1.838  1.00  0.00    -0.167 F 
ATOM     23  F   UNL     1      -7.585   1.925  -2.211  1.00  0.00    -0.167 F 
ATOM     24  F   UNL     1      -5.968   0.534  -2.625  1.00  0.00    -0.167 F 
ENDBRANCH  18  21
ENDBRANCH   5   8
ENDBRANCH   3   4
ENDBRANCH   2   3
ENDBRANCH   1   2
BRANCH   1  25
ATOM     25  C   UNL     1     -11.882   3.752   0.406  1.00  0.00     0.116 C 
BRANCH  25  26
ATOM     26  N   UNL     1     -12.543   2.477   0.145  1.00  0.00    -0.352 N 
ATOM     27  C   UNL     1     -13.885   2.250  -0.047  1.00  0.00     0.251 C 
ATOM     28  H   UNL     1     -11.958   1.687   0.101  1.00  0.00     0.163 HD
ATOM     29  O   UNL     1     -14.328   1.110  -0.131  1.00  0.00    -0.269 OA
BRANCH  27  30
ATOM     30  C   UNL     1     -14.780   3.419  -0.112  1.00  0.00     0.039 A 
ATOM     31  C   UNL     1     -15.857   3.497   0.769  1.00  0.00     0.014 A 
ATOM     32  C   UNL     1     -14.463   4.484  -0.961  1.00  0.00     0.014 A 
ATOM     33  C   UNL     1     -16.585   4.683   0.844  1.00  0.00     0.010 A 
ATOM     34  C   UNL     1     -15.125   5.693  -0.810  1.00  0.00     0.010 A 
ATOM     35  C   UNL     1     -16.201   5.801   0.083  1.00  0.00    -0.014 A 
BRANCH  35  36
ATOM     36  C   UNL     1     -16.931   7.086   0.193  1.00  0.00     0.031 A 
ATOM     37  C   UNL     1     -17.645   7.642  -1.007  1.00  0.00     0.074 A 
ATOM     38  C   UNL     1     -16.913   7.772   1.354  1.00  0.00     0.049 A 
ATOM     39  N   UNL     1     -18.329   8.750  -1.115  1.00  0.00    -0.248 NA
ATOM     40  C   UNL     1     -17.564   6.864  -2.256  1.00  0.00     0.031 C 
ATOM     41  C   UNL     1     -16.204   7.361   2.568  1.00  0.00     0.029 A 
ATOM     42  N   UNL     1     -17.502   8.962   1.700  1.00  0.00    -0.354 N 
ATOM     43  C   UNL     1     -18.742   8.810  -2.440  1.00  0.00     0.074 A 
ATOM     44  C   UNL     1     -18.186   7.659  -3.113  1.00  0.00     0.031 C 
ATOM     45  C   UNL     1     -16.423   8.269   3.532  1.00  0.00     0.029 A 
ATOM     46  C   UNL     1     -17.252   9.345   2.998  1.00  0.00     0.049 A 
ATOM     47  H   UNL     1     -18.051   9.492   1.079  1.00  0.00     0.167 HD
ATOM     48  C   UNL     1     -19.547   9.719  -3.034  1.00  0.00     0.034 A 
ATOM     49  C   UNL     1     -17.646  10.440   3.679  1.00  0.00     0.034 A 
ATOM     50  C   UNL     1     -20.121  10.845  -2.351  1.00  0.00     0.049 A 
ATOM     51  C   UNL     1     -18.534  11.444   2.992  1.00  0.00     0.074 A 
ATOM     52  C   UNL     1     -20.996  11.792  -2.849  1.00  0.00     0.029 A 
ATOM     53  N   UNL     1     -19.871  11.184  -1.030  1.00  0.00    -0.354 N 
ATOM     54  N   UNL     1     -19.026  11.414   1.777  1.00  0.00    -0.248 NA
ATOM     55  C   UNL     1     -18.946  12.617   3.776  1.00  0.00     0.031 C 
ATOM     56  C   UNL     1     -21.241  12.729  -1.843  1.00  0.00     0.029 A 
ATOM     57  C   UNL     1     -20.559  12.338  -0.701  1.00  0.00     0.049 A 
ATOM     58  H   UNL     1     -19.290  10.678  -0.417  1.00  0.00     0.167 HD
ATOM     59  C   UNL     1     -19.829  12.543   1.660  1.00  0.00     0.074 A 
ATOM     60  C   UNL     1     -19.777  13.223   2.938  1.00  0.00     0.031 C 
ATOM     61  C   UNL     1     -20.533  12.983   0.588  1.00  0.00     0.034 A 
BRANCH  48  62
ATOM     62  C   UNL     1     -19.901   9.507  -4.483  1.00  0.00     0.023 A 
ATOM     63  C   UNL     1     -20.738   8.431  -4.846  1.00  0.00     0.012 A 
ATOM     64  C   UNL     1     -19.476  10.415  -5.473  1.00  0.00     0.148 A 
ATOM     65  C   UNL     1     -21.122   8.245  -6.173  1.00  0.00     0.002 A 
ATOM     66  C   UNL     1     -19.908  10.255  -6.783  1.00  0.00     0.091 A 
ATOM     67  F   UNL     1     -18.663  11.418  -5.112  1.00  0.00    -0.205 F 
ATOM     68  C   UNL     1     -20.720   9.164  -7.138  1.00  0.00     0.022 A 
BRANCH  66  69
ATOM     69  S   UNL     1     -19.526  11.433  -8.083  1.00  0.00     0.127 S 
ATOM     70  O   UNL     1     -18.689  10.629  -8.973  1.00  0.00    -0.237 OA
ATOM     71  O   UNL     1     -20.854  11.744  -8.612  1.00  0.00    -0.237 OA
ATOM     72  O   UNL     1     -18.848  12.546  -7.434  1.00  0.00    -0.744 OA
ENDBRANCH  66  69
ENDBRANCH  48  62
BRANCH  49  73
ATOM     73  C   UNL     1     -17.261  10.600   5.111  1.00  0.00     0.023 A 
ATOM     74  C   UNL     1     -18.251  10.508   6.109  1.00  0.00     0.012 A 
ATOM     75  C   UNL     1     -15.918  10.789   5.493  1.00  0.00     0.148 A 
ATOM     76  C   UNL     1     -17.915  10.622   7.459  1.00  0.00     0.002 A 
ATOM     77  C   UNL     1     -15.582  10.840   6.841  1.00  0.00     0.091 A 
ATOM     78  F   UNL     1     -14.992  10.883   4.529  1.00  0.00    -0.205 F 
ATOM     79  C   UNL     1     -16.580  10.775   7.825  1.00  0.00     0.022 A 
BRANCH  77  80
ATOM     80  S   UNL     1     -13.880  10.895   7.412  1.00  0.00     0.127 S 
ATOM     81  O   UNL     1     -13.830  12.192   8.083  1.00  0.00    -0.237 OA
ATOM     82  O   UNL     1     -13.829   9.736   8.304  1.00  0.00    -0.237 OA
ATOM     83  O   UNL     1     -13.056  10.775   6.218  1.00  0.00    -0.744 OA
ENDBRANCH  77  80
ENDBRANCH  49  73
BRANCH  61  84
ATOM     84  C   UNL     1     -21.331  14.255   0.735  1.00  0.00     0.023 A 
ATOM     85  C   UNL     1     -20.665  15.492   0.830  1.00  0.00     0.012 A 
ATOM     86  C   UNL     1     -22.739  14.232   0.652  1.00  0.00     0.148 A 
ATOM     87  C   UNL     1     -21.387  16.685   0.867  1.00  0.00     0.002 A 
ATOM     88  C   UNL     1     -23.448  15.426   0.630  1.00  0.00     0.091 A 
ATOM     89  F   UNL     1     -23.355  13.043   0.573  1.00  0.00    -0.205 F 
ATOM     90  C   UNL     1     -22.775  16.653   0.751  1.00  0.00     0.022 A 
BRANCH  88  91
ATOM     91  S   UNL     1     -25.224  15.494   0.370  1.00  0.00     0.127 S 
ATOM     92  O   UNL     1     -25.693  16.006   1.657  1.00  0.00    -0.237 OA
ATOM     93  O   UNL     1     -25.336  16.440  -0.740  1.00  0.00    -0.237 OA
ATOM     94  O   UNL     1     -25.640  14.134   0.056  1.00  0.00    -0.744 OA
ENDBRANCH  88  91
ENDBRANCH  61  84
ENDBRANCH  35  36
ENDBRANCH  27  30
ENDBRANCH  25  26
ENDBRANCH   1  25
TORSDOF 16
