REMARK SMILES Cc1nc(-c2ccccc2)sc1C(=O)N[C@@H](CC1=c2ccccc2=NC1)C(=O)NCCCCNC(=O)c1ccc(-c2c3nc(c(-c4cccc(S(=O)(=O)[O-])c4F)c4ccc([nH]4)c(-c4cccc(S(=O)(=O)[O-])c4F)c4nc(c(-c5cccc(S(=O)(=O)[O-])c5F)c5ccc2[nH]5)C=C4)C=C3)cc1
REMARK SMILES IDX 31 1 30 2 29 3 27 4 28 5 16 7 15 8 13 9 14 10 12 12 1 13
REMARK SMILES IDX 2 14 3 15 4 16 11 17 5 18 6 19 10 20 7 21 9 22 8 23 17 24
REMARK SMILES IDX 18 25 19 26 26 27 20 28 24 29 25 30 21 31 23 32 22 33 32 34
REMARK SMILES IDX 33 35 34 36 35 37 36 39 37 40 38 41 99 42 39 43 98 44 40 45
REMARK SMILES IDX 41 46 42 47 92 48 43 49 97 50 91 51 93 52 44 53 96 54 90 55
REMARK SMILES IDX 89 56 45 58 77 59 57 60 76 61 58 62 61 63 75 64 94 65 59 66
REMARK SMILES IDX 60 67 74 69 95 70 62 71 46 72 47 73 55 74 48 75 50 76 56 77
REMARK SMILES IDX 49 78 51 79 52 80 53 81 54 82 78 83 79 84 87 85 80 86 82 87
REMARK SMILES IDX 88 88 81 89 83 90 84 91 85 92 86 93 63 94 64 95 72 96 65 97
REMARK SMILES IDX 67 98 73 99 66 100 68 101 69 102 70 103 71 104
REMARK H PARENT 29 6 15 11 34 38 93 57 61 68
REMARK Flexibility Score: inf
ROOT
ATOM      1  C   UNL     1      -3.012  -6.392   2.254  1.00  0.00     0.023 C 
ENDROOT
BRANCH   1   2
ATOM      2  C   UNL     1      -3.473  -5.279   1.330  1.00  0.00     0.116 C 
BRANCH   2   3
ATOM      3  N   UNL     1      -3.882  -4.063   1.990  1.00  0.00    -0.354 N 
ATOM      4  C   UNL     1      -3.944  -2.798   1.492  1.00  0.00     0.242 C 
ATOM      5  O   UNL     1      -4.758  -2.029   2.018  1.00  0.00    -0.273 OA
ATOM      6  H   UNL     1      -4.154  -4.163   2.931  1.00  0.00     0.163 HD
BRANCH   4   7
ATOM      7  C   UNL     1      -3.130  -2.311   0.272  1.00  0.00     0.175 C 
BRANCH   7   8
ATOM      8  N   UNL     1      -1.719  -2.659   0.270  1.00  0.00    -0.339 N 
ATOM      9  C   UNL     1      -0.559  -1.961   0.075  1.00  0.00     0.263 C 
ATOM     10  O   UNL     1       0.424  -2.714   0.034  1.00  0.00    -0.268 OA
ATOM     11  H   UNL     1      -1.563  -3.614   0.450  1.00  0.00     0.164 HD
BRANCH   9  12
ATOM     12  C   UNL     1      -0.429  -0.510  -0.054  1.00  0.00     0.115 A 
ATOM     13  C   UNL     1      -2.675   0.788  -0.582  1.00  0.00     0.068 C 
ATOM     14  C   UNL     1      -1.231   0.610  -0.287  1.00  0.00     0.062 A 
ATOM     15  N   UNL     1      -0.565   1.827  -0.255  1.00  0.00    -0.241 NA
ATOM     16  C   UNL     1       0.721   1.672  -0.084  1.00  0.00     0.124 A 
ATOM     17  S   UNL     1       1.232   0.065   0.093  1.00  0.00    -0.108 S 
BRANCH  16  18
ATOM     18  C   UNL     1       1.646   2.796  -0.032  1.00  0.00     0.010 A 
ATOM     19  C   UNL     1       1.474   3.768   0.965  1.00  0.00     0.011 A 
ATOM     20  C   UNL     1       2.605   3.001  -1.032  1.00  0.00     0.011 A 
ATOM     21  C   UNL     1       2.239   4.933   0.956  1.00  0.00     0.001 A 
ATOM     22  C   UNL     1       3.363   4.174  -1.044  1.00  0.00     0.001 A 
ATOM     23  C   UNL     1       3.175   5.140  -0.055  1.00  0.00     0.000 A 
ENDBRANCH  16  18
ENDBRANCH   9  12
ENDBRANCH   7   8
BRANCH   7  24
ATOM     24  C   UNL     1      -3.800  -2.536  -1.110  1.00  0.00     0.068 C 
BRANCH  24  25
ATOM     25  C   UNL     1      -4.008  -3.943  -1.579  1.00  0.00    -0.037 C 
ATOM     26  C   UNL     1      -3.112  -4.863  -1.937  1.00  0.00     0.001 A 
ATOM     27  C   UNL     1      -5.396  -4.515  -1.644  1.00  0.00     0.174 C 
ATOM     28  C   UNL     1      -1.691  -4.906  -2.065  1.00  0.00     0.010 A 
ATOM     29  C   UNL     1      -3.928  -6.089  -2.014  1.00  0.00     0.065 A 
ATOM     30  N   UNL     1      -5.212  -5.965  -1.877  1.00  0.00    -0.280 NA
ATOM     31  C   UNL     1      -1.087  -6.101  -2.162  1.00  0.00     0.001 A 
ATOM     32  C   UNL     1      -3.192  -7.366  -2.128  1.00  0.00     0.028 A 
ATOM     33  C   UNL     1      -1.849  -7.339  -2.162  1.00  0.00     0.002 A 
ENDBRANCH  24  25
ENDBRANCH   7  24
ENDBRANCH   4   7
ENDBRANCH   2   3
ENDBRANCH   1   2
BRANCH   1  34
ATOM     34  C   UNL     1      -4.074  -6.930   3.205  1.00  0.00     0.023 C 
BRANCH  34  35
ATOM     35  C   UNL     1      -5.441  -7.210   2.589  1.00  0.00     0.116 C 
BRANCH  35  36
ATOM     36  N   UNL     1      -5.400  -8.127   1.459  1.00  0.00    -0.352 N 
ATOM     37  C   UNL     1      -6.087  -9.311   1.281  1.00  0.00     0.251 C 
ATOM     38  H   UNL     1      -4.802  -7.868   0.722  1.00  0.00     0.163 HD
ATOM     39  O   UNL     1      -5.852 -10.034   0.321  1.00  0.00    -0.269 OA
BRANCH  37  40
ATOM     40  C   UNL     1      -7.085  -9.706   2.296  1.00  0.00     0.039 A 
ATOM     41  C   UNL     1      -6.981 -10.958   2.903  1.00  0.00     0.014 A 
ATOM     42  C   UNL     1      -8.060  -8.794   2.707  1.00  0.00     0.014 A 
ATOM     43  C   UNL     1      -7.798 -11.259   3.996  1.00  0.00     0.010 A 
ATOM     44  C   UNL     1      -8.808  -9.061   3.848  1.00  0.00     0.010 A 
ATOM     45  C   UNL     1      -8.681 -10.293   4.509  1.00  0.00    -0.014 A 
BRANCH  45  46
ATOM     46  C   UNL     1      -9.462 -10.535   5.749  1.00  0.00     0.031 A 
ATOM     47  C   UNL     1     -10.966 -10.508   5.710  1.00  0.00     0.074 A 
ATOM     48  C   UNL     1      -8.821 -10.666   6.928  1.00  0.00     0.049 A 
ATOM     49  N   UNL     1     -11.818 -10.621   6.696  1.00  0.00    -0.248 NA
ATOM     50  C   UNL     1     -11.596 -10.289   4.397  1.00  0.00     0.031 C 
ATOM     51  C   UNL     1      -7.369 -10.605   7.116  1.00  0.00     0.029 A 
ATOM     52  N   UNL     1      -9.309 -10.847   8.199  1.00  0.00    -0.354 N 
ATOM     53  C   UNL     1     -13.075 -10.443   6.132  1.00  0.00     0.074 A 
ATOM     54  C   UNL     1     -12.875 -10.177   4.725  1.00  0.00     0.031 C 
ATOM     55  C   UNL     1      -7.085 -10.756   8.420  1.00  0.00     0.029 A 
ATOM     56  C   UNL     1      -8.332 -10.900   9.166  1.00  0.00     0.049 A 
ATOM     57  H   UNL     1     -10.269 -10.931   8.399  1.00  0.00     0.167 HD
ATOM     58  C   UNL     1     -14.291 -10.532   6.722  1.00  0.00     0.034 A 
ATOM     59  C   UNL     1      -8.428 -11.051  10.502  1.00  0.00     0.034 A 
ATOM     60  C   UNL     1     -14.490 -10.864   8.106  1.00  0.00     0.049 A 
ATOM     61  C   UNL     1      -9.789 -11.229  11.120  1.00  0.00     0.074 A 
ATOM     62  C   UNL     1     -15.681 -11.083   8.775  1.00  0.00     0.029 A 
ATOM     63  N   UNL     1     -13.473 -11.031   9.032  1.00  0.00    -0.354 N 
ATOM     64  N   UNL     1     -10.964 -11.234  10.538  1.00  0.00    -0.248 NA
ATOM     65  C   UNL     1      -9.837 -11.463  12.570  1.00  0.00     0.031 C 
ATOM     66  C   UNL     1     -15.383 -11.376  10.111  1.00  0.00     0.029 A 
ATOM     67  C   UNL     1     -14.006 -11.351  10.268  1.00  0.00     0.049 A 
ATOM     68  H   UNL     1     -12.512 -10.936   8.839  1.00  0.00     0.167 HD
ATOM     69  C   UNL     1     -11.886 -11.506  11.542  1.00  0.00     0.074 A 
ATOM     70  C   UNL     1     -11.131 -11.681  12.766  1.00  0.00     0.031 C 
ATOM     71  C   UNL     1     -13.237 -11.586  11.463  1.00  0.00     0.034 A 
BRANCH  58  72
ATOM     72  C   UNL     1     -15.503 -10.340   5.850  1.00  0.00     0.023 A 
ATOM     73  C   UNL     1     -15.848 -11.341   4.919  1.00  0.00     0.012 A 
ATOM     74  C   UNL     1     -16.325  -9.204   5.980  1.00  0.00     0.148 A 
ATOM     75  C   UNL     1     -16.971 -11.199   4.105  1.00  0.00     0.002 A 
ATOM     76  C   UNL     1     -17.467  -9.090   5.195  1.00  0.00     0.091 A 
ATOM     77  F   UNL     1     -15.969  -8.251   6.853  1.00  0.00    -0.205 F 
ATOM     78  C   UNL     1     -17.785 -10.080   4.250  1.00  0.00     0.022 A 
BRANCH  76  79
ATOM     79  S   UNL     1     -18.622  -7.723   5.361  1.00  0.00     0.127 S 
ATOM     80  O   UNL     1     -18.337  -6.948   4.155  1.00  0.00    -0.237 OA
ATOM     81  O   UNL     1     -19.915  -8.408   5.354  1.00  0.00    -0.237 OA
ATOM     82  O   UNL     1     -18.290  -7.071   6.620  1.00  0.00    -0.744 OA
ENDBRANCH  76  79
ENDBRANCH  58  72
BRANCH  59  83
ATOM     83  C   UNL     1      -7.194 -11.136  11.334  1.00  0.00     0.023 A 
ATOM     84  C   UNL     1      -6.827 -12.377  11.890  1.00  0.00     0.012 A 
ATOM     85  C   UNL     1      -6.369 -10.016  11.551  1.00  0.00     0.148 A 
ATOM     86  C   UNL     1      -5.679 -12.495  12.675  1.00  0.00     0.002 A 
ATOM     87  C   UNL     1      -5.199 -10.152  12.291  1.00  0.00     0.091 A 
ATOM     88  F   UNL     1      -6.741  -8.840  11.025  1.00  0.00    -0.205 F 
ATOM     89  C   UNL     1      -4.860 -11.386  12.867  1.00  0.00     0.022 A 
BRANCH  87  90
ATOM     90  S   UNL     1      -4.020  -8.808  12.476  1.00  0.00     0.127 S 
ATOM     91  O   UNL     1      -4.249  -8.397  13.859  1.00  0.00    -0.237 OA
ATOM     92  O   UNL     1      -2.745  -9.485  12.238  1.00  0.00    -0.237 OA
ATOM     93  O   UNL     1      -4.378  -7.834  11.454  1.00  0.00    -0.744 OA
ENDBRANCH  87  90
ENDBRANCH  59  83
BRANCH  71  94
ATOM     94  C   UNL     1     -13.994 -11.908  12.723  1.00  0.00     0.023 A 
ATOM     95  C   UNL     1     -14.138 -10.923  13.720  1.00  0.00     0.012 A 
ATOM     96  C   UNL     1     -14.631 -13.154  12.883  1.00  0.00     0.148 A 
ATOM     97  C   UNL     1     -14.882 -11.183  14.870  1.00  0.00     0.002 A 
ATOM     98  C   UNL     1     -15.408 -13.390  14.011  1.00  0.00     0.091 A 
ATOM     99  F   UNL     1     -14.464 -14.086  11.933  1.00  0.00    -0.205 F 
ATOM    100  C   UNL     1     -15.526 -12.411  15.010  1.00  0.00     0.022 A 
BRANCH  98 101
ATOM    101  S   UNL     1     -16.347 -14.907  14.225  1.00  0.00     0.127 S 
ATOM    102  O   UNL     1     -15.527 -15.632  15.194  1.00  0.00    -0.237 OA
ATOM    103  O   UNL     1     -17.621 -14.416  14.751  1.00  0.00    -0.237 OA
ATOM    104  O   UNL     1     -16.436 -15.508  12.901  1.00  0.00    -0.744 OA
ENDBRANCH  98 101
ENDBRANCH  71  94
ENDBRANCH  45  46
ENDBRANCH  37  40
ENDBRANCH  35  36
ENDBRANCH  34  35
ENDBRANCH   1  34
TORSDOF 19
