REMARK SMILES CCc1c(C)nn(CC(=O)N[C@H](C(=O)NCCCCNC(=O)c2ccc(-c3c4nc(c(-c5cccc(S(=O)(=O)[O-])c5F)c5ccc([nH]5)c(-c5cccc(S(=O)(=O)[O-])c5F)c5nc(c(-c6cccc(S(=O)(=O)[O-])c6F)c6ccc3[nH]6)C=C5)C=C4)cc2)c2c(C)n[nH]c2C)c1C
REMARK SMILES IDX 17 1 16 2 15 3 13 4 14 5 12 7 11 8 9 9 10 10 8 12 7 13 3 14
REMARK SMILES IDX 4 15 93 16 5 17 6 18 94 19 2 20 1 21 86 22 87 23 91 24 88 25
REMARK SMILES IDX 89 26 90 27 92 28 18 30 19 31 20 32 21 33 22 35 23 36 24 37
REMARK SMILES IDX 85 38 25 39 84 40 26 41 27 42 28 43 78 44 29 45 83 46 77 47
REMARK SMILES IDX 79 48 30 49 82 50 76 51 75 52 31 54 63 55 43 56 62 57 44 58
REMARK SMILES IDX 47 59 61 60 80 61 45 62 46 63 60 65 81 66 48 67 32 68 33 69
REMARK SMILES IDX 41 70 34 71 36 72 42 73 35 74 37 75 38 76 39 77 40 78 64 79
REMARK SMILES IDX 65 80 73 81 66 82 68 83 74 84 67 85 69 86 70 87 71 88 72 89
REMARK SMILES IDX 49 90 50 91 58 92 51 93 53 94 59 95 52 96 54 97 55 98 56 99
REMARK SMILES IDX 57 100
REMARK H PARENT 15 6 11 11 90 29 20 34 79 53 47 64
REMARK Flexibility Score: inf
ROOT
ATOM      1  C   UNL     1      -0.709  -6.118   1.442  1.00  0.00     0.023 C 
ENDROOT
BRANCH   1   2
ATOM      2  C   UNL     1       0.465  -5.205   1.077  1.00  0.00     0.116 C 
BRANCH   2   3
ATOM      3  N   UNL     1       1.725  -5.909   1.116  1.00  0.00    -0.354 N 
ATOM      4  C   UNL     1       2.897  -5.489   0.591  1.00  0.00     0.247 C 
ATOM      5  O   UNL     1       3.610  -4.940   1.453  1.00  0.00    -0.272 OA
ATOM      6  H   UNL     1       1.731  -6.782   1.571  1.00  0.00     0.163 HD
BRANCH   4   7
ATOM      7  C   UNL     1       3.375  -5.516  -0.910  1.00  0.00     0.206 C 
BRANCH   7   8
ATOM      8  N   UNL     1       4.789  -5.218  -0.785  1.00  0.00    -0.339 N 
ATOM      9  C   UNL     1       5.685  -6.004  -0.111  1.00  0.00     0.242 C 
ATOM     10  O   UNL     1       6.804  -5.521   0.090  1.00  0.00    -0.273 OA
ATOM     11  H   UNL     1       5.126  -4.397  -1.211  1.00  0.00     0.164 HD
BRANCH   9  12
ATOM     12  C   UNL     1       5.376  -7.464   0.144  1.00  0.00     0.244 C 
BRANCH  12  13
ATOM     13  N   UNL     1       4.360  -7.914   1.106  1.00  0.00    -0.260 N 
ATOM     14  C   UNL     1       2.948  -9.259   2.212  1.00  0.00    -0.004 A 
ATOM     15  C   UNL     1       3.986  -8.770   3.034  1.00  0.00     0.063 A 
ATOM     16  C   UNL     1       3.118  -8.565   1.013  1.00  0.00     0.039 A 
ATOM     17  C   UNL     1       4.271  -8.959   4.472  1.00  0.00     0.069 C 
ATOM     18  N   UNL     1       4.816  -7.970   2.368  1.00  0.00    -0.177 NA
ATOM     19  C   UNL     1       1.992  -8.495   0.021  1.00  0.00     0.066 C 
BRANCH  14  20
ATOM     20  C   UNL     1       1.799 -10.206   2.446  1.00  0.00     0.036 C 
ATOM     21  C   UNL     1       1.496 -10.622   3.862  1.00  0.00     0.009 C 
ENDBRANCH  14  20
ENDBRANCH  12  13
ENDBRANCH   9  12
ENDBRANCH   7   8
BRANCH   7  22
ATOM     22  C   UNL     1       3.234  -6.456  -2.184  1.00  0.00     0.027 A 
ATOM     23  C   UNL     1       2.990  -5.776  -3.454  1.00  0.00     0.065 A 
ATOM     24  C   UNL     1       3.466  -7.795  -2.657  1.00  0.00     0.038 A 
ATOM     25  C   UNL     1       2.951  -4.316  -3.729  1.00  0.00     0.069 C 
ATOM     26  N   UNL     1       2.864  -6.591  -4.493  1.00  0.00    -0.180 NA
ATOM     27  N   UNL     1       3.111  -7.780  -3.987  1.00  0.00    -0.282 N 
ATOM     28  C   UNL     1       3.948  -9.184  -2.264  1.00  0.00     0.066 C 
ATOM     29  H   UNL     1       3.046  -8.604  -4.523  1.00  0.00     0.190 HD
ENDBRANCH   7  22
ENDBRANCH   4   7
ENDBRANCH   2   3
ENDBRANCH   1   2
BRANCH   1  30
ATOM     30  C   UNL     1      -0.607  -6.904   2.763  1.00  0.00     0.023 C 
BRANCH  30  31
ATOM     31  C   UNL     1      -0.442  -6.100   4.052  1.00  0.00     0.116 C 
BRANCH  31  32
ATOM     32  N   UNL     1      -1.506  -5.131   4.252  1.00  0.00    -0.352 N 
ATOM     33  C   UNL     1      -2.422  -5.001   5.267  1.00  0.00     0.251 C 
ATOM     34  H   UNL     1      -1.583  -4.455   3.542  1.00  0.00     0.163 HD
ATOM     35  O   UNL     1      -3.338  -4.188   5.137  1.00  0.00    -0.269 OA
BRANCH  33  36
ATOM     36  C   UNL     1      -2.347  -5.826   6.496  1.00  0.00     0.039 A 
ATOM     37  C   UNL     1      -3.536  -6.328   7.039  1.00  0.00     0.014 A 
ATOM     38  C   UNL     1      -1.136  -6.068   7.150  1.00  0.00     0.014 A 
ATOM     39  C   UNL     1      -3.504  -7.119   8.192  1.00  0.00     0.010 A 
ATOM     40  C   UNL     1      -1.098  -6.914   8.261  1.00  0.00     0.010 A 
ATOM     41  C   UNL     1      -2.280  -7.448   8.797  1.00  0.00    -0.014 A 
BRANCH  41  42
ATOM     42  C   UNL     1      -2.223  -8.359   9.973  1.00  0.00     0.031 A 
ATOM     43  C   UNL     1      -1.697  -7.873  11.299  1.00  0.00     0.074 A 
ATOM     44  C   UNL     1      -2.579  -9.652   9.831  1.00  0.00     0.049 A 
ATOM     45  N   UNL     1      -1.533  -8.536  12.415  1.00  0.00    -0.248 NA
ATOM     46  C   UNL     1      -1.280  -6.463  11.375  1.00  0.00     0.031 C 
ATOM     47  C   UNL     1      -3.042 -10.269   8.585  1.00  0.00     0.029 A 
ATOM     48  N   UNL     1      -2.585 -10.688  10.733  1.00  0.00    -0.354 N 
ATOM     49  C   UNL     1      -0.967  -7.639  13.313  1.00  0.00     0.074 A 
ATOM     50  C   UNL     1      -0.784  -6.393  12.602  1.00  0.00     0.031 C 
ATOM     51  C   UNL     1      -3.291 -11.570   8.803  1.00  0.00     0.029 A 
ATOM     52  C   UNL     1      -2.974 -11.892  10.190  1.00  0.00     0.049 A 
ATOM     53  H   UNL     1      -2.335 -10.580  11.679  1.00  0.00     0.167 HD
ATOM     54  C   UNL     1      -0.651  -7.824  14.618  1.00  0.00     0.034 A 
ATOM     55  C   UNL     1      -3.056 -13.119  10.742  1.00  0.00     0.034 A 
ATOM     56  C   UNL     1      -0.862  -9.055  15.334  1.00  0.00     0.049 A 
ATOM     57  C   UNL     1      -2.716 -13.293  12.198  1.00  0.00     0.074 A 
ATOM     58  C   UNL     1      -0.648  -9.317  16.676  1.00  0.00     0.029 A 
ATOM     59  N   UNL     1      -1.323 -10.232  14.767  1.00  0.00    -0.354 N 
ATOM     60  N   UNL     1      -2.327 -12.394  13.068  1.00  0.00    -0.248 NA
ATOM     61  C   UNL     1      -2.861 -14.645  12.757  1.00  0.00     0.031 C 
ATOM     62  C   UNL     1      -0.950 -10.662  16.913  1.00  0.00     0.029 A 
ATOM     63  C   UNL     1      -1.388 -11.228  15.728  1.00  0.00     0.049 A 
ATOM     64  H   UNL     1      -1.569 -10.345  13.820  1.00  0.00     0.167 HD
ATOM     65  C   UNL     1      -2.218 -13.060  14.283  1.00  0.00     0.074 A 
ATOM     66  C   UNL     1      -2.604 -14.435  14.041  1.00  0.00     0.031 C 
ATOM     67  C   UNL     1      -1.823 -12.580  15.488  1.00  0.00     0.034 A 
BRANCH  54  68
ATOM     68  C   UNL     1      -0.084  -6.650  15.377  1.00  0.00     0.023 A 
ATOM     69  C   UNL     1      -0.914  -5.553  15.685  1.00  0.00     0.012 A 
ATOM     70  C   UNL     1       1.248  -6.659  15.839  1.00  0.00     0.148 A 
ATOM     71  C   UNL     1      -0.419  -4.466  16.405  1.00  0.00     0.002 A 
ATOM     72  C   UNL     1       1.719  -5.593  16.598  1.00  0.00     0.091 A 
ATOM     73  F   UNL     1       2.027  -7.702  15.524  1.00  0.00    -0.205 F 
ATOM     74  C   UNL     1       0.892  -4.491  16.870  1.00  0.00     0.022 A 
BRANCH  72  75
ATOM     75  S   UNL     1       3.367  -5.568  17.314  1.00  0.00     0.127 S 
ATOM     76  O   UNL     1       4.012  -4.513  16.529  1.00  0.00    -0.237 OA
ATOM     77  O   UNL     1       3.089  -5.204  18.706  1.00  0.00    -0.237 OA
ATOM     78  O   UNL     1       3.909  -6.902  17.130  1.00  0.00    -0.744 OA
ENDBRANCH  72  75
ENDBRANCH  54  68
BRANCH  55  79
ATOM     79  C   UNL     1      -3.533 -14.275   9.928  1.00  0.00     0.023 A 
ATOM     80  C   UNL     1      -4.783 -14.857  10.217  1.00  0.00     0.012 A 
ATOM     81  C   UNL     1      -2.766 -14.790   8.865  1.00  0.00     0.148 A 
ATOM     82  C   UNL     1      -5.243 -15.954   9.488  1.00  0.00     0.002 A 
ATOM     83  C   UNL     1      -3.256 -15.845   8.105  1.00  0.00     0.091 A 
ATOM     84  F   UNL     1      -1.575 -14.229   8.612  1.00  0.00    -0.205 F 
ATOM     85  C   UNL     1      -4.485 -16.442   8.427  1.00  0.00     0.022 A 
BRANCH  83  86
ATOM     86  S   UNL     1      -2.410 -16.446   6.639  1.00  0.00     0.127 S 
ATOM     87  O   UNL     1      -1.953 -17.766   7.079  1.00  0.00    -0.237 OA
ATOM     88  O   UNL     1      -3.495 -16.470   5.654  1.00  0.00    -0.237 OA
ATOM     89  O   UNL     1      -1.367 -15.478   6.357  1.00  0.00    -0.744 OA
ENDBRANCH  83  86
ENDBRANCH  55  79
BRANCH  67  90
ATOM     90  C   UNL     1      -1.826 -13.532  16.657  1.00  0.00     0.023 A 
ATOM     91  C   UNL     1      -0.863 -14.558  16.735  1.00  0.00     0.012 A 
ATOM     92  C   UNL     1      -2.744 -13.365  17.713  1.00  0.00     0.148 A 
ATOM     93  C   UNL     1      -0.835 -15.424  17.828  1.00  0.00     0.002 A 
ATOM     94  C   UNL     1      -2.677 -14.198  18.823  1.00  0.00     0.091 A 
ATOM     95  F   UNL     1      -3.664 -12.395  17.613  1.00  0.00    -0.205 F 
ATOM     96  C   UNL     1      -1.733 -15.237  18.876  1.00  0.00     0.022 A 
BRANCH  94  97
ATOM     97  S   UNL     1      -3.726 -13.972  20.264  1.00  0.00     0.127 S 
ATOM     98  O   UNL     1      -4.616 -15.128  20.168  1.00  0.00    -0.237 OA
ATOM     99  O   UNL     1      -2.761 -14.034  21.362  1.00  0.00    -0.237 OA
ATOM    100  O   UNL     1      -4.368 -12.675  20.095  1.00  0.00    -0.744 OA
ENDBRANCH  94  97
ENDBRANCH  67  90
ENDBRANCH  41  42
ENDBRANCH  33  36
ENDBRANCH  31  32
ENDBRANCH  30  31
ENDBRANCH   1  30
TORSDOF 19
