REMARK SMILES CC(C)c1noc(C[N@@H+]2[C@@H](C(=O)NCCCCNC(=O)c3ccc(-c4c5nc(c(-c6cccc(S(=O)(=O)[O-])c6F)c6ccc([nH]6)c(-c6cccc(S(=O)(=O)[O-])c6F)c6nc(c(-c7cccc(S(=O)(=O)[O-])c7F)c7ccc4[nH]7)C=C6)C=C5)cc3)C[C@H]3CCCC[C@@H]32)n1
REMARK SMILES IDX 15 1 14 2 13 3 11 4 12 5 10 7 9 8 90 9 84 11 85 12 89 13
REMARK SMILES IDX 86 14 88 15 87 16 8 17 7 18 4 19 5 20 91 21 6 22 2 23 1 24
REMARK SMILES IDX 3 25 16 26 17 27 18 28 19 29 20 31 21 32 22 33 83 34 23 35
REMARK SMILES IDX 82 36 24 37 25 38 26 39 76 40 27 41 81 42 75 43 77 44 28 45
REMARK SMILES IDX 80 46 74 47 73 48 29 50 61 51 41 52 60 53 42 54 45 55 59 56
REMARK SMILES IDX 78 57 43 58 44 59 58 61 79 62 46 63 30 64 31 65 39 66 32 67
REMARK SMILES IDX 34 68 40 69 33 70 35 71 36 72 37 73 38 74 62 75 63 76 71 77
REMARK SMILES IDX 64 78 66 79 72 80 65 81 67 82 68 83 69 84 70 85 47 86 48 87
REMARK SMILES IDX 56 88 49 89 51 90 57 91 50 92 52 93 53 94 54 95 55 96
REMARK H PARENT 13 6 9 10 18 30 77 49 45 60
REMARK Flexibility Score: inf
ROOT
ATOM      1  C   UNL     1      -7.995   3.746   0.524  1.00  0.00     0.023 C 
ENDROOT
BRANCH   1   2
ATOM      2  C   UNL     1      -7.166   3.480   1.776  1.00  0.00     0.116 C 
BRANCH   2   3
ATOM      3  N   UNL     1      -7.569   2.251   2.434  1.00  0.00    -0.351 N 
ATOM      4  C   UNL     1      -6.838   1.111   2.648  1.00  0.00     0.278 C 
ATOM      5  O   UNL     1      -7.381   0.167   3.221  1.00  0.00    -0.268 OA
ATOM      6  H   UNL     1      -8.493   2.234   2.774  1.00  0.00     0.163 HD
BRANCH   4   7
ATOM      7  C   UNL     1      -5.363   1.114   2.200  1.00  0.00     0.275 C 
ATOM      8  N   UNL     1      -4.802  -0.268   2.168  1.00  0.00    -0.314 N 
ATOM      9  C   UNL     1      -3.990  -0.394   3.386  1.00  0.00     0.188 C 
ATOM     10  H   UNL     1      -5.518  -0.993   2.199  1.00  0.00     0.349 HD
ATOM     11  C   UNL     1      -4.535   1.914   3.224  1.00  0.00     0.085 C 
ATOM     12  C   UNL     1      -3.382   0.993   3.564  1.00  0.00     0.054 C 
ATOM     13  C   UNL     1      -2.934  -1.491   3.527  1.00  0.00     0.065 C 
ATOM     14  C   UNL     1      -2.753   1.143   4.938  1.00  0.00     0.010 C 
ATOM     15  C   UNL     1      -2.152  -1.330   4.841  1.00  0.00     0.006 C 
ATOM     16  C   UNL     1      -1.643   0.098   5.079  1.00  0.00     0.001 C 
BRANCH   8  17
ATOM     17  C   UNL     1      -4.183  -0.616   0.875  1.00  0.00     0.364 C 
BRANCH  17  18
ATOM     18  C   UNL     1      -2.935   0.119   0.504  1.00  0.00     0.281 A 
ATOM     19  C   UNL     1      -1.003   0.917   0.379  1.00  0.00     0.174 A 
ATOM     20  N   UNL     1      -1.776   1.921  -0.059  1.00  0.00    -0.062 NA
ATOM     21  N   UNL     1      -1.681  -0.231   0.691  1.00  0.00    -0.191 NA
ATOM     22  O   UNL     1      -3.067   1.388   0.016  1.00  0.00    -0.333 OA
BRANCH  19  23
ATOM     23  C   UNL     1       0.470   1.013   0.607  1.00  0.00     0.055 C 
ATOM     24  C   UNL     1       1.218  -0.020  -0.237  1.00  0.00     0.016 C 
ATOM     25  C   UNL     1       1.047   2.409   0.376  1.00  0.00     0.016 C 
ENDBRANCH  19  23
ENDBRANCH  17  18
ENDBRANCH   8  17
ENDBRANCH   4   7
ENDBRANCH   2   3
ENDBRANCH   1   2
BRANCH   1  26
ATOM     26  C   UNL     1      -9.462   4.082   0.798  1.00  0.00     0.023 C 
BRANCH  26  27
ATOM     27  C   UNL     1      -9.691   5.269   1.729  1.00  0.00     0.116 C 
BRANCH  27  28
ATOM     28  N   UNL     1      -9.104   6.504   1.229  1.00  0.00    -0.352 N 
ATOM     29  C   UNL     1      -9.669   7.753   1.137  1.00  0.00     0.251 C 
ATOM     30  H   UNL     1      -8.174   6.434   0.913  1.00  0.00     0.163 HD
ATOM     31  O   UNL     1      -9.072   8.656   0.557  1.00  0.00    -0.269 OA
BRANCH  29  32
ATOM     32  C   UNL     1     -11.010   7.994   1.711  1.00  0.00     0.039 A 
ATOM     33  C   UNL     1     -11.968   8.653   0.936  1.00  0.00     0.014 A 
ATOM     34  C   UNL     1     -11.329   7.547   2.996  1.00  0.00     0.014 A 
ATOM     35  C   UNL     1     -13.269   8.801   1.425  1.00  0.00     0.010 A 
ATOM     36  C   UNL     1     -12.642   7.629   3.449  1.00  0.00     0.010 A 
ATOM     37  C   UNL     1     -13.626   8.256   2.670  1.00  0.00    -0.014 A 
BRANCH  37  38
ATOM     38  C   UNL     1     -15.027   8.305   3.161  1.00  0.00     0.031 A 
ATOM     39  C   UNL     1     -15.363   9.034   4.434  1.00  0.00     0.074 A 
ATOM     40  C   UNL     1     -15.982   7.602   2.519  1.00  0.00     0.049 A 
ATOM     41  N   UNL     1     -16.511   9.124   5.054  1.00  0.00    -0.248 NA
ATOM     42  C   UNL     1     -14.258   9.729   5.114  1.00  0.00     0.031 C 
ATOM     43  C   UNL     1     -15.768   6.779   1.327  1.00  0.00     0.029 A 
ATOM     44  N   UNL     1     -17.316   7.436   2.801  1.00  0.00    -0.354 N 
ATOM     45  C   UNL     1     -16.260   9.844   6.215  1.00  0.00     0.074 A 
ATOM     46  C   UNL     1     -14.845  10.145   6.227  1.00  0.00     0.031 C 
ATOM     47  C   UNL     1     -16.924   6.190   0.985  1.00  0.00     0.029 A 
ATOM     48  C   UNL     1     -17.955   6.566   1.948  1.00  0.00     0.049 A 
ATOM     49  H   UNL     1     -17.771   7.895   3.543  1.00  0.00     0.167 HD
ATOM     50  C   UNL     1     -17.132  10.242   7.173  1.00  0.00     0.034 A 
ATOM     51  C   UNL     1     -19.222   6.106   1.949  1.00  0.00     0.034 A 
ATOM     52  C   UNL     1     -18.545   9.980   7.135  1.00  0.00     0.049 A 
ATOM     53  C   UNL     1     -20.182   6.602   2.996  1.00  0.00     0.074 A 
ATOM     54  C   UNL     1     -19.527  10.441   7.994  1.00  0.00     0.029 A 
ATOM     55  N   UNL     1     -19.177   9.175   6.201  1.00  0.00    -0.354 N 
ATOM     56  N   UNL     1     -19.966   7.437   3.983  1.00  0.00    -0.248 NA
ATOM     57  C   UNL     1     -21.568   6.120   2.910  1.00  0.00     0.031 C 
ATOM     58  C   UNL     1     -20.749   9.887   7.598  1.00  0.00     0.029 A 
ATOM     59  C   UNL     1     -20.533   9.106   6.474  1.00  0.00     0.049 A 
ATOM     60  H   UNL     1     -18.728   8.718   5.453  1.00  0.00     0.167 HD
ATOM     61  C   UNL     1     -21.191   7.602   4.619  1.00  0.00     0.074 A 
ATOM     62  C   UNL     1     -22.151   6.799   3.889  1.00  0.00     0.031 C 
ATOM     63  C   UNL     1     -21.490   8.339   5.717  1.00  0.00     0.034 A 
BRANCH  50  64
ATOM     64  C   UNL     1     -16.587  11.043   8.326  1.00  0.00     0.023 A 
ATOM     65  C   UNL     1     -16.156  12.369   8.114  1.00  0.00     0.012 A 
ATOM     66  C   UNL     1     -16.552  10.506   9.628  1.00  0.00     0.148 A 
ATOM     67  C   UNL     1     -15.663  13.134   9.170  1.00  0.00     0.002 A 
ATOM     68  C   UNL     1     -16.102  11.291  10.684  1.00  0.00     0.091 A 
ATOM     69  F   UNL     1     -16.944   9.237   9.808  1.00  0.00    -0.205 F 
ATOM     70  C   UNL     1     -15.646  12.600  10.455  1.00  0.00     0.022 A 
BRANCH  68  71
ATOM     71  S   UNL     1     -16.117  10.721  12.387  1.00  0.00     0.127 S 
ATOM     72  O   UNL     1     -14.692  10.515  12.642  1.00  0.00    -0.237 OA
ATOM     73  O   UNL     1     -16.702  11.864  13.089  1.00  0.00    -0.237 OA
ATOM     74  O   UNL     1     -16.936   9.517  12.400  1.00  0.00    -0.744 OA
ENDBRANCH  68  71
ENDBRANCH  50  64
BRANCH  51  75
ATOM     75  C   UNL     1     -19.663   5.156   0.889  1.00  0.00     0.023 A 
ATOM     76  C   UNL     1     -20.553   5.595  -0.110  1.00  0.00     0.012 A 
ATOM     77  C   UNL     1     -19.174   3.837   0.843  1.00  0.00     0.148 A 
ATOM     78  C   UNL     1     -20.969   4.728  -1.122  1.00  0.00     0.002 A 
ATOM     79  C   UNL     1     -19.547   2.996  -0.199  1.00  0.00     0.091 A 
ATOM     80  F   UNL     1     -18.336   3.436   1.810  1.00  0.00    -0.205 F 
ATOM     81  C   UNL     1     -20.457   3.434  -1.173  1.00  0.00     0.022 A 
BRANCH  79  82
ATOM     82  S   UNL     1     -18.833   1.363  -0.423  1.00  0.00     0.127 S 
ATOM     83  O   UNL     1     -19.971   0.497  -0.128  1.00  0.00    -0.237 OA
ATOM     84  O   UNL     1     -18.434   1.400  -1.831  1.00  0.00    -0.237 OA
ATOM     85  O   UNL     1     -17.720   1.288   0.514  1.00  0.00    -0.744 OA
ENDBRANCH  79  82
ENDBRANCH  51  75
BRANCH  63  86
ATOM     86  C   UNL     1     -22.918   8.336   6.196  1.00  0.00     0.023 A 
ATOM     87  C   UNL     1     -23.444   7.189   6.823  1.00  0.00     0.012 A 
ATOM     88  C   UNL     1     -23.713   9.495   6.098  1.00  0.00     0.148 A 
ATOM     89  C   UNL     1     -24.747   7.185   7.318  1.00  0.00     0.002 A 
ATOM     90  C   UNL     1     -24.994   9.501   6.638  1.00  0.00     0.091 A 
ATOM     91  F   UNL     1     -23.201  10.571   5.483  1.00  0.00    -0.205 F 
ATOM     92  C   UNL     1     -25.517   8.343   7.237  1.00  0.00     0.022 A 
BRANCH  90  93
ATOM     93  S   UNL     1     -26.023  10.973   6.666  1.00  0.00     0.127 S 
ATOM     94  O   UNL     1     -27.054  10.635   5.687  1.00  0.00    -0.237 OA
ATOM     95  O   UNL     1     -26.485  11.001   8.054  1.00  0.00    -0.237 OA
ATOM     96  O   UNL     1     -25.151  12.080   6.297  1.00  0.00    -0.744 OA
ENDBRANCH  90  93
ENDBRANCH  63  86
ENDBRANCH  37  38
ENDBRANCH  29  32
ENDBRANCH  27  28
ENDBRANCH  26  27
ENDBRANCH   1  26
TORSDOF 17
