REMARK SMILES Cc1cc2nc(NC(=O)[C@H]3[C@@H](C(=O)NCCCCNC(=O)c4ccc(-c5c6nc(c(-c7cccc(S(=O)(=O)[O-])c7F)c7ccc([nH]7)c(-c7cccc(S(=O)(=O)[O-])c7F)c7nc(c(-c8cccc(S(=O)(=O)[O-])c8F)c8ccc5[nH]8)C=C7)C=C6)cc4)[C@@H]4C=C[C@H]3C4)sc2cc1C
REMARK SMILES IDX 17 1 16 2 15 3 14 4 12 5 13 6 11 8 10 9 88 10 85 11 87 12
REMARK SMILES IDX 89 13 86 14 8 15 7 16 9 18 6 19 1 20 2 21 3 22 93 23 4 24
REMARK SMILES IDX 92 25 94 26 5 27 91 28 90 29 18 30 19 31 20 32 21 34 22 35
REMARK SMILES IDX 23 36 84 37 24 38 83 39 25 40 26 41 27 42 77 43 28 44 82 45
REMARK SMILES IDX 76 46 78 47 29 48 81 49 75 50 74 51 30 53 62 54 42 55 61 56
REMARK SMILES IDX 43 57 46 58 60 59 79 60 44 61 45 62 59 64 80 65 47 66 31 67
REMARK SMILES IDX 32 68 40 69 33 70 35 71 41 72 34 73 36 74 37 75 38 76 39 77
REMARK SMILES IDX 63 78 64 79 72 80 65 81 67 82 73 83 66 84 68 85 69 86 70 87
REMARK SMILES IDX 71 88 48 89 49 90 57 91 50 92 52 93 58 94 51 95 53 96 54 97
REMARK SMILES IDX 55 98 56 99
REMARK H PARENT 14 7 7 17 19 33 78 52 46 63
REMARK Flexibility Score: inf
ROOT
ATOM      1  C   UNL     1       7.320   6.589   3.989  1.00  0.00     0.023 C 
ENDROOT
BRANCH   1   2
ATOM      2  C   UNL     1       5.858   6.230   3.753  1.00  0.00     0.023 C 
BRANCH   2   3
ATOM      3  C   UNL     1       5.182   7.035   2.658  1.00  0.00     0.116 C 
BRANCH   3   4
ATOM      4  N   UNL     1       5.518   6.588   1.321  1.00  0.00    -0.356 N 
ATOM      5  C   UNL     1       4.781   6.261   0.233  1.00  0.00     0.224 C 
ATOM      6  O   UNL     1       5.436   6.014  -0.790  1.00  0.00    -0.275 OA
ATOM      7  H   UNL     1       6.488   6.504   1.173  1.00  0.00     0.163 HD
BRANCH   5   8
ATOM      8  C   UNL     1       3.261   6.101   0.184  1.00  0.00     0.098 C 
ATOM      9  C   UNL     1       2.286   7.087   0.895  1.00  0.00     0.099 C 
ATOM     10  C   UNL     1       1.554   6.119   1.891  1.00  0.00     0.025 C 
ATOM     11  C   UNL     1       2.795   4.705   0.680  1.00  0.00     0.025 C 
ATOM     12  C   UNL     1       0.594   5.317   1.031  1.00  0.00    -0.027 C 
ATOM     13  C   UNL     1       2.535   4.965   2.155  1.00  0.00     0.017 C 
ATOM     14  C   UNL     1       1.343   4.493   0.278  1.00  0.00    -0.027 C 
BRANCH   9  15
ATOM     15  C   UNL     1       2.793   8.393   1.504  1.00  0.00     0.230 C 
ATOM     16  N   UNL     1       3.524   9.294   0.788  1.00  0.00    -0.302 N 
ATOM     17  H   UNL     1       3.956  10.020   1.294  1.00  0.00     0.172 HD
ATOM     18  O   UNL     1       2.540   8.688   2.678  1.00  0.00    -0.274 OA
BRANCH  16  19
ATOM     19  C   UNL     1       3.715   9.286  -0.560  1.00  0.00     0.190 A 
ATOM     20  C   UNL     1       3.308   7.817  -6.337  1.00  0.00     0.044 C 
ATOM     21  C   UNL     1       3.792   8.556  -5.119  1.00  0.00    -0.046 A 
ATOM     22  C   UNL     1       3.266   8.151  -3.880  1.00  0.00     0.033 A 
ATOM     23  C   UNL     1       4.672   9.652  -5.169  1.00  0.00    -0.047 A 
ATOM     24  C   UNL     1       3.630   8.807  -2.692  1.00  0.00     0.084 A 
ATOM     25  C   UNL     1       5.086  10.283  -3.974  1.00  0.00     0.025 A 
ATOM     26  C   UNL     1       5.224  10.206  -6.457  1.00  0.00     0.044 C 
ATOM     27  N   UNL     1       3.142   8.515  -1.437  1.00  0.00    -0.220 NA
ATOM     28  C   UNL     1       4.547   9.854  -2.752  1.00  0.00     0.057 A 
ATOM     29  S   UNL     1       4.812  10.445  -1.151  1.00  0.00    -0.097 S 
ENDBRANCH  16  19
ENDBRANCH   9  15
ENDBRANCH   5   8
ENDBRANCH   3   4
ENDBRANCH   2   3
ENDBRANCH   1   2
BRANCH   1  30
ATOM     30  C   UNL     1       7.595   8.075   4.249  1.00  0.00     0.116 C 
BRANCH  30  31
ATOM     31  N   UNL     1       6.765   8.689   5.268  1.00  0.00    -0.352 N 
ATOM     32  C   UNL     1       6.872   8.834   6.626  1.00  0.00     0.251 C 
ATOM     33  H   UNL     1       5.942   9.089   4.903  1.00  0.00     0.163 HD
ATOM     34  O   UNL     1       6.099   9.643   7.145  1.00  0.00    -0.269 OA
BRANCH  32  35
ATOM     35  C   UNL     1       7.774   8.033   7.497  1.00  0.00     0.039 A 
ATOM     36  C   UNL     1       8.720   7.120   7.040  1.00  0.00     0.014 A 
ATOM     37  C   UNL     1       7.582   8.163   8.886  1.00  0.00     0.014 A 
ATOM     38  C   UNL     1       9.351   6.261   7.927  1.00  0.00     0.010 A 
ATOM     39  C   UNL     1       8.246   7.334   9.787  1.00  0.00     0.010 A 
ATOM     40  C   UNL     1       9.094   6.349   9.298  1.00  0.00    -0.014 A 
BRANCH  40  41
ATOM     41  C   UNL     1       9.907   5.514  10.176  1.00  0.00     0.031 A 
ATOM     42  C   UNL     1      11.364   5.782  10.031  1.00  0.00     0.074 A 
ATOM     43  C   UNL     1       9.421   4.628  11.069  1.00  0.00     0.049 A 
ATOM     44  N   UNL     1      12.255   5.004   9.509  1.00  0.00    -0.248 NA
ATOM     45  C   UNL     1      11.846   7.142  10.310  1.00  0.00     0.031 C 
ATOM     46  C   UNL     1       8.030   4.455  11.490  1.00  0.00     0.029 A 
ATOM     47  N   UNL     1      10.097   3.759  11.878  1.00  0.00    -0.354 N 
ATOM     48  C   UNL     1      13.462   5.694   9.617  1.00  0.00     0.074 A 
ATOM     49  C   UNL     1      13.119   7.055   9.924  1.00  0.00     0.031 C 
ATOM     50  C   UNL     1       7.997   3.728  12.631  1.00  0.00     0.029 A 
ATOM     51  C   UNL     1       9.339   3.264  12.937  1.00  0.00     0.049 A 
ATOM     52  H   UNL     1      11.036   3.505  11.726  1.00  0.00     0.167 HD
ATOM     53  C   UNL     1      14.643   5.022   9.699  1.00  0.00     0.034 A 
ATOM     54  C   UNL     1       9.800   2.575  14.011  1.00  0.00     0.034 A 
ATOM     55  C   UNL     1      14.485   3.658   9.256  1.00  0.00     0.049 A 
ATOM     56  C   UNL     1      11.098   1.987  13.622  1.00  0.00     0.074 A 
ATOM     57  C   UNL     1      14.173   3.026   8.072  1.00  0.00     0.029 A 
ATOM     58  N   UNL     1      14.302   2.740  10.258  1.00  0.00    -0.354 N 
ATOM     59  N   UNL     1      11.226   1.037  12.742  1.00  0.00    -0.248 NA
ATOM     60  C   UNL     1      12.317   2.701  13.963  1.00  0.00     0.031 C 
ATOM     61  C   UNL     1      13.457   1.853   8.451  1.00  0.00     0.029 A 
ATOM     62  C   UNL     1      13.411   1.792   9.846  1.00  0.00     0.049 A 
ATOM     63  H   UNL     1      14.744   2.762  11.137  1.00  0.00     0.167 HD
ATOM     64  C   UNL     1      12.406   1.346  12.085  1.00  0.00     0.074 A 
ATOM     65  C   UNL     1      13.105   2.267  12.977  1.00  0.00     0.031 C 
ATOM     66  C   UNL     1      12.552   1.065  10.758  1.00  0.00     0.034 A 
BRANCH  53  67
ATOM     67  C   UNL     1      15.815   5.420  10.584  1.00  0.00     0.023 A 
ATOM     68  C   UNL     1      16.937   4.554  10.580  1.00  0.00     0.012 A 
ATOM     69  C   UNL     1      15.775   6.391  11.611  1.00  0.00     0.148 A 
ATOM     70  C   UNL     1      17.911   4.596  11.584  1.00  0.00     0.002 A 
ATOM     71  C   UNL     1      16.784   6.476  12.567  1.00  0.00     0.091 A 
ATOM     72  F   UNL     1      14.710   7.178  11.755  1.00  0.00    -0.205 F 
ATOM     73  C   UNL     1      17.834   5.558  12.580  1.00  0.00     0.022 A 
BRANCH  71  74
ATOM     74  S   UNL     1      16.765   7.737  13.852  1.00  0.00     0.127 S 
ATOM     75  O   UNL     1      16.558   6.925  15.053  1.00  0.00    -0.237 OA
ATOM     76  O   UNL     1      18.109   8.307  13.719  1.00  0.00    -0.237 OA
ATOM     77  O   UNL     1      15.690   8.647  13.508  1.00  0.00    -0.744 OA
ENDBRANCH  71  74
ENDBRANCH  53  67
BRANCH  54  78
ATOM     78  C   UNL     1       9.361   2.560  15.430  1.00  0.00     0.023 A 
ATOM     79  C   UNL     1       9.828   1.538  16.288  1.00  0.00     0.012 A 
ATOM     80  C   UNL     1       8.782   3.704  16.018  1.00  0.00     0.148 A 
ATOM     81  C   UNL     1       9.780   1.680  17.680  1.00  0.00     0.002 A 
ATOM     82  C   UNL     1       8.740   3.842  17.404  1.00  0.00     0.091 A 
ATOM     83  F   UNL     1       8.365   4.696  15.222  1.00  0.00    -0.205 F 
ATOM     84  C   UNL     1       9.252   2.839  18.238  1.00  0.00     0.022 A 
BRANCH  82  85
ATOM     85  S   UNL     1       8.130   5.334  18.200  1.00  0.00     0.127 S 
ATOM     86  O   UNL     1       7.214   4.789  19.202  1.00  0.00    -0.237 OA
ATOM     87  O   UNL     1       9.359   5.908  18.741  1.00  0.00    -0.237 OA
ATOM     88  O   UNL     1       7.480   6.108  17.150  1.00  0.00    -0.744 OA
ENDBRANCH  82  85
ENDBRANCH  54  78
BRANCH  66  89
ATOM     89  C   UNL     1      11.590   0.089  10.129  1.00  0.00     0.023 A 
ATOM     90  C   UNL     1      10.206   0.339  10.017  1.00  0.00     0.012 A 
ATOM     91  C   UNL     1      12.135  -1.029   9.475  1.00  0.00     0.148 A 
ATOM     92  C   UNL     1       9.386  -0.515   9.274  1.00  0.00     0.002 A 
ATOM     93  C   UNL     1      11.328  -1.839   8.688  1.00  0.00     0.091 A 
ATOM     94  F   UNL     1      13.451  -1.258   9.604  1.00  0.00    -0.205 F 
ATOM     95  C   UNL     1       9.950  -1.593   8.593  1.00  0.00     0.022 A 
BRANCH  93  96
ATOM     96  S   UNL     1      12.023  -3.139   7.665  1.00  0.00     0.127 S 
ATOM     97  O   UNL     1      11.592  -4.345   8.368  1.00  0.00    -0.237 OA
ATOM     98  O   UNL     1      11.363  -2.909   6.379  1.00  0.00    -0.237 OA
ATOM     99  O   UNL     1      13.462  -2.907   7.643  1.00  0.00    -0.744 OA
ENDBRANCH  93  96
ENDBRANCH  66  89
ENDBRANCH  40  41
ENDBRANCH  32  35
ENDBRANCH  30  31
ENDBRANCH   1  30
TORSDOF 16
