REMARK SMILES O=C(NCCCCNC(=O)[C@@H]1CCCC[C@@H]1NS(=O)(=O)c1ccc2ccccc2c1)c1ccc(-c2c3nc(c(-c4cccc(S(=O)(=O)[O-])c4F)c4ccc([nH]4)c(-c4cccc(S(=O)(=O)[O-])c4F)c4nc(c(-c5cccc(S(=O)(=O)[O-])c5F)c5ccc2[nH]5)C=C4)C=C3)cc1
REMARK SMILES IDX 5 1 4 2 3 3 1 4 2 5 31 7 32 8 93 9 33 10 92 11 34 12 35 13
REMARK SMILES IDX 36 14 86 15 37 16 91 17 85 18 87 19 38 20 90 21 84 22 83 23
REMARK SMILES IDX 39 25 71 26 51 27 70 28 52 29 55 30 69 31 88 32 53 33 54 34
REMARK SMILES IDX 68 36 89 37 56 38 40 39 41 40 49 41 42 42 44 43 50 44 43 45
REMARK SMILES IDX 45 46 46 47 47 48 48 49 72 50 73 51 81 52 74 53 76 54 82 55
REMARK SMILES IDX 75 56 77 57 78 58 79 59 80 60 57 61 58 62 66 63 59 64 61 65
REMARK SMILES IDX 67 66 60 67 62 68 63 69 64 70 65 71 6 72 7 73 8 74 9 75
REMARK SMILES IDX 10 77 11 78 12 79 16 80 13 81 15 82 14 83 17 84 18 86 19 87
REMARK SMILES IDX 20 88 21 89 22 90 30 91 23 92 29 93 24 94 28 95 25 96 27 97
REMARK SMILES IDX 26 98
REMARK H PARENT 3 6 87 24 55 35 8 76 17 85
REMARK Flexibility Score: inf
ROOT
ATOM      1  C   UNL     1       4.655   0.223  -3.040  1.00  0.00     0.023 C 
ENDROOT
BRANCH   1   2
ATOM      2  C   UNL     1       4.375   0.401  -1.548  1.00  0.00     0.116 C 
BRANCH   2   3
ATOM      3  N   UNL     1       2.974   0.526  -1.176  1.00  0.00    -0.352 N 
ATOM      4  O   UNL     1       1.076   0.009  -0.045  1.00  0.00    -0.269 OA
ATOM      5  C   UNL     1       2.279  -0.170  -0.207  1.00  0.00     0.251 C 
ATOM      6  H   UNL     1       2.454   1.193  -1.680  1.00  0.00     0.163 HD
BRANCH   5   7
ATOM      7  C   UNL     1       3.011  -1.156   0.617  1.00  0.00     0.039 A 
ATOM      8  C   UNL     1       4.177  -0.765   1.276  1.00  0.00     0.014 A 
ATOM      9  C   UNL     1       2.582  -2.485   0.664  1.00  0.00     0.014 A 
ATOM     10  C   UNL     1       5.005  -1.734   1.829  1.00  0.00     0.010 A 
ATOM     11  C   UNL     1       3.373  -3.445   1.309  1.00  0.00     0.010 A 
ATOM     12  C   UNL     1       4.612  -3.086   1.864  1.00  0.00    -0.014 A 
BRANCH  12  13
ATOM     13  C   UNL     1       5.485  -4.065   2.567  1.00  0.00     0.031 A 
ATOM     14  C   UNL     1       6.120  -5.233   1.858  1.00  0.00     0.074 A 
ATOM     15  C   UNL     1       5.734  -3.861   3.877  1.00  0.00     0.049 A 
ATOM     16  N   UNL     1       6.951  -6.127   2.333  1.00  0.00    -0.248 NA
ATOM     17  C   UNL     1       5.781  -5.433   0.440  1.00  0.00     0.031 C 
ATOM     18  C   UNL     1       5.136  -2.796   4.687  1.00  0.00     0.029 A 
ATOM     19  N   UNL     1       6.553  -4.523   4.755  1.00  0.00    -0.354 N 
ATOM     20  C   UNL     1       7.217  -7.007   1.289  1.00  0.00     0.074 A 
ATOM     21  C   UNL     1       6.444  -6.547   0.154  1.00  0.00     0.031 C 
ATOM     22  C   UNL     1       5.633  -2.853   5.930  1.00  0.00     0.029 A 
ATOM     23  C   UNL     1       6.528  -3.999   6.026  1.00  0.00     0.049 A 
ATOM     24  H   UNL     1       7.105  -5.298   4.501  1.00  0.00     0.167 HD
ATOM     25  C   UNL     1       8.040  -8.085   1.274  1.00  0.00     0.034 A 
ATOM     26  C   UNL     1       7.132  -4.406   7.157  1.00  0.00     0.034 A 
ATOM     27  C   UNL     1       8.816  -8.529   2.405  1.00  0.00     0.049 A 
ATOM     28  C   UNL     1       8.040  -5.599   7.104  1.00  0.00     0.074 A 
ATOM     29  C   UNL     1       9.709  -9.587   2.474  1.00  0.00     0.029 A 
ATOM     30  N   UNL     1       8.790  -7.954   3.667  1.00  0.00    -0.354 N 
ATOM     31  N   UNL     1       8.365  -6.343   6.076  1.00  0.00    -0.248 NA
ATOM     32  C   UNL     1       8.690  -5.989   8.362  1.00  0.00     0.031 C 
ATOM     33  C   UNL     1      10.196  -9.669   3.783  1.00  0.00     0.029 A 
ATOM     34  C   UNL     1       9.641  -8.638   4.521  1.00  0.00     0.049 A 
ATOM     35  H   UNL     1       8.245  -7.173   3.919  1.00  0.00     0.167 HD
ATOM     36  C   UNL     1       9.273  -7.277   6.557  1.00  0.00     0.074 A 
ATOM     37  C   UNL     1       9.479  -6.974   7.959  1.00  0.00     0.031 C 
ATOM     38  C   UNL     1       9.866  -8.307   5.905  1.00  0.00     0.034 A 
BRANCH  25  39
ATOM     39  C   UNL     1       8.186  -8.854  -0.018  1.00  0.00     0.023 A 
ATOM     40  C   UNL     1       8.906  -8.283  -1.087  1.00  0.00     0.012 A 
ATOM     41  C   UNL     1       7.707 -10.175  -0.139  1.00  0.00     0.148 A 
ATOM     42  C   UNL     1       9.127  -9.003  -2.263  1.00  0.00     0.002 A 
ATOM     43  C   UNL     1       7.967 -10.901  -1.296  1.00  0.00     0.091 A 
ATOM     44  F   UNL     1       7.017 -10.699   0.884  1.00  0.00    -0.205 F 
ATOM     45  C   UNL     1       8.668 -10.313  -2.362  1.00  0.00     0.022 A 
BRANCH  43  46
ATOM     46  S   UNL     1       7.492 -12.622  -1.498  1.00  0.00     0.127 S 
ATOM     47  O   UNL     1       6.504 -12.531  -2.573  1.00  0.00    -0.237 OA
ATOM     48  O   UNL     1       8.757 -13.246  -1.885  1.00  0.00    -0.237 OA
ATOM     49  O   UNL     1       6.967 -13.051  -0.209  1.00  0.00    -0.744 OA
ENDBRANCH  43  46
ENDBRANCH  25  39
BRANCH  26  50
ATOM     50  C   UNL     1       6.891  -3.677   8.434  1.00  0.00     0.023 A 
ATOM     51  C   UNL     1       7.942  -2.978   9.056  1.00  0.00     0.012 A 
ATOM     52  C   UNL     1       5.613  -3.668   9.026  1.00  0.00     0.148 A 
ATOM     53  C   UNL     1       7.735  -2.320  10.269  1.00  0.00     0.002 A 
ATOM     54  C   UNL     1       5.397  -2.955  10.197  1.00  0.00     0.091 A 
ATOM     55  F   UNL     1       4.628  -4.351   8.425  1.00  0.00    -0.205 F 
ATOM     56  C   UNL     1       6.461  -2.299  10.833  1.00  0.00     0.022 A 
BRANCH  54  57
ATOM     57  S   UNL     1       3.760  -2.758  10.906  1.00  0.00     0.127 S 
ATOM     58  O   UNL     1       3.835  -3.628  12.076  1.00  0.00    -0.237 OA
ATOM     59  O   UNL     1       3.728  -1.325  11.203  1.00  0.00    -0.237 OA
ATOM     60  O   UNL     1       2.830  -3.172   9.864  1.00  0.00    -0.744 OA
ENDBRANCH  54  57
ENDBRANCH  26  50
BRANCH  38  61
ATOM     61  C   UNL     1      10.821  -9.161   6.699  1.00  0.00     0.023 A 
ATOM     62  C   UNL     1      10.332 -10.002   7.720  1.00  0.00     0.012 A 
ATOM     63  C   UNL     1      12.202  -9.142   6.424  1.00  0.00     0.148 A 
ATOM     64  C   UNL     1      11.207 -10.768   8.489  1.00  0.00     0.002 A 
ATOM     65  C   UNL     1      13.062  -9.950   7.157  1.00  0.00     0.091 A 
ATOM     66  F   UNL     1      12.652  -8.323   5.462  1.00  0.00    -0.205 F 
ATOM     67  C   UNL     1      12.570 -10.748   8.202  1.00  0.00     0.022 A 
BRANCH  65  68
ATOM     68  S   UNL     1      14.818 -10.063   6.798  1.00  0.00     0.127 S 
ATOM     69  O   UNL     1      15.402  -9.360   7.939  1.00  0.00    -0.237 OA
ATOM     70  O   UNL     1      15.040 -11.510   6.795  1.00  0.00    -0.237 OA
ATOM     71  O   UNL     1      15.007  -9.421   5.505  1.00  0.00    -0.744 OA
ENDBRANCH  65  68
ENDBRANCH  38  61
ENDBRANCH  12  13
ENDBRANCH   5   7
ENDBRANCH   2   3
ENDBRANCH   1   2
BRANCH   1  72
ATOM     72  C   UNL     1       3.945   1.130  -4.051  1.00  0.00     0.023 C 
BRANCH  72  73
ATOM     73  C   UNL     1       4.314   2.612  -4.041  1.00  0.00     0.116 C 
BRANCH  73  74
ATOM     74  N   UNL     1       5.684   2.907  -4.424  1.00  0.00    -0.356 N 
ATOM     75  C   UNL     1       6.393   4.072  -4.495  1.00  0.00     0.224 C 
ATOM     76  H   UNL     1       6.203   2.111  -4.682  1.00  0.00     0.163 HD
ATOM     77  O   UNL     1       7.548   3.973  -4.923  1.00  0.00    -0.275 OA
BRANCH  75  78
ATOM     78  C   UNL     1       5.790   5.454  -4.250  1.00  0.00     0.096 C 
ATOM     79  C   UNL     1       6.848   6.573  -4.065  1.00  0.00     0.015 C 
ATOM     80  C   UNL     1       4.705   5.659  -3.191  1.00  0.00     0.082 C 
ATOM     81  C   UNL     1       6.233   7.962  -4.290  1.00  0.00     0.001 C 
ATOM     82  C   UNL     1       3.968   6.958  -3.617  1.00  0.00     0.021 C 
ATOM     83  C   UNL     1       4.881   8.185  -3.606  1.00  0.00     0.002 C 
BRANCH  80  84
ATOM     84  N   UNL     1       5.228   5.855  -1.810  1.00  0.00    -0.207 NA
ATOM     85  H   UNL     1       4.507   6.386  -1.322  1.00  0.00     0.141 HD
BRANCH  84  86
ATOM     86  S   UNL     1       5.672   4.623  -0.746  1.00  0.00     0.240 S 
ATOM     87  O   UNL     1       5.724   5.273   0.543  1.00  0.00    -0.207 OA
ATOM     88  O   UNL     1       4.766   3.520  -0.965  1.00  0.00    -0.207 OA
BRANCH  86  89
ATOM     89  C   UNL     1       7.336   4.126  -1.144  1.00  0.00     0.083 A 
ATOM     90  C   UNL     1       8.411   4.822  -0.595  1.00  0.00     0.022 A 
ATOM     91  C   UNL     1       7.589   2.977  -1.901  1.00  0.00     0.030 A 
ATOM     92  C   UNL     1       9.723   4.433  -0.895  1.00  0.00     0.010 A 
ATOM     93  C   UNL     1       8.900   2.639  -2.304  1.00  0.00    -0.017 A 
ATOM     94  C   UNL     1       9.983   3.379  -1.788  1.00  0.00    -0.018 A 
ATOM     95  C   UNL     1       9.161   1.620  -3.244  1.00  0.00     0.009 A 
ATOM     96  C   UNL     1      11.293   3.063  -2.197  1.00  0.00     0.009 A 
ATOM     97  C   UNL     1      10.462   1.361  -3.688  1.00  0.00     0.001 A 
ATOM     98  C   UNL     1      11.529   2.076  -3.156  1.00  0.00     0.001 A 
ENDBRANCH  86  89
ENDBRANCH  84  86
ENDBRANCH  80  84
ENDBRANCH  75  78
ENDBRANCH  73  74
ENDBRANCH  72  73
ENDBRANCH   1  72
TORSDOF 17
