REMARK SMILES CC(C)C[C@H](C(=O)NCCCCNC(=O)c1ccc(-c2c3nc(c(-c4cccc(S(=O)(=O)[O-])c4F)c4ccc([nH]4)c(-c4cccc(S(=O)(=O)[O-])c4F)c4nc(c(-c5cccc(S(=O)(=O)[O-])c5F)c5ccc2[nH]5)C=C4)C=C3)cc1)N1C(=O)/C(=C2\C(=O)Nc3ccc(Br)cc32)SC1=S
REMARK SMILES IDX 11 1 10 2 9 3 8 4 6 5 7 6 5 8 4 9 2 10 1 11 3 12 79 13 80 14
REMARK SMILES IDX 95 15 81 16 82 17 94 18 96 19 83 20 84 21 93 22 85 23 86 24
REMARK SMILES IDX 87 25 92 26 88 28 90 29 89 30 91 31 12 32 13 33 14 34 15 36
REMARK SMILES IDX 16 37 17 38 78 39 18 40 77 41 19 42 20 43 21 44 71 45 22 46
REMARK SMILES IDX 76 47 70 48 72 49 23 50 75 51 69 52 68 53 24 55 56 56 36 57
REMARK SMILES IDX 55 58 37 59 40 60 54 61 73 62 38 63 39 64 53 66 74 67 41 68
REMARK SMILES IDX 25 69 26 70 34 71 27 72 29 73 35 74 28 75 30 76 31 77 32 78
REMARK SMILES IDX 33 79 57 80 58 81 66 82 59 83 61 84 67 85 60 86 62 87 63 88
REMARK SMILES IDX 64 89 65 90 42 91 43 92 51 93 44 94 46 95 52 96 45 97 47 98
REMARK SMILES IDX 48 99 49 100 50 101
REMARK H PARENT 8 7 86 27 13 35 72 54 40 65
REMARK Flexibility Score: inf
ROOT
ATOM      1  C   UNL     1      -2.258  -3.070  -1.765  1.00  0.00     0.023 C 
ENDROOT
BRANCH   1   2
ATOM      2  C   UNL     1      -2.477  -2.071  -0.638  1.00  0.00     0.023 C 
BRANCH   2   3
ATOM      3  C   UNL     1      -1.277  -1.233  -0.203  1.00  0.00     0.116 C 
BRANCH   3   4
ATOM      4  N   UNL     1      -1.012  -0.186  -1.177  1.00  0.00    -0.354 N 
ATOM      5  C   UNL     1      -1.622   1.027  -1.326  1.00  0.00     0.243 C 
ATOM      6  O   UNL     1      -1.639   1.483  -2.474  1.00  0.00    -0.273 OA
ATOM      7  H   UNL     1      -0.292  -0.380  -1.819  1.00  0.00     0.163 HD
BRANCH   5   8
ATOM      8  C   UNL     1      -2.309   1.776  -0.141  1.00  0.00     0.181 C 
BRANCH   8   9
ATOM      9  C   UNL     1      -1.512   3.082   0.155  1.00  0.00     0.038 C 
BRANCH   9  10
ATOM     10  C   UNL     1      -1.155   4.089  -0.984  1.00  0.00    -0.015 C 
ATOM     11  C   UNL     1      -2.009   5.357  -0.987  1.00  0.00     0.007 C 
ATOM     12  C   UNL     1       0.313   4.526  -0.859  1.00  0.00     0.007 C 
ENDBRANCH   9  10
ENDBRANCH   8   9
BRANCH   8  13
ATOM     13  N   UNL     1      -3.749   1.825  -0.480  1.00  0.00    -0.280 N 
ATOM     14  C   UNL     1      -4.484   0.662  -0.348  1.00  0.00     0.267 C 
ATOM     15  C   UNL     1      -4.630   2.846  -0.605  1.00  0.00     0.149 C 
ATOM     16  O   UNL     1      -4.307  -0.133   0.559  1.00  0.00    -0.268 OA
ATOM     17  C   UNL     1      -5.616   0.662  -1.334  1.00  0.00     0.093 C 
ATOM     18  S   UNL     1      -5.859   2.330  -1.762  1.00  0.00    -0.053 SA
ATOM     19  S   UNL     1      -4.856   4.154   0.405  1.00  0.00    -0.052 S 
ATOM     20  C   UNL     1      -6.261  -0.403  -1.841  1.00  0.00     0.069 C 
ATOM     21  C   UNL     1      -6.074  -1.830  -1.364  1.00  0.00     0.257 C 
ATOM     22  C   UNL     1      -7.204  -0.485  -2.985  1.00  0.00     0.013 A 
ATOM     23  O   UNL     1      -5.489  -2.251  -0.390  1.00  0.00    -0.269 OA
ATOM     24  N   UNL     1      -6.789  -2.615  -2.245  1.00  0.00    -0.321 N 
ATOM     25  C   UNL     1      -7.454  -1.850  -3.187  1.00  0.00     0.049 A 
ATOM     26  C   UNL     1      -7.785   0.434  -3.843  1.00  0.00     0.026 A 
ATOM     27  H   UNL     1      -6.823  -3.599  -2.208  1.00  0.00     0.170 HD
ATOM     28  C   UNL     1      -8.258  -2.341  -4.197  1.00  0.00     0.028 A 
ATOM     29  C   UNL     1      -8.610  -0.041  -4.873  1.00  0.00     0.018 A 
ATOM     30  C   UNL     1      -8.846  -1.413  -5.055  1.00  0.00     0.018 A 
ATOM     31  Br  UNL     1      -9.423   1.199  -6.051  1.00  0.00    -0.051 Br
ENDBRANCH   8  13
ENDBRANCH   5   8
ENDBRANCH   3   4
ENDBRANCH   2   3
ENDBRANCH   1   2
BRANCH   1  32
ATOM     32  C   UNL     1      -1.420  -4.280  -1.397  1.00  0.00     0.116 C 
BRANCH  32  33
ATOM     33  N   UNL     1      -1.995  -5.083  -0.325  1.00  0.00    -0.352 N 
ATOM     34  C   UNL     1      -2.285  -6.427  -0.276  1.00  0.00     0.251 C 
ATOM     35  H   UNL     1      -2.209  -4.584   0.496  1.00  0.00     0.163 HD
ATOM     36  O   UNL     1      -2.849  -6.895   0.711  1.00  0.00    -0.269 OA
BRANCH  34  37
ATOM     37  C   UNL     1      -1.965  -7.305  -1.424  1.00  0.00     0.039 A 
ATOM     38  C   UNL     1      -2.902  -8.263  -1.824  1.00  0.00     0.014 A 
ATOM     39  C   UNL     1      -0.766  -7.170  -2.124  1.00  0.00     0.014 A 
ATOM     40  C   UNL     1      -2.674  -9.019  -2.977  1.00  0.00     0.010 A 
ATOM     41  C   UNL     1      -0.592  -7.840  -3.329  1.00  0.00     0.010 A 
ATOM     42  C   UNL     1      -1.538  -8.778  -3.767  1.00  0.00    -0.014 A 
BRANCH  42  43
ATOM     43  C   UNL     1      -1.308  -9.489  -5.051  1.00  0.00     0.031 A 
ATOM     44  C   UNL     1      -0.062 -10.314  -5.238  1.00  0.00     0.074 A 
ATOM     45  C   UNL     1      -2.153  -9.300  -6.084  1.00  0.00     0.049 A 
ATOM     46  N   UNL     1       0.378 -10.912  -6.314  1.00  0.00    -0.248 NA
ATOM     47  C   UNL     1       0.831 -10.449  -4.073  1.00  0.00     0.031 C 
ATOM     48  C   UNL     1      -3.344  -8.447  -6.061  1.00  0.00     0.029 A 
ATOM     49  N   UNL     1      -2.123  -9.789  -7.366  1.00  0.00    -0.354 N 
ATOM     50  C   UNL     1       1.617 -11.442  -5.973  1.00  0.00     0.074 A 
ATOM     51  C   UNL     1       1.877 -11.064  -4.602  1.00  0.00     0.031 C 
ATOM     52  C   UNL     1      -3.934  -8.480  -7.267  1.00  0.00     0.029 A 
ATOM     53  C   UNL     1      -3.152  -9.332  -8.157  1.00  0.00     0.049 A 
ATOM     54  H   UNL     1      -1.429 -10.408  -7.690  1.00  0.00     0.167 HD
ATOM     55  C   UNL     1       2.447 -12.208  -6.719  1.00  0.00     0.034 A 
ATOM     56  C   UNL     1      -3.434  -9.573  -9.453  1.00  0.00     0.034 A 
ATOM     57  C   UNL     1       2.145 -12.655  -8.050  1.00  0.00     0.049 A 
ATOM     58  C   UNL     1      -2.543 -10.503 -10.232  1.00  0.00     0.074 A 
ATOM     59  C   UNL     1       2.862 -13.528  -8.848  1.00  0.00     0.029 A 
ATOM     60  N   UNL     1       1.028 -12.272  -8.776  1.00  0.00    -0.354 N 
ATOM     61  N   UNL     1      -1.461 -11.130  -9.837  1.00  0.00    -0.248 NA
ATOM     62  C   UNL     1      -2.929 -10.787 -11.621  1.00  0.00     0.031 C 
ATOM     63  C   UNL     1       2.177 -13.672 -10.060  1.00  0.00     0.029 A 
ATOM     64  C   UNL     1       1.033 -12.892 -10.013  1.00  0.00     0.049 A 
ATOM     65  H   UNL     1       0.334 -11.650  -8.459  1.00  0.00     0.167 HD
ATOM     66  C   UNL     1      -1.055 -11.907 -10.916  1.00  0.00     0.074 A 
ATOM     67  C   UNL     1      -2.021 -11.688 -11.974  1.00  0.00     0.031 C 
ATOM     68  C   UNL     1       0.030 -12.711 -11.030  1.00  0.00     0.034 A 
BRANCH  55  69
ATOM     69  C   UNL     1       3.725 -12.678  -6.077  1.00  0.00     0.023 A 
ATOM     70  C   UNL     1       3.671 -13.672  -5.079  1.00  0.00     0.012 A 
ATOM     71  C   UNL     1       4.976 -12.174  -6.483  1.00  0.00     0.148 A 
ATOM     72  C   UNL     1       4.836 -14.132  -4.468  1.00  0.00     0.002 A 
ATOM     73  C   UNL     1       6.137 -12.668  -5.899  1.00  0.00     0.091 A 
ATOM     74  F   UNL     1       5.008 -11.210  -7.415  1.00  0.00    -0.205 F 
ATOM     75  C   UNL     1       6.069 -13.638  -4.885  1.00  0.00     0.022 A 
BRANCH  73  76
ATOM     76  S   UNL     1       7.776 -12.146  -6.420  1.00  0.00     0.127 S 
ATOM     77  O   UNL     1       8.167 -11.264  -5.322  1.00  0.00    -0.237 OA
ATOM     78  O   UNL     1       8.504 -13.415  -6.471  1.00  0.00    -0.237 OA
ATOM     79  O   UNL     1       7.595 -11.501  -7.713  1.00  0.00    -0.744 OA
ENDBRANCH  73  76
ENDBRANCH  55  69
BRANCH  56  80
ATOM     80  C   UNL     1      -4.667  -8.999 -10.064  1.00  0.00     0.023 A 
ATOM     81  C   UNL     1      -5.748  -9.854 -10.353  1.00  0.00     0.012 A 
ATOM     82  C   UNL     1      -4.796  -7.621 -10.319  1.00  0.00     0.148 A 
ATOM     83  C   UNL     1      -6.924  -9.353 -10.911  1.00  0.00     0.002 A 
ATOM     84  C   UNL     1      -5.991  -7.119 -10.824  1.00  0.00     0.091 A 
ATOM     85  F   UNL     1      -3.752  -6.823 -10.051  1.00  0.00    -0.205 F 
ATOM     86  C   UNL     1      -7.050  -7.985 -11.136  1.00  0.00     0.022 A 
BRANCH  84  87
ATOM     87  S   UNL     1      -6.288  -5.357 -11.010  1.00  0.00     0.127 S 
ATOM     88  O   UNL     1      -6.179  -5.184 -12.455  1.00  0.00    -0.237 OA
ATOM     89  O   UNL     1      -7.643  -5.217 -10.472  1.00  0.00    -0.237 OA
ATOM     90  O   UNL     1      -5.261  -4.705 -10.208  1.00  0.00    -0.744 OA
ENDBRANCH  84  87
ENDBRANCH  56  80
BRANCH  68  91
ATOM     91  C   UNL     1       0.227 -13.438 -12.332  1.00  0.00     0.023 A 
ATOM     92  C   UNL     1       0.689 -12.730 -13.458  1.00  0.00     0.012 A 
ATOM     93  C   UNL     1       0.039 -14.831 -12.418  1.00  0.00     0.148 A 
ATOM     94  C   UNL     1       0.939 -13.393 -14.658  1.00  0.00     0.002 A 
ATOM     95  C   UNL     1       0.331 -15.493 -13.605  1.00  0.00     0.091 A 
ATOM     96  F   UNL     1      -0.422 -15.484 -11.341  1.00  0.00    -0.205 F 
ATOM     97  C   UNL     1       0.773 -14.775 -14.728  1.00  0.00     0.022 A 
BRANCH  95  98
ATOM     98  S   UNL     1       0.232 -17.281 -13.752  1.00  0.00     0.127 S 
ATOM     99  O   UNL     1      -1.024 -17.451 -14.479  1.00  0.00    -0.237 OA
ATOM    100  O   UNL     1       1.433 -17.600 -14.525  1.00  0.00    -0.237 OA
ATOM    101  O   UNL     1       0.244 -17.791 -12.387  1.00  0.00    -0.744 OA
ENDBRANCH  95  98
ENDBRANCH  68  91
ENDBRANCH  42  43
ENDBRANCH  34  37
ENDBRANCH  32  33
ENDBRANCH   1  32
TORSDOF 17
