REMARK SMILES C[C@H]1[C@@H](C(=O)NCCCCNC(=O)c2ccc(-c3c4nc(c(-c5cccc(S(=O)(=O)[O-])c5F)c5ccc([nH]5)c(-c5cccc(S(=O)(=O)[O-])c5F)c5nc(c(-c6cccc(S(=O)(=O)[O-])c6F)c6ccc3[nH]6)C=C5)C=C4)cc2)CCN1C(=O)c1n[nH]c(N)n1
REMARK SMILES IDX 8 1 7 2 6 3 4 4 5 5 3 7 1 8 2 9 79 10 77 11 78 12 80 13
REMARK SMILES IDX 81 14 82 15 83 16 87 17 84 18 85 19 86 21 9 24 10 25 11 26
REMARK SMILES IDX 12 27 13 29 14 30 15 31 76 32 16 33 75 34 17 35 18 36 19 37
REMARK SMILES IDX 69 38 20 39 74 40 68 41 70 42 21 43 73 44 67 45 66 46 22 48
REMARK SMILES IDX 54 49 34 50 53 51 35 52 38 53 52 54 71 55 36 56 37 57 51 59
REMARK SMILES IDX 72 60 39 61 23 62 24 63 32 64 25 65 27 66 33 67 26 68 28 69
REMARK SMILES IDX 29 70 30 71 31 72 55 73 56 74 64 75 57 76 59 77 65 78 58 79
REMARK SMILES IDX 60 80 61 81 62 82 63 83 40 84 41 85 49 86 42 87 44 88 50 89
REMARK SMILES IDX 43 90 45 91 46 92 47 93 48 94
REMARK H PARENT 6 6 84 20 86 22 86 23 11 28 70 47 38 58
REMARK Flexibility Score: inf
ROOT
ATOM      1  C   UNL     1       3.394   0.558  -2.073  1.00  0.00     0.023 C 
ENDROOT
BRANCH   1   2
ATOM      2  C   UNL     1       2.658   1.698  -1.351  1.00  0.00     0.116 C 
BRANCH   2   3
ATOM      3  N   UNL     1       1.281   1.750  -1.807  1.00  0.00    -0.356 N 
ATOM      4  C   UNL     1       0.133   1.212  -1.306  1.00  0.00     0.225 C 
ATOM      5  O   UNL     1      -0.832   1.194  -2.076  1.00  0.00    -0.275 OA
ATOM      6  H   UNL     1       1.152   2.271  -2.632  1.00  0.00     0.163 HD
BRANCH   4   7
ATOM      7  C   UNL     1      -0.010   0.778   0.164  1.00  0.00     0.102 C 
ATOM      8  C   UNL     1       1.721  -1.131  -0.179  1.00  0.00     0.032 C 
ATOM      9  C   UNL     1       0.624  -0.545   0.677  1.00  0.00     0.095 C 
ATOM     10  N   UNL     1      -0.475  -1.501   0.819  1.00  0.00    -0.332 N 
ATOM     11  C   UNL     1      -1.509   0.543   0.485  1.00  0.00     0.037 C 
ATOM     12  C   UNL     1      -1.692  -0.953   0.269  1.00  0.00     0.121 C 
BRANCH  10  13
ATOM     13  C   UNL     1      -0.415  -2.778   1.393  1.00  0.00     0.293 C 
ATOM     14  O   UNL     1      -1.377  -3.546   1.361  1.00  0.00    -0.265 OA
BRANCH  13  15
ATOM     15  C   UNL     1       0.879  -3.175   2.011  1.00  0.00     0.241 A 
ATOM     16  N   UNL     1       1.497  -2.458   2.978  1.00  0.00    -0.147 NA
ATOM     17  N   UNL     1       1.675  -4.186   1.485  1.00  0.00    -0.187 NA
ATOM     18  N   UNL     1       2.712  -3.032   3.008  1.00  0.00    -0.245 N 
ATOM     19  C   UNL     1       2.829  -4.018   2.074  1.00  0.00     0.216 A 
ATOM     20  H   UNL     1       3.430  -2.772   3.630  1.00  0.00     0.193 HD
BRANCH  19  21
ATOM     21  N   UNL     1       3.990  -4.623   1.803  1.00  0.00    -0.368 N 
ATOM     22  H   UNL     1       4.793  -4.403   2.327  1.00  0.00     0.159 HD
ATOM     23  H   UNL     1       4.041  -5.288   1.078  1.00  0.00     0.159 HD
ENDBRANCH  19  21
ENDBRANCH  13  15
ENDBRANCH  10  13
ENDBRANCH   4   7
ENDBRANCH   2   3
ENDBRANCH   1   2
BRANCH   1  24
ATOM     24  C   UNL     1       4.239   0.948  -3.268  1.00  0.00     0.023 C 
BRANCH  24  25
ATOM     25  C   UNL     1       5.513   1.684  -2.907  1.00  0.00     0.116 C 
BRANCH  25  26
ATOM     26  N   UNL     1       6.395   0.953  -1.996  1.00  0.00    -0.352 N 
ATOM     27  C   UNL     1       7.763   0.801  -2.063  1.00  0.00     0.251 C 
ATOM     28  H   UNL     1       5.953   0.511  -1.236  1.00  0.00     0.163 HD
ATOM     29  O   UNL     1       8.358   0.104  -1.248  1.00  0.00    -0.269 OA
BRANCH  27  30
ATOM     30  C   UNL     1       8.484   1.458  -3.170  1.00  0.00     0.039 A 
ATOM     31  C   UNL     1       9.317   0.697  -3.991  1.00  0.00     0.014 A 
ATOM     32  C   UNL     1       8.204   2.791  -3.475  1.00  0.00     0.014 A 
ATOM     33  C   UNL     1       9.784   1.248  -5.185  1.00  0.00     0.010 A 
ATOM     34  C   UNL     1       8.564   3.288  -4.717  1.00  0.00     0.010 A 
ATOM     35  C   UNL     1       9.363   2.527  -5.584  1.00  0.00    -0.014 A 
BRANCH  35  36
ATOM     36  C   UNL     1       9.737   3.106  -6.898  1.00  0.00     0.031 A 
ATOM     37  C   UNL     1      10.470   4.420  -6.946  1.00  0.00     0.074 A 
ATOM     38  C   UNL     1       9.311   2.525  -8.038  1.00  0.00     0.049 A 
ATOM     39  N   UNL     1      10.781   5.154  -7.981  1.00  0.00    -0.248 NA
ATOM     40  C   UNL     1      10.857   5.016  -5.654  1.00  0.00     0.031 C 
ATOM     41  C   UNL     1       8.494   1.311  -8.123  1.00  0.00     0.029 A 
ATOM     42  N   UNL     1       9.484   2.896  -9.348  1.00  0.00    -0.354 N 
ATOM     43  C   UNL     1      11.341   6.316  -7.464  1.00  0.00     0.074 A 
ATOM     44  C   UNL     1      11.283   6.213  -6.024  1.00  0.00     0.031 C 
ATOM     45  C   UNL     1       8.254   1.030  -9.415  1.00  0.00     0.029 A 
ATOM     46  C   UNL     1       8.877   2.051 -10.249  1.00  0.00     0.049 A 
ATOM     47  H   UNL     1       9.995   3.693  -9.619  1.00  0.00     0.167 HD
ATOM     48  C   UNL     1      11.899   7.356  -8.125  1.00  0.00     0.034 A 
ATOM     49  C   UNL     1       8.836   2.094 -11.595  1.00  0.00     0.034 A 
ATOM     50  C   UNL     1      12.047   7.405  -9.551  1.00  0.00     0.049 A 
ATOM     51  C   UNL     1       9.567   3.201 -12.308  1.00  0.00     0.074 A 
ATOM     52  C   UNL     1      12.707   8.349 -10.316  1.00  0.00     0.029 A 
ATOM     53  N   UNL     1      11.543   6.457 -10.427  1.00  0.00    -0.354 N 
ATOM     54  N   UNL     1      10.242   4.203 -11.800  1.00  0.00    -0.248 NA
ATOM     55  C   UNL     1       9.565   3.162 -13.778  1.00  0.00     0.031 C 
ATOM     56  C   UNL     1      12.605   7.968 -11.658  1.00  0.00     0.029 A 
ATOM     57  C   UNL     1      11.883   6.787 -11.726  1.00  0.00     0.049 A 
ATOM     58  H   UNL     1      11.019   5.667 -10.164  1.00  0.00     0.167 HD
ATOM     59  C   UNL     1      10.772   4.894 -12.883  1.00  0.00     0.074 A 
ATOM     60  C   UNL     1      10.358   4.183 -14.075  1.00  0.00     0.031 C 
ATOM     61  C   UNL     1      11.517   6.027 -12.893  1.00  0.00     0.034 A 
BRANCH  48  62
ATOM     62  C   UNL     1      12.470   8.476  -7.298  1.00  0.00     0.023 A 
ATOM     63  C   UNL     1      13.658   8.259  -6.570  1.00  0.00     0.012 A 
ATOM     64  C   UNL     1      11.859   9.743  -7.261  1.00  0.00     0.148 A 
ATOM     65  C   UNL     1      14.207   9.271  -5.785  1.00  0.00     0.002 A 
ATOM     66  C   UNL     1      12.436  10.762  -6.511  1.00  0.00     0.091 A 
ATOM     67  F   UNL     1      10.715   9.924  -7.937  1.00  0.00    -0.205 F 
ATOM     68  C   UNL     1      13.602  10.524  -5.763  1.00  0.00     0.022 A 
BRANCH  66  69
ATOM     69  S   UNL     1      11.771  12.430  -6.477  1.00  0.00     0.127 S 
ATOM     70  O   UNL     1      11.135  12.467  -5.161  1.00  0.00    -0.237 OA
ATOM     71  O   UNL     1      12.979  13.248  -6.593  1.00  0.00    -0.237 OA
ATOM     72  O   UNL     1      10.868  12.521  -7.616  1.00  0.00    -0.744 OA
ENDBRANCH  66  69
ENDBRANCH  48  62
BRANCH  49  73
ATOM     73  C   UNL     1       8.171   0.999 -12.357  1.00  0.00     0.023 A 
ATOM     74  C   UNL     1       8.970   0.070 -13.053  1.00  0.00     0.012 A 
ATOM     75  C   UNL     1       6.772   0.846 -12.370  1.00  0.00     0.148 A 
ATOM     76  C   UNL     1       8.387  -0.974 -13.773  1.00  0.00     0.002 A 
ATOM     77  C   UNL     1       6.200  -0.225 -13.050  1.00  0.00     0.091 A 
ATOM     78  F   UNL     1       6.027   1.747 -11.715  1.00  0.00    -0.205 F 
ATOM     79  C   UNL     1       7.004  -1.127 -13.763  1.00  0.00     0.022 A 
BRANCH  77  80
ATOM     80  S   UNL     1       4.437  -0.569 -12.981  1.00  0.00     0.127 S 
ATOM     81  O   UNL     1       3.988  -0.092 -14.286  1.00  0.00    -0.237 OA
ATOM     82  O   UNL     1       4.414  -2.023 -12.814  1.00  0.00    -0.237 OA
ATOM     83  O   UNL     1       3.946   0.171 -11.826  1.00  0.00    -0.744 OA
ENDBRANCH  77  80
ENDBRANCH  49  73
BRANCH  61  84
ATOM     84  C   UNL     1      11.960   6.560 -14.227  1.00  0.00     0.023 A 
ATOM     85  C   UNL     1      11.032   7.227 -15.049  1.00  0.00     0.012 A 
ATOM     86  C   UNL     1      13.310   6.485 -14.621  1.00  0.00     0.148 A 
ATOM     87  C   UNL     1      11.437   7.795 -16.256  1.00  0.00     0.002 A 
ATOM     88  C   UNL     1      13.715   7.090 -15.804  1.00  0.00     0.091 A 
ATOM     89  F   UNL     1      14.173   5.826 -13.833  1.00  0.00    -0.205 F 
ATOM     90  C   UNL     1      12.779   7.738 -16.627  1.00  0.00     0.022 A 
BRANCH  88  91
ATOM     91  S   UNL     1      15.439   7.144 -16.306  1.00  0.00     0.127 S 
ATOM     92  O   UNL     1      15.487   6.095 -17.323  1.00  0.00    -0.237 OA
ATOM     93  O   UNL     1      15.574   8.505 -16.827  1.00  0.00    -0.237 OA
ATOM     94  O   UNL     1      16.211   6.886 -15.097  1.00  0.00    -0.744 OA
ENDBRANCH  88  91
ENDBRANCH  61  84
ENDBRANCH  35  36
ENDBRANCH  27  30
ENDBRANCH  25  26
ENDBRANCH  24  25
ENDBRANCH   1  24
TORSDOF 17
