REMARK SMILES CCNC(=O)c1ccc(N(CC(=O)NCCCCNC(=O)c2ccc(-c3c4nc(c(-c5cccc(S(=O)(=O)[O-])c5F)c5ccc([nH]5)c(-c5cccc(S(=O)(=O)[O-])c5F)c5nc(c(-c6cccc(S(=O)(=O)[O-])c6F)c6ccc3[nH]6)C=C5)C=C4)cc2)C(C)(C)C)nn1
REMARK SMILES IDX 16 1 15 2 14 3 12 4 13 5 11 7 10 8 9 9 6 10 7 11 90 12 8 13
REMARK SMILES IDX 89 14 4 15 3 16 5 18 2 19 1 20 85 21 86 22 87 23 88 24 17 25
REMARK SMILES IDX 18 26 19 27 20 28 21 30 22 31 23 32 84 33 24 34 83 35 25 36
REMARK SMILES IDX 26 37 27 38 77 39 28 40 82 41 76 42 78 43 29 44 81 45 75 46
REMARK SMILES IDX 74 47 30 49 62 50 42 51 61 52 43 53 46 54 60 55 79 56 44 57
REMARK SMILES IDX 45 58 59 60 80 61 47 62 31 63 32 64 40 65 33 66 35 67 41 68
REMARK SMILES IDX 34 69 36 70 37 71 38 72 39 73 63 74 64 75 72 76 65 77 67 78
REMARK SMILES IDX 73 79 66 80 68 81 69 82 70 83 71 84 48 85 49 86 57 87 50 88
REMARK SMILES IDX 52 89 58 90 51 91 53 92 54 93 55 94 56 95
REMARK H PARENT 14 6 3 17 19 29 78 48 46 59
REMARK Flexibility Score: inf
ROOT
ATOM      1  C   UNL     1      -4.005   1.311   0.392  1.00  0.00     0.023 C 
ENDROOT
BRANCH   1   2
ATOM      2  C   UNL     1      -4.624   1.581   1.760  1.00  0.00     0.116 C 
BRANCH   2   3
ATOM      3  N   UNL     1      -6.062   1.427   1.762  1.00  0.00    -0.355 N 
ATOM      4  C   UNL     1      -6.815   0.418   2.288  1.00  0.00     0.239 C 
ATOM      5  O   UNL     1      -8.037   0.590   2.347  1.00  0.00    -0.273 OA
ATOM      6  H   UNL     1      -6.567   2.149   1.322  1.00  0.00     0.163 HD
BRANCH   4   7
ATOM      7  C   UNL     1      -6.173  -0.858   2.853  1.00  0.00     0.218 C 
BRANCH   7   8
ATOM      8  N   UNL     1      -5.465  -1.709   1.849  1.00  0.00    -0.341 N 
BRANCH   8   9
ATOM      9  C   UNL     1      -4.103  -1.896   2.112  1.00  0.00     0.152 A 
ATOM     10  C   UNL     1      -1.351  -1.958   2.619  1.00  0.00     0.150 A 
ATOM     11  C   UNL     1      -1.859  -2.692   1.570  1.00  0.00     0.040 A 
ATOM     12  N   UNL     1      -2.169  -1.297   3.445  1.00  0.00    -0.143 NA
ATOM     13  C   UNL     1      -3.235  -2.634   1.313  1.00  0.00     0.051 A 
ATOM     14  N   UNL     1      -3.538  -1.295   3.186  1.00  0.00    -0.132 NA
BRANCH  10  15
ATOM     15  C   UNL     1       0.105  -1.839   2.875  1.00  0.00     0.271 C 
ATOM     16  N   UNL     1       0.968  -1.511   1.849  1.00  0.00    -0.351 N 
ATOM     17  H   UNL     1       1.924  -1.538   2.084  1.00  0.00     0.163 HD
ATOM     18  O   UNL     1       0.560  -2.038   3.999  1.00  0.00    -0.267 OA
BRANCH  16  19
ATOM     19  C   UNL     1       0.681  -1.131   0.475  1.00  0.00     0.113 C 
ATOM     20  C   UNL     1       1.375   0.163   0.097  1.00  0.00     0.027 C 
ENDBRANCH  16  19
ENDBRANCH  10  15
ENDBRANCH   8   9
BRANCH   8  21
ATOM     21  C   UNL     1      -6.252  -2.422   0.783  1.00  0.00     0.034 C 
ATOM     22  C   UNL     1      -5.805  -1.974  -0.624  1.00  0.00     0.034 C 
ATOM     23  C   UNL     1      -6.159  -3.954   0.967  1.00  0.00     0.034 C 
ATOM     24  C   UNL     1      -7.774  -2.126   0.824  1.00  0.00     0.034 C 
ENDBRANCH   8  21
ENDBRANCH   7   8
ENDBRANCH   4   7
ENDBRANCH   2   3
ENDBRANCH   1   2
BRANCH   1  25
ATOM     25  C   UNL     1      -4.374   2.334  -0.685  1.00  0.00     0.023 C 
BRANCH  25  26
ATOM     26  C   UNL     1      -3.992   3.777  -0.366  1.00  0.00     0.116 C 
BRANCH  26  27
ATOM     27  N   UNL     1      -2.568   3.939  -0.102  1.00  0.00    -0.352 N 
ATOM     28  C   UNL     1      -1.703   4.895  -0.577  1.00  0.00     0.251 C 
ATOM     29  H   UNL     1      -2.170   3.269   0.501  1.00  0.00     0.163 HD
ATOM     30  O   UNL     1      -0.496   4.790  -0.376  1.00  0.00    -0.269 OA
BRANCH  28  31
ATOM     31  C   UNL     1      -2.233   6.031  -1.360  1.00  0.00     0.039 A 
ATOM     32  C   UNL     1      -1.630   6.353  -2.578  1.00  0.00     0.014 A 
ATOM     33  C   UNL     1      -3.347   6.745  -0.911  1.00  0.00     0.014 A 
ATOM     34  C   UNL     1      -2.201   7.335  -3.391  1.00  0.00     0.010 A 
ATOM     35  C   UNL     1      -3.950   7.676  -1.749  1.00  0.00     0.010 A 
ATOM     36  C   UNL     1      -3.393   7.968  -3.003  1.00  0.00    -0.014 A 
BRANCH  36  37
ATOM     37  C   UNL     1      -4.118   8.882  -3.922  1.00  0.00     0.031 A 
ATOM     38  C   UNL     1      -4.329  10.323  -3.561  1.00  0.00     0.074 A 
ATOM     39  C   UNL     1      -4.703   8.371  -5.024  1.00  0.00     0.049 A 
ATOM     40  N   UNL     1      -5.014  11.239  -4.195  1.00  0.00    -0.248 NA
ATOM     41  C   UNL     1      -3.714  10.790  -2.308  1.00  0.00     0.031 C 
ATOM     42  C   UNL     1      -4.656   6.963  -5.426  1.00  0.00     0.029 A 
ATOM     43  N   UNL     1      -5.491   8.964  -5.978  1.00  0.00    -0.354 N 
ATOM     44  C   UNL     1      -4.942  12.380  -3.406  1.00  0.00     0.074 A 
ATOM     45  C   UNL     1      -4.173  12.031  -2.230  1.00  0.00     0.031 C 
ATOM     46  C   UNL     1      -5.398   6.798  -6.532  1.00  0.00     0.029 A 
ATOM     47  C   UNL     1      -5.996   8.078  -6.901  1.00  0.00     0.049 A 
ATOM     48  H   UNL     1      -5.677   9.930  -6.000  1.00  0.00     0.167 HD
ATOM     49  C   UNL     1      -5.446  13.613  -3.651  1.00  0.00     0.034 A 
ATOM     50  C   UNL     1      -6.861   8.264  -7.917  1.00  0.00     0.034 A 
ATOM     51  C   UNL     1      -6.181  13.962  -4.838  1.00  0.00     0.049 A 
ATOM     52  C   UNL     1      -7.379   9.647  -8.193  1.00  0.00     0.074 A 
ATOM     53  C   UNL     1      -6.628  15.208  -5.238  1.00  0.00     0.029 A 
ATOM     54  N   UNL     1      -6.597  13.059  -5.805  1.00  0.00    -0.354 N 
ATOM     55  N   UNL     1      -7.136  10.760  -7.544  1.00  0.00    -0.248 NA
ATOM     56  C   UNL     1      -8.262   9.809  -9.356  1.00  0.00     0.031 C 
ATOM     57  C   UNL     1      -7.336  15.055  -6.437  1.00  0.00     0.029 A 
ATOM     58  C   UNL     1      -7.316  13.715  -6.791  1.00  0.00     0.049 A 
ATOM     59  H   UNL     1      -6.408  12.093  -5.793  1.00  0.00     0.167 HD
ATOM     60  C   UNL     1      -7.825  11.757  -8.225  1.00  0.00     0.074 A 
ATOM     61  C   UNL     1      -8.469  11.120  -9.356  1.00  0.00     0.031 C 
ATOM     62  C   UNL     1      -7.929  13.077  -7.928  1.00  0.00     0.034 A 
BRANCH  49  63
ATOM     63  C   UNL     1      -5.165  14.690  -2.636  1.00  0.00     0.023 A 
ATOM     64  C   UNL     1      -3.855  15.199  -2.512  1.00  0.00     0.012 A 
ATOM     65  C   UNL     1      -6.190  15.220  -1.829  1.00  0.00     0.148 A 
ATOM     66  C   UNL     1      -3.561  16.186  -1.573  1.00  0.00     0.002 A 
ATOM     67  C   UNL     1      -5.897  16.234  -0.924  1.00  0.00     0.091 A 
ATOM     68  F   UNL     1      -7.424  14.708  -1.940  1.00  0.00    -0.205 F 
ATOM     69  C   UNL     1      -4.582  16.709  -0.785  1.00  0.00     0.022 A 
BRANCH  67  70
ATOM     70  S   UNL     1      -7.163  17.020   0.079  1.00  0.00     0.127 S 
ATOM     71  O   UNL     1      -6.958  16.375   1.375  1.00  0.00    -0.237 OA
ATOM     72  O   UNL     1      -6.769  18.429   0.032  1.00  0.00    -0.237 OA
ATOM     73  O   UNL     1      -8.428  16.727  -0.581  1.00  0.00    -0.744 OA
ENDBRANCH  67  70
ENDBRANCH  49  63
BRANCH  50  74
ATOM     74  C   UNL     1      -7.241   7.104  -8.770  1.00  0.00     0.023 A 
ATOM     75  C   UNL     1      -6.725   7.006 -10.076  1.00  0.00     0.012 A 
ATOM     76  C   UNL     1      -8.040   6.059  -8.264  1.00  0.00     0.148 A 
ATOM     77  C   UNL     1      -7.009   5.893 -10.869  1.00  0.00     0.002 A 
ATOM     78  C   UNL     1      -8.271   4.928  -9.038  1.00  0.00     0.091 A 
ATOM     79  F   UNL     1      -8.528   6.178  -7.021  1.00  0.00    -0.205 F 
ATOM     80  C   UNL     1      -7.768   4.849 -10.346  1.00  0.00     0.022 A 
BRANCH  78  81
ATOM     81  S   UNL     1      -9.108   3.473  -8.396  1.00  0.00     0.127 S 
ATOM     82  O   UNL     1     -10.352   3.482  -9.162  1.00  0.00    -0.237 OA
ATOM     83  O   UNL     1      -8.172   2.406  -8.752  1.00  0.00    -0.237 OA
ATOM     84  O   UNL     1      -9.245   3.697  -6.964  1.00  0.00    -0.744 OA
ENDBRANCH  78  81
ENDBRANCH  50  74
BRANCH  62  85
ATOM     85  C   UNL     1      -8.781  13.928  -8.833  1.00  0.00     0.023 A 
ATOM     86  C   UNL     1     -10.184  13.819  -8.764  1.00  0.00     0.012 A 
ATOM     87  C   UNL     1      -8.203  14.887  -9.687  1.00  0.00     0.148 A 
ATOM     88  C   UNL     1     -10.999  14.633  -9.550  1.00  0.00     0.002 A 
ATOM     89  C   UNL     1      -9.022  15.726 -10.434  1.00  0.00     0.091 A 
ATOM     90  F   UNL     1      -6.866  14.963  -9.751  1.00  0.00    -0.205 F 
ATOM     91  C   UNL     1     -10.419  15.594 -10.375  1.00  0.00     0.022 A 
BRANCH  89  92
ATOM     92  S   UNL     1      -8.370  17.051 -11.459  1.00  0.00     0.127 S 
ATOM     93  O   UNL     1      -8.627  16.540 -12.805  1.00  0.00    -0.237 OA
ATOM     94  O   UNL     1      -9.206  18.186 -11.068  1.00  0.00    -0.237 OA
ATOM     95  O   UNL     1      -6.965  17.183 -11.099  1.00  0.00    -0.744 OA
ENDBRANCH  89  92
ENDBRANCH  62  85
ENDBRANCH  36  37
ENDBRANCH  28  31
ENDBRANCH  26  27
ENDBRANCH  25  26
ENDBRANCH   1  25
TORSDOF 19
