REMARK SMILES O=C(NCCCCNC(=O)[C@@H](Cc1ccc(F)cc1)NC(=O)c1ccn(C2CCCC2)n1)c1ccc(-c2c3nc(c(-c4cccc(S(=O)(=O)[O-])c4F)c4ccc([nH]4)c(-c4cccc(S(=O)(=O)[O-])c4F)c4nc(c(-c5cccc(S(=O)(=O)[O-])c5F)c5ccc2[nH]5)C=C4)C=C3)cc1
REMARK SMILES IDX 5 1 4 2 3 3 1 4 2 5 33 7 34 8 95 9 35 10 94 11 36 12 37 13
REMARK SMILES IDX 38 14 88 15 39 16 93 17 87 18 89 19 40 20 92 21 86 22 85 23
REMARK SMILES IDX 41 25 73 26 53 27 72 28 54 29 57 30 71 31 90 32 55 33 56 34
REMARK SMILES IDX 70 36 91 37 58 38 42 39 43 40 51 41 44 42 46 43 52 44 45 45
REMARK SMILES IDX 47 46 48 47 49 48 50 49 74 50 75 51 83 52 76 53 78 54 84 55
REMARK SMILES IDX 77 56 79 57 80 58 81 59 82 60 59 61 60 62 68 63 61 64 63 65
REMARK SMILES IDX 69 66 62 67 64 68 65 69 66 70 67 71 6 72 7 73 8 74 9 75
REMARK SMILES IDX 10 77 11 78 12 79 13 80 14 81 19 82 15 83 18 84 16 85 17 86
REMARK SMILES IDX 20 87 21 88 22 90 23 91 24 92 32 93 25 94 26 95 27 96 28 97
REMARK SMILES IDX 31 98 29 99 30 100
REMARK H PARENT 3 6 89 24 57 35 8 76 20 89
REMARK Flexibility Score: inf
ROOT
ATOM      1  C   UNL     1       5.616  -0.886  -1.273  1.00  0.00     0.023 C 
ENDROOT
BRANCH   1   2
ATOM      2  C   UNL     1       5.070   0.484  -0.850  1.00  0.00     0.116 C 
BRANCH   2   3
ATOM      3  N   UNL     1       3.660   0.681  -1.111  1.00  0.00    -0.352 N 
ATOM      4  O   UNL     1       1.506   1.035  -0.758  1.00  0.00    -0.269 OA
ATOM      5  C   UNL     1       2.532   0.480  -0.361  1.00  0.00     0.251 C 
ATOM      6  H   UNL     1       3.474   1.031  -2.013  1.00  0.00     0.163 HD
BRANCH   5   7
ATOM      7  C   UNL     1       2.471  -0.430   0.812  1.00  0.00     0.039 A 
ATOM      8  C   UNL     1       3.581  -1.016   1.424  1.00  0.00     0.014 A 
ATOM      9  C   UNL     1       1.187  -0.790   1.253  1.00  0.00     0.014 A 
ATOM     10  C   UNL     1       3.428  -2.038   2.340  1.00  0.00     0.010 A 
ATOM     11  C   UNL     1       1.023  -1.787   2.203  1.00  0.00     0.010 A 
ATOM     12  C   UNL     1       2.149  -2.445   2.694  1.00  0.00    -0.014 A 
BRANCH  12  13
ATOM     13  C   UNL     1       2.051  -3.510   3.679  1.00  0.00     0.031 A 
ATOM     14  C   UNL     1       2.524  -3.144   5.050  1.00  0.00     0.074 A 
ATOM     15  C   UNL     1       1.444  -4.671   3.374  1.00  0.00     0.049 A 
ATOM     16  N   UNL     1       3.355  -3.770   5.822  1.00  0.00    -0.248 NA
ATOM     17  C   UNL     1       2.083  -1.841   5.580  1.00  0.00     0.031 C 
ATOM     18  C   UNL     1       0.695  -4.984   2.152  1.00  0.00     0.029 A 
ATOM     19  N   UNL     1       1.192  -5.741   4.178  1.00  0.00    -0.354 N 
ATOM     20  C   UNL     1       3.383  -3.038   7.011  1.00  0.00     0.074 A 
ATOM     21  C   UNL     1       2.708  -1.795   6.753  1.00  0.00     0.031 C 
ATOM     22  C   UNL     1      -0.168  -5.987   2.420  1.00  0.00     0.029 A 
ATOM     23  C   UNL     1       0.063  -6.448   3.778  1.00  0.00     0.049 A 
ATOM     24  H   UNL     1       1.745  -5.985   4.955  1.00  0.00     0.167 HD
ATOM     25  C   UNL     1       3.771  -3.571   8.202  1.00  0.00     0.034 A 
ATOM     26  C   UNL     1      -0.716  -7.222   4.572  1.00  0.00     0.034 A 
ATOM     27  C   UNL     1       4.531  -4.775   8.048  1.00  0.00     0.049 A 
ATOM     28  C   UNL     1       0.059  -7.540   5.794  1.00  0.00     0.074 A 
ATOM     29  C   UNL     1       5.731  -5.102   7.451  1.00  0.00     0.029 A 
ATOM     30  N   UNL     1       3.887  -5.965   8.278  1.00  0.00    -0.354 N 
ATOM     31  N   UNL     1       1.133  -8.278   5.805  1.00  0.00    -0.248 NA
ATOM     32  C   UNL     1      -0.129  -6.685   6.956  1.00  0.00     0.031 C 
ATOM     33  C   UNL     1       5.524  -6.402   6.909  1.00  0.00     0.029 A 
ATOM     34  C   UNL     1       4.226  -6.796   7.245  1.00  0.00     0.049 A 
ATOM     35  H   UNL     1       3.298  -6.179   9.037  1.00  0.00     0.167 HD
ATOM     36  C   UNL     1       1.959  -7.676   6.746  1.00  0.00     0.074 A 
ATOM     37  C   UNL     1       1.091  -6.766   7.490  1.00  0.00     0.031 C 
ATOM     38  C   UNL     1       3.319  -7.749   6.648  1.00  0.00     0.034 A 
BRANCH  25  39
ATOM     39  C   UNL     1       3.195  -3.160   9.531  1.00  0.00     0.023 A 
ATOM     40  C   UNL     1       3.870  -3.553  10.706  1.00  0.00     0.012 A 
ATOM     41  C   UNL     1       1.893  -2.629   9.681  1.00  0.00     0.148 A 
ATOM     42  C   UNL     1       3.271  -3.437  11.966  1.00  0.00     0.002 A 
ATOM     43  C   UNL     1       1.338  -2.434  10.939  1.00  0.00     0.091 A 
ATOM     44  F   UNL     1       1.126  -2.434   8.602  1.00  0.00    -0.205 F 
ATOM     45  C   UNL     1       2.011  -2.861  12.085  1.00  0.00     0.022 A 
BRANCH  43  46
ATOM     46  S   UNL     1      -0.253  -1.627  11.136  1.00  0.00     0.127 S 
ATOM     47  O   UNL     1      -1.137  -2.767  11.355  1.00  0.00    -0.237 OA
ATOM     48  O   UNL     1      -0.023  -0.785  12.312  1.00  0.00    -0.237 OA
ATOM     49  O   UNL     1      -0.452  -0.877   9.902  1.00  0.00    -0.744 OA
ENDBRANCH  43  46
ENDBRANCH  25  39
BRANCH  26  50
ATOM     50  C   UNL     1      -2.190  -7.372   4.522  1.00  0.00     0.023 A 
ATOM     51  C   UNL     1      -2.790  -8.496   5.118  1.00  0.00     0.012 A 
ATOM     52  C   UNL     1      -3.023  -6.297   4.132  1.00  0.00     0.148 A 
ATOM     53  C   UNL     1      -4.172  -8.540   5.340  1.00  0.00     0.002 A 
ATOM     54  C   UNL     1      -4.397  -6.353   4.339  1.00  0.00     0.091 A 
ATOM     55  F   UNL     1      -2.461  -5.181   3.650  1.00  0.00    -0.205 F 
ATOM     56  C   UNL     1      -4.974  -7.469   4.954  1.00  0.00     0.022 A 
BRANCH  54  57
ATOM     57  S   UNL     1      -5.489  -4.999   3.880  1.00  0.00     0.127 S 
ATOM     58  O   UNL     1      -6.564  -5.703   3.179  1.00  0.00    -0.237 OA
ATOM     59  O   UNL     1      -5.860  -4.456   5.184  1.00  0.00    -0.237 OA
ATOM     60  O   UNL     1      -4.696  -4.122   3.028  1.00  0.00    -0.744 OA
ENDBRANCH  54  57
ENDBRANCH  26  50
BRANCH  38  61
ATOM     61  C   UNL     1       3.921  -8.673   5.619  1.00  0.00     0.023 A 
ATOM     62  C   UNL     1       3.711  -8.484   4.237  1.00  0.00     0.012 A 
ATOM     63  C   UNL     1       4.888  -9.601   6.038  1.00  0.00     0.148 A 
ATOM     64  C   UNL     1       4.439  -9.216   3.295  1.00  0.00     0.002 A 
ATOM     65  C   UNL     1       5.646 -10.289   5.099  1.00  0.00     0.091 A 
ATOM     66  F   UNL     1       5.080  -9.767   7.356  1.00  0.00    -0.205 F 
ATOM     67  C   UNL     1       5.418 -10.107   3.726  1.00  0.00     0.022 A 
BRANCH  65  68
ATOM     68  S   UNL     1       7.023 -11.328   5.593  1.00  0.00     0.127 S 
ATOM     69  O   UNL     1       6.454 -12.668   5.473  1.00  0.00    -0.237 OA
ATOM     70  O   UNL     1       8.041 -11.004   4.592  1.00  0.00    -0.237 OA
ATOM     71  O   UNL     1       7.371 -10.909   6.946  1.00  0.00    -0.744 OA
ENDBRANCH  65  68
ENDBRANCH  38  61
ENDBRANCH  12  13
ENDBRANCH   5   7
ENDBRANCH   2   3
ENDBRANCH   1   2
BRANCH   1  72
ATOM     72  C   UNL     1       5.357  -1.232  -2.737  1.00  0.00     0.023 C 
BRANCH  72  73
ATOM     73  C   UNL     1       5.872  -0.194  -3.726  1.00  0.00     0.116 C 
BRANCH  73  74
ATOM     74  N   UNL     1       7.123  -0.597  -4.317  1.00  0.00    -0.354 N 
ATOM     75  C   UNL     1       7.420  -0.939  -5.594  1.00  0.00     0.242 C 
ATOM     76  H   UNL     1       7.883  -0.629  -3.692  1.00  0.00     0.163 HD
ATOM     77  O   UNL     1       8.599  -1.229  -5.831  1.00  0.00    -0.273 OA
BRANCH  75  78
ATOM     78  C   UNL     1       6.375  -0.968  -6.733  1.00  0.00     0.176 C 
BRANCH  78  79
ATOM     79  C   UNL     1       5.339  -2.119  -6.718  1.00  0.00     0.070 C 
BRANCH  79  80
ATOM     80  C   UNL     1       4.084  -2.074  -5.869  1.00  0.00    -0.045 A 
ATOM     81  C   UNL     1       3.737  -3.211  -5.113  1.00  0.00     0.007 A 
ATOM     82  C   UNL     1       3.204  -0.979  -5.852  1.00  0.00     0.007 A 
ATOM     83  C   UNL     1       2.607  -3.212  -4.291  1.00  0.00     0.039 A 
ATOM     84  C   UNL     1       2.098  -0.963  -4.995  1.00  0.00     0.039 A 
ATOM     85  C   UNL     1       1.814  -2.076  -4.217  1.00  0.00     0.123 A 
ATOM     86  F   UNL     1       0.764  -2.053  -3.387  1.00  0.00    -0.207 F 
ENDBRANCH  79  80
ENDBRANCH  78  79
BRANCH  78  87
ATOM     87  N   UNL     1       5.822   0.344  -7.054  1.00  0.00    -0.339 N 
ATOM     88  C   UNL     1       6.069   1.187  -8.116  1.00  0.00     0.272 C 
ATOM     89  H   UNL     1       5.163   0.682  -6.405  1.00  0.00     0.164 HD
ATOM     90  O   UNL     1       5.520   2.281  -8.094  1.00  0.00    -0.267 OA
BRANCH  88  91
ATOM     91  C   UNL     1       6.984   0.772  -9.192  1.00  0.00     0.150 A 
ATOM     92  C   UNL     1       7.088  -0.468  -9.883  1.00  0.00     0.056 A 
ATOM     93  N   UNL     1       7.887   1.644  -9.675  1.00  0.00    -0.167 NA
ATOM     94  C   UNL     1       8.160  -0.333 -10.733  1.00  0.00     0.110 A 
ATOM     95  N   UNL     1       8.596   0.948 -10.576  1.00  0.00    -0.269 N 
BRANCH  95  96
ATOM     96  C   UNL     1       9.684   1.587 -11.284  1.00  0.00     0.107 C 
ATOM     97  C   UNL     1       9.243   2.777 -12.133  1.00  0.00     0.027 C 
ATOM     98  C   UNL     1      10.757   2.188 -10.376  1.00  0.00     0.027 C 
ATOM     99  C   UNL     1      10.548   3.499 -12.436  1.00  0.00     0.002 C 
ATOM    100  C   UNL     1      11.460   3.235 -11.238  1.00  0.00     0.002 C 
ENDBRANCH  95  96
ENDBRANCH  88  91
ENDBRANCH  78  87
ENDBRANCH  75  78
ENDBRANCH  73  74
ENDBRANCH  72  73
ENDBRANCH   1  72
TORSDOF 19
