REMARK SMILES CN(C(=O)N1CCC(C(=O)NCCCCNC(=O)c2ccc(-c3c4nc(c(-c5cccc(S(=O)(=O)[O-])c5F)c5ccc([nH]5)c(-c5cccc(S(=O)(=O)[O-])c5F)c5nc(c(-c6cccc(S(=O)(=O)[O-])c6F)c6ccc3[nH]6)C=C5)C=C4)cc2)CC1)[C@H]1CCSC1
REMARK SMILES IDX 14 1 13 2 12 3 11 4 9 5 10 6 8 8 3 9 4 10 5 11 6 12 83 13
REMARK SMILES IDX 7 14 82 15 2 16 1 17 84 18 85 19 88 20 86 21 87 22 15 23
REMARK SMILES IDX 16 24 17 25 18 27 19 28 20 29 81 30 21 31 80 32 22 33 23 34
REMARK SMILES IDX 24 35 74 36 25 37 79 38 73 39 75 40 26 41 78 42 72 43 71 44
REMARK SMILES IDX 27 46 59 47 39 48 58 49 40 50 43 51 57 52 76 53 41 54 42 55
REMARK SMILES IDX 56 57 77 58 44 59 28 60 29 61 37 62 30 63 32 64 38 65 31 66
REMARK SMILES IDX 33 67 34 68 35 69 36 70 60 71 61 72 69 73 62 74 64 75 70 76
REMARK SMILES IDX 63 77 65 78 66 79 67 80 68 81 45 82 46 83 54 84 47 85 49 86
REMARK SMILES IDX 55 87 48 88 50 89 51 90 52 91 53 92
REMARK H PARENT 11 7 16 26 75 45 43 56
REMARK Flexibility Score: inf
ROOT
ATOM      1  C   UNL     1       6.685   3.971  -1.026  1.00  0.00     0.023 C 
ENDROOT
BRANCH   1   2
ATOM      2  C   UNL     1       5.938   2.678  -1.346  1.00  0.00     0.023 C 
BRANCH   2   3
ATOM      3  C   UNL     1       4.704   2.860  -2.224  1.00  0.00     0.116 C 
BRANCH   3   4
ATOM      4  N   UNL     1       5.055   3.226  -3.586  1.00  0.00    -0.356 N 
ATOM      5  C   UNL     1       4.895   2.551  -4.757  1.00  0.00     0.223 C 
ATOM      6  O   UNL     1       5.286   3.085  -5.797  1.00  0.00    -0.275 OA
ATOM      7  H   UNL     1       5.481   4.109  -3.676  1.00  0.00     0.163 HD
BRANCH   5   8
ATOM      8  C   UNL     1       4.223   1.188  -4.808  1.00  0.00     0.082 C 
ATOM      9  C   UNL     1       2.525  -1.406  -2.204  1.00  0.00     0.320 C 
ATOM     10  O   UNL     1       3.308  -1.269  -1.265  1.00  0.00    -0.248 OA
ATOM     11  N   UNL     1       2.880  -0.981  -3.469  1.00  0.00    -0.325 N 
ATOM     12  C   UNL     1       4.250  -1.181  -3.916  1.00  0.00     0.122 C 
ATOM     13  C   UNL     1       2.074  -0.069  -4.271  1.00  0.00     0.122 C 
ATOM     14  C   UNL     1       5.017   0.123  -4.042  1.00  0.00     0.035 C 
ATOM     15  C   UNL     1       2.739   1.292  -4.429  1.00  0.00     0.035 C 
BRANCH   9  16
ATOM     16  N   UNL     1       1.310  -2.083  -2.072  1.00  0.00    -0.324 N 
ATOM     17  C   UNL     1       0.444  -2.395  -3.206  1.00  0.00     0.149 C 
BRANCH  16  18
ATOM     18  C   UNL     1       0.856  -2.478  -0.706  1.00  0.00     0.097 C 
ATOM     19  C   UNL     1      -0.359  -3.425  -0.689  1.00  0.00     0.037 C 
ATOM     20  C   UNL     1       1.925  -3.203   0.140  1.00  0.00     0.094 C 
ATOM     21  C   UNL     1      -0.602  -3.856   0.744  1.00  0.00     0.072 C 
ATOM     22  S   UNL     1       1.045  -4.196   1.392  1.00  0.00    -0.160 SA
ENDBRANCH  16  18
ENDBRANCH   9  16
ENDBRANCH   5   8
ENDBRANCH   3   4
ENDBRANCH   2   3
ENDBRANCH   1   2
BRANCH   1  23
ATOM     23  C   UNL     1       5.834   5.075  -0.411  1.00  0.00     0.116 C 
BRANCH  23  24
ATOM     24  N   UNL     1       5.134   4.658   0.796  1.00  0.00    -0.352 N 
ATOM     25  C   UNL     1       4.983   5.342   1.979  1.00  0.00     0.251 C 
ATOM     26  H   UNL     1       4.714   3.769   0.761  1.00  0.00     0.163 HD
ATOM     27  O   UNL     1       4.454   4.801   2.946  1.00  0.00    -0.269 OA
BRANCH  25  28
ATOM     28  C   UNL     1       5.497   6.723   2.085  1.00  0.00     0.039 A 
ATOM     29  C   UNL     1       6.318   7.057   3.163  1.00  0.00     0.014 A 
ATOM     30  C   UNL     1       5.205   7.667   1.096  1.00  0.00     0.014 A 
ATOM     31  C   UNL     1       6.907   8.322   3.213  1.00  0.00     0.010 A 
ATOM     32  C   UNL     1       5.851   8.898   1.110  1.00  0.00     0.010 A 
ATOM     33  C   UNL     1       6.708   9.239   2.168  1.00  0.00    -0.014 A 
BRANCH  33  34
ATOM     34  C   UNL     1       7.397  10.555   2.152  1.00  0.00     0.031 A 
ATOM     35  C   UNL     1       6.593  11.827   2.197  1.00  0.00     0.074 A 
ATOM     36  C   UNL     1       8.736  10.605   2.005  1.00  0.00     0.049 A 
ATOM     37  N   UNL     1       7.006  13.065   2.118  1.00  0.00    -0.248 NA
ATOM     38  C   UNL     1       5.132  11.690   2.320  1.00  0.00     0.031 C 
ATOM     39  C   UNL     1       9.618   9.443   1.866  1.00  0.00     0.029 A 
ATOM     40  N   UNL     1       9.588  11.678   1.915  1.00  0.00    -0.354 N 
ATOM     41  C   UNL     1       5.860  13.850   2.147  1.00  0.00     0.074 A 
ATOM     42  C   UNL     1       4.731  12.949   2.216  1.00  0.00     0.031 C 
ATOM     43  C   UNL     1      10.883   9.866   1.712  1.00  0.00     0.029 A 
ATOM     44  C   UNL     1      10.902  11.325   1.712  1.00  0.00     0.049 A 
ATOM     45  H   UNL     1       9.287  12.612   1.990  1.00  0.00     0.167 HD
ATOM     46  C   UNL     1       5.757  15.200   2.153  1.00  0.00     0.034 A 
ATOM     47  C   UNL     1      11.998  12.092   1.540  1.00  0.00     0.034 A 
ATOM     48  C   UNL     1       6.882  16.094   2.138  1.00  0.00     0.049 A 
ATOM     49  C   UNL     1      11.856  13.590   1.598  1.00  0.00     0.074 A 
ATOM     50  C   UNL     1       6.884  17.475   2.220  1.00  0.00     0.029 A 
ATOM     51  N   UNL     1       8.206  15.697   2.037  1.00  0.00    -0.354 N 
ATOM     52  N   UNL     1      10.777  14.310   1.785  1.00  0.00    -0.248 NA
ATOM     53  C   UNL     1      13.088  14.380   1.459  1.00  0.00     0.031 C 
ATOM     54  C   UNL     1       8.211  17.914   2.159  1.00  0.00     0.029 A 
ATOM     55  C   UNL     1       9.034  16.805   2.056  1.00  0.00     0.049 A 
ATOM     56  H   UNL     1       8.512  14.764   1.962  1.00  0.00     0.167 HD
ATOM     57  C   UNL     1      11.204  15.632   1.827  1.00  0.00     0.074 A 
ATOM     58  C   UNL     1      12.644  15.612   1.668  1.00  0.00     0.031 C 
ATOM     59  C   UNL     1      10.471  16.764   1.966  1.00  0.00     0.034 A 
BRANCH  46  60
ATOM     60  C   UNL     1       4.378  15.799   2.251  1.00  0.00     0.023 A 
ATOM     61  C   UNL     1       3.682  15.727   3.475  1.00  0.00     0.012 A 
ATOM     62  C   UNL     1       3.804  16.493   1.169  1.00  0.00     0.148 A 
ATOM     63  C   UNL     1       2.426  16.314   3.614  1.00  0.00     0.002 A 
ATOM     64  C   UNL     1       2.569  17.112   1.327  1.00  0.00     0.091 A 
ATOM     65  F   UNL     1       4.473  16.534   0.008  1.00  0.00    -0.205 F 
ATOM     66  C   UNL     1       1.875  17.015   2.545  1.00  0.00     0.022 A 
BRANCH  64  67
ATOM     67  S   UNL     1       1.805  18.104   0.039  1.00  0.00     0.127 S 
ATOM     68  O   UNL     1       0.656  17.277  -0.327  1.00  0.00    -0.237 OA
ATOM     69  O   UNL     1       1.468  19.333   0.757  1.00  0.00    -0.237 OA
ATOM     70  O   UNL     1       2.813  18.261  -1.000  1.00  0.00    -0.744 OA
ENDBRANCH  64  67
ENDBRANCH  46  60
BRANCH  47  71
ATOM     71  C   UNL     1      13.337  11.461   1.365  1.00  0.00     0.023 A 
ATOM     72  C   UNL     1      14.293  11.578   2.394  1.00  0.00     0.012 A 
ATOM     73  C   UNL     1      13.671  10.748   0.198  1.00  0.00     0.148 A 
ATOM     74  C   UNL     1      15.569  11.032   2.247  1.00  0.00     0.002 A 
ATOM     75  C   UNL     1      14.925  10.159   0.081  1.00  0.00     0.091 A 
ATOM     76  F   UNL     1      12.756  10.660  -0.778  1.00  0.00    -0.205 F 
ATOM     77  C   UNL     1      15.882  10.316   1.095  1.00  0.00     0.022 A 
BRANCH  75  78
ATOM     78  S   UNL     1      15.360   9.112  -1.312  1.00  0.00     0.127 S 
ATOM     79  O   UNL     1      16.201  10.003  -2.107  1.00  0.00    -0.237 OA
ATOM     80  O   UNL     1      16.073   8.012  -0.660  1.00  0.00    -0.237 OA
ATOM     81  O   UNL     1      14.091   8.724  -1.913  1.00  0.00    -0.744 OA
ENDBRANCH  75  78
ENDBRANCH  47  71
BRANCH  59  82
ATOM     82  C   UNL     1      11.207  18.076   1.997  1.00  0.00     0.023 A 
ATOM     83  C   UNL     1      11.759  18.597   0.810  1.00  0.00     0.012 A 
ATOM     84  C   UNL     1      11.284  18.829   3.185  1.00  0.00     0.148 A 
ATOM     85  C   UNL     1      12.403  19.833   0.811  1.00  0.00     0.002 A 
ATOM     86  C   UNL     1      11.886  20.082   3.169  1.00  0.00     0.091 A 
ATOM     87  F   UNL     1      10.770  18.307   4.308  1.00  0.00    -0.205 F 
ATOM     88  C   UNL     1      12.456  20.580   1.986  1.00  0.00     0.022 A 
BRANCH  86  89
ATOM     89  S   UNL     1      11.914  21.153   4.611  1.00  0.00     0.127 S 
ATOM     90  O   UNL     1      13.312  21.054   5.028  1.00  0.00    -0.237 OA
ATOM     91  O   UNL     1      11.537  22.448   4.043  1.00  0.00    -0.237 OA
ATOM     92  O   UNL     1      10.941  20.597   5.541  1.00  0.00    -0.744 OA
ENDBRANCH  86  89
ENDBRANCH  59  82
ENDBRANCH  33  34
ENDBRANCH  25  28
ENDBRANCH  23  24
ENDBRANCH   1  23
TORSDOF 16
