REMARK SMILES C[C@@H](C(=O)NCCCCNC(=O)c1ccc(-c2c3nc(c(-c4cccc(S(=O)(=O)[O-])c4F)c4ccc([nH]4)c(-c4cccc(S(=O)(=O)[O-])c4F)c4nc(c(-c5cccc(S(=O)(=O)[O-])c5F)c5ccc2[nH]5)C=C4)C=C3)cc1)c1ccc(C(=O)c2cccs2)cc1
REMARK SMILES IDX 7 1 6 2 5 3 3 4 4 5 2 7 1 8 76 9 77 10 88 11 78 12 87 13
REMARK SMILES IDX 79 14 80 15 81 16 82 17 83 18 86 19 84 20 85 21 8 22 9 23
REMARK SMILES IDX 10 24 11 25 12 27 13 28 14 29 75 30 15 31 74 32 16 33 17 34
REMARK SMILES IDX 18 35 68 36 19 37 73 38 67 39 69 40 20 41 72 42 66 43 65 44
REMARK SMILES IDX 21 46 53 47 33 48 52 49 34 50 37 51 51 52 70 53 35 54 36 55
REMARK SMILES IDX 50 57 71 58 38 59 22 60 23 61 31 62 24 63 26 64 32 65 25 66
REMARK SMILES IDX 27 67 28 68 29 69 30 70 54 71 55 72 63 73 56 74 58 75 64 76
REMARK SMILES IDX 57 77 59 78 60 79 61 80 62 81 39 82 40 83 48 84 41 85 43 86
REMARK SMILES IDX 49 87 42 88 44 89 45 90 46 91 47 92
REMARK H PARENT 5 6 10 26 69 45 37 56
REMARK Flexibility Score: inf
ROOT
ATOM      1  C   UNL     1       4.260   1.260   0.021  1.00  0.00     0.023 C 
ENDROOT
BRANCH   1   2
ATOM      2  C   UNL     1       3.453   1.188   1.321  1.00  0.00     0.116 C 
BRANCH   2   3
ATOM      3  N   UNL     1       2.475   2.252   1.391  1.00  0.00    -0.356 N 
ATOM      4  C   UNL     1       1.127   2.248   1.171  1.00  0.00     0.227 C 
ATOM      5  O   UNL     1       0.603   3.359   1.114  1.00  0.00    -0.274 OA
ATOM      6  H   UNL     1       2.844   3.130   1.640  1.00  0.00     0.163 HD
BRANCH   4   7
ATOM      7  C   UNL     1       0.374   0.913   1.020  1.00  0.00     0.105 C 
ATOM      8  C   UNL     1       0.656   0.298  -0.358  1.00  0.00     0.023 C 
BRANCH   7   9
ATOM      9  C   UNL     1      -1.146   0.910   1.251  1.00  0.00    -0.036 A 
ATOM     10  C   UNL     1      -1.952   2.054   1.269  1.00  0.00     0.005 A 
ATOM     11  C   UNL     1      -1.794  -0.334   1.379  1.00  0.00     0.005 A 
ATOM     12  C   UNL     1      -3.344   1.964   1.393  1.00  0.00     0.012 A 
ATOM     13  C   UNL     1      -3.189  -0.431   1.468  1.00  0.00     0.012 A 
ATOM     14  C   UNL     1      -3.980   0.722   1.477  1.00  0.00     0.023 A 
BRANCH  14  15
ATOM     15  C   UNL     1      -5.481   0.699   1.507  1.00  0.00     0.202 C 
ATOM     16  O   UNL     1      -6.083   1.770   1.532  1.00  0.00    -0.288 OA
BRANCH  15  17
ATOM     17  C   UNL     1      -6.174  -0.575   1.464  1.00  0.00     0.075 A 
ATOM     18  C   UNL     1      -6.154  -1.623   2.362  1.00  0.00     0.024 A 
ATOM     19  S   UNL     1      -7.227  -0.887   0.150  1.00  0.00    -0.140 S 
ATOM     20  C   UNL     1      -6.970  -2.712   1.937  1.00  0.00     0.012 A 
ATOM     21  C   UNL     1      -7.606  -2.444   0.745  1.00  0.00     0.065 A 
ENDBRANCH  15  17
ENDBRANCH  14  15
ENDBRANCH   7   9
ENDBRANCH   4   7
ENDBRANCH   2   3
ENDBRANCH   1   2
BRANCH   1  22
ATOM     22  C   UNL     1       5.036   2.563  -0.189  1.00  0.00     0.023 C 
BRANCH  22  23
ATOM     23  C   UNL     1       5.988   2.941   0.937  1.00  0.00     0.116 C 
BRANCH  23  24
ATOM     24  N   UNL     1       6.984   1.913   1.196  1.00  0.00    -0.352 N 
ATOM     25  C   UNL     1       8.341   2.047   1.362  1.00  0.00     0.251 C 
ATOM     26  H   UNL     1       6.638   0.993   1.260  1.00  0.00     0.163 HD
ATOM     27  O   UNL     1       9.051   1.046   1.427  1.00  0.00    -0.269 OA
BRANCH  25  28
ATOM     28  C   UNL     1       8.942   3.395   1.434  1.00  0.00     0.039 A 
ATOM     29  C   UNL     1      10.085   3.666   0.678  1.00  0.00     0.014 A 
ATOM     30  C   UNL     1       8.371   4.393   2.229  1.00  0.00     0.014 A 
ATOM     31  C   UNL     1      10.620   4.956   0.671  1.00  0.00     0.010 A 
ATOM     32  C   UNL     1       8.860   5.695   2.161  1.00  0.00     0.010 A 
ATOM     33  C   UNL     1       9.991   5.989   1.386  1.00  0.00    -0.014 A 
BRANCH  33  34
ATOM     34  C   UNL     1      10.494   7.386   1.321  1.00  0.00     0.031 A 
ATOM     35  C   UNL     1      10.992   8.073   2.564  1.00  0.00     0.074 A 
ATOM     36  C   UNL     1      10.422   8.065   0.159  1.00  0.00     0.049 A 
ATOM     37  N   UNL     1      11.421   9.300   2.711  1.00  0.00    -0.248 NA
ATOM     38  C   UNL     1      10.982   7.289   3.810  1.00  0.00     0.031 C 
ATOM     39  C   UNL     1       9.883   7.538  -1.097  1.00  0.00     0.029 A 
ATOM     40  N   UNL     1      10.777   9.355  -0.149  1.00  0.00    -0.354 N 
ATOM     41  C   UNL     1      11.697   9.446   4.065  1.00  0.00     0.074 A 
ATOM     42  C   UNL     1      11.355   8.194   4.703  1.00  0.00     0.031 C 
ATOM     43  C   UNL     1       9.948   8.492  -2.039  1.00  0.00     0.029 A 
ATOM     44  C   UNL     1      10.502   9.707  -1.450  1.00  0.00     0.049 A 
ATOM     45  H   UNL     1      11.190   9.970   0.500  1.00  0.00     0.167 HD
ATOM     46  C   UNL     1      12.217  10.515   4.716  1.00  0.00     0.034 A 
ATOM     47  C   UNL     1      10.668  10.879  -2.095  1.00  0.00     0.034 A 
ATOM     48  C   UNL     1      12.593  11.745   4.072  1.00  0.00     0.049 A 
ATOM     49  C   UNL     1      11.278  12.040  -1.357  1.00  0.00     0.074 A 
ATOM     50  C   UNL     1      13.213  12.851   4.626  1.00  0.00     0.029 A 
ATOM     51  N   UNL     1      12.375  12.037   2.735  1.00  0.00    -0.354 N 
ATOM     52  N   UNL     1      11.689  12.103  -0.114  1.00  0.00    -0.248 NA
ATOM     53  C   UNL     1      11.482  13.280  -2.120  1.00  0.00     0.031 C 
ATOM     54  C   UNL     1      13.343  13.823   3.630  1.00  0.00     0.029 A 
ATOM     55  C   UNL     1      12.834  13.311   2.447  1.00  0.00     0.049 A 
ATOM     56  H   UNL     1      11.955  11.429   2.084  1.00  0.00     0.167 HD
ATOM     57  C   UNL     1      12.230  13.374   0.045  1.00  0.00     0.074 A 
ATOM     58  C   UNL     1      12.116  14.039  -1.237  1.00  0.00     0.031 C 
ATOM     59  C   UNL     1      12.760  13.944   1.155  1.00  0.00     0.034 A 
BRANCH  46  60
ATOM     60  C   UNL     1      12.457  10.383   6.198  1.00  0.00     0.023 A 
ATOM     61  C   UNL     1      13.489   9.543   6.664  1.00  0.00     0.012 A 
ATOM     62  C   UNL     1      11.704  11.132   7.124  1.00  0.00     0.148 A 
ATOM     63  C   UNL     1      13.744   9.419   8.029  1.00  0.00     0.002 A 
ATOM     64  C   UNL     1      11.996  11.039   8.481  1.00  0.00     0.091 A 
ATOM     65  F   UNL     1      10.714  11.910   6.665  1.00  0.00    -0.205 F 
ATOM     66  C   UNL     1      13.005  10.175   8.935  1.00  0.00     0.022 A 
BRANCH  64  67
ATOM     67  S   UNL     1      11.157  12.030   9.723  1.00  0.00     0.127 S 
ATOM     68  O   UNL     1      10.358  11.020  10.415  1.00  0.00    -0.237 OA
ATOM     69  O   UNL     1      12.278  12.559  10.501  1.00  0.00    -0.237 OA
ATOM     70  O   UNL     1      10.398  13.034   8.991  1.00  0.00    -0.744 OA
ENDBRANCH  64  67
ENDBRANCH  46  60
BRANCH  47  71
ATOM     71  C   UNL     1      10.306  10.995  -3.536  1.00  0.00     0.023 A 
ATOM     72  C   UNL     1      11.327  11.132  -4.497  1.00  0.00     0.012 A 
ATOM     73  C   UNL     1       8.965  10.945  -3.962  1.00  0.00     0.148 A 
ATOM     74  C   UNL     1      11.018  11.252  -5.852  1.00  0.00     0.002 A 
ATOM     75  C   UNL     1       8.667  11.009  -5.318  1.00  0.00     0.091 A 
ATOM     76  F   UNL     1       8.008  10.825  -3.032  1.00  0.00    -0.205 F 
ATOM     77  C   UNL     1       9.690  11.181  -6.264  1.00  0.00     0.022 A 
BRANCH  75  78
ATOM     78  S   UNL     1       7.000  10.792  -5.950  1.00  0.00     0.127 S 
ATOM     79  O   UNL     1       6.685  12.135  -6.430  1.00  0.00    -0.237 OA
ATOM     80  O   UNL     1       7.203   9.794  -7.000  1.00  0.00    -0.237 OA
ATOM     81  O   UNL     1       6.210  10.322  -4.820  1.00  0.00    -0.744 OA
ENDBRANCH  75  78
ENDBRANCH  47  71
BRANCH  59  82
ATOM     82  C   UNL     1      13.293  15.349   1.034  1.00  0.00     0.023 A 
ATOM     83  C   UNL     1      12.400  16.430   0.896  1.00  0.00     0.012 A 
ATOM     84  C   UNL     1      14.676  15.602   1.131  1.00  0.00     0.148 A 
ATOM     85  C   UNL     1      12.877  17.738   0.821  1.00  0.00     0.002 A 
ATOM     86  C   UNL     1      15.140  16.912   1.107  1.00  0.00     0.091 A 
ATOM     87  F   UNL     1      15.511  14.559   1.244  1.00  0.00    -0.205 F 
ATOM     88  C   UNL     1      14.243  17.980   0.939  1.00  0.00     0.022 A 
BRANCH  86  89
ATOM     89  S   UNL     1      16.871  17.326   1.350  1.00  0.00     0.127 S 
ATOM     90  O   UNL     1      17.266  17.754   0.010  1.00  0.00    -0.237 OA
ATOM     91  O   UNL     1      16.796  18.403   2.338  1.00  0.00    -0.237 OA
ATOM     92  O   UNL     1      17.511  16.109   1.831  1.00  0.00    -0.744 OA
ENDBRANCH  86  89
ENDBRANCH  59  82
ENDBRANCH  33  34
ENDBRANCH  25  28
ENDBRANCH  23  24
ENDBRANCH  22  23
ENDBRANCH   1  22
TORSDOF 17
