REMARK SMILES COc1ccc(C(=O)C2=C(NCCCCNC(=O)c3ccc(-c4c5nc(c(-c6cccc(S(=O)(=O)[O-])c6F)c6ccc([nH]6)c(-c6cccc(S(=O)(=O)[O-])c6F)c6nc(c(-c7cccc(S(=O)(=O)[O-])c7F)c7ccc4[nH]7)C=C6)C=C5)cc3)C(=O)N(CCC(=O)[O-])[C@H]2c2ccccc2F)cc1
REMARK SMILES IDX 13 1 12 2 11 3 10 5 9 6 90 7 82 8 84 9 83 10 7 11 8 12 6 13
REMARK SMILES IDX 3 14 4 15 99 16 5 17 98 18 2 19 1 20 91 21 92 22 96 23 93 24
REMARK SMILES IDX 95 25 97 26 94 27 85 28 86 29 87 30 88 31 89 32 14 33 15 34
REMARK SMILES IDX 16 35 17 36 18 38 19 39 20 40 81 41 21 42 80 43 22 44 23 45
REMARK SMILES IDX 24 46 74 47 25 48 79 49 73 50 75 51 26 52 78 53 72 54 71 55
REMARK SMILES IDX 27 57 59 58 39 59 58 60 40 61 43 62 57 63 76 64 41 65 42 66
REMARK SMILES IDX 56 68 77 69 44 70 28 71 29 72 37 73 30 74 32 75 38 76 31 77
REMARK SMILES IDX 33 78 34 79 35 80 36 81 60 82 61 83 69 84 62 85 64 86 70 87
REMARK SMILES IDX 63 88 65 89 66 90 67 91 68 92 45 93 46 94 54 95 47 96 49 97
REMARK SMILES IDX 55 98 48 99 50 100 51 101 52 102 53 103
REMARK H PARENT 11 4 16 37 75 56 43 67
REMARK Flexibility Score: inf
ROOT
ATOM      1  C   UNL     1       0.594  -7.555  -1.374  1.00  0.00     0.023 C 
ENDROOT
BRANCH   1   2
ATOM      2  C   UNL     1       1.176  -7.948  -0.020  1.00  0.00     0.113 C 
BRANCH   2   3
ATOM      3  N   UNL     1       2.617  -7.862  -0.060  1.00  0.00    -0.380 N 
ATOM      4  H   UNL     1       3.045  -8.288  -0.837  1.00  0.00     0.160 HD
BRANCH   3   5
ATOM      5  C   UNL     1       3.471  -7.271   0.831  1.00  0.00     0.110 C 
ATOM      6  C   UNL     1       3.344  -6.487   1.905  1.00  0.00     0.056 C 
ATOM      7  C   UNL     1       4.629  -6.131   2.590  1.00  0.00     0.155 C 
ATOM      8  C   UNL     1       4.952  -7.471   0.688  1.00  0.00     0.271 C 
ATOM      9  N   UNL     1       5.574  -6.825   1.740  1.00  0.00    -0.326 N 
ATOM     10  O   UNL     1       5.470  -8.116  -0.199  1.00  0.00    -0.267 OA
BRANCH   6  11
ATOM     11  C   UNL     1       2.055  -6.011   2.426  1.00  0.00     0.193 C 
ATOM     12  O   UNL     1       1.506  -6.611   3.344  1.00  0.00    -0.289 OA
BRANCH  11  13
ATOM     13  C   UNL     1       1.468  -4.757   1.858  1.00  0.00     0.023 A 
ATOM     14  C   UNL     1       0.458  -2.245   1.077  1.00  0.00     0.118 A 
ATOM     15  C   UNL     1      -0.202  -3.007   2.044  1.00  0.00     0.047 A 
ATOM     16  C   UNL     1       1.579  -2.778   0.445  1.00  0.00     0.047 A 
ATOM     17  C   UNL     1       0.301  -4.251   2.439  1.00  0.00     0.016 A 
ATOM     18  C   UNL     1       2.065  -4.038   0.815  1.00  0.00     0.016 A 
BRANCH  14  19
ATOM     19  O   UNL     1      -0.083  -1.012   0.844  1.00  0.00    -0.497 OA
ATOM     20  C   UNL     1       0.669  -0.133   0.014  1.00  0.00     0.278 C 
ENDBRANCH  14  19
ENDBRANCH  11  13
ENDBRANCH   6  11
BRANCH   7  21
ATOM     21  C   UNL     1       4.850  -4.632   2.653  1.00  0.00     0.015 A 
ATOM     22  C   UNL     1       5.377  -3.893   1.578  1.00  0.00     0.009 A 
ATOM     23  C   UNL     1       4.364  -3.925   3.759  1.00  0.00     0.128 A 
ATOM     24  C   UNL     1       5.364  -2.495   1.602  1.00  0.00     0.001 A 
ATOM     25  C   UNL     1       4.346  -2.534   3.787  1.00  0.00     0.039 A 
ATOM     26  F   UNL     1       3.849  -4.594   4.800  1.00  0.00    -0.207 F 
ATOM     27  C   UNL     1       4.835  -1.816   2.699  1.00  0.00     0.003 A 
ENDBRANCH   7  21
BRANCH   9  28
ATOM     28  C   UNL     1       6.991  -6.971   2.048  1.00  0.00     0.127 C 
BRANCH  28  29
ATOM     29  C   UNL     1       7.322  -8.295   2.727  1.00  0.00     0.074 C 
BRANCH  29  30
ATOM     30  C   UNL     1       7.461  -9.389   1.710  1.00  0.00     0.043 C 
ATOM     31  O   UNL     1       8.425  -9.561   0.982  1.00  0.00    -0.550 OA
ATOM     32  O   UNL     1       6.368 -10.171   1.635  1.00  0.00    -0.550 OA
ENDBRANCH  29  30
ENDBRANCH  28  29
ENDBRANCH   9  28
ENDBRANCH   3   5
ENDBRANCH   2   3
ENDBRANCH   1   2
BRANCH   1  33
ATOM     33  C   UNL     1       0.837  -8.576  -2.485  1.00  0.00     0.023 C 
BRANCH  33  34
ATOM     34  C   UNL     1       0.308  -9.977  -2.195  1.00  0.00     0.116 C 
BRANCH  34  35
ATOM     35  N   UNL     1      -1.125  -9.994  -1.920  1.00  0.00    -0.352 N 
ATOM     36  C   UNL     1      -2.123 -10.697  -2.551  1.00  0.00     0.251 C 
ATOM     37  H   UNL     1      -1.419  -9.419  -1.177  1.00  0.00     0.163 HD
ATOM     38  O   UNL     1      -3.301 -10.472  -2.293  1.00  0.00    -0.269 OA
BRANCH  36  39
ATOM     39  C   UNL     1      -1.763 -11.707  -3.567  1.00  0.00     0.039 A 
ATOM     40  C   UNL     1      -2.376 -11.654  -4.821  1.00  0.00     0.014 A 
ATOM     41  C   UNL     1      -0.780 -12.662  -3.297  1.00  0.00     0.014 A 
ATOM     42  C   UNL     1      -1.930 -12.498  -5.840  1.00  0.00     0.010 A 
ATOM     43  C   UNL     1      -0.288 -13.450  -4.332  1.00  0.00     0.010 A 
ATOM     44  C   UNL     1      -0.845 -13.363  -5.617  1.00  0.00    -0.014 A 
BRANCH  44  45
ATOM     45  C   UNL     1      -0.222 -14.124  -6.730  1.00  0.00     0.031 A 
ATOM     46  C   UNL     1      -0.191 -15.625  -6.706  1.00  0.00     0.074 A 
ATOM     47  C   UNL     1       0.437 -13.453  -7.696  1.00  0.00     0.049 A 
ATOM     48  N   UNL     1       0.394 -16.450  -7.535  1.00  0.00    -0.248 NA
ATOM     49  C   UNL     1      -0.884 -16.286  -5.589  1.00  0.00     0.031 C 
ATOM     50  C   UNL     1       0.560 -11.996  -7.776  1.00  0.00     0.029 A 
ATOM     51  N   UNL     1       1.167 -13.907  -8.767  1.00  0.00    -0.354 N 
ATOM     52  C   UNL     1       0.176 -17.722  -7.022  1.00  0.00     0.074 A 
ATOM     53  C   UNL     1      -0.575 -17.558  -5.796  1.00  0.00     0.031 C 
ATOM     54  C   UNL     1       1.332 -11.676  -8.825  1.00  0.00     0.029 A 
ATOM     55  C   UNL     1       1.792 -12.903  -9.469  1.00  0.00     0.049 A 
ATOM     56  H   UNL     1       1.236 -14.859  -9.008  1.00  0.00     0.167 HD
ATOM     57  C   UNL     1       0.551 -18.918  -7.535  1.00  0.00     0.034 A 
ATOM     58  C   UNL     1       2.663 -12.957 -10.496  1.00  0.00     0.034 A 
ATOM     59  C   UNL     1       1.274 -19.075  -8.769  1.00  0.00     0.049 A 
ATOM     60  C   UNL     1       3.043 -14.295 -11.066  1.00  0.00     0.074 A 
ATOM     61  C   UNL     1       1.593 -20.245  -9.435  1.00  0.00     0.029 A 
ATOM     62  N   UNL     1       1.819 -18.034  -9.507  1.00  0.00    -0.354 N 
ATOM     63  N   UNL     1       2.663 -15.490 -10.683  1.00  0.00    -0.248 NA
ATOM     64  C   UNL     1       3.947 -14.294 -12.225  1.00  0.00     0.031 C 
ATOM     65  C   UNL     1       2.366 -19.914 -10.554  1.00  0.00     0.029 A 
ATOM     66  C   UNL     1       2.501 -18.535 -10.603  1.00  0.00     0.049 A 
ATOM     67  H   UNL     1       1.733 -17.079  -9.284  1.00  0.00     0.167 HD
ATOM     68  C   UNL     1       3.267 -16.382 -11.561  1.00  0.00     0.074 A 
ATOM     69  C   UNL     1       4.015 -15.587 -12.514  1.00  0.00     0.031 C 
ATOM     70  C   UNL     1       3.219 -17.738 -11.565  1.00  0.00     0.034 A 
BRANCH  57  71
ATOM     71  C   UNL     1       0.155 -20.157  -6.775  1.00  0.00     0.023 A 
ATOM     72  C   UNL     1      -1.200 -20.543  -6.722  1.00  0.00     0.012 A 
ATOM     73  C   UNL     1       1.127 -20.961  -6.147  1.00  0.00     0.148 A 
ATOM     74  C   UNL     1      -1.587 -21.684  -6.021  1.00  0.00     0.002 A 
ATOM     75  C   UNL     1       0.738 -22.123  -5.490  1.00  0.00     0.091 A 
ATOM     76  F   UNL     1       2.408 -20.568  -6.188  1.00  0.00    -0.205 F 
ATOM     77  C   UNL     1      -0.619 -22.478  -5.413  1.00  0.00     0.022 A 
BRANCH  75  78
ATOM     78  S   UNL     1       1.920 -23.253  -4.747  1.00  0.00     0.127 S 
ATOM     79  O   UNL     1       1.723 -22.990  -3.322  1.00  0.00    -0.237 OA
ATOM     80  O   UNL     1       1.429 -24.555  -5.199  1.00  0.00    -0.237 OA
ATOM     81  O   UNL     1       3.221 -22.878  -5.281  1.00  0.00    -0.744 OA
ENDBRANCH  75  78
ENDBRANCH  57  71
BRANCH  58  82
ATOM     82  C   UNL     1       3.208 -11.691 -11.060  1.00  0.00     0.023 A 
ATOM     83  C   UNL     1       2.781 -11.251 -12.327  1.00  0.00     0.012 A 
ATOM     84  C   UNL     1       4.094 -10.887 -10.315  1.00  0.00     0.148 A 
ATOM     85  C   UNL     1       3.242 -10.043 -12.851  1.00  0.00     0.002 A 
ATOM     86  C   UNL     1       4.502  -9.658 -10.816  1.00  0.00     0.091 A 
ATOM     87  F   UNL     1       4.494 -11.330  -9.114  1.00  0.00    -0.205 F 
ATOM     88  C   UNL     1       4.091  -9.241 -12.092  1.00  0.00     0.022 A 
BRANCH  86  89
ATOM     89  S   UNL     1       5.475  -8.495  -9.852  1.00  0.00     0.127 S 
ATOM     90  O   UNL     1       6.735  -8.475 -10.590  1.00  0.00    -0.237 OA
ATOM     91  O   UNL     1       4.676  -7.274  -9.962  1.00  0.00    -0.237 OA
ATOM     92  O   UNL     1       5.540  -9.053  -8.508  1.00  0.00    -0.744 OA
ENDBRANCH  86  89
ENDBRANCH  58  82
BRANCH  70  93
ATOM     93  C   UNL     1       3.994 -18.463 -12.635  1.00  0.00     0.023 A 
ATOM     94  C   UNL     1       5.400 -18.516 -12.562  1.00  0.00     0.012 A 
ATOM     95  C   UNL     1       3.328 -19.163 -13.661  1.00  0.00     0.148 A 
ATOM     96  C   UNL     1       6.133 -19.234 -13.507  1.00  0.00     0.002 A 
ATOM     97  C   UNL     1       4.061 -19.916 -14.570  1.00  0.00     0.091 A 
ATOM     98  F   UNL     1       1.990 -19.087 -13.721  1.00  0.00    -0.205 F 
ATOM     99  C   UNL     1       5.464 -19.943 -14.502  1.00  0.00     0.022 A 
BRANCH  97 100
ATOM    100  S   UNL     1       3.287 -20.937 -15.830  1.00  0.00     0.127 S 
ATOM    101  O   UNL     1       3.675 -20.242 -17.056  1.00  0.00    -0.237 OA
ATOM    102  O   UNL     1       3.943 -22.228 -15.626  1.00  0.00    -0.237 OA
ATOM    103  O   UNL     1       1.860 -20.928 -15.537  1.00  0.00    -0.744 OA
ENDBRANCH  97 100
ENDBRANCH  70  93
ENDBRANCH  44  45
ENDBRANCH  36  39
ENDBRANCH  34  35
ENDBRANCH  33  34
ENDBRANCH   1  33
TORSDOF 21
