REMARK SMILES O=C(NCCCCNC(=O)c1ccccc1C(=O)N1CCOCCOCCOCC1)c1ccc(-c2c3nc(c(-c4cccc(S(=O)(=O)[O-])c4F)c4ccc([nH]4)c(-c4cccc(S(=O)(=O)[O-])c4F)c4nc(c(-c5cccc(S(=O)(=O)[O-])c5F)c5ccc2[nH]5)C=C4)C=C3)cc1
REMARK SMILES IDX 8 1 9 2 10 3 7 5 6 6 5 7 4 8 3 9 1 10 2 11 31 13 32 14 93 15
REMARK SMILES IDX 33 16 92 17 34 18 35 19 36 20 86 21 37 22 91 23 85 24 87 25
REMARK SMILES IDX 38 26 90 27 84 28 83 29 39 31 71 32 51 33 70 34 52 35 55 36
REMARK SMILES IDX 69 37 88 38 53 39 54 40 68 42 89 43 56 44 40 45 41 46 49 47
REMARK SMILES IDX 42 48 44 49 50 50 43 51 45 52 46 53 47 54 48 55 72 56 73 57
REMARK SMILES IDX 81 58 74 59 76 60 82 61 75 62 77 63 78 64 79 65 80 66 57 67
REMARK SMILES IDX 58 68 66 69 59 70 61 71 67 72 60 73 62 74 63 75 64 76 65 77
REMARK SMILES IDX 11 78 12 79 16 80 13 81 15 82 14 83 17 84 18 85 19 86 20 87
REMARK SMILES IDX 21 88 22 89 23 90 30 92 29 93 28 94 27 95 26 96 25 97 24 98
REMARK H PARENT 8 4 3 12 87 30 55 41
REMARK Flexibility Score: 70.00
ROOT
ATOM      1  N   UNL     1       6.265  -2.413   3.928  1.00  0.00    -0.352 N 
ATOM      2  C   UNL     1       7.028  -3.521   4.166  1.00  0.00     0.252 C 
ATOM      3  O   UNL     1       8.252  -3.444   4.055  1.00  0.00    -0.269 OA
ATOM      4  H   UNL     1       6.768  -1.613   3.653  1.00  0.00     0.163 HD
ENDROOT
BRANCH   1   5
ATOM      5  C   UNL     1       4.831  -2.233   4.017  1.00  0.00     0.116 C 
BRANCH   5   6
ATOM      6  C   UNL     1       4.388  -0.770   3.958  1.00  0.00     0.023 C 
BRANCH   6   7
ATOM      7  C   UNL     1       4.962   0.124   2.849  1.00  0.00     0.023 C 
BRANCH   7   8
ATOM      8  C   UNL     1       4.668  -0.232   1.393  1.00  0.00     0.116 C 
BRANCH   8   9
ATOM      9  N   UNL     1       3.259  -0.447   1.111  1.00  0.00    -0.352 N 
ATOM     10  O   UNL     1       1.243  -0.081   0.169  1.00  0.00    -0.269 OA
ATOM     11  C   UNL     1       2.454   0.129   0.157  1.00  0.00     0.251 C 
ATOM     12  H   UNL     1       2.813  -1.105   1.692  1.00  0.00     0.163 HD
BRANCH  11  13
ATOM     13  C   UNL     1       3.028   1.039  -0.858  1.00  0.00     0.039 A 
ATOM     14  C   UNL     1       4.159   0.683  -1.601  1.00  0.00     0.014 A 
ATOM     15  C   UNL     1       2.407   2.272  -1.075  1.00  0.00     0.014 A 
ATOM     16  C   UNL     1       4.740   1.608  -2.470  1.00  0.00     0.010 A 
ATOM     17  C   UNL     1       2.966   3.181  -1.975  1.00  0.00     0.010 A 
ATOM     18  C   UNL     1       4.159   2.873  -2.648  1.00  0.00    -0.014 A 
BRANCH  18  19
ATOM     19  C   UNL     1       4.788   3.889  -3.528  1.00  0.00     0.031 A 
ATOM     20  C   UNL     1       5.380   5.138  -2.934  1.00  0.00     0.074 A 
ATOM     21  C   UNL     1       4.762   3.725  -4.863  1.00  0.00     0.049 A 
ATOM     22  N   UNL     1       5.875   6.187  -3.539  1.00  0.00    -0.248 NA
ATOM     23  C   UNL     1       5.409   5.223  -1.465  1.00  0.00     0.031 C 
ATOM     24  C   UNL     1       4.187   2.572  -5.555  1.00  0.00     0.029 A 
ATOM     25  N   UNL     1       5.189   4.548  -5.875  1.00  0.00    -0.354 N 
ATOM     26  C   UNL     1       6.232   7.074  -2.531  1.00  0.00     0.074 A 
ATOM     27  C   UNL     1       5.896   6.441  -1.274  1.00  0.00     0.031 C 
ATOM     28  C   UNL     1       4.266   2.775  -6.879  1.00  0.00     0.029 A 
ATOM     29  C   UNL     1       4.860   4.087  -7.127  1.00  0.00     0.049 A 
ATOM     30  H   UNL     1       5.682   5.386  -5.719  1.00  0.00     0.167 HD
ATOM     31  C   UNL     1       6.798   8.300  -2.642  1.00  0.00     0.034 A 
ATOM     32  C   UNL     1       4.987   4.667  -8.337  1.00  0.00     0.034 A 
ATOM     33  C   UNL     1       7.157   8.912  -3.893  1.00  0.00     0.049 A 
ATOM     34  C   UNL     1       5.628   6.023  -8.440  1.00  0.00     0.074 A 
ATOM     35  C   UNL     1       7.803  10.117  -4.108  1.00  0.00     0.029 A 
ATOM     36  N   UNL     1       6.887   8.375  -5.143  1.00  0.00    -0.354 N 
ATOM     37  N   UNL     1       6.085   6.790  -7.480  1.00  0.00    -0.248 NA
ATOM     38  C   UNL     1       5.801   6.580  -9.788  1.00  0.00     0.031 C 
ATOM     39  C   UNL     1       7.905  10.317  -5.489  1.00  0.00     0.029 A 
ATOM     40  C   UNL     1       7.343   9.226  -6.134  1.00  0.00     0.049 A 
ATOM     41  H   UNL     1       6.436   7.514  -5.302  1.00  0.00     0.167 HD
ATOM     42  C   UNL     1       6.631   7.904  -8.107  1.00  0.00     0.074 A 
ATOM     43  C   UNL     1       6.455   7.707  -9.532  1.00  0.00     0.031 C 
ATOM     44  C   UNL     1       7.216   8.992  -7.551  1.00  0.00     0.034 A 
BRANCH  31  45
ATOM     45  C   UNL     1       7.095   9.051  -1.370  1.00  0.00     0.023 A 
ATOM     46  C   UNL     1       8.162   8.634  -0.548  1.00  0.00     0.012 A 
ATOM     47  C   UNL     1       6.352  10.192  -1.010  1.00  0.00     0.148 A 
ATOM     48  C   UNL     1       8.460   9.318   0.631  1.00  0.00     0.002 A 
ATOM     49  C   UNL     1       6.681  10.892   0.146  1.00  0.00     0.091 A 
ATOM     50  F   UNL     1       5.325  10.562  -1.788  1.00  0.00    -0.205 F 
ATOM     51  C   UNL     1       7.726  10.451   0.973  1.00  0.00     0.022 A 
BRANCH  49  52
ATOM     52  S   UNL     1       5.834  12.405   0.619  1.00  0.00     0.127 S 
ATOM     53  O   UNL     1       4.894  11.916   1.626  1.00  0.00    -0.237 OA
ATOM     54  O   UNL     1       6.925  13.223   1.152  1.00  0.00    -0.237 OA
ATOM     55  O   UNL     1       5.241  12.922  -0.607  1.00  0.00    -0.744 OA
ENDBRANCH  49  52
ENDBRANCH  31  45
BRANCH  32  56
ATOM     56  C   UNL     1       4.524   3.928  -9.544  1.00  0.00     0.023 A 
ATOM     57  C   UNL     1       5.473   3.371 -10.422  1.00  0.00     0.012 A 
ATOM     58  C   UNL     1       3.153   3.697  -9.773  1.00  0.00     0.148 A 
ATOM     59  C   UNL     1       5.064   2.604 -11.513  1.00  0.00     0.002 A 
ATOM     60  C   UNL     1       2.756   2.887 -10.829  1.00  0.00     0.091 A 
ATOM     61  F   UNL     1       2.268   4.246  -8.929  1.00  0.00    -0.205 F 
ATOM     62  C   UNL     1       3.709   2.350 -11.708  1.00  0.00     0.022 A 
BRANCH  60  63
ATOM     63  S   UNL     1       1.048   2.386 -11.075  1.00  0.00     0.127 S 
ATOM     64  O   UNL     1       0.717   3.059 -12.329  1.00  0.00    -0.237 OA
ATOM     65  O   UNL     1       1.174   0.931 -11.171  1.00  0.00    -0.237 OA
ATOM     66  O   UNL     1       0.325   2.852  -9.900  1.00  0.00    -0.744 OA
ENDBRANCH  60  63
ENDBRANCH  32  56
BRANCH  44  67
ATOM     67  C   UNL     1       7.757  10.053  -8.472  1.00  0.00     0.023 A 
ATOM     68  C   UNL     1       6.873  10.946  -9.108  1.00  0.00     0.012 A 
ATOM     69  C   UNL     1       9.148  10.233  -8.615  1.00  0.00     0.148 A 
ATOM     70  C   UNL     1       7.365  11.995  -9.883  1.00  0.00     0.002 A 
ATOM     71  C   UNL     1       9.631  11.306  -9.353  1.00  0.00     0.091 A 
ATOM     72  F   UNL     1       9.970   9.359  -8.015  1.00  0.00    -0.205 F 
ATOM     73  C   UNL     1       8.742  12.184  -9.995  1.00  0.00     0.022 A 
BRANCH  71  74
ATOM     74  S   UNL     1      11.384  11.683  -9.474  1.00  0.00     0.127 S 
ATOM     75  O   UNL     1      11.665  11.348 -10.869  1.00  0.00    -0.237 OA
ATOM     76  O   UNL     1      11.415  13.115  -9.172  1.00  0.00    -0.237 OA
ATOM     77  O   UNL     1      12.046  10.842  -8.485  1.00  0.00    -0.744 OA
ENDBRANCH  71  74
ENDBRANCH  44  67
ENDBRANCH  18  19
ENDBRANCH  11  13
ENDBRANCH   8   9
ENDBRANCH   7   8
ENDBRANCH   6   7
ENDBRANCH   5   6
ENDBRANCH   1   5
BRANCH   2  78
ATOM     78  C   UNL     1       6.464  -4.810   4.609  1.00  0.00     0.052 A 
ATOM     79  C   UNL     1       6.951  -5.267   5.850  1.00  0.00     0.014 A 
ATOM     80  C   UNL     1       5.609  -5.631   3.866  1.00  0.00     0.052 A 
ATOM     81  C   UNL     1       6.548  -6.496   6.376  1.00  0.00     0.001 A 
ATOM     82  C   UNL     1       5.216  -6.875   4.409  1.00  0.00     0.014 A 
ATOM     83  C   UNL     1       5.677  -7.302   5.654  1.00  0.00     0.001 A 
BRANCH  80  84
ATOM     84  C   UNL     1       4.881  -5.237   2.643  1.00  0.00     0.254 C 
ATOM     85  O   UNL     1       3.662  -5.405   2.725  1.00  0.00    -0.269 OA
ATOM     86  N   UNL     1       5.491  -4.698   1.512  1.00  0.00    -0.334 N 
BRANCH  86  87
ATOM     87  C   UNL     1       4.639  -3.912   0.595  1.00  0.00     0.148 C 
BRANCH  87  88
ATOM     88  C   UNL     1       3.320  -4.518   0.090  1.00  0.00     0.181 C 
BRANCH  88  89
ATOM     89  O   UNL     1       2.629  -3.569  -0.734  1.00  0.00    -0.377 OA
BRANCH  89  90
ATOM     90  C   UNL     1       2.553  -3.924  -2.117  1.00  0.00     0.188 CG0
ATOM     91  G   UNL     1       3.833  -3.545  -2.856  1.00  0.00     0.000 G0
ENDBRANCH  89  90
ENDBRANCH  88  89
ENDBRANCH  87  88
ENDBRANCH  86  87
BRANCH  86  92
ATOM     92  C   UNL     1       6.954  -4.632   1.298  1.00  0.00     0.148 C 
BRANCH  92  93
ATOM     93  C   UNL     1       7.431  -5.317   0.011  1.00  0.00     0.181 C 
BRANCH  93  94
ATOM     94  O   UNL     1       7.360  -4.385  -1.062  1.00  0.00    -0.377 OA
BRANCH  94  95
ATOM     95  C   UNL     1       7.168  -4.984  -2.347  1.00  0.00     0.188 C 
BRANCH  95  96
ATOM     96  C   UNL     1       6.122  -4.143  -3.075  1.00  0.00     0.188 C 
BRANCH  96  97
ATOM     97  O   UNL     1       4.842  -4.509  -2.550  1.00  0.00    -0.377 OA
BRANCH  97  98
ATOM     98  C   UNL     1       3.833  -3.545  -2.856  1.00  0.00     0.188 CG0
ATOM     99  G   UNL     1       2.553  -3.924  -2.117  1.00  0.00     0.000 G0
ENDBRANCH  97  98
ENDBRANCH  96  97
ENDBRANCH  95  96
ENDBRANCH  94  95
ENDBRANCH  93  94
ENDBRANCH  92  93
ENDBRANCH  86  92
ENDBRANCH  80  84
ENDBRANCH   2  78
TORSDOF 15
