REMARK SMILES O=C(NCCCCNC(=O)c1ccc(C[NH2+]Cc2cc(F)ccc2F)nc1)c1ccc(-c2c3nc(c(-c4cccc(S(=O)(=O)[O-])c4F)c4ccc([nH]4)c(-c4cccc(S(=O)(=O)[O-])c4F)c4nc(c(-c5cccc(S(=O)(=O)[O-])c5F)c5ccc2[nH]5)C=C4)C=C3)cc1
REMARK SMILES IDX 6 1 5 2 4 3 3 4 1 5 2 6 28 8 29 9 90 10 30 11 89 12 31 13
REMARK SMILES IDX 32 14 33 15 83 16 34 17 88 18 82 19 84 20 35 21 87 22 81 23
REMARK SMILES IDX 80 24 36 26 68 27 48 28 67 29 49 30 52 31 66 32 85 33 50 34
REMARK SMILES IDX 51 35 65 37 86 38 53 39 37 40 38 41 46 42 39 43 41 44 47 45
REMARK SMILES IDX 40 46 42 47 43 48 44 49 45 50 69 51 70 52 78 53 71 54 73 55
REMARK SMILES IDX 79 56 72 57 74 58 75 59 76 60 77 61 54 62 55 63 63 64 56 65
REMARK SMILES IDX 58 66 64 67 57 68 59 69 60 70 61 71 62 72 7 73 8 74 9 75
REMARK SMILES IDX 10 77 11 78 12 79 27 80 13 81 26 82 14 83 15 84 16 85 17 88
REMARK SMILES IDX 18 89 19 90 24 91 20 92 23 93 25 94 21 95 22 96
REMARK H PARENT 3 7 84 25 52 36 8 76 16 86 16 87
REMARK Flexibility Score: inf
ROOT
ATOM      1  C   UNL     1       4.448  -1.957   3.226  1.00  0.00     0.023 C 
ENDROOT
BRANCH   1   2
ATOM      2  C   UNL     1       4.885  -0.783   2.353  1.00  0.00     0.023 C 
BRANCH   2   3
ATOM      3  C   UNL     1       4.532  -0.913   0.877  1.00  0.00     0.116 C 
BRANCH   3   4
ATOM      4  N   UNL     1       3.097  -0.992   0.652  1.00  0.00    -0.352 N 
ATOM      5  O   UNL     1       1.061  -0.273   0.019  1.00  0.00    -0.269 OA
ATOM      6  C   UNL     1       2.279  -0.140  -0.051  1.00  0.00     0.251 C 
ATOM      7  H   UNL     1       2.648  -1.766   1.062  1.00  0.00     0.163 HD
BRANCH   6   8
ATOM      8  C   UNL     1       2.872   0.945  -0.861  1.00  0.00     0.039 A 
ATOM      9  C   UNL     1       3.958   0.694  -1.704  1.00  0.00     0.014 A 
ATOM     10  C   UNL     1       2.338   2.232  -0.766  1.00  0.00     0.014 A 
ATOM     11  C   UNL     1       4.602   1.752  -2.338  1.00  0.00     0.010 A 
ATOM     12  C   UNL     1       2.934   3.279  -1.470  1.00  0.00     0.010 A 
ATOM     13  C   UNL     1       4.092   3.054  -2.234  1.00  0.00    -0.014 A 
BRANCH  13  14
ATOM     14  C   UNL     1       4.736   4.173  -2.967  1.00  0.00     0.031 A 
ATOM     15  C   UNL     1       5.329   5.337  -2.226  1.00  0.00     0.074 A 
ATOM     16  C   UNL     1       4.730   4.160  -4.313  1.00  0.00     0.049 A 
ATOM     17  N   UNL     1       5.838   6.444  -2.702  1.00  0.00    -0.248 NA
ATOM     18  C   UNL     1       5.341   5.254  -0.757  1.00  0.00     0.031 C 
ATOM     19  C   UNL     1       4.161   3.095  -5.141  1.00  0.00     0.029 A 
ATOM     20  N   UNL     1       5.183   5.083  -5.221  1.00  0.00    -0.354 N 
ATOM     21  C   UNL     1       6.184   7.212  -1.596  1.00  0.00     0.074 A 
ATOM     22  C   UNL     1       5.824   6.443  -0.423  1.00  0.00     0.031 C 
ATOM     23  C   UNL     1       4.285   3.429  -6.433  1.00  0.00     0.029 A 
ATOM     24  C   UNL     1       4.883   4.756  -6.522  1.00  0.00     0.049 A 
ATOM     25  H   UNL     1       5.674   5.897  -4.966  1.00  0.00     0.167 HD
ATOM     26  C   UNL     1       6.752   8.441  -1.563  1.00  0.00     0.034 A 
ATOM     27  C   UNL     1       5.027   5.462  -7.660  1.00  0.00     0.034 A 
ATOM     28  C   UNL     1       7.117   9.190  -2.737  1.00  0.00     0.049 A 
ATOM     29  C   UNL     1       5.650   6.826  -7.601  1.00  0.00     0.074 A 
ATOM     30  C   UNL     1       7.759  10.414  -2.812  1.00  0.00     0.029 A 
ATOM     31  N   UNL     1       6.851   8.799  -4.042  1.00  0.00    -0.354 N 
ATOM     32  N   UNL     1       6.074   7.490  -6.554  1.00  0.00    -0.248 NA
ATOM     33  C   UNL     1       5.843   7.526  -8.878  1.00  0.00     0.031 C 
ATOM     34  C   UNL     1       7.840  10.783  -4.159  1.00  0.00     0.029 A 
ATOM     35  C   UNL     1       7.299   9.764  -4.927  1.00  0.00     0.049 A 
ATOM     36  H   UNL     1       6.409   7.958  -4.300  1.00  0.00     0.167 HD
ATOM     37  C   UNL     1       6.623   8.667  -7.047  1.00  0.00     0.074 A 
ATOM     38  C   UNL     1       6.478   8.624  -8.488  1.00  0.00     0.031 C 
ATOM     39  C   UNL     1       7.195   9.688  -6.363  1.00  0.00     0.034 A 
BRANCH  26  40
ATOM     40  C   UNL     1       7.013   9.057  -0.211  1.00  0.00     0.023 A 
ATOM     41  C   UNL     1       8.006   8.517   0.631  1.00  0.00     0.012 A 
ATOM     42  C   UNL     1       6.295  10.194   0.212  1.00  0.00     0.148 A 
ATOM     43  C   UNL     1       8.245   9.065   1.892  1.00  0.00     0.002 A 
ATOM     44  C   UNL     1       6.574  10.764   1.449  1.00  0.00     0.091 A 
ATOM     45  F   UNL     1       5.342  10.686  -0.591  1.00  0.00    -0.205 F 
ATOM     46  C   UNL     1       7.535  10.192   2.296  1.00  0.00     0.022 A 
BRANCH  44  47
ATOM     47  S   UNL     1       5.771  12.266   2.020  1.00  0.00     0.127 S 
ATOM     48  O   UNL     1       4.855  11.744   3.034  1.00  0.00    -0.237 OA
ATOM     49  O   UNL     1       6.896  13.035   2.555  1.00  0.00    -0.237 OA
ATOM     50  O   UNL     1       5.141  12.854   0.847  1.00  0.00    -0.744 OA
ENDBRANCH  44  47
ENDBRANCH  26  40
BRANCH  27  51
ATOM     51  C   UNL     1       4.584   4.859  -8.947  1.00  0.00     0.023 A 
ATOM     52  C   UNL     1       5.544   4.425  -9.879  1.00  0.00     0.012 A 
ATOM     53  C   UNL     1       3.216   4.641  -9.210  1.00  0.00     0.148 A 
ATOM     54  C   UNL     1       5.149   3.799 -11.062  1.00  0.00     0.002 A 
ATOM     55  C   UNL     1       2.834   3.966 -10.362  1.00  0.00     0.091 A 
ATOM     56  F   UNL     1       2.322   5.064  -8.306  1.00  0.00    -0.205 F 
ATOM     57  C   UNL     1       3.798   3.558 -11.297  1.00  0.00     0.022 A 
BRANCH  55  58
ATOM     58  S   UNL     1       1.133   3.487 -10.683  1.00  0.00     0.127 S 
ATOM     59  O   UNL     1       0.827   4.262 -11.883  1.00  0.00    -0.237 OA
ATOM     60  O   UNL     1       1.266   2.045 -10.897  1.00  0.00    -0.237 OA
ATOM     61  O   UNL     1       0.384   3.854  -9.490  1.00  0.00    -0.744 OA
ENDBRANCH  55  58
ENDBRANCH  27  51
BRANCH  39  62
ATOM     62  C   UNL     1       7.777  10.829  -7.155  1.00  0.00     0.023 A 
ATOM     63  C   UNL     1       6.934  11.772  -7.773  1.00  0.00     0.012 A 
ATOM     64  C   UNL     1       9.174  11.019  -7.189  1.00  0.00     0.148 A 
ATOM     65  C   UNL     1       7.474  12.880  -8.427  1.00  0.00     0.002 A 
ATOM     66  C   UNL     1       9.701  12.152  -7.795  1.00  0.00     0.091 A 
ATOM     67  F   UNL     1       9.957  10.096  -6.612  1.00  0.00    -0.205 F 
ATOM     68  C   UNL     1       8.854  13.078  -8.425  1.00  0.00     0.022 A 
BRANCH  66  69
ATOM     69  S   UNL     1      11.454  12.542  -7.750  1.00  0.00     0.127 S 
ATOM     70  O   UNL     1      11.827  12.400  -9.156  1.00  0.00    -0.237 OA
ATOM     71  O   UNL     1      11.449  13.919  -7.255  1.00  0.00    -0.237 OA
ATOM     72  O   UNL     1      12.062  11.574  -6.847  1.00  0.00    -0.744 OA
ENDBRANCH  66  69
ENDBRANCH  39  62
ENDBRANCH  13  14
ENDBRANCH   6   8
ENDBRANCH   3   4
ENDBRANCH   2   3
ENDBRANCH   1   2
BRANCH   1  73
ATOM     73  C   UNL     1       4.901  -3.331   2.738  1.00  0.00     0.116 C 
BRANCH  73  74
ATOM     74  N   UNL     1       6.350  -3.446   2.664  1.00  0.00    -0.352 N 
ATOM     75  C   UNL     1       7.170  -4.382   3.242  1.00  0.00     0.252 C 
ATOM     76  H   UNL     1       6.804  -2.759   2.124  1.00  0.00     0.163 HD
ATOM     77  O   UNL     1       8.390  -4.247   3.224  1.00  0.00    -0.269 OA
BRANCH  75  78
ATOM     78  C   UNL     1       6.580  -5.546   3.910  1.00  0.00     0.058 A 
ATOM     79  C   UNL     1       5.655  -6.372   3.275  1.00  0.00     0.017 A 
ATOM     80  C   UNL     1       6.934  -5.823   5.220  1.00  0.00     0.125 A 
ATOM     81  C   UNL     1       5.054  -7.392   4.005  1.00  0.00     0.030 A 
ATOM     82  N   UNL     1       6.357  -6.804   5.955  1.00  0.00    -0.255 NA
ATOM     83  C   UNL     1       5.406  -7.559   5.347  1.00  0.00     0.094 A 
BRANCH  83  84
ATOM     84  C   UNL     1       4.660  -8.569   6.195  1.00  0.00     0.318 C 
BRANCH  84  85
ATOM     85  N   UNL     1       5.266  -9.898   6.194  1.00  0.00    -0.337 N 
ATOM     86  H   UNL     1       6.175  -9.839   6.654  1.00  0.00     0.346 HD
ATOM     87  H   UNL     1       5.344 -10.193   5.221  1.00  0.00     0.346 HD
BRANCH  85  88
ATOM     88  C   UNL     1       4.461 -10.904   6.887  1.00  0.00     0.300 C 
BRANCH  88  89
ATOM     89  C   UNL     1       3.433 -11.569   6.004  1.00  0.00     0.045 A 
ATOM     90  C   UNL     1       2.278 -10.896   5.578  1.00  0.00     0.051 A 
ATOM     91  C   UNL     1       3.610 -12.892   5.578  1.00  0.00     0.132 A 
ATOM     92  C   UNL     1       1.387 -11.507   4.699  1.00  0.00     0.123 A 
ATOM     93  C   UNL     1       2.699 -13.514   4.723  1.00  0.00     0.043 A 
ATOM     94  F   UNL     1       4.671 -13.596   5.997  1.00  0.00    -0.206 F 
ATOM     95  F   UNL     1       0.321 -10.822   4.267  1.00  0.00    -0.207 F 
ATOM     96  C   UNL     1       1.589 -12.809   4.264  1.00  0.00     0.042 A 
ENDBRANCH  88  89
ENDBRANCH  85  88
ENDBRANCH  84  85
ENDBRANCH  83  84
ENDBRANCH  75  78
ENDBRANCH  73  74
ENDBRANCH   1  73
TORSDOF 18
