REMARK SMILES C[C@@H]1[C@H](C(=O)NCCCCNC(=O)c2ccc(-c3c4nc(c(-c5cccc(S(=O)(=O)[O-])c5F)c5ccc([nH]5)c(-c5cccc(S(=O)(=O)[O-])c5F)c5nc(c(-c6cccc(S(=O)(=O)[O-])c6F)c6ccc3[nH]6)C=C5)C=C4)cc2)CCN1C(=O)[C@H]1CC[C@@H](C(C)(C)C)CC1
REMARK SMILES IDX 8 1 7 2 6 3 4 4 5 5 3 7 1 8 2 9 79 10 77 11 78 12 80 13
REMARK SMILES IDX 81 14 82 15 83 16 91 17 84 18 90 19 85 20 86 21 87 22 88 23
REMARK SMILES IDX 89 24 9 25 10 26 11 27 12 28 13 30 14 31 15 32 76 33 16 34
REMARK SMILES IDX 75 35 17 36 18 37 19 38 69 39 20 40 74 41 68 42 70 43 21 44
REMARK SMILES IDX 73 45 67 46 66 47 22 49 54 50 34 51 53 52 35 53 38 54 52 55
REMARK SMILES IDX 71 56 36 57 37 58 51 60 72 61 39 62 23 63 24 64 32 65 25 66
REMARK SMILES IDX 27 67 33 68 26 69 28 70 29 71 30 72 31 73 55 74 56 75 64 76
REMARK SMILES IDX 57 77 59 78 65 79 58 80 60 81 61 82 62 83 63 84 40 85 41 86
REMARK SMILES IDX 49 87 42 88 44 89 50 90 43 91 45 92 46 93 47 94 48 95
REMARK H PARENT 6 6 11 29 70 48 38 59
REMARK Flexibility Score: inf
ROOT
ATOM      1  C   UNL     1       2.633   1.811   2.411  1.00  0.00     0.023 C 
ENDROOT
BRANCH   1   2
ATOM      2  C   UNL     1       1.161   2.250   2.301  1.00  0.00     0.116 C 
BRANCH   2   3
ATOM      3  N   UNL     1       0.837   2.751   0.973  1.00  0.00    -0.356 N 
ATOM      4  C   UNL     1       0.182   2.265  -0.108  1.00  0.00     0.225 C 
ATOM      5  O   UNL     1       0.135   3.039  -1.077  1.00  0.00    -0.275 OA
ATOM      6  H   UNL     1       1.175   3.663   0.825  1.00  0.00     0.163 HD
BRANCH   4   7
ATOM      7  C   UNL     1      -0.458   0.884  -0.274  1.00  0.00     0.102 C 
ATOM      8  C   UNL     1       1.462  -0.475   0.699  1.00  0.00     0.032 C 
ATOM      9  C   UNL     1       0.473  -0.323  -0.423  1.00  0.00     0.094 C 
ATOM     10  N   UNL     1      -0.413  -1.475  -0.405  1.00  0.00    -0.339 N 
ATOM     11  C   UNL     1      -1.531   0.369   0.669  1.00  0.00     0.037 C 
ATOM     12  C   UNL     1      -1.696  -1.089   0.193  1.00  0.00     0.120 C 
BRANCH  10  13
ATOM     13  C   UNL     1      -0.172  -2.773  -0.807  1.00  0.00     0.225 C 
ATOM     14  O   UNL     1      -1.039  -3.635  -0.604  1.00  0.00    -0.275 OA
BRANCH  13  15
ATOM     15  C   UNL     1       1.157  -3.231  -1.490  1.00  0.00     0.078 C 
ATOM     16  C   UNL     1       1.537  -2.518  -2.783  1.00  0.00     0.014 C 
ATOM     17  C   UNL     1       2.306  -3.552  -0.526  1.00  0.00     0.014 C 
ATOM     18  C   UNL     1       2.959  -2.811  -3.252  1.00  0.00     0.005 C 
ATOM     19  C   UNL     1       3.737  -3.077  -0.849  1.00  0.00     0.005 C 
ATOM     20  C   UNL     1       4.071  -2.485  -2.240  1.00  0.00    -0.006 C 
BRANCH  20  21
ATOM     21  C   UNL     1       4.655  -1.002  -2.267  1.00  0.00    -0.035 C 
ATOM     22  C   UNL     1       5.747  -0.799  -1.187  1.00  0.00     0.011 C 
ATOM     23  C   UNL     1       5.315  -0.694  -3.630  1.00  0.00     0.011 C 
ATOM     24  C   UNL     1       3.599   0.075  -2.047  1.00  0.00     0.011 C 
ENDBRANCH  20  21
ENDBRANCH  13  15
ENDBRANCH  10  13
ENDBRANCH   4   7
ENDBRANCH   2   3
ENDBRANCH   1   2
BRANCH   1  25
ATOM     25  C   UNL     1       3.612   2.740   3.096  1.00  0.00     0.023 C 
BRANCH  25  26
ATOM     26  C   UNL     1       3.287   3.089   4.527  1.00  0.00     0.116 C 
BRANCH  26  27
ATOM     27  N   UNL     1       3.149   1.949   5.423  1.00  0.00    -0.352 N 
ATOM     28  C   UNL     1       3.529   1.883   6.751  1.00  0.00     0.251 C 
ATOM     29  H   UNL     1       2.741   1.138   5.042  1.00  0.00     0.163 HD
ATOM     30  O   UNL     1       3.397   0.855   7.395  1.00  0.00    -0.269 OA
BRANCH  28  31
ATOM     31  C   UNL     1       4.154   3.084   7.348  1.00  0.00     0.039 A 
ATOM     32  C   UNL     1       5.409   2.972   7.949  1.00  0.00     0.014 A 
ATOM     33  C   UNL     1       3.565   4.335   7.157  1.00  0.00     0.014 A 
ATOM     34  C   UNL     1       6.114   4.132   8.278  1.00  0.00     0.010 A 
ATOM     35  C   UNL     1       4.320   5.478   7.361  1.00  0.00     0.010 A 
ATOM     36  C   UNL     1       5.595   5.393   7.942  1.00  0.00    -0.014 A 
BRANCH  36  37
ATOM     37  C   UNL     1       6.331   6.652   8.218  1.00  0.00     0.031 A 
ATOM     38  C   UNL     1       5.691   7.697   9.094  1.00  0.00     0.074 A 
ATOM     39  C   UNL     1       7.504   6.905   7.603  1.00  0.00     0.049 A 
ATOM     40  N   UNL     1       6.097   8.908   9.367  1.00  0.00    -0.248 NA
ATOM     41  C   UNL     1       4.390   7.354   9.698  1.00  0.00     0.031 C 
ATOM     42  C   UNL     1       8.177   6.018   6.651  1.00  0.00     0.029 A 
ATOM     43  N   UNL     1       8.327   8.002   7.669  1.00  0.00    -0.354 N 
ATOM     44  C   UNL     1       5.080   9.486  10.117  1.00  0.00     0.074 A 
ATOM     45  C   UNL     1       4.014   8.515  10.210  1.00  0.00     0.031 C 
ATOM     46  C   UNL     1       9.317   6.597   6.237  1.00  0.00     0.029 A 
ATOM     47  C   UNL     1       9.446   7.904   6.875  1.00  0.00     0.049 A 
ATOM     48  H   UNL     1       8.134   8.786   8.232  1.00  0.00     0.167 HD
ATOM     49  C   UNL     1       5.051  10.697  10.720  1.00  0.00     0.034 A 
ATOM     50  C   UNL     1      10.465   8.768   6.694  1.00  0.00     0.034 A 
ATOM     51  C   UNL     1       6.154  11.614  10.709  1.00  0.00     0.049 A 
ATOM     52  C   UNL     1      10.465  10.059   7.468  1.00  0.00     0.074 A 
ATOM     53  C   UNL     1       6.279  12.819  11.376  1.00  0.00     0.029 A 
ATOM     54  N   UNL     1       7.334  11.415  10.009  1.00  0.00    -0.354 N 
ATOM     55  N   UNL     1       9.563  10.521   8.301  1.00  0.00    -0.248 NA
ATOM     56  C   UNL     1      11.640  10.929   7.314  1.00  0.00     0.031 C 
ATOM     57  C   UNL     1       7.541  13.347  11.081  1.00  0.00     0.029 A 
ATOM     58  C   UNL     1       8.200  12.468  10.236  1.00  0.00     0.049 A 
ATOM     59  H   UNL     1       7.526  10.639   9.434  1.00  0.00     0.167 HD
ATOM     60  C   UNL     1      10.078  11.712   8.800  1.00  0.00     0.074 A 
ATOM     61  C   UNL     1      11.379  11.892   8.188  1.00  0.00     0.031 C 
ATOM     62  C   UNL     1       9.520  12.587   9.672  1.00  0.00     0.034 A 
BRANCH  49  63
ATOM     63  C   UNL     1       3.820  11.048  11.511  1.00  0.00     0.023 A 
ATOM     64  C   UNL     1       3.563  10.378  12.726  1.00  0.00     0.012 A 
ATOM     65  C   UNL     1       2.929  12.046  11.072  1.00  0.00     0.148 A 
ATOM     66  C   UNL     1       2.418  10.661  13.467  1.00  0.00     0.002 A 
ATOM     67  C   UNL     1       1.813  12.356  11.841  1.00  0.00     0.091 A 
ATOM     68  F   UNL     1       3.172  12.653   9.901  1.00  0.00    -0.205 F 
ATOM     69  C   UNL     1       1.549  11.656  13.030  1.00  0.00     0.022 A 
BRANCH  67  70
ATOM     70  S   UNL     1       0.677  13.675  11.400  1.00  0.00     0.127 S 
ATOM     71  O   UNL     1      -0.470  12.922  10.895  1.00  0.00    -0.237 OA
ATOM     72  O   UNL     1       0.453  14.335  12.687  1.00  0.00    -0.237 OA
ATOM     73  O   UNL     1       1.377  14.491  10.418  1.00  0.00    -0.744 OA
ENDBRANCH  67  70
ENDBRANCH  49  63
BRANCH  50  74
ATOM     74  C   UNL     1      11.621   8.388   5.832  1.00  0.00     0.023 A 
ATOM     75  C   UNL     1      12.852   8.072   6.441  1.00  0.00     0.012 A 
ATOM     76  C   UNL     1      11.508   8.302   4.432  1.00  0.00     0.148 A 
ATOM     77  C   UNL     1      13.957   7.706   5.671  1.00  0.00     0.002 A 
ATOM     78  C   UNL     1      12.600   7.889   3.673  1.00  0.00     0.091 A 
ATOM     79  F   UNL     1      10.334   8.618   3.868  1.00  0.00    -0.205 F 
ATOM     80  C   UNL     1      13.828   7.605   4.289  1.00  0.00     0.022 A 
BRANCH  78  81
ATOM     81  S   UNL     1      12.488   7.608   1.902  1.00  0.00     0.127 S 
ATOM     82  O   UNL     1      13.206   8.763   1.369  1.00  0.00    -0.237 OA
ATOM     83  O   UNL     1      13.181   6.328   1.751  1.00  0.00    -0.237 OA
ATOM     84  O   UNL     1      11.062   7.553   1.606  1.00  0.00    -0.744 OA
ENDBRANCH  78  81
ENDBRANCH  50  74
BRANCH  62  85
ATOM     85  C   UNL     1      10.322  13.800  10.057  1.00  0.00     0.023 A 
ATOM     86  C   UNL     1      10.452  14.866   9.147  1.00  0.00     0.012 A 
ATOM     87  C   UNL     1      10.862  13.921  11.352  1.00  0.00     0.148 A 
ATOM     88  C   UNL     1      11.130  16.028   9.513  1.00  0.00     0.002 A 
ATOM     89  C   UNL     1      11.498  15.099  11.724  1.00  0.00     0.091 A 
ATOM     90  F   UNL     1      10.746  12.884  12.195  1.00  0.00    -0.205 F 
ATOM     91  C   UNL     1      11.640  16.150  10.803  1.00  0.00     0.022 A 
BRANCH  89  92
ATOM     92  S   UNL     1      12.096  15.372  13.396  1.00  0.00     0.127 S 
ATOM     93  O   UNL     1      13.532  15.148  13.239  1.00  0.00    -0.237 OA
ATOM     94  O   UNL     1      11.719  16.765  13.642  1.00  0.00    -0.237 OA
ATOM     95  O   UNL     1      11.394  14.405  14.229  1.00  0.00    -0.744 OA
ENDBRANCH  89  92
ENDBRANCH  62  85
ENDBRANCH  36  37
ENDBRANCH  28  31
ENDBRANCH  26  27
ENDBRANCH  25  26
ENDBRANCH   1  25
TORSDOF 17
