REMARK SMILES CN(CC1CCC1)C(=O)N(CC(=O)NCCCCNC(=O)c1ccc(-c2c3nc(c(-c4cccc(S(=O)(=O)[O-])c4F)c4ccc([nH]4)c(-c4cccc(S(=O)(=O)[O-])c4F)c4nc(c(-c5cccc(S(=O)(=O)[O-])c5F)c5ccc2[nH]5)C=C4)C=C3)cc1)C(C)(C)C
REMARK SMILES IDX 15 1 14 2 12 3 13 4 11 6 10 7 8 8 9 9 2 10 1 11 3 12 4 13
REMARK SMILES IDX 5 14 7 15 6 16 85 17 86 18 87 19 88 20 16 21 17 22 18 23
REMARK SMILES IDX 19 24 20 25 21 27 22 28 23 29 84 30 24 31 83 32 25 33 26 34
REMARK SMILES IDX 27 35 77 36 28 37 82 38 76 39 78 40 29 41 81 42 75 43 74 44
REMARK SMILES IDX 30 46 62 47 42 48 61 49 43 50 46 51 60 52 79 53 44 54 45 55
REMARK SMILES IDX 59 57 80 58 47 59 31 60 32 61 40 62 33 63 35 64 41 65 34 66
REMARK SMILES IDX 36 67 37 68 38 69 39 70 63 71 64 72 72 73 65 74 67 75 73 76
REMARK SMILES IDX 66 77 68 78 69 79 70 80 71 81 48 82 49 83 57 84 50 85 52 86
REMARK SMILES IDX 58 87 51 88 53 89 54 90 55 91 56 92
REMARK H PARENT 14 5 19 26 78 45 46 56
REMARK Flexibility Score: inf
ROOT
ATOM      1  C   UNL     1      -2.035   2.839   2.616  1.00  0.00     0.116 C 
ENDROOT
BRANCH   1   2
ATOM      2  N   UNL     1      -2.281   4.250   2.429  1.00  0.00    -0.355 N 
ATOM      3  C   UNL     1      -1.712   5.102   1.530  1.00  0.00     0.239 C 
ATOM      4  O   UNL     1      -2.314   6.155   1.286  1.00  0.00    -0.273 OA
ATOM      5  H   UNL     1      -2.950   4.650   3.032  1.00  0.00     0.163 HD
BRANCH   3   6
ATOM      6  C   UNL     1      -0.472   4.729   0.694  1.00  0.00     0.221 C 
BRANCH   6   7
ATOM      7  N   UNL     1       0.650   4.013   1.306  1.00  0.00    -0.311 N 
BRANCH   7   8
ATOM      8  C   UNL     1       0.985   2.679   1.068  1.00  0.00     0.320 C 
ATOM      9  O   UNL     1       1.847   2.134   1.771  1.00  0.00    -0.248 OA
BRANCH   8  10
ATOM     10  N   UNL     1       0.318   1.874   0.141  1.00  0.00    -0.327 N 
ATOM     11  C   UNL     1       0.629   0.448   0.307  1.00  0.00     0.148 C 
BRANCH  10  12
ATOM     12  C   UNL     1      -0.177   2.204  -1.204  1.00  0.00     0.124 C 
BRANCH  12  13
ATOM     13  C   UNL     1      -1.651   1.794  -1.412  1.00  0.00     0.008 C 
ATOM     14  C   UNL     1      -2.437   0.786  -0.513  1.00  0.00     0.005 C 
ATOM     15  C   UNL     1      -2.817   2.792  -1.152  1.00  0.00     0.005 C 
ATOM     16  C   UNL     1      -3.714   1.600  -0.794  1.00  0.00     0.001 C 
ENDBRANCH  12  13
ENDBRANCH  10  12
ENDBRANCH   8  10
ENDBRANCH   7   8
BRANCH   7  17
ATOM     17  C   UNL     1       1.371   4.747   2.441  1.00  0.00     0.037 C 
ATOM     18  C   UNL     1       1.000   4.143   3.815  1.00  0.00     0.034 C 
ATOM     19  C   UNL     1       2.908   4.711   2.261  1.00  0.00     0.034 C 
ATOM     20  C   UNL     1       1.026   6.262   2.540  1.00  0.00     0.034 C 
ENDBRANCH   7  17
ENDBRANCH   6   7
ENDBRANCH   3   6
ENDBRANCH   1   2
BRANCH   1  21
ATOM     21  C   UNL     1      -2.269   2.342   4.035  1.00  0.00     0.023 C 
BRANCH  21  22
ATOM     22  C   UNL     1      -3.731   2.296   4.459  1.00  0.00     0.023 C 
BRANCH  22  23
ATOM     23  C   UNL     1      -4.641   1.466   3.559  1.00  0.00     0.116 C 
BRANCH  23  24
ATOM     24  N   UNL     1      -4.271   0.057   3.498  1.00  0.00    -0.352 N 
ATOM     25  C   UNL     1      -5.003  -1.050   3.859  1.00  0.00     0.251 C 
ATOM     26  H   UNL     1      -3.369  -0.128   3.149  1.00  0.00     0.163 HD
ATOM     27  O   UNL     1      -4.488  -2.166   3.841  1.00  0.00    -0.269 OA
BRANCH  25  28
ATOM     28  C   UNL     1      -6.402  -0.886   4.309  1.00  0.00     0.039 A 
ATOM     29  C   UNL     1      -6.799  -1.468   5.515  1.00  0.00     0.014 A 
ATOM     30  C   UNL     1      -7.300  -0.107   3.575  1.00  0.00     0.014 A 
ATOM     31  C   UNL     1      -8.067  -1.188   6.031  1.00  0.00     0.010 A 
ATOM     32  C   UNL     1      -8.526   0.242   4.134  1.00  0.00     0.010 A 
ATOM     33  C   UNL     1      -8.922  -0.288   5.372  1.00  0.00    -0.014 A 
BRANCH  33  34
ATOM     34  C   UNL     1     -10.212   0.138   5.978  1.00  0.00     0.031 A 
ATOM     35  C   UNL     1     -11.514  -0.128   5.269  1.00  0.00     0.074 A 
ATOM     36  C   UNL     1     -10.206   0.853   7.122  1.00  0.00     0.049 A 
ATOM     37  N   UNL     1     -12.726   0.217   5.619  1.00  0.00    -0.248 NA
ATOM     38  C   UNL     1     -11.445  -0.849   3.987  1.00  0.00     0.031 C 
ATOM     39  C   UNL     1      -9.008   1.264   7.860  1.00  0.00     0.029 A 
ATOM     40  N   UNL     1     -11.240   1.390   7.851  1.00  0.00    -0.354 N 
ATOM     41  C   UNL     1     -13.556  -0.206   4.588  1.00  0.00     0.074 A 
ATOM     42  C   UNL     1     -12.708  -0.809   3.584  1.00  0.00     0.031 C 
ATOM     43  C   UNL     1      -9.375   1.984   8.932  1.00  0.00     0.029 A 
ATOM     44  C   UNL     1     -10.828   2.113   8.948  1.00  0.00     0.049 A 
ATOM     45  H   UNL     1     -12.187   1.268   7.612  1.00  0.00     0.167 HD
ATOM     46  C   UNL     1     -14.904  -0.127   4.497  1.00  0.00     0.034 A 
ATOM     47  C   UNL     1     -11.538   2.810   9.858  1.00  0.00     0.034 A 
ATOM     48  C   UNL     1     -15.753   0.419   5.520  1.00  0.00     0.049 A 
ATOM     49  C   UNL     1     -13.040   2.824   9.762  1.00  0.00     0.074 A 
ATOM     50  C   UNL     1     -17.136   0.440   5.566  1.00  0.00     0.029 A 
ATOM     51  N   UNL     1     -15.305   1.048   6.670  1.00  0.00    -0.354 N 
ATOM     52  N   UNL     1     -13.816   2.253   8.873  1.00  0.00    -0.248 NA
ATOM     53  C   UNL     1     -13.768   3.546  10.817  1.00  0.00     0.031 C 
ATOM     54  C   UNL     1     -17.525   1.104   6.734  1.00  0.00     0.029 A 
ATOM     55  C   UNL     1     -16.384   1.471   7.428  1.00  0.00     0.049 A 
ATOM     56  H   UNL     1     -14.360   1.175   6.913  1.00  0.00     0.167 HD
ATOM     57  C   UNL     1     -15.119   2.514   9.281  1.00  0.00     0.074 A 
ATOM     58  C   UNL     1     -15.029   3.274  10.510  1.00  0.00     0.031 C 
ATOM     59  C   UNL     1     -16.285   2.172   8.681  1.00  0.00     0.034 A 
BRANCH  46  60
ATOM     60  C   UNL     1     -15.565  -0.700   3.271  1.00  0.00     0.023 A 
ATOM     61  C   UNL     1     -15.636  -2.099   3.109  1.00  0.00     0.012 A 
ATOM     62  C   UNL     1     -16.197   0.139   2.332  1.00  0.00     0.148 A 
ATOM     63  C   UNL     1     -16.306  -2.654   2.020  1.00  0.00     0.002 A 
ATOM     64  C   UNL     1     -16.900  -0.423   1.273  1.00  0.00     0.091 A 
ATOM     65  F   UNL     1     -16.101   1.466   2.494  1.00  0.00    -0.205 F 
ATOM     66  C   UNL     1     -16.947  -1.818   1.110  1.00  0.00     0.022 A 
BRANCH  64  67
ATOM     67  S   UNL     1     -17.828   0.561   0.091  1.00  0.00     0.127 S 
ATOM     68  O   UNL     1     -17.059   0.353  -1.135  1.00  0.00    -0.237 OA
ATOM     69  O   UNL     1     -19.136  -0.094   0.109  1.00  0.00    -0.237 OA
ATOM     70  O   UNL     1     -17.821   1.923   0.606  1.00  0.00    -0.744 OA
ENDBRANCH  64  67
ENDBRANCH  46  60
BRANCH  47  71
ATOM     71  C   UNL     1     -10.843   3.509  10.977  1.00  0.00     0.023 A 
ATOM     72  C   UNL     1     -10.996   3.033  12.295  1.00  0.00     0.012 A 
ATOM     73  C   UNL     1     -10.034   4.638  10.747  1.00  0.00     0.148 A 
ATOM     74  C   UNL     1     -10.391   3.693  13.365  1.00  0.00     0.002 A 
ATOM     75  C   UNL     1      -9.388   5.256  11.811  1.00  0.00     0.091 A 
ATOM     76  F   UNL     1      -9.912   5.087   9.490  1.00  0.00    -0.205 F 
ATOM     77  C   UNL     1      -9.581   4.798  13.123  1.00  0.00     0.022 A 
BRANCH  75  78
ATOM     78  S   UNL     1      -8.220   6.599  11.570  1.00  0.00     0.127 S 
ATOM     79  O   UNL     1      -8.998   7.755  12.007  1.00  0.00    -0.237 OA
ATOM     80  O   UNL     1      -7.126   6.218  12.464  1.00  0.00    -0.237 OA
ATOM     81  O   UNL     1      -7.873   6.561  10.155  1.00  0.00    -0.744 OA
ENDBRANCH  75  78
ENDBRANCH  47  71
BRANCH  59  82
ATOM     82  C   UNL     1     -17.569   2.575   9.359  1.00  0.00     0.023 A 
ATOM     83  C   UNL     1     -17.966   3.927   9.363  1.00  0.00     0.012 A 
ATOM     84  C   UNL     1     -18.417   1.603   9.926  1.00  0.00     0.148 A 
ATOM     85  C   UNL     1     -19.171   4.309   9.951  1.00  0.00     0.002 A 
ATOM     86  C   UNL     1     -19.639   1.985  10.465  1.00  0.00     0.091 A 
ATOM     87  F   UNL     1     -18.013   0.324   9.928  1.00  0.00    -0.205 F 
ATOM     88  C   UNL     1     -20.012   3.338  10.490  1.00  0.00     0.022 A 
BRANCH  86  89
ATOM     89  S   UNL     1     -20.828   0.793  11.091  1.00  0.00     0.127 S 
ATOM     90  O   UNL     1     -20.721   0.996  12.535  1.00  0.00    -0.237 OA
ATOM     91  O   UNL     1     -22.082   1.263  10.501  1.00  0.00    -0.237 OA
ATOM     92  O   UNL     1     -20.385  -0.508  10.607  1.00  0.00    -0.744 OA
ENDBRANCH  86  89
ENDBRANCH  59  82
ENDBRANCH  33  34
ENDBRANCH  25  28
ENDBRANCH  23  24
ENDBRANCH  22  23
ENDBRANCH  21  22
ENDBRANCH   1  21
TORSDOF 20
