REMARK SMILES CSCC[C@@H](NS(=O)(=O)c1ccc(F)c(C)c1)C(=O)NCCCCNC(=O)c1ccc(-c2c3nc(c(-c4cccc(S(=O)(=O)[O-])c4F)c4ccc([nH]4)c(-c4cccc(S(=O)(=O)[O-])c4F)c4nc(c(-c5cccc(S(=O)(=O)[O-])c5F)c5ccc2[nH]5)C=C4)C=C3)cc1
REMARK SMILES IDX 22 1 21 2 20 3 18 4 19 5 5 7 4 8 3 9 2 10 1 11 6 12 7 14
REMARK SMILES IDX 8 15 9 16 10 17 11 18 17 19 12 20 15 21 13 22 16 23 14 24
REMARK SMILES IDX 23 25 24 26 25 27 26 28 27 30 28 31 29 32 90 33 30 34 89 35
REMARK SMILES IDX 31 36 32 37 33 38 83 39 34 40 88 41 82 42 84 43 35 44 87 45
REMARK SMILES IDX 81 46 80 47 36 49 68 50 48 51 67 52 49 53 52 54 66 55 85 56
REMARK SMILES IDX 50 57 51 58 65 60 86 61 53 62 37 63 38 64 46 65 39 66 41 67
REMARK SMILES IDX 47 68 40 69 42 70 43 71 44 72 45 73 69 74 70 75 78 76 71 77
REMARK SMILES IDX 73 78 79 79 72 80 74 81 75 82 76 83 77 84 54 85 55 86 63 87
REMARK SMILES IDX 56 88 58 89 64 90 57 91 59 92 60 93 61 94 62 95
REMARK H PARENT 20 6 6 13 25 29 84 48 52 59
REMARK Flexibility Score: inf
ROOT
ATOM      1  C   UNL     1       0.461   2.758   5.985  1.00  0.00     0.023 C 
ENDROOT
BRANCH   1   2
ATOM      2  C   UNL     1       1.273   1.552   5.503  1.00  0.00     0.116 C 
BRANCH   2   3
ATOM      3  N   UNL     1       0.405   0.413   5.231  1.00  0.00    -0.355 N 
ATOM      4  C   UNL     1       0.139  -0.262   4.075  1.00  0.00     0.238 C 
ATOM      5  O   UNL     1      -0.661  -1.200   4.128  1.00  0.00    -0.273 OA
ATOM      6  H   UNL     1      -0.073   0.070   6.021  1.00  0.00     0.163 HD
BRANCH   4   7
ATOM      7  C   UNL     1       0.814   0.120   2.755  1.00  0.00     0.159 C 
BRANCH   7   8
ATOM      8  C   UNL     1       0.362   1.529   2.330  1.00  0.00     0.041 C 
BRANCH   8   9
ATOM      9  C   UNL     1       0.987   2.128   1.075  1.00  0.00     0.071 C 
BRANCH   9  10
ATOM     10  S   UNL     1       0.218   1.590  -0.484  1.00  0.00    -0.165 SA
ATOM     11  C   UNL     1       1.023  -0.015  -0.690  1.00  0.00     0.085 C 
ENDBRANCH   9  10
ENDBRANCH   8   9
ENDBRANCH   7   8
BRANCH   7  12
ATOM     12  N   UNL     1       2.274  -0.038   2.855  1.00  0.00    -0.199 NA
ATOM     13  H   UNL     1       2.537   0.294   3.783  1.00  0.00     0.142 HD
BRANCH  12  14
ATOM     14  S   UNL     1       3.014  -1.537   2.662  1.00  0.00     0.241 S 
ATOM     15  O   UNL     1       2.310  -2.216   1.597  1.00  0.00    -0.207 OA
ATOM     16  O   UNL     1       4.432  -1.263   2.563  1.00  0.00    -0.207 OA
BRANCH  14  17
ATOM     17  C   UNL     1       2.768  -2.463   4.160  1.00  0.00     0.082 A 
ATOM     18  C   UNL     1       2.638  -1.816   5.389  1.00  0.00     0.025 A 
ATOM     19  C   UNL     1       2.703  -3.864   4.096  1.00  0.00     0.028 A 
ATOM     20  C   UNL     1       2.295  -2.546   6.527  1.00  0.00     0.041 A 
ATOM     21  C   UNL     1       2.455  -4.611   5.260  1.00  0.00    -0.014 A 
ATOM     22  C   UNL     1       2.192  -3.930   6.451  1.00  0.00     0.126 A 
ATOM     23  C   UNL     1       2.482  -6.109   5.258  1.00  0.00     0.047 C 
ATOM     24  F   UNL     1       1.853  -4.616   7.552  1.00  0.00    -0.207 F 
ENDBRANCH  14  17
ENDBRANCH  12  14
ENDBRANCH   7  12
ENDBRANCH   4   7
ENDBRANCH   2   3
ENDBRANCH   1   2
BRANCH   1  25
ATOM     25  C   UNL     1      -0.282   2.537   7.310  1.00  0.00     0.023 C 
BRANCH  25  26
ATOM     26  C   UNL     1       0.650   2.230   8.465  1.00  0.00     0.116 C 
BRANCH  26  27
ATOM     27  N   UNL     1       1.470   3.377   8.849  1.00  0.00    -0.352 N 
ATOM     28  C   UNL     1       2.157   3.542  10.037  1.00  0.00     0.251 C 
ATOM     29  H   UNL     1       1.541   4.107   8.193  1.00  0.00     0.163 HD
ATOM     30  O   UNL     1       2.385   4.649  10.512  1.00  0.00    -0.269 OA
BRANCH  28  31
ATOM     31  C   UNL     1       2.633   2.322  10.708  1.00  0.00     0.039 A 
ATOM     32  C   UNL     1       2.824   2.230  12.091  1.00  0.00     0.014 A 
ATOM     33  C   UNL     1       2.965   1.260   9.874  1.00  0.00     0.014 A 
ATOM     34  C   UNL     1       3.349   1.050  12.614  1.00  0.00     0.010 A 
ATOM     35  C   UNL     1       3.206   0.035  10.399  1.00  0.00     0.010 A 
ATOM     36  C   UNL     1       3.542  -0.028  11.745  1.00  0.00    -0.014 A 
BRANCH  36  37
ATOM     37  C   UNL     1       4.246  -1.254  12.059  1.00  0.00     0.031 A 
ATOM     38  C   UNL     1       3.656  -2.200  12.996  1.00  0.00     0.074 A 
ATOM     39  C   UNL     1       5.347  -1.493  11.310  1.00  0.00     0.049 A 
ATOM     40  N   UNL     1       4.323  -2.904  13.837  1.00  0.00    -0.248 NA
ATOM     41  C   UNL     1       2.211  -2.384  13.101  1.00  0.00     0.031 C 
ATOM     42  C   UNL     1       6.112  -2.706  11.102  1.00  0.00     0.029 A 
ATOM     43  N   UNL     1       6.064  -0.536  10.598  1.00  0.00    -0.354 N 
ATOM     44  C   UNL     1       3.473  -3.914  14.228  1.00  0.00     0.074 A 
ATOM     45  C   UNL     1       2.144  -3.423  13.942  1.00  0.00     0.031 C 
ATOM     46  C   UNL     1       7.308  -2.378  10.568  1.00  0.00     0.029 A 
ATOM     47  C   UNL     1       7.396  -0.922  10.521  1.00  0.00     0.049 A 
ATOM     48  H   UNL     1       5.686   0.286  10.209  1.00  0.00     0.167 HD
ATOM     49  C   UNL     1       3.989  -5.154  14.474  1.00  0.00     0.034 A 
ATOM     50  C   UNL     1       8.320  -0.140  11.159  1.00  0.00     0.034 A 
ATOM     51  C   UNL     1       5.424  -5.161  14.189  1.00  0.00     0.049 A 
ATOM     52  C   UNL     1       8.847  -0.865  12.372  1.00  0.00     0.074 A 
ATOM     53  C   UNL     1       6.137  -5.623  13.093  1.00  0.00     0.029 A 
ATOM     54  N   UNL     1       6.282  -4.321  14.887  1.00  0.00    -0.354 N 
ATOM     55  N   UNL     1       8.161  -1.752  13.042  1.00  0.00    -0.248 NA
ATOM     56  C   UNL     1      10.200  -0.691  12.882  1.00  0.00     0.031 C 
ATOM     57  C   UNL     1       7.414  -5.010  13.108  1.00  0.00     0.029 A 
ATOM     58  C   UNL     1       7.478  -4.177  14.212  1.00  0.00     0.049 A 
ATOM     59  H   UNL     1       6.067  -3.888  15.745  1.00  0.00     0.167 HD
ATOM     60  C   UNL     1       8.970  -2.325  13.987  1.00  0.00     0.074 A 
ATOM     61  C   UNL     1      10.226  -1.607  13.866  1.00  0.00     0.031 C 
ATOM     62  C   UNL     1       8.557  -3.368  14.765  1.00  0.00     0.034 A 
BRANCH  49  63
ATOM     63  C   UNL     1       3.156  -6.417  14.597  1.00  0.00     0.023 A 
ATOM     64  C   UNL     1       1.801  -6.403  14.993  1.00  0.00     0.012 A 
ATOM     65  C   UNL     1       3.702  -7.693  14.322  1.00  0.00     0.148 A 
ATOM     66  C   UNL     1       1.003  -7.557  14.994  1.00  0.00     0.002 A 
ATOM     67  C   UNL     1       2.916  -8.845  14.352  1.00  0.00     0.091 A 
ATOM     68  F   UNL     1       5.002  -7.825  14.035  1.00  0.00    -0.205 F 
ATOM     69  C   UNL     1       1.559  -8.783  14.665  1.00  0.00     0.022 A 
BRANCH  67  70
ATOM     70  S   UNL     1       3.684 -10.429  13.998  1.00  0.00     0.127 S 
ATOM     71  O   UNL     1       4.084 -10.290  12.601  1.00  0.00    -0.237 OA
ATOM     72  O   UNL     1       4.754 -10.508  14.986  1.00  0.00    -0.237 OA
ATOM     73  O   UNL     1       2.596 -11.385  14.219  1.00  0.00    -0.744 OA
ENDBRANCH  67  70
ENDBRANCH  49  63
BRANCH  50  74
ATOM     74  C   UNL     1       7.947   1.321  11.101  1.00  0.00     0.023 A 
ATOM     75  C   UNL     1       7.254   1.930  12.164  1.00  0.00     0.012 A 
ATOM     76  C   UNL     1       7.835   1.897   9.812  1.00  0.00     0.148 A 
ATOM     77  C   UNL     1       6.382   3.004  11.917  1.00  0.00     0.002 A 
ATOM     78  C   UNL     1       6.892   2.894   9.559  1.00  0.00     0.091 A 
ATOM     79  F   UNL     1       8.552   1.362   8.809  1.00  0.00    -0.205 F 
ATOM     80  C   UNL     1       6.163   3.453  10.612  1.00  0.00     0.022 A 
BRANCH  78  81
ATOM     81  S   UNL     1       6.383   3.217   7.858  1.00  0.00     0.127 S 
ATOM     82  O   UNL     1       7.363   4.199   7.409  1.00  0.00    -0.237 OA
ATOM     83  O   UNL     1       6.433   1.906   7.217  1.00  0.00    -0.237 OA
ATOM     84  O   UNL     1       5.015   3.724   7.988  1.00  0.00    -0.744 OA
ENDBRANCH  78  81
ENDBRANCH  50  74
BRANCH  62  85
ATOM     85  C   UNL     1       9.207  -3.846  16.041  1.00  0.00     0.023 A 
ATOM     86  C   UNL     1       8.779  -5.083  16.596  1.00  0.00     0.012 A 
ATOM     87  C   UNL     1      10.130  -3.114  16.796  1.00  0.00     0.148 A 
ATOM     88  C   UNL     1       9.230  -5.555  17.828  1.00  0.00     0.002 A 
ATOM     89  C   UNL     1      10.679  -3.650  17.959  1.00  0.00     0.091 A 
ATOM     90  F   UNL     1      10.455  -1.863  16.450  1.00  0.00    -0.205 F 
ATOM     91  C   UNL     1      10.211  -4.849  18.502  1.00  0.00     0.022 A 
BRANCH  89  92
ATOM     92  S   UNL     1      12.113  -2.840  18.664  1.00  0.00     0.127 S 
ATOM     93  O   UNL     1      13.073  -2.892  17.564  1.00  0.00    -0.237 OA
ATOM     94  O   UNL     1      11.614  -1.518  19.027  1.00  0.00    -0.237 OA
ATOM     95  O   UNL     1      12.457  -3.691  19.804  1.00  0.00    -0.744 OA
ENDBRANCH  89  92
ENDBRANCH  62  85
ENDBRANCH  36  37
ENDBRANCH  28  31
ENDBRANCH  26  27
ENDBRANCH  25  26
ENDBRANCH   1  25
TORSDOF 20
