REMARK SMILES N#Cc1cc2c(nc1N(CC(=O)NCCCCNC(=O)c1ccc(-c3c4nc(c(-c5cccc(S(=O)(=O)[O-])c5F)c5ccc([nH]5)c(-c5cccc(S(=O)(=O)[O-])c5F)c5nc(c(-c6cccc(S(=O)(=O)[O-])c6F)c6ccc3[nH]6)C=C5)C=C4)cc1)CC(F)(F)F)CCC2
REMARK SMILES IDX 15 1 14 2 13 3 11 4 12 5 10 7 9 8 8 9 3 10 4 11 5 12 7 13
REMARK SMILES IDX 6 14 91 15 89 16 90 17 2 18 1 19 84 20 85 21 86 22 87 23
REMARK SMILES IDX 88 24 16 25 17 26 18 27 19 28 20 30 21 31 22 32 83 33 23 34
REMARK SMILES IDX 82 35 24 36 25 37 26 38 76 39 27 40 81 41 75 42 77 43 28 44
REMARK SMILES IDX 80 45 74 46 73 47 29 49 61 50 41 51 60 52 42 53 45 54 59 55
REMARK SMILES IDX 78 56 43 57 44 58 58 60 79 61 46 62 30 63 31 64 39 65 32 66
REMARK SMILES IDX 34 67 40 68 33 69 35 70 36 71 37 72 38 73 62 74 63 75 71 76
REMARK SMILES IDX 64 77 66 78 72 79 65 80 67 81 68 82 69 83 70 84 47 85 48 86
REMARK SMILES IDX 56 87 49 88 51 89 57 90 50 91 52 92 53 93 54 94 55 95
REMARK H PARENT 13 6 18 29 77 48 45 59
REMARK Flexibility Score: inf
ROOT
ATOM      1  C   UNL     1       4.283  -1.758   3.364  1.00  0.00     0.023 C 
ENDROOT
BRANCH   1   2
ATOM      2  C   UNL     1       5.204  -2.769   2.686  1.00  0.00     0.116 C 
BRANCH   2   3
ATOM      3  N   UNL     1       4.498  -3.967   2.283  1.00  0.00    -0.355 N 
ATOM      4  C   UNL     1       4.085  -4.320   1.030  1.00  0.00     0.239 C 
ATOM      5  O   UNL     1       3.468  -5.377   0.881  1.00  0.00    -0.273 OA
ATOM      6  H   UNL     1       4.290  -4.607   3.002  1.00  0.00     0.163 HD
BRANCH   4   7
ATOM      7  C   UNL     1       4.387  -3.409  -0.166  1.00  0.00     0.218 C 
BRANCH   7   8
ATOM      8  N   UNL     1       3.546  -2.180  -0.188  1.00  0.00    -0.337 N 
BRANCH   8   9
ATOM      9  C   UNL     1       4.187  -0.952  -0.245  1.00  0.00     0.147 A 
ATOM     10  C   UNL     1       3.582   0.323  -0.341  1.00  0.00     0.095 A 
ATOM     11  C   UNL     1       4.356   1.500  -0.228  1.00  0.00     0.029 A 
ATOM     12  C   UNL     1       5.718   1.387  -0.103  1.00  0.00    -0.025 A 
ATOM     13  N   UNL     1       5.549  -1.009  -0.173  1.00  0.00    -0.234 NA
ATOM     14  C   UNL     1       6.265   0.126  -0.110  1.00  0.00     0.046 A 
ATOM     15  C   UNL     1       6.764   2.435   0.068  1.00  0.00     0.038 C 
ATOM     16  C   UNL     1       7.762   0.184   0.022  1.00  0.00     0.057 C 
ATOM     17  C   UNL     1       8.025   1.655  -0.335  1.00  0.00     0.011 C 
BRANCH  10  18
ATOM     18  C   UNL     1       2.195   0.537  -0.622  1.00  0.00     0.103 C 
ATOM     19  N   UNL     1       1.085   0.736  -0.888  1.00  0.00    -0.192 NA
ENDBRANCH  10  18
ENDBRANCH   8   9
BRANCH   8  20
ATOM     20  C   UNL     1       2.073  -2.427  -0.193  1.00  0.00     0.234 C 
BRANCH  20  21
ATOM     21  C   UNL     1       1.297  -2.152   1.112  1.00  0.00     0.405 C 
ATOM     22  F   UNL     1       1.545  -0.921   1.611  1.00  0.00    -0.169 F 
ATOM     23  F   UNL     1      -0.035  -2.234   0.889  1.00  0.00    -0.169 F 
ATOM     24  F   UNL     1       1.599  -3.049   2.075  1.00  0.00    -0.169 F 
ENDBRANCH  20  21
ENDBRANCH   8  20
ENDBRANCH   7   8
ENDBRANCH   4   7
ENDBRANCH   2   3
ENDBRANCH   1   2
BRANCH   1  25
ATOM     25  C   UNL     1       3.763  -2.218   4.723  1.00  0.00     0.023 C 
BRANCH  25  26
ATOM     26  C   UNL     1       4.866  -2.508   5.728  1.00  0.00     0.116 C 
BRANCH  26  27
ATOM     27  N   UNL     1       5.705  -1.341   5.980  1.00  0.00    -0.352 N 
ATOM     28  C   UNL     1       6.001  -0.751   7.184  1.00  0.00     0.251 C 
ATOM     29  H   UNL     1       6.112  -0.925   5.186  1.00  0.00     0.163 HD
ATOM     30  O   UNL     1       6.577   0.331   7.230  1.00  0.00    -0.269 OA
BRANCH  28  31
ATOM     31  C   UNL     1       5.583  -1.441   8.417  1.00  0.00     0.039 A 
ATOM     32  C   UNL     1       4.844  -0.745   9.372  1.00  0.00     0.014 A 
ATOM     33  C   UNL     1       5.846  -2.806   8.566  1.00  0.00     0.014 A 
ATOM     34  C   UNL     1       4.320  -1.440  10.460  1.00  0.00     0.010 A 
ATOM     35  C   UNL     1       5.229  -3.512   9.588  1.00  0.00     0.010 A 
ATOM     36  C   UNL     1       4.482  -2.833  10.561  1.00  0.00    -0.014 A 
BRANCH  36  37
ATOM     37  C   UNL     1       3.912  -3.581  11.707  1.00  0.00     0.031 A 
ATOM     38  C   UNL     1       4.830  -4.301  12.657  1.00  0.00     0.074 A 
ATOM     39  C   UNL     1       2.576  -3.627  11.882  1.00  0.00     0.049 A 
ATOM     40  N   UNL     1       4.530  -4.955  13.747  1.00  0.00    -0.248 NA
ATOM     41  C   UNL     1       6.269  -4.308  12.335  1.00  0.00     0.031 C 
ATOM     42  C   UNL     1       1.584  -3.035  10.982  1.00  0.00     0.029 A 
ATOM     43  N   UNL     1       1.822  -4.197  12.877  1.00  0.00    -0.354 N 
ATOM     44  C   UNL     1       5.732  -5.458  14.227  1.00  0.00     0.074 A 
ATOM     45  C   UNL     1       6.758  -5.094  13.280  1.00  0.00     0.031 C 
ATOM     46  C   UNL     1       0.357  -3.238  11.486  1.00  0.00     0.029 A 
ATOM     47  C   UNL     1       0.469  -3.998  12.728  1.00  0.00     0.049 A 
ATOM     48  H   UNL     1       2.213  -4.700  13.628  1.00  0.00     0.167 HD
ATOM     49  C   UNL     1       5.972  -6.117  15.383  1.00  0.00     0.034 A 
ATOM     50  C   UNL     1      -0.563  -4.377  13.510  1.00  0.00     0.034 A 
ATOM     51  C   UNL     1       4.954  -6.436  16.342  1.00  0.00     0.049 A 
ATOM     52  C   UNL     1      -0.270  -5.112  14.793  1.00  0.00     0.074 A 
ATOM     53  C   UNL     1       5.103  -7.036  17.578  1.00  0.00     0.029 A 
ATOM     54  N   UNL     1       3.600  -6.192  16.171  1.00  0.00    -0.354 N 
ATOM     55  N   UNL     1       0.891  -5.427  15.315  1.00  0.00    -0.248 NA
ATOM     56  C   UNL     1      -1.424  -5.518  15.610  1.00  0.00     0.031 C 
ATOM     57  C   UNL     1       3.834  -7.193  18.138  1.00  0.00     0.029 A 
ATOM     58  C   UNL     1       2.898  -6.654  17.268  1.00  0.00     0.049 A 
ATOM     59  H   UNL     1       3.199  -5.755  15.385  1.00  0.00     0.167 HD
ATOM     60  C   UNL     1       0.611  -6.048  16.527  1.00  0.00     0.074 A 
ATOM     61  C   UNL     1      -0.830  -6.038  16.677  1.00  0.00     0.031 C 
ATOM     62  C   UNL     1       1.467  -6.594  17.425  1.00  0.00     0.034 A 
BRANCH  49  63
ATOM     63  C   UNL     1       7.397  -6.477  15.709  1.00  0.00     0.023 A 
ATOM     64  C   UNL     1       8.311  -5.455  16.040  1.00  0.00     0.012 A 
ATOM     65  C   UNL     1       7.808  -7.822  15.773  1.00  0.00     0.148 A 
ATOM     66  C   UNL     1       9.620  -5.764  16.404  1.00  0.00     0.002 A 
ATOM     67  C   UNL     1       9.099  -8.124  16.189  1.00  0.00     0.091 A 
ATOM     68  F   UNL     1       6.930  -8.776  15.434  1.00  0.00    -0.205 F 
ATOM     69  C   UNL     1      10.009  -7.098  16.492  1.00  0.00     0.022 A 
BRANCH  67  70
ATOM     70  S   UNL     1       9.674  -9.809  16.424  1.00  0.00     0.127 S 
ATOM     71  O   UNL     1      10.711  -9.912  15.397  1.00  0.00    -0.237 OA
ATOM     72  O   UNL     1      10.178  -9.769  17.797  1.00  0.00    -0.237 OA
ATOM     73  O   UNL     1       8.515 -10.665  16.220  1.00  0.00    -0.744 OA
ENDBRANCH  67  70
ENDBRANCH  49  63
BRANCH  50  74
ATOM     74  C   UNL     1      -1.957  -3.999  13.138  1.00  0.00     0.023 A 
ATOM     75  C   UNL     1      -2.655  -3.062  13.924  1.00  0.00     0.012 A 
ATOM     76  C   UNL     1      -2.579  -4.526  11.988  1.00  0.00     0.148 A 
ATOM     77  C   UNL     1      -3.953  -2.675  13.588  1.00  0.00     0.002 A 
ATOM     78  C   UNL     1      -3.850  -4.093  11.627  1.00  0.00     0.091 A 
ATOM     79  F   UNL     1      -1.904  -5.424  11.258  1.00  0.00    -0.205 F 
ATOM     80  C   UNL     1      -4.546  -3.180  12.434  1.00  0.00     0.022 A 
BRANCH  78  81
ATOM     81  S   UNL     1      -4.641  -4.586  10.091  1.00  0.00     0.127 S 
ATOM     82  O   UNL     1      -5.789  -5.346  10.576  1.00  0.00    -0.237 OA
ATOM     83  O   UNL     1      -4.966  -3.290   9.495  1.00  0.00    -0.237 OA
ATOM     84  O   UNL     1      -3.642  -5.354   9.360  1.00  0.00    -0.744 OA
ENDBRANCH  78  81
ENDBRANCH  50  74
BRANCH  62  85
ATOM     85  C   UNL     1       0.897  -7.238  18.662  1.00  0.00     0.023 A 
ATOM     86  C   UNL     1       0.250  -8.484  18.555  1.00  0.00     0.012 A 
ATOM     87  C   UNL     1       1.153  -6.696  19.938  1.00  0.00     0.148 A 
ATOM     88  C   UNL     1      -0.141  -9.179  19.698  1.00  0.00     0.002 A 
ATOM     89  C   UNL     1       0.810  -7.419  21.073  1.00  0.00     0.091 A 
ATOM     90  F   UNL     1       1.765  -5.505  20.013  1.00  0.00    -0.205 F 
ATOM     91  C   UNL     1       0.155  -8.656  20.955  1.00  0.00     0.022 A 
BRANCH  89  92
ATOM     92  S   UNL     1       1.252  -6.888  22.732  1.00  0.00     0.127 S 
ATOM     93  O   UNL     1      -0.063  -6.684  23.338  1.00  0.00    -0.237 OA
ATOM     94  O   UNL     1       1.984  -8.048  23.240  1.00  0.00    -0.237 OA
ATOM     95  O   UNL     1       2.051  -5.681  22.573  1.00  0.00    -0.744 OA
ENDBRANCH  89  92
ENDBRANCH  62  85
ENDBRANCH  36  37
ENDBRANCH  28  31
ENDBRANCH  26  27
ENDBRANCH  25  26
ENDBRANCH   1  25
TORSDOF 19
