REMARK SMILES O=C(CN(Cc1ccccc1Cl)S(=O)(=O)c1ccc(Cl)cc1)NCCCCNC(=O)c1ccc(-c2c3nc(c(-c4cccc(S(=O)(=O)[O-])c4F)c4ccc([nH]4)c(-c4cccc(S(=O)(=O)[O-])c4F)c4nc(c(-c5cccc(S(=O)(=O)[O-])c5F)c5ccc2[nH]5)C=C4)C=C3)cc1
REMARK SMILES IDX 25 1 24 2 23 3 1 4 2 5 3 7 4 8 5 9 6 10 7 11 11 12 8 13
REMARK SMILES IDX 10 14 12 15 9 16 13 17 14 18 15 19 16 20 17 21 22 22 18 23
REMARK SMILES IDX 21 24 19 25 20 26 26 27 27 28 28 29 29 30 30 32 31 33 32 34
REMARK SMILES IDX 93 35 33 36 92 37 34 38 35 39 36 40 86 41 37 42 91 43 85 44
REMARK SMILES IDX 87 45 38 46 90 47 84 48 83 49 39 51 71 52 51 53 70 54 52 55
REMARK SMILES IDX 55 56 69 57 88 58 53 59 54 60 68 62 89 63 56 64 40 65 41 66
REMARK SMILES IDX 49 67 42 68 44 69 50 70 43 71 45 72 46 73 47 74 48 75 72 76
REMARK SMILES IDX 73 77 81 78 74 79 76 80 82 81 75 82 77 83 78 84 79 85 80 86
REMARK SMILES IDX 57 87 58 88 66 89 59 90 61 91 67 92 60 93 62 94 63 95 64 96
REMARK SMILES IDX 65 97
REMARK H PARENT 23 6 28 31 87 50 55 61
REMARK Flexibility Score: inf
ROOT
ATOM      1  C   UNL     1       2.389   2.889   1.995  1.00  0.00     0.023 C 
ENDROOT
BRANCH   1   2
ATOM      2  C   UNL     1       2.027   2.449   0.578  1.00  0.00     0.116 C 
BRANCH   2   3
ATOM      3  N   UNL     1       2.712   1.234   0.195  1.00  0.00    -0.355 N 
ATOM      4  O   UNL     1       0.835  -0.098   0.091  1.00  0.00    -0.274 OA
ATOM      5  C   UNL     1       2.048   0.049  -0.042  1.00  0.00     0.235 C 
ATOM      6  H   UNL     1       3.692   1.253   0.100  1.00  0.00     0.163 HD
BRANCH   5   7
ATOM      7  C   UNL     1       2.957  -1.104  -0.410  1.00  0.00     0.202 C 
BRANCH   7   8
ATOM      8  N   UNL     1       3.570  -1.175  -1.768  1.00  0.00    -0.184 NA
BRANCH   8   9
ATOM      9  C   UNL     1       4.259  -2.479  -1.980  1.00  0.00     0.140 C 
BRANCH   9  10
ATOM     10  C   UNL     1       3.470  -3.764  -2.180  1.00  0.00    -0.014 A 
ATOM     11  C   UNL     1       2.067  -3.817  -2.217  1.00  0.00     0.006 A 
ATOM     12  C   UNL     1       4.156  -4.989  -2.325  1.00  0.00     0.045 A 
ATOM     13  C   UNL     1       1.379  -5.017  -2.428  1.00  0.00     0.000 A 
ATOM     14  C   UNL     1       3.468  -6.194  -2.517  1.00  0.00     0.021 A 
ATOM     15  Cl  UNL     1       5.883  -5.078  -2.265  1.00  0.00    -0.084 Cl
ATOM     16  C   UNL     1       2.078  -6.207  -2.579  1.00  0.00     0.002 A 
ENDBRANCH   9  10
ENDBRANCH   8   9
BRANCH   8  17
ATOM     17  S   UNL     1       2.817  -0.367  -3.055  1.00  0.00     0.243 S 
ATOM     18  O   UNL     1       1.710  -1.161  -3.549  1.00  0.00    -0.207 OA
ATOM     19  O   UNL     1       2.605   1.002  -2.652  1.00  0.00    -0.207 OA
BRANCH  17  20
ATOM     20  C   UNL     1       4.016  -0.304  -4.380  1.00  0.00     0.082 A 
ATOM     21  C   UNL     1       4.246  -1.437  -5.170  1.00  0.00     0.023 A 
ATOM     22  C   UNL     1       4.593   0.925  -4.728  1.00  0.00     0.023 A 
ATOM     23  C   UNL     1       5.101  -1.353  -6.271  1.00  0.00     0.022 A 
ATOM     24  C   UNL     1       5.423   1.010  -5.851  1.00  0.00     0.022 A 
ATOM     25  C   UNL     1       5.679  -0.129  -6.612  1.00  0.00     0.041 A 
ATOM     26  Cl  UNL     1       6.683  -0.021  -8.004  1.00  0.00    -0.084 Cl
ENDBRANCH  17  20
ENDBRANCH   8  17
ENDBRANCH   7   8
ENDBRANCH   5   7
ENDBRANCH   2   3
ENDBRANCH   1   2
BRANCH   1  27
ATOM     27  C   UNL     1       3.879   3.149   2.238  1.00  0.00     0.023 C 
BRANCH  27  28
ATOM     28  C   UNL     1       4.548   4.135   1.284  1.00  0.00     0.116 C 
BRANCH  28  29
ATOM     29  N   UNL     1       3.951   5.460   1.321  1.00  0.00    -0.352 N 
ATOM     30  C   UNL     1       4.557   6.691   1.400  1.00  0.00     0.251 C 
ATOM     31  H   UNL     1       2.967   5.478   1.285  1.00  0.00     0.163 HD
ATOM     32  O   UNL     1       3.869   7.698   1.543  1.00  0.00    -0.269 OA
BRANCH  30  33
ATOM     33  C   UNL     1       6.033   6.809   1.343  1.00  0.00     0.039 A 
ATOM     34  C   UNL     1       6.674   7.653   2.256  1.00  0.00     0.014 A 
ATOM     35  C   UNL     1       6.785   6.111   0.394  1.00  0.00     0.014 A 
ATOM     36  C   UNL     1       8.069   7.743   2.263  1.00  0.00     0.010 A 
ATOM     37  C   UNL     1       8.178   6.157   0.440  1.00  0.00     0.010 A 
ATOM     38  C   UNL     1       8.835   6.970   1.376  1.00  0.00    -0.014 A 
BRANCH  38  39
ATOM     39  C   UNL     1      10.321   6.976   1.430  1.00  0.00     0.031 A 
ATOM     40  C   UNL     1      11.126   7.495   0.269  1.00  0.00     0.074 A 
ATOM     41  C   UNL     1      10.949   6.422   2.486  1.00  0.00     0.049 A 
ATOM     42  N   UNL     1      12.424   7.515   0.111  1.00  0.00    -0.248 NA
ATOM     43  C   UNL     1      10.374   8.039  -0.874  1.00  0.00     0.031 C 
ATOM     44  C   UNL     1      10.285   5.813   3.640  1.00  0.00     0.029 A 
ATOM     45  N   UNL     1      12.287   6.255   2.747  1.00  0.00    -0.354 N 
ATOM     46  C   UNL     1      12.646   8.033  -1.159  1.00  0.00     0.074 A 
ATOM     47  C   UNL     1      11.346   8.295  -1.739  1.00  0.00     0.031 C 
ATOM     48  C   UNL     1      11.216   5.338   4.484  1.00  0.00     0.029 A 
ATOM     49  C   UNL     1      12.541   5.588   3.924  1.00  0.00     0.049 A 
ATOM     50  H   UNL     1      12.997   6.581   2.149  1.00  0.00     0.167 HD
ATOM     51  C   UNL     1      13.823   8.295  -1.776  1.00  0.00     0.034 A 
ATOM     52  C   UNL     1      13.707   5.218   4.488  1.00  0.00     0.034 A 
ATOM     53  C   UNL     1      15.114   8.096  -1.175  1.00  0.00     0.049 A 
ATOM     54  C   UNL     1      15.000   5.577   3.808  1.00  0.00     0.074 A 
ATOM     55  C   UNL     1      16.358   8.430  -1.681  1.00  0.00     0.029 A 
ATOM     56  N   UNL     1      15.330   7.512   0.062  1.00  0.00    -0.354 N 
ATOM     57  N   UNL     1      15.188   6.223   2.683  1.00  0.00    -0.248 NA
ATOM     58  C   UNL     1      16.243   5.188   4.491  1.00  0.00     0.031 C 
ATOM     59  C   UNL     1      17.328   8.042  -0.750  1.00  0.00     0.029 A 
ATOM     60  C   UNL     1      16.686   7.471   0.337  1.00  0.00     0.049 A 
ATOM     61  H   UNL     1      14.623   7.176   0.659  1.00  0.00     0.167 HD
ATOM     62  C   UNL     1      16.565   6.348   2.540  1.00  0.00     0.074 A 
ATOM     63  C   UNL     1      17.165   5.729   3.704  1.00  0.00     0.031 C 
ATOM     64  C   UNL     1      17.270   6.910   1.527  1.00  0.00     0.034 A 
BRANCH  51  65
ATOM     65  C   UNL     1      13.771   8.896  -3.155  1.00  0.00     0.023 A 
ATOM     66  C   UNL     1      13.418  10.253  -3.302  1.00  0.00     0.012 A 
ATOM     67  C   UNL     1      14.133   8.148  -4.292  1.00  0.00     0.148 A 
ATOM     68  C   UNL     1      13.399  10.850  -4.562  1.00  0.00     0.002 A 
ATOM     69  C   UNL     1      14.147   8.760  -5.541  1.00  0.00     0.091 A 
ATOM     70  F   UNL     1      14.441   6.853  -4.135  1.00  0.00    -0.205 F 
ATOM     71  C   UNL     1      13.773  10.107  -5.678  1.00  0.00     0.022 A 
BRANCH  69  72
ATOM     72  S   UNL     1      14.683   7.903  -7.026  1.00  0.00     0.127 S 
ATOM     73  O   UNL     1      13.407   7.631  -7.686  1.00  0.00    -0.237 OA
ATOM     74  O   UNL     1      15.508   8.913  -7.689  1.00  0.00    -0.237 OA
ATOM     75  O   UNL     1      15.417   6.732  -6.566  1.00  0.00    -0.744 OA
ENDBRANCH  69  72
ENDBRANCH  51  65
BRANCH  52  76
ATOM     76  C   UNL     1      13.706   4.540   5.815  1.00  0.00     0.023 A 
ATOM     77  C   UNL     1      14.142   5.254   6.948  1.00  0.00     0.012 A 
ATOM     78  C   UNL     1      13.247   3.219   5.970  1.00  0.00     0.148 A 
ATOM     79  C   UNL     1      14.146   4.655   8.208  1.00  0.00     0.002 A 
ATOM     80  C   UNL     1      13.205   2.645   7.236  1.00  0.00     0.091 A 
ATOM     81  F   UNL     1      12.854   2.548   4.877  1.00  0.00    -0.205 F 
ATOM     82  C   UNL     1      13.667   3.356   8.354  1.00  0.00     0.022 A 
BRANCH  80  83
ATOM     83  S   UNL     1      12.481   1.026   7.524  1.00  0.00     0.127 S 
ATOM     84  O   UNL     1      13.667   0.185   7.656  1.00  0.00    -0.237 OA
ATOM     85  O   UNL     1      11.733   1.238   8.765  1.00  0.00    -0.237 OA
ATOM     86  O   UNL     1      11.640   0.769   6.362  1.00  0.00    -0.744 OA
ENDBRANCH  80  83
ENDBRANCH  52  76
BRANCH  64  87
ATOM     87  C   UNL     1      18.771   6.907   1.634  1.00  0.00     0.023 A 
ATOM     88  C   UNL     1      19.481   5.713   1.405  1.00  0.00     0.012 A 
ATOM     89  C   UNL     1      19.481   8.099   1.878  1.00  0.00     0.148 A 
ATOM     90  C   UNL     1      20.874   5.698   1.441  1.00  0.00     0.002 A 
ATOM     91  C   UNL     1      20.872   8.085   1.872  1.00  0.00     0.091 A 
ATOM     92  F   UNL     1      18.788   9.222   2.117  1.00  0.00    -0.205 F 
ATOM     93  C   UNL     1      21.570   6.885   1.662  1.00  0.00     0.022 A 
BRANCH  91  94
ATOM     94  S   UNL     1      21.842   9.586   2.061  1.00  0.00     0.127 S 
ATOM     95  O   UNL     1      22.262   9.497   3.458  1.00  0.00    -0.237 OA
ATOM     96  O   UNL     1      22.917   9.392   1.087  1.00  0.00    -0.237 OA
ATOM     97  O   UNL     1      20.937  10.683   1.742  1.00  0.00    -0.744 OA
ENDBRANCH  91  94
ENDBRANCH  64  87
ENDBRANCH  38  39
ENDBRANCH  30  33
ENDBRANCH  28  29
ENDBRANCH  27  28
ENDBRANCH   1  27
TORSDOF 19
