REMARK SMILES CC1(C)[C@@H](C(=O)NCCCCNC(=O)c2ccc(-c3c4nc(c(-c5cccc(S(=O)(=O)[O-])c5F)c5ccc([nH]5)c(-c5cccc(S(=O)(=O)[O-])c5F)c5nc(c(-c6cccc(S(=O)(=O)[O-])c6F)c6ccc3[nH]6)C=C5)C=C4)cc2)[C@@H]1C(=O)Nc1ccc(N2CCCCS2(=O)=O)cc1
REMARK SMILES IDX 9 1 8 2 7 3 5 4 6 5 4 7 1 8 2 9 3 10 78 11 79 12 80 13 81 14
REMARK SMILES IDX 82 16 83 17 95 18 84 19 94 20 85 21 86 22 87 23 91 24 88 25
REMARK SMILES IDX 90 26 92 27 93 28 89 29 10 30 11 31 12 32 13 33 14 35 15 36
REMARK SMILES IDX 16 37 77 38 17 39 76 40 18 41 19 42 20 43 70 44 21 45 75 46
REMARK SMILES IDX 69 47 71 48 22 49 74 50 68 51 67 52 23 54 55 55 35 56 54 57
REMARK SMILES IDX 36 58 39 59 53 60 72 61 37 62 38 63 52 65 73 66 40 67 24 68
REMARK SMILES IDX 25 69 33 70 26 71 28 72 34 73 27 74 29 75 30 76 31 77 32 78
REMARK SMILES IDX 56 79 57 80 65 81 58 82 60 83 66 84 59 85 61 86 62 87 63 88
REMARK SMILES IDX 64 89 41 90 42 91 50 92 43 93 45 94 51 95 44 96 46 97 47 98
REMARK SMILES IDX 48 99 49 100
REMARK H PARENT 7 6 81 15 12 34 71 53 39 64
REMARK Flexibility Score: inf
ROOT
ATOM      1  C   UNL     1      -4.728  -1.898   0.243  1.00  0.00     0.023 C 
ENDROOT
BRANCH   1   2
ATOM      2  C   UNL     1      -3.236  -2.236   0.384  1.00  0.00     0.116 C 
BRANCH   2   3
ATOM      3  N   UNL     1      -2.447  -2.195  -0.843  1.00  0.00    -0.356 N 
ATOM      4  C   UNL     1      -1.399  -1.421  -1.291  1.00  0.00     0.224 C 
ATOM      5  O   UNL     1      -0.820  -1.782  -2.313  1.00  0.00    -0.275 OA
ATOM      6  H   UNL     1      -2.728  -2.873  -1.500  1.00  0.00     0.163 HD
BRANCH   4   7
ATOM      7  C   UNL     1      -0.990  -0.107  -0.698  1.00  0.00     0.098 C 
ATOM      8  C   UNL     1       1.122  -1.163   0.292  1.00  0.00     0.013 C 
ATOM      9  C   UNL     1       0.294   0.082   0.082  1.00  0.00    -0.011 C 
ATOM     10  C   UNL     1       1.125   1.313  -0.196  1.00  0.00     0.013 C 
ATOM     11  C   UNL     1      -1.070   0.260   0.766  1.00  0.00     0.098 C 
BRANCH  11  12
ATOM     12  C   UNL     1      -1.523   1.611   1.269  1.00  0.00     0.228 C 
ATOM     13  O   UNL     1      -1.051   1.997   2.338  1.00  0.00    -0.274 OA
ATOM     14  N   UNL     1      -2.392   2.460   0.589  1.00  0.00    -0.326 N 
ATOM     15  H   UNL     1      -2.427   3.375   0.952  1.00  0.00     0.169 HD
BRANCH  14  16
ATOM     16  C   UNL     1      -3.228   2.248  -0.522  1.00  0.00     0.041 A 
ATOM     17  C   UNL     1      -3.743   3.289  -1.287  1.00  0.00     0.028 A 
ATOM     18  C   UNL     1      -3.589   0.974  -0.887  1.00  0.00     0.028 A 
ATOM     19  C   UNL     1      -4.498   3.005  -2.451  1.00  0.00     0.029 A 
ATOM     20  C   UNL     1      -4.258   0.663  -2.065  1.00  0.00     0.029 A 
ATOM     21  C   UNL     1      -4.750   1.684  -2.841  1.00  0.00     0.052 A 
BRANCH  21  22
ATOM     22  N   UNL     1      -5.456   1.382  -4.044  1.00  0.00    -0.270 N 
ATOM     23  C   UNL     1      -4.719   1.371  -5.324  1.00  0.00     0.135 C 
ATOM     24  S   UNL     1      -6.900   0.485  -3.958  1.00  0.00     0.235 S 
ATOM     25  C   UNL     1      -4.414  -0.051  -5.797  1.00  0.00     0.024 C 
ATOM     26  C   UNL     1      -6.421  -1.080  -4.693  1.00  0.00     0.160 C 
ATOM     27  O   UNL     1      -7.235   0.243  -2.564  1.00  0.00    -0.206 OA
ATOM     28  O   UNL     1      -7.842   1.135  -4.840  1.00  0.00    -0.206 OA
ATOM     29  C   UNL     1      -5.679  -0.879  -6.003  1.00  0.00     0.020 C 
ENDBRANCH  21  22
ENDBRANCH  14  16
ENDBRANCH  11  12
ENDBRANCH   4   7
ENDBRANCH   2   3
ENDBRANCH   1   2
BRANCH   1  30
ATOM     30  C   UNL     1      -5.551  -2.866  -0.585  1.00  0.00     0.023 C 
BRANCH  30  31
ATOM     31  C   UNL     1      -5.738  -4.197   0.111  1.00  0.00     0.116 C 
BRANCH  31  32
ATOM     32  N   UNL     1      -6.333  -4.038   1.439  1.00  0.00    -0.352 N 
ATOM     33  C   UNL     1      -7.488  -4.591   1.933  1.00  0.00     0.251 C 
ATOM     34  H   UNL     1      -5.838  -3.458   2.062  1.00  0.00     0.163 HD
ATOM     35  O   UNL     1      -7.988  -4.190   2.976  1.00  0.00    -0.269 OA
BRANCH  33  36
ATOM     36  C   UNL     1      -8.101  -5.681   1.161  1.00  0.00     0.039 A 
ATOM     37  C   UNL     1      -9.456  -5.625   0.840  1.00  0.00     0.014 A 
ATOM     38  C   UNL     1      -7.274  -6.690   0.662  1.00  0.00     0.014 A 
ATOM     39  C   UNL     1      -9.968  -6.553  -0.064  1.00  0.00     0.010 A 
ATOM     40  C   UNL     1      -7.757  -7.526  -0.324  1.00  0.00     0.010 A 
ATOM     41  C   UNL     1      -9.109  -7.473  -0.689  1.00  0.00    -0.014 A 
BRANCH  41  42
ATOM     42  C   UNL     1      -9.583  -8.395  -1.743  1.00  0.00     0.031 A 
ATOM     43  C   UNL     1      -9.442  -9.877  -1.542  1.00  0.00     0.074 A 
ATOM     44  C   UNL     1     -10.013  -7.894  -2.917  1.00  0.00     0.049 A 
ATOM     45  N   UNL     1      -9.678 -10.847  -2.382  1.00  0.00    -0.248 NA
ATOM     46  C   UNL     1      -8.925 -10.326  -0.235  1.00  0.00     0.031 C 
ATOM     47  C   UNL     1     -10.108  -6.469  -3.248  1.00  0.00     0.029 A 
ATOM     48  N   UNL     1     -10.419  -8.528  -4.062  1.00  0.00    -0.354 N 
ATOM     49  C   UNL     1      -9.304 -12.012  -1.725  1.00  0.00     0.074 A 
ATOM     50  C   UNL     1      -8.778 -11.626  -0.436  1.00  0.00     0.031 C 
ATOM     51  C   UNL     1     -10.553  -6.339  -4.507  1.00  0.00     0.029 A 
ATOM     52  C   UNL     1     -10.729  -7.665  -5.088  1.00  0.00     0.049 A 
ATOM     53  H   UNL     1     -10.482  -9.507  -4.144  1.00  0.00     0.167 HD
ATOM     54  C   UNL     1      -9.419 -13.291  -2.147  1.00  0.00     0.034 A 
ATOM     55  C   UNL     1     -11.096  -7.919  -6.358  1.00  0.00     0.034 A 
ATOM     56  C   UNL     1      -9.978 -13.661  -3.416  1.00  0.00     0.049 A 
ATOM     57  C   UNL     1     -11.232  -9.351  -6.798  1.00  0.00     0.074 A 
ATOM     58  C   UNL     1     -10.233 -14.927  -3.907  1.00  0.00     0.029 A 
ATOM     59  N   UNL     1     -10.353 -12.762  -4.404  1.00  0.00    -0.354 N 
ATOM     60  N   UNL     1     -11.032 -10.447  -6.107  1.00  0.00    -0.248 NA
ATOM     61  C   UNL     1     -11.666  -9.583  -8.182  1.00  0.00     0.031 C 
ATOM     62  C   UNL     1     -10.725 -14.796  -5.209  1.00  0.00     0.029 A 
ATOM     63  C   UNL     1     -10.812 -13.447  -5.514  1.00  0.00     0.049 A 
ATOM     64  H   UNL     1     -10.301 -11.782  -4.326  1.00  0.00     0.167 HD
ATOM     65  C   UNL     1     -11.340 -11.499  -6.961  1.00  0.00     0.074 A 
ATOM     66  C   UNL     1     -11.764 -10.905  -8.214  1.00  0.00     0.031 C 
ATOM     67  C   UNL     1     -11.264 -12.834  -6.738  1.00  0.00     0.034 A 
BRANCH  54  68
ATOM     68  C   UNL     1      -8.968 -14.379  -1.208  1.00  0.00     0.023 A 
ATOM     69  C   UNL     1      -9.694 -14.628  -0.024  1.00  0.00     0.012 A 
ATOM     70  C   UNL     1      -7.850 -15.178  -1.514  1.00  0.00     0.148 A 
ATOM     71  C   UNL     1      -9.290 -15.627   0.861  1.00  0.00     0.002 A 
ATOM     72  C   UNL     1      -7.484 -16.206  -0.653  1.00  0.00     0.091 A 
ATOM     73  F   UNL     1      -7.158 -14.910  -2.630  1.00  0.00    -0.205 F 
ATOM     74  C   UNL     1      -8.193 -16.422   0.541  1.00  0.00     0.022 A 
BRANCH  72  75
ATOM     75  S   UNL     1      -6.137 -17.337  -1.012  1.00  0.00     0.127 S 
ATOM     76  O   UNL     1      -5.153 -16.953  -0.000  1.00  0.00    -0.237 OA
ATOM     77  O   UNL     1      -6.765 -18.639  -0.790  1.00  0.00    -0.237 OA
ATOM     78  O   UNL     1      -5.748 -17.075  -2.390  1.00  0.00    -0.744 OA
ENDBRANCH  72  75
ENDBRANCH  54  68
BRANCH  55  79
ATOM     79  C   UNL     1     -11.400  -6.792  -7.284  1.00  0.00     0.023 A 
ATOM     80  C   UNL     1     -12.729  -6.573  -7.696  1.00  0.00     0.012 A 
ATOM     81  C   UNL     1     -10.391  -5.913  -7.724  1.00  0.00     0.148 A 
ATOM     82  C   UNL     1     -13.042  -5.519  -8.554  1.00  0.00     0.002 A 
ATOM     83  C   UNL     1     -10.718  -4.831  -8.533  1.00  0.00     0.091 A 
ATOM     84  F   UNL     1      -9.131  -6.143  -7.328  1.00  0.00    -0.205 F 
ATOM     85  C   UNL     1     -12.040  -4.642  -8.964  1.00  0.00     0.022 A 
BRANCH  83  86
ATOM     86  S   UNL     1      -9.514  -3.579  -8.993  1.00  0.00     0.127 S 
ATOM     87  O   UNL     1      -9.326  -3.853 -10.415  1.00  0.00    -0.237 OA
ATOM     88  O   UNL     1     -10.234  -2.342  -8.693  1.00  0.00    -0.237 OA
ATOM     89  O   UNL     1      -8.353  -3.813  -8.144  1.00  0.00    -0.744 OA
ENDBRANCH  83  86
ENDBRANCH  55  79
BRANCH  67  90
ATOM     90  C   UNL     1     -11.662 -13.753  -7.861  1.00  0.00     0.023 A 
ATOM     91  C   UNL     1     -10.816 -13.900  -8.977  1.00  0.00     0.012 A 
ATOM     92  C   UNL     1     -12.824 -14.544  -7.761  1.00  0.00     0.148 A 
ATOM     93  C   UNL     1     -11.132 -14.803  -9.990  1.00  0.00     0.002 A 
ATOM     94  C   UNL     1     -13.106 -15.479  -8.749  1.00  0.00     0.091 A 
ATOM     95  F   UNL     1     -13.620 -14.378  -6.695  1.00  0.00    -0.205 F 
ATOM     96  C   UNL     1     -12.268 -15.601  -9.870  1.00  0.00     0.022 A 
BRANCH  94  97
ATOM     97  S   UNL     1     -14.488 -16.619  -8.635  1.00  0.00     0.127 S 
ATOM     98  O   UNL     1     -15.328 -16.180  -9.748  1.00  0.00    -0.237 OA
ATOM     99  O   UNL     1     -13.835 -17.913  -8.837  1.00  0.00    -0.237 OA
ATOM    100  O   UNL     1     -15.065 -16.428  -7.311  1.00  0.00    -0.744 OA
ENDBRANCH  94  97
ENDBRANCH  67  90
ENDBRANCH  41  42
ENDBRANCH  33  36
ENDBRANCH  31  32
ENDBRANCH  30  31
ENDBRANCH   1  30
TORSDOF 17
