REMARK SMILES COc1ccc(Cl)cc1C(=O)Nc1ccc(C(=O)NCCCCNC(=O)c2ccc(-c3c4nc(c(-c5cccc(S(=O)(=O)[O-])c5F)c5ccc([nH]5)c(-c5cccc(S(=O)(=O)[O-])c5F)c5nc(c(-c6cccc(S(=O)(=O)[O-])c6F)c6ccc3[nH]6)C=C5)C=C4)cc2)cc1C
REMARK SMILES IDX 21 1 20 2 19 3 17 4 18 5 16 7 13 8 14 9 91 10 15 11 90 12
REMARK SMILES IDX 92 13 12 14 10 15 11 16 9 18 3 19 4 20 5 21 8 22 6 23 7 24
REMARK SMILES IDX 2 25 1 26 22 27 23 28 24 29 25 30 26 32 27 33 28 34 89 35
REMARK SMILES IDX 29 36 88 37 30 38 31 39 32 40 82 41 33 42 87 43 81 44 83 45
REMARK SMILES IDX 34 46 86 47 80 48 79 49 35 51 67 52 47 53 66 54 48 55 51 56
REMARK SMILES IDX 65 57 84 58 49 59 50 60 64 62 85 63 52 64 36 65 37 66 45 67
REMARK SMILES IDX 38 68 40 69 46 70 39 71 41 72 42 73 43 74 44 75 68 76 69 77
REMARK SMILES IDX 77 78 70 79 72 80 78 81 71 82 73 83 74 84 75 85 76 86 53 87
REMARK SMILES IDX 54 88 62 89 55 90 57 91 63 92 56 93 58 94 59 95 60 96 61 97
REMARK H PARENT 19 6 12 17 24 31 83 50 51 61
REMARK Flexibility Score: inf
ROOT
ATOM      1  C   UNL     1       1.828   2.649  -2.681  1.00  0.00     0.023 C 
ENDROOT
BRANCH   1   2
ATOM      2  C   UNL     1       2.333   2.061  -1.356  1.00  0.00     0.116 C 
BRANCH   2   3
ATOM      3  N   UNL     1       1.931   2.897  -0.236  1.00  0.00    -0.352 N 
ATOM      4  C   UNL     1       0.839   2.878   0.594  1.00  0.00     0.251 C 
ATOM      5  O   UNL     1       0.720   3.783   1.420  1.00  0.00    -0.269 OA
ATOM      6  H   UNL     1       2.568   3.620  -0.034  1.00  0.00     0.163 HD
BRANCH   4   7
ATOM      7  C   UNL     1      -0.125   1.742   0.619  1.00  0.00     0.040 A 
ATOM      8  C   UNL     1      -1.411  -0.708   1.004  1.00  0.00     0.044 A 
ATOM      9  C   UNL     1      -1.001  -0.325  -0.272  1.00  0.00     0.027 A 
ATOM     10  C   UNL     1      -1.386   0.220   2.058  1.00  0.00    -0.027 A 
ATOM     11  C   UNL     1      -0.413   0.925  -0.470  1.00  0.00     0.016 A 
ATOM     12  C   UNL     1      -0.687   1.422   1.863  1.00  0.00     0.019 A 
ATOM     13  C   UNL     1      -1.897  -0.069   3.442  1.00  0.00     0.046 C 
BRANCH   8  14
ATOM     14  N   UNL     1      -1.860  -2.006   1.243  1.00  0.00    -0.322 N 
ATOM     15  C   UNL     1      -1.415  -3.231   0.807  1.00  0.00     0.259 C 
ATOM     16  O   UNL     1      -2.205  -4.172   0.957  1.00  0.00    -0.269 OA
ATOM     17  H   UNL     1      -2.645  -2.055   1.836  1.00  0.00     0.170 HD
BRANCH  15  18
ATOM     18  C   UNL     1      -0.044  -3.550   0.273  1.00  0.00     0.083 A 
ATOM     19  C   UNL     1       1.168  -2.879   0.540  1.00  0.00     0.131 A 
ATOM     20  C   UNL     1       2.381  -3.420   0.061  1.00  0.00     0.049 A 
ATOM     21  C   UNL     1       2.414  -4.623  -0.642  1.00  0.00     0.024 A 
ATOM     22  C   UNL     1       0.018  -4.768  -0.443  1.00  0.00     0.038 A 
ATOM     23  C   UNL     1       1.230  -5.300  -0.880  1.00  0.00     0.042 A 
ATOM     24  Cl  UNL     1       1.264  -6.827  -1.670  1.00  0.00    -0.084 Cl
BRANCH  19  25
ATOM     25  O   UNL     1       1.178  -1.778   1.355  1.00  0.00    -0.496 OA
ATOM     26  C   UNL     1       2.262  -0.866   1.158  1.00  0.00     0.278 C 
ENDBRANCH  19  25
ENDBRANCH  15  18
ENDBRANCH   8  14
ENDBRANCH   4   7
ENDBRANCH   2   3
ENDBRANCH   1   2
BRANCH   1  27
ATOM     27  C   UNL     1       2.456   3.998  -3.029  1.00  0.00     0.023 C 
BRANCH  27  28
ATOM     28  C   UNL     1       3.929   3.893  -3.378  1.00  0.00     0.116 C 
BRANCH  28  29
ATOM     29  N   UNL     1       4.174   3.536  -4.757  1.00  0.00    -0.352 N 
ATOM     30  C   UNL     1       5.371   3.412  -5.447  1.00  0.00     0.251 C 
ATOM     31  H   UNL     1       3.366   3.352  -5.289  1.00  0.00     0.163 HD
ATOM     32  O   UNL     1       5.325   3.373  -6.659  1.00  0.00    -0.269 OA
BRANCH  30  33
ATOM     33  C   UNL     1       6.649   3.170  -4.711  1.00  0.00     0.039 A 
ATOM     34  C   UNL     1       7.580   2.313  -5.317  1.00  0.00     0.014 A 
ATOM     35  C   UNL     1       6.832   3.543  -3.385  1.00  0.00     0.014 A 
ATOM     36  C   UNL     1       8.494   1.614  -4.533  1.00  0.00     0.010 A 
ATOM     37  C   UNL     1       7.664   2.793  -2.589  1.00  0.00     0.010 A 
ATOM     38  C   UNL     1       8.424   1.771  -3.158  1.00  0.00    -0.014 A 
BRANCH  38  39
ATOM     39  C   UNL     1       9.049   0.903  -2.182  1.00  0.00     0.031 A 
ATOM     40  C   UNL     1      10.362   1.249  -1.629  1.00  0.00     0.074 A 
ATOM     41  C   UNL     1       8.257  -0.021  -1.592  1.00  0.00     0.049 A 
ATOM     42  N   UNL     1      11.035   0.461  -0.868  1.00  0.00    -0.248 NA
ATOM     43  C   UNL     1      11.042   2.507  -1.916  1.00  0.00     0.031 C 
ATOM     44  C   UNL     1       8.434  -0.655  -0.293  1.00  0.00     0.029 A 
ATOM     45  N   UNL     1       7.194  -0.725  -2.170  1.00  0.00    -0.354 N 
ATOM     46  C   UNL     1      12.021   1.223  -0.288  1.00  0.00     0.074 A 
ATOM     47  C   UNL     1      12.097   2.411  -1.099  1.00  0.00     0.031 C 
ATOM     48  C   UNL     1       7.733  -1.799  -0.273  1.00  0.00     0.029 A 
ATOM     49  C   UNL     1       7.259  -2.021  -1.627  1.00  0.00     0.049 A 
ATOM     50  H   UNL     1       6.538  -0.385  -2.821  1.00  0.00     0.167 HD
ATOM     51  C   UNL     1      12.513   0.821   0.916  1.00  0.00     0.034 A 
ATOM     52  C   UNL     1       7.525  -3.127  -2.382  1.00  0.00     0.034 A 
ATOM     53  C   UNL     1      12.064  -0.550   1.230  1.00  0.00     0.049 A 
ATOM     54  C   UNL     1       8.787  -3.860  -1.947  1.00  0.00     0.074 A 
ATOM     55  C   UNL     1      11.177  -1.094   2.143  1.00  0.00     0.029 A 
ATOM     56  N   UNL     1      12.374  -1.576   0.341  1.00  0.00    -0.354 N 
ATOM     57  N   UNL     1       9.586  -3.486  -0.985  1.00  0.00    -0.248 NA
ATOM     58  C   UNL     1       9.266  -5.062  -2.615  1.00  0.00     0.031 C 
ATOM     59  C   UNL     1      10.902  -2.438   1.746  1.00  0.00     0.029 A 
ATOM     60  C   UNL     1      11.656  -2.729   0.621  1.00  0.00     0.049 A 
ATOM     61  H   UNL     1      13.022  -1.492  -0.395  1.00  0.00     0.167 HD
ATOM     62  C   UNL     1      10.736  -4.245  -0.996  1.00  0.00     0.074 A 
ATOM     63  C   UNL     1      10.441  -5.264  -1.994  1.00  0.00     0.031 C 
ATOM     64  C   UNL     1      11.835  -3.912  -0.232  1.00  0.00     0.034 A 
BRANCH  51  65
ATOM     65  C   UNL     1      13.244   1.704   1.920  1.00  0.00     0.023 A 
ATOM     66  C   UNL     1      13.666   1.090   3.122  1.00  0.00     0.012 A 
ATOM     67  C   UNL     1      13.465   3.103   1.837  1.00  0.00     0.148 A 
ATOM     68  C   UNL     1      14.248   1.810   4.174  1.00  0.00     0.002 A 
ATOM     69  C   UNL     1      14.104   3.812   2.861  1.00  0.00     0.091 A 
ATOM     70  F   UNL     1      12.983   3.804   0.811  1.00  0.00    -0.205 F 
ATOM     71  C   UNL     1      14.481   3.171   4.040  1.00  0.00     0.022 A 
BRANCH  69  72
ATOM     72  S   UNL     1      14.477   5.574   2.733  1.00  0.00     0.127 S 
ATOM     73  O   UNL     1      13.574   6.151   3.729  1.00  0.00    -0.237 OA
ATOM     74  O   UNL     1      15.893   5.624   3.097  1.00  0.00    -0.237 OA
ATOM     75  O   UNL     1      14.198   5.955   1.354  1.00  0.00    -0.744 OA
ENDBRANCH  69  72
ENDBRANCH  51  65
BRANCH  52  76
ATOM     76  C   UNL     1       7.029  -3.008  -3.791  1.00  0.00     0.023 A 
ATOM     77  C   UNL     1       5.630  -2.868  -3.963  1.00  0.00     0.012 A 
ATOM     78  C   UNL     1       7.883  -2.612  -4.836  1.00  0.00     0.148 A 
ATOM     79  C   UNL     1       5.109  -2.197  -5.071  1.00  0.00     0.002 A 
ATOM     80  C   UNL     1       7.352  -1.953  -5.945  1.00  0.00     0.091 A 
ATOM     81  F   UNL     1       9.200  -2.802  -4.697  1.00  0.00    -0.205 F 
ATOM     82  C   UNL     1       5.974  -1.702  -6.041  1.00  0.00     0.022 A 
BRANCH  80  83
ATOM     83  S   UNL     1       8.416  -1.283  -7.231  1.00  0.00     0.127 S 
ATOM     84  O   UNL     1       8.426  -2.375  -8.200  1.00  0.00    -0.237 OA
ATOM     85  O   UNL     1       7.688  -0.089  -7.657  1.00  0.00    -0.237 OA
ATOM     86  O   UNL     1       9.676  -1.003  -6.558  1.00  0.00    -0.744 OA
ENDBRANCH  80  83
ENDBRANCH  52  76
BRANCH  64  87
ATOM     87  C   UNL     1      13.216  -4.595  -0.239  1.00  0.00     0.023 A 
ATOM     88  C   UNL     1      13.512  -5.745  -0.993  1.00  0.00     0.012 A 
ATOM     89  C   UNL     1      14.309  -4.075   0.516  1.00  0.00     0.148 A 
ATOM     90  C   UNL     1      14.797  -6.305  -1.060  1.00  0.00     0.002 A 
ATOM     91  C   UNL     1      15.600  -4.594   0.404  1.00  0.00     0.091 A 
ATOM     92  F   UNL     1      14.107  -3.103   1.415  1.00  0.00    -0.205 F 
ATOM     93  C   UNL     1      15.849  -5.712  -0.386  1.00  0.00     0.022 A 
BRANCH  91  94
ATOM     94  S   UNL     1      17.008  -3.807   1.204  1.00  0.00     0.127 S 
ATOM     95  O   UNL     1      17.175  -4.637   2.396  1.00  0.00    -0.237 OA
ATOM     96  O   UNL     1      18.062  -3.963   0.200  1.00  0.00    -0.237 OA
ATOM     97  O   UNL     1      16.602  -2.428   1.435  1.00  0.00    -0.744 OA
ENDBRANCH  91  94
ENDBRANCH  64  87
ENDBRANCH  38  39
ENDBRANCH  30  33
ENDBRANCH  28  29
ENDBRANCH  27  28
ENDBRANCH   1  27
TORSDOF 17
