REMARK SMILES C[C@@H](Oc1ccc(-c2ccccc2)cc1)C(=O)N1CCC[C@H](C(=O)NCCCCNC(=O)c2ccc(-c3c4nc(c(-c5cccc(S(=O)(=O)[O-])c5F)c5ccc([nH]5)c(-c5cccc(S(=O)(=O)[O-])c5F)c5nc(c(-c6cccc(S(=O)(=O)[O-])c6F)c6ccc3[nH]6)C=C5)C=C4)cc2)C1
REMARK SMILES IDX 26 1 25 2 23 3 24 4 22 6 18 7 19 8 96 9 20 10 21 11 16 12
REMARK SMILES IDX 17 13 2 14 1 15 3 16 4 17 5 18 15 19 6 20 14 21 7 22 8 23
REMARK SMILES IDX 9 24 13 25 10 26 12 27 11 28 27 29 28 30 29 31 30 32 31 33
REMARK SMILES IDX 32 35 33 36 34 37 95 38 35 39 94 40 36 41 37 42 38 43 88 44
REMARK SMILES IDX 39 45 93 46 87 47 89 48 40 49 92 50 86 51 85 52 41 54 73 55
REMARK SMILES IDX 53 56 72 57 54 58 57 59 71 60 90 61 55 62 56 63 70 65 91 66
REMARK SMILES IDX 58 67 42 68 43 69 51 70 44 71 46 72 52 73 45 74 47 75 48 76
REMARK SMILES IDX 49 77 50 78 74 79 75 80 83 81 76 82 78 83 84 84 77 85 79 86
REMARK SMILES IDX 80 87 81 88 82 89 59 90 60 91 68 92 61 93 63 94 69 95 62 96
REMARK SMILES IDX 64 97 65 98 66 99 67 100
REMARK H PARENT 25 5 30 34 89 53 57 64
REMARK Flexibility Score: inf
ROOT
ATOM      1  C   UNL     1      -3.619  -0.430   0.689  1.00  0.00     0.116 C 
ENDROOT
BRANCH   1   2
ATOM      2  N   UNL     1      -3.546  -1.053  -0.613  1.00  0.00    -0.356 N 
ATOM      3  C   UNL     1      -3.083  -0.602  -1.806  1.00  0.00     0.224 C 
ATOM      4  O   UNL     1      -2.979  -1.445  -2.706  1.00  0.00    -0.275 OA
ATOM      5  H   UNL     1      -3.896  -1.973  -0.640  1.00  0.00     0.163 HD
BRANCH   3   6
ATOM      6  C   UNL     1      -2.699   0.853  -2.110  1.00  0.00     0.098 C 
ATOM      7  N   UNL     1      -1.594   2.008  -0.193  1.00  0.00    -0.339 N 
ATOM      8  C   UNL     1      -2.586   3.082  -0.191  1.00  0.00     0.119 C 
ATOM      9  C   UNL     1      -1.395   1.335  -1.469  1.00  0.00     0.133 C 
ATOM     10  C   UNL     1      -3.939   2.666  -0.755  1.00  0.00     0.022 C 
ATOM     11  C   UNL     1      -3.850   1.857  -2.043  1.00  0.00     0.017 C 
BRANCH   7  12
ATOM     12  C   UNL     1      -0.885   1.752   0.979  1.00  0.00     0.263 C 
ATOM     13  O   UNL     1      -1.394   1.995   2.081  1.00  0.00    -0.271 OA
BRANCH  12  14
ATOM     14  C   UNL     1       0.574   1.251   0.920  1.00  0.00     0.259 C 
ATOM     15  C   UNL     1       0.778  -0.174   0.421  1.00  0.00     0.064 C 
BRANCH  14  16
ATOM     16  O   UNL     1       1.260   2.196   0.087  1.00  0.00    -0.481 OA
BRANCH  16  17
ATOM     17  C   UNL     1       2.562   2.380   0.451  1.00  0.00     0.120 A 
ATOM     18  C   UNL     1       2.914   3.308   1.429  1.00  0.00     0.047 A 
ATOM     19  C   UNL     1       3.538   1.736  -0.296  1.00  0.00     0.047 A 
ATOM     20  C   UNL     1       4.267   3.612   1.637  1.00  0.00     0.012 A 
ATOM     21  C   UNL     1       4.880   2.034  -0.080  1.00  0.00     0.012 A 
ATOM     22  C   UNL     1       5.269   3.004   0.861  1.00  0.00    -0.018 A 
BRANCH  22  23
ATOM     23  C   UNL     1       6.681   3.410   0.948  1.00  0.00    -0.018 A 
ATOM     24  C   UNL     1       7.387   3.417   2.159  1.00  0.00     0.009 A 
ATOM     25  C   UNL     1       7.370   3.793  -0.220  1.00  0.00     0.009 A 
ATOM     26  C   UNL     1       8.740   3.773   2.196  1.00  0.00     0.001 A 
ATOM     27  C   UNL     1       8.719   4.148  -0.185  1.00  0.00     0.001 A 
ATOM     28  C   UNL     1       9.405   4.134   1.024  1.00  0.00     0.000 A 
ENDBRANCH  22  23
ENDBRANCH  16  17
ENDBRANCH  14  16
ENDBRANCH  12  14
ENDBRANCH   7  12
ENDBRANCH   3   6
ENDBRANCH   1   2
BRANCH   1  29
ATOM     29  C   UNL     1      -5.045  -0.240   1.198  1.00  0.00     0.023 C 
BRANCH  29  30
ATOM     30  C   UNL     1      -5.507  -1.280   2.212  1.00  0.00     0.023 C 
BRANCH  30  31
ATOM     31  C   UNL     1      -4.635  -1.418   3.457  1.00  0.00     0.116 C 
BRANCH  31  32
ATOM     32  N   UNL     1      -4.429  -0.181   4.197  1.00  0.00    -0.352 N 
ATOM     33  C   UNL     1      -4.346  -0.015   5.567  1.00  0.00     0.251 C 
ATOM     34  H   UNL     1      -4.337   0.637   3.656  1.00  0.00     0.163 HD
ATOM     35  O   UNL     1      -4.259   1.092   6.064  1.00  0.00    -0.269 OA
BRANCH  33  36
ATOM     36  C   UNL     1      -4.404  -1.222   6.427  1.00  0.00     0.039 A 
ATOM     37  C   UNL     1      -5.320  -1.262   7.479  1.00  0.00     0.014 A 
ATOM     38  C   UNL     1      -3.607  -2.332   6.139  1.00  0.00     0.014 A 
ATOM     39  C   UNL     1      -5.492  -2.450   8.194  1.00  0.00     0.010 A 
ATOM     40  C   UNL     1      -3.845  -3.536   6.790  1.00  0.00     0.010 A 
ATOM     41  C   UNL     1      -4.786  -3.609   7.828  1.00  0.00    -0.014 A 
BRANCH  41  42
ATOM     42  C   UNL     1      -5.020  -4.905   8.516  1.00  0.00     0.031 A 
ATOM     43  C   UNL     1      -3.897  -5.584   9.254  1.00  0.00     0.074 A 
ATOM     44  C   UNL     1      -6.216  -5.517   8.401  1.00  0.00     0.049 A 
ATOM     45  N   UNL     1      -3.901  -6.727   9.890  1.00  0.00    -0.248 NA
ATOM     46  C   UNL     1      -2.587  -4.910   9.246  1.00  0.00     0.031 C 
ATOM     47  C   UNL     1      -7.352  -5.021   7.620  1.00  0.00     0.029 A 
ATOM     48  N   UNL     1      -6.669  -6.703   8.924  1.00  0.00    -0.354 N 
ATOM     49  C   UNL     1      -2.595  -6.926  10.321  1.00  0.00     0.074 A 
ATOM     50  C   UNL     1      -1.814  -5.811   9.834  1.00  0.00     0.031 C 
ATOM     51  C   UNL     1      -8.374  -5.886   7.730  1.00  0.00     0.029 A 
ATOM     52  C   UNL     1      -7.964  -7.004   8.573  1.00  0.00     0.049 A 
ATOM     53  H   UNL     1      -6.117  -7.284   9.497  1.00  0.00     0.167 HD
ATOM     54  C   UNL     1      -2.095  -7.923  11.090  1.00  0.00     0.034 A 
ATOM     55  C   UNL     1      -8.739  -8.056   8.906  1.00  0.00     0.034 A 
ATOM     56  C   UNL     1      -2.887  -8.993  11.631  1.00  0.00     0.049 A 
ATOM     57  C   UNL     1      -8.187  -9.101   9.838  1.00  0.00     0.074 A 
ATOM     58  C   UNL     1      -2.502  -9.992  12.507  1.00  0.00     0.029 A 
ATOM     59  N   UNL     1      -4.228  -9.201  11.351  1.00  0.00    -0.354 N 
ATOM     60  N   UNL     1      -6.998  -9.174  10.387  1.00  0.00    -0.248 NA
ATOM     61  C   UNL     1      -9.097 -10.186  10.234  1.00  0.00     0.031 C 
ATOM     62  C   UNL     1      -3.611 -10.809  12.751  1.00  0.00     0.029 A 
ATOM     63  C   UNL     1      -4.689 -10.312  12.036  1.00  0.00     0.049 A 
ATOM     64  H   UNL     1      -4.774  -8.641  10.752  1.00  0.00     0.167 HD
ATOM     65  C   UNL     1      -7.027 -10.290  11.216  1.00  0.00     0.074 A 
ATOM     66  C   UNL     1      -8.362 -10.846  11.118  1.00  0.00     0.031 C 
ATOM     67  C   UNL     1      -6.035 -10.820  11.972  1.00  0.00     0.034 A 
BRANCH  54  68
ATOM     68  C   UNL     1      -0.635  -7.852  11.455  1.00  0.00     0.023 A 
ATOM     69  C   UNL     1      -0.200  -6.871  12.369  1.00  0.00     0.012 A 
ATOM     70  C   UNL     1       0.295  -8.771  10.933  1.00  0.00     0.148 A 
ATOM     71  C   UNL     1       1.144  -6.778  12.728  1.00  0.00     0.002 A 
ATOM     72  C   UNL     1       1.627  -8.700  11.329  1.00  0.00     0.091 A 
ATOM     73  F   UNL     1      -0.131  -9.682  10.047  1.00  0.00    -0.205 F 
ATOM     74  C   UNL     1       2.054  -7.697  12.216  1.00  0.00     0.022 A 
BRANCH  72  75
ATOM     75  S   UNL     1       2.863  -9.884  10.786  1.00  0.00     0.127 S 
ATOM     76  O   UNL     1       3.645  -9.084   9.845  1.00  0.00    -0.237 OA
ATOM     77  O   UNL     1       3.554 -10.205  12.035  1.00  0.00    -0.237 OA
ATOM     78  O   UNL     1       2.123 -10.994  10.201  1.00  0.00    -0.744 OA
ENDBRANCH  72  75
ENDBRANCH  54  68
BRANCH  55  79
ATOM     79  C   UNL     1     -10.153  -8.119   8.438  1.00  0.00     0.023 A 
ATOM     80  C   UNL     1     -11.192  -7.912   9.367  1.00  0.00     0.012 A 
ATOM     81  C   UNL     1     -10.476  -8.354   7.088  1.00  0.00     0.148 A 
ATOM     82  C   UNL     1     -12.527  -7.972   8.967  1.00  0.00     0.002 A 
ATOM     83  C   UNL     1     -11.807  -8.360   6.687  1.00  0.00     0.091 A 
ATOM     84  F   UNL     1      -9.474  -8.560   6.221  1.00  0.00    -0.205 F 
ATOM     85  C   UNL     1     -12.835  -8.186   7.627  1.00  0.00     0.022 A 
BRANCH  83  86
ATOM     86  S   UNL     1     -12.289  -8.500   4.961  1.00  0.00     0.127 S 
ATOM     87  O   UNL     1     -12.798  -9.867   4.902  1.00  0.00    -0.237 OA
ATOM     88  O   UNL     1     -13.309  -7.456   4.844  1.00  0.00    -0.237 OA
ATOM     89  O   UNL     1     -11.077  -8.238   4.197  1.00  0.00    -0.744 OA
ENDBRANCH  83  86
ENDBRANCH  55  79
BRANCH  67  90
ATOM     90  C   UNL     1      -6.355 -12.053  12.774  1.00  0.00     0.023 A 
ATOM     91  C   UNL     1      -6.514 -13.289  12.116  1.00  0.00     0.012 A 
ATOM     92  C   UNL     1      -6.436 -12.003  14.179  1.00  0.00     0.148 A 
ATOM     93  C   UNL     1      -6.784 -14.449  12.841  1.00  0.00     0.002 A 
ATOM     94  C   UNL     1      -6.658 -13.172  14.899  1.00  0.00     0.091 A 
ATOM     95  F   UNL     1      -6.303 -10.816  14.788  1.00  0.00    -0.205 F 
ATOM     96  C   UNL     1      -6.844 -14.393  14.231  1.00  0.00     0.022 A 
BRANCH  94  97
ATOM     97  S   UNL     1      -6.654 -13.199  16.695  1.00  0.00     0.127 S 
ATOM     98  O   UNL     1      -8.084 -13.206  16.997  1.00  0.00    -0.237 OA
ATOM     99  O   UNL     1      -5.963 -14.454  16.991  1.00  0.00    -0.237 OA
ATOM    100  O   UNL     1      -5.927 -12.005  17.105  1.00  0.00    -0.744 OA
ENDBRANCH  94  97
ENDBRANCH  67  90
ENDBRANCH  41  42
ENDBRANCH  33  36
ENDBRANCH  31  32
ENDBRANCH  30  31
ENDBRANCH  29  30
ENDBRANCH   1  29
TORSDOF 19
