REMARK SMILES C[C@@H]1C[N@@H+](C[C@]2(C(=O)NCCCCNC(=O)c3ccc(-c4c5nc(c(-c6cccc(S(=O)(=O)[O-])c6F)c6ccc([nH]6)c(-c6cccc(S(=O)(=O)[O-])c6F)c6nc(c(-c7cccc(S(=O)(=O)[O-])c7F)c7ccc4[nH]7)C=C6)C=C5)cc3)CCOC2)C[C@@H]1C
REMARK SMILES IDX 12 1 11 2 10 3 9 4 7 5 8 6 6 8 80 9 83 10 81 11 82 12 5 13
REMARK SMILES IDX 4 14 1 15 2 16 3 17 85 18 84 19 86 20 13 22 14 23 15 24
REMARK SMILES IDX 16 26 17 27 18 28 79 29 19 30 78 31 20 32 21 33 22 34 72 35
REMARK SMILES IDX 23 36 77 37 71 38 73 39 24 40 76 41 70 42 69 43 25 45 57 46
REMARK SMILES IDX 37 47 56 48 38 49 41 50 55 51 74 52 39 53 40 54 54 56 75 57
REMARK SMILES IDX 42 58 26 59 27 60 35 61 28 62 30 63 36 64 29 65 31 66 32 67
REMARK SMILES IDX 33 68 34 69 58 70 59 71 67 72 60 73 62 74 68 75 61 76 63 77
REMARK SMILES IDX 64 78 65 79 66 80 43 81 44 82 52 83 45 84 47 85 53 86 46 87
REMARK SMILES IDX 48 88 49 89 50 90 51 91
REMARK H PARENT 9 7 4 21 14 25 73 44 41 55
REMARK Flexibility Score: inf
ROOT
ATOM      1  C   UNL     1       1.748   8.649  -2.362  1.00  0.00     0.023 C 
ENDROOT
BRANCH   1   2
ATOM      2  C   UNL     1       0.924   7.498  -2.946  1.00  0.00     0.023 C 
BRANCH   2   3
ATOM      3  C   UNL     1       1.414   6.105  -2.546  1.00  0.00     0.116 C 
BRANCH   3   4
ATOM      4  N   UNL     1       1.123   5.841  -1.150  1.00  0.00    -0.355 N 
ATOM      5  C   UNL     1       0.118   5.143  -0.552  1.00  0.00     0.234 C 
ATOM      6  O   UNL     1       0.012   5.283   0.669  1.00  0.00    -0.274 OA
ATOM      7  H   UNL     1       1.767   6.239  -0.521  1.00  0.00     0.163 HD
BRANCH   5   8
ATOM      8  C   UNL     1      -0.818   4.211  -1.343  1.00  0.00     0.123 C 
ATOM      9  C   UNL     1      -0.003   3.110  -2.013  1.00  0.00     0.054 C 
ATOM     10  C   UNL     1      -1.621   3.383  -0.331  1.00  0.00     0.183 C 
ATOM     11  C   UNL     1      -0.817   1.841  -1.857  1.00  0.00     0.161 C 
ATOM     12  O   UNL     1      -1.847   2.088  -0.902  1.00  0.00    -0.380 OA
BRANCH   8  13
ATOM     13  C   UNL     1      -1.739   5.068  -2.264  1.00  0.00     0.281 C 
BRANCH  13  14
ATOM     14  N   UNL     1      -2.742   4.501  -3.144  1.00  0.00    -0.333 N 
ATOM     15  C   UNL     1      -5.670   2.249  -3.245  1.00  0.00     0.014 C 
ATOM     16  C   UNL     1      -4.224   2.710  -3.264  1.00  0.00     0.049 C 
ATOM     17  C   UNL     1      -4.028   4.082  -2.633  1.00  0.00     0.265 C 
ATOM     18  C   UNL     1      -3.546   2.837  -4.637  1.00  0.00     0.049 C 
ATOM     19  C   UNL     1      -2.386   3.809  -4.366  1.00  0.00     0.265 C 
ATOM     20  C   UNL     1      -4.451   3.345  -5.755  1.00  0.00     0.014 C 
ATOM     21  H   UNL     1      -2.866   5.468  -3.444  1.00  0.00     0.348 HD
ENDBRANCH  13  14
ENDBRANCH   8  13
ENDBRANCH   5   8
ENDBRANCH   3   4
ENDBRANCH   2   3
ENDBRANCH   1   2
BRANCH   1  22
ATOM     22  C   UNL     1       3.209   8.682  -2.794  1.00  0.00     0.116 C 
BRANCH  22  23
ATOM     23  N   UNL     1       3.376   8.774  -4.238  1.00  0.00    -0.352 N 
ATOM     24  C   UNL     1       4.335   9.465  -4.943  1.00  0.00     0.251 C 
ATOM     25  H   UNL     1       2.718   8.280  -4.779  1.00  0.00     0.163 HD
ATOM     26  O   UNL     1       4.284   9.534  -6.163  1.00  0.00    -0.269 OA
BRANCH  24  27
ATOM     27  C   UNL     1       5.404  10.158  -4.194  1.00  0.00     0.039 A 
ATOM     28  C   UNL     1       5.593  11.526  -4.403  1.00  0.00     0.014 A 
ATOM     29  C   UNL     1       6.155   9.472  -3.237  1.00  0.00     0.014 A 
ATOM     30  C   UNL     1       6.478  12.229  -3.583  1.00  0.00     0.010 A 
ATOM     31  C   UNL     1       6.995  10.184  -2.386  1.00  0.00     0.010 A 
ATOM     32  C   UNL     1       7.147  11.571  -2.538  1.00  0.00    -0.014 A 
BRANCH  32  33
ATOM     33  C   UNL     1       7.947  12.322  -1.539  1.00  0.00     0.031 A 
ATOM     34  C   UNL     1       9.427  12.099  -1.425  1.00  0.00     0.074 A 
ATOM     35  C   UNL     1       7.310  13.117  -0.655  1.00  0.00     0.049 A 
ATOM     36  N   UNL     1      10.267  12.589  -0.552  1.00  0.00    -0.248 NA
ATOM     37  C   UNL     1      10.042  11.190  -2.407  1.00  0.00     0.031 C 
ATOM     38  C   UNL     1       5.864  13.350  -0.616  1.00  0.00     0.029 A 
ATOM     39  N   UNL     1       7.791  13.845   0.405  1.00  0.00    -0.354 N 
ATOM     40  C   UNL     1      11.502  12.032  -0.859  1.00  0.00     0.074 A 
ATOM     41  C   UNL     1      11.298  11.145  -1.984  1.00  0.00     0.031 C 
ATOM     42  C   UNL     1       5.575  14.155   0.418  1.00  0.00     0.029 A 
ATOM     43  C   UNL     1       6.807  14.473   1.134  1.00  0.00     0.049 A 
ATOM     44  H   UNL     1       8.749  13.912   0.623  1.00  0.00     0.167 HD
ATOM     45  C   UNL     1      12.702  12.263  -0.275  1.00  0.00     0.034 A 
ATOM     46  C   UNL     1       6.885  15.207   2.260  1.00  0.00     0.034 A 
ATOM     47  C   UNL     1      12.907  13.177   0.817  1.00  0.00     0.049 A 
ATOM     48  C   UNL     1       8.234  15.454   2.879  1.00  0.00     0.074 A 
ATOM     49  C   UNL     1      14.100  13.550   1.412  1.00  0.00     0.029 A 
ATOM     50  N   UNL     1      11.899  13.854   1.483  1.00  0.00    -0.354 N 
ATOM     51  N   UNL     1       9.414  15.056   2.470  1.00  0.00    -0.248 NA
ATOM     52  C   UNL     1       8.265  16.273   4.100  1.00  0.00     0.031 C 
ATOM     53  C   UNL     1      13.810  14.443   2.449  1.00  0.00     0.029 A 
ATOM     54  C   UNL     1      12.438  14.631   2.494  1.00  0.00     0.049 A 
ATOM     55  H   UNL     1      10.940  13.791   1.270  1.00  0.00     0.167 HD
ATOM     56  C   UNL     1      10.329  15.593   3.368  1.00  0.00     0.074 A 
ATOM     57  C   UNL     1       9.569  16.370   4.325  1.00  0.00     0.031 C 
ATOM     58  C   UNL     1      11.675  15.438   3.410  1.00  0.00     0.034 A 
BRANCH  45  59
ATOM     59  C   UNL     1      13.906  11.571  -0.852  1.00  0.00     0.023 A 
ATOM     60  C   UNL     1      14.439  12.029  -2.074  1.00  0.00     0.012 A 
ATOM     61  C   UNL     1      14.556  10.531  -0.159  1.00  0.00     0.148 A 
ATOM     62  C   UNL     1      15.588  11.450  -2.609  1.00  0.00     0.002 A 
ATOM     63  C   UNL     1      15.722   9.983  -0.681  1.00  0.00     0.091 A 
ATOM     64  F   UNL     1      14.020  10.097   0.991  1.00  0.00    -0.205 F 
ATOM     65  C   UNL     1      16.235  10.436  -1.908  1.00  0.00     0.022 A 
BRANCH  63  66
ATOM     66  S   UNL     1      16.668   8.717   0.174  1.00  0.00     0.127 S 
ATOM     67  O   UNL     1      16.428   7.549  -0.672  1.00  0.00    -0.237 OA
ATOM     68  O   UNL     1      18.029   9.250   0.104  1.00  0.00    -0.237 OA
ATOM     69  O   UNL     1      16.113   8.640   1.518  1.00  0.00    -0.744 OA
ENDBRANCH  63  66
ENDBRANCH  45  59
BRANCH  46  70
ATOM     70  C   UNL     1       5.655  15.807   2.848  1.00  0.00     0.023 A 
ATOM     71  C   UNL     1       5.472  17.202   2.785  1.00  0.00     0.012 A 
ATOM     72  C   UNL     1       4.659  15.012   3.447  1.00  0.00     0.148 A 
ATOM     73  C   UNL     1       4.335  17.797   3.333  1.00  0.00     0.002 A 
ATOM     74  C   UNL     1       3.504  15.605   3.943  1.00  0.00     0.091 A 
ATOM     75  F   UNL     1       4.858  13.688   3.519  1.00  0.00    -0.205 F 
ATOM     76  C   UNL     1       3.346  16.999   3.902  1.00  0.00     0.022 A 
BRANCH  74  77
ATOM     77  S   UNL     1       2.129  14.629   4.565  1.00  0.00     0.127 S 
ATOM     78  O   UNL     1       2.326  14.719   6.008  1.00  0.00    -0.237 OA
ATOM     79  O   UNL     1       0.971  15.363   4.053  1.00  0.00    -0.237 OA
ATOM     80  O   UNL     1       2.303  13.309   3.973  1.00  0.00    -0.744 OA
ENDBRANCH  74  77
ENDBRANCH  46  70
BRANCH  58  81
ATOM     81  C   UNL     1      12.419  16.122   4.525  1.00  0.00     0.023 A 
ATOM     82  C   UNL     1      12.345  15.592   5.829  1.00  0.00     0.012 A 
ATOM     83  C   UNL     1      13.245  17.234   4.274  1.00  0.00     0.148 A 
ATOM     84  C   UNL     1      13.064  16.175   6.871  1.00  0.00     0.002 A 
ATOM     85  C   UNL     1      13.992  17.784   5.309  1.00  0.00     0.091 A 
ATOM     86  F   UNL     1      13.286  17.733   3.029  1.00  0.00    -0.205 F 
ATOM     87  C   UNL     1      13.895  17.262   6.610  1.00  0.00     0.022 A 
BRANCH  85  88
ATOM     88  S   UNL     1      15.154  19.129   5.051  1.00  0.00     0.127 S 
ATOM     89  O   UNL     1      14.455  20.251   5.675  1.00  0.00    -0.237 OA
ATOM     90  O   UNL     1      16.335  18.664   5.780  1.00  0.00    -0.237 OA
ATOM     91  O   UNL     1      15.336  19.230   3.609  1.00  0.00    -0.744 OA
ENDBRANCH  85  88
ENDBRANCH  58  81
ENDBRANCH  32  33
ENDBRANCH  24  27
ENDBRANCH  22  23
ENDBRANCH   1  22
TORSDOF 16
