REMARK SMILES Cc1cccc(-c2cc(OCC(=O)NCCCCNC(=O)c3ccc(-c4c5nc(c(-c6cccc(S(=O)(=O)[O-])c6F)c6ccc([nH]6)c(-c6cccc(S(=O)(=O)[O-])c6F)c6nc(c(-c7cccc(S(=O)(=O)[O-])c7F)c7ccc4[nH]7)C=C6)C=C5)cc3)nc(Nc3ccccc3C)n2)c1
REMARK SMILES IDX 16 1 15 2 14 3 12 4 13 5 11 7 10 8 9 9 7 10 8 11 95 12 86 13
REMARK SMILES IDX 85 14 6 15 1 16 2 17 3 18 96 19 4 20 5 21 87 22 88 24 89 25
REMARK SMILES IDX 93 26 90 27 92 28 94 29 91 30 17 31 18 32 19 33 20 34 21 36
REMARK SMILES IDX 22 37 23 38 84 39 24 40 83 41 25 42 26 43 27 44 77 45 28 46
REMARK SMILES IDX 82 47 76 48 78 49 29 50 81 51 75 52 74 53 30 55 62 56 42 57
REMARK SMILES IDX 61 58 43 59 46 60 60 61 79 62 44 63 45 64 59 66 80 67 47 68
REMARK SMILES IDX 31 69 32 70 40 71 33 72 35 73 41 74 34 75 36 76 37 77 38 78
REMARK SMILES IDX 39 79 63 80 64 81 72 82 65 83 67 84 73 85 66 86 68 87 69 88
REMARK SMILES IDX 70 89 71 90 48 91 49 92 57 93 50 94 52 95 58 96 51 97 53 98
REMARK SMILES IDX 54 99 55 100 56 101
REMARK H PARENT 14 6 87 23 19 35 78 54 46 65
REMARK Flexibility Score: inf
ROOT
ATOM      1  C   UNL     1      -0.559   7.491  -0.037  1.00  0.00     0.023 C 
ENDROOT
BRANCH   1   2
ATOM      2  C   UNL     1      -0.145   7.527  -1.513  1.00  0.00     0.116 C 
BRANCH   2   3
ATOM      3  N   UNL     1       0.540   6.321  -1.945  1.00  0.00    -0.353 N 
ATOM      4  C   UNL     1       0.048   5.262  -2.644  1.00  0.00     0.258 C 
ATOM      5  O   UNL     1       0.793   4.316  -2.908  1.00  0.00    -0.271 OA
ATOM      6  H   UNL     1       1.492   6.262  -1.698  1.00  0.00     0.163 HD
BRANCH   4   7
ATOM      7  C   UNL     1      -1.419   5.260  -3.095  1.00  0.00     0.331 C 
BRANCH   7   8
ATOM      8  O   UNL     1      -2.409   5.342  -2.084  1.00  0.00    -0.467 OA
BRANCH   8   9
ATOM      9  C   UNL     1      -2.450   4.348  -1.147  1.00  0.00     0.219 A 
ATOM     10  C   UNL     1      -1.875   2.324  -0.144  1.00  0.00     0.080 A 
ATOM     11  C   UNL     1      -1.754   3.168  -1.222  1.00  0.00     0.097 A 
ATOM     12  N   UNL     1      -2.662   2.608   0.902  1.00  0.00    -0.212 NA
ATOM     13  C   UNL     1      -3.311   3.778   0.902  1.00  0.00     0.231 A 
ATOM     14  N   UNL     1      -3.247   4.655  -0.107  1.00  0.00    -0.177 NA
BRANCH  10  15
ATOM     15  C   UNL     1      -1.124   1.071  -0.056  1.00  0.00     0.001 A 
ATOM     16  C   UNL     1       2.513  -0.095  -0.031  1.00  0.00     0.044 C 
ATOM     17  C   UNL     1       1.013  -0.117  -0.010  1.00  0.00    -0.050 A 
ATOM     18  C   UNL     1       0.326  -1.332   0.073  1.00  0.00     0.003 A 
ATOM     19  C   UNL     1       0.281   1.075  -0.084  1.00  0.00     0.013 A 
ATOM     20  C   UNL     1      -1.069  -1.354   0.112  1.00  0.00     0.001 A 
ATOM     21  C   UNL     1      -1.788  -0.159   0.061  1.00  0.00     0.010 A 
ENDBRANCH  10  15
BRANCH  13  22
ATOM     22  N   UNL     1      -4.132   4.109   1.980  1.00  0.00    -0.324 N 
ATOM     23  H   UNL     1      -4.567   4.991   1.951  1.00  0.00     0.170 HD
BRANCH  22  24
ATOM     24  C   UNL     1      -4.400   3.309   3.099  1.00  0.00     0.044 A 
ATOM     25  C   UNL     1      -5.683   2.757   3.236  1.00  0.00     0.026 A 
ATOM     26  C   UNL     1      -3.397   2.943   4.021  1.00  0.00    -0.027 A 
ATOM     27  C   UNL     1      -5.960   1.822   4.234  1.00  0.00     0.002 A 
ATOM     28  C   UNL     1      -3.686   1.992   5.014  1.00  0.00     0.005 A 
ATOM     29  C   UNL     1      -2.028   3.570   3.991  1.00  0.00     0.046 C 
ATOM     30  C   UNL     1      -4.957   1.429   5.113  1.00  0.00     0.000 A 
ENDBRANCH  22  24
ENDBRANCH  13  22
ENDBRANCH   8   9
ENDBRANCH   7   8
ENDBRANCH   4   7
ENDBRANCH   2   3
ENDBRANCH   1   2
BRANCH   1  31
ATOM     31  C   UNL     1       0.538   7.082   0.948  1.00  0.00     0.023 C 
BRANCH  31  32
ATOM     32  C   UNL     1       1.748   8.002   0.962  1.00  0.00     0.116 C 
BRANCH  32  33
ATOM     33  N   UNL     1       1.641   9.098   1.905  1.00  0.00    -0.352 N 
ATOM     34  C   UNL     1       2.612   9.999   2.306  1.00  0.00     0.251 C 
ATOM     35  H   UNL     1       0.755   9.218   2.318  1.00  0.00     0.163 HD
ATOM     36  O   UNL     1       2.459  10.595   3.370  1.00  0.00    -0.269 OA
BRANCH  34  37
ATOM     37  C   UNL     1       3.720  10.355   1.382  1.00  0.00     0.039 A 
ATOM     38  C   UNL     1       4.012  11.718   1.229  1.00  0.00     0.014 A 
ATOM     39  C   UNL     1       4.260   9.429   0.495  1.00  0.00     0.014 A 
ATOM     40  C   UNL     1       4.595  12.173   0.050  1.00  0.00     0.010 A 
ATOM     41  C   UNL     1       4.752   9.874  -0.708  1.00  0.00     0.010 A 
ATOM     42  C   UNL     1       4.846  11.247  -0.954  1.00  0.00    -0.014 A 
BRANCH  42  43
ATOM     43  C   UNL     1       5.215  11.577  -2.315  1.00  0.00     0.031 A 
ATOM     44  C   UNL     1       6.636  11.651  -2.678  1.00  0.00     0.074 A 
ATOM     45  C   UNL     1       4.244  11.559  -3.254  1.00  0.00     0.049 A 
ATOM     46  N   UNL     1       7.077  12.161  -3.772  1.00  0.00    -0.248 NA
ATOM     47  C   UNL     1       7.686  11.163  -1.794  1.00  0.00     0.031 C 
ATOM     48  C   UNL     1       4.405  11.405  -4.693  1.00  0.00     0.029 A 
ATOM     49  N   UNL     1       2.893  11.880  -3.091  1.00  0.00    -0.354 N 
ATOM     50  C   UNL     1       8.411  11.827  -3.873  1.00  0.00     0.074 A 
ATOM     51  C   UNL     1       8.758  11.288  -2.581  1.00  0.00     0.031 C 
ATOM     52  C   UNL     1       3.311  11.888  -5.301  1.00  0.00     0.029 A 
ATOM     53  C   UNL     1       2.505  12.529  -4.275  1.00  0.00     0.049 A 
ATOM     54  H   UNL     1       2.329  11.691  -2.306  1.00  0.00     0.167 HD
ATOM     55  C   UNL     1       9.013  11.909  -5.094  1.00  0.00     0.034 A 
ATOM     56  C   UNL     1       2.060  13.819  -4.313  1.00  0.00     0.034 A 
ATOM     57  C   UNL     1       8.079  12.462  -6.088  1.00  0.00     0.049 A 
ATOM     58  C   UNL     1       2.925  14.716  -5.183  1.00  0.00     0.074 A 
ATOM     59  C   UNL     1       7.249  11.875  -7.031  1.00  0.00     0.029 A 
ATOM     60  N   UNL     1       7.677  13.788  -5.984  1.00  0.00    -0.354 N 
ATOM     61  N   UNL     1       4.065  14.355  -5.705  1.00  0.00    -0.248 NA
ATOM     62  C   UNL     1       2.582  16.093  -5.523  1.00  0.00     0.031 C 
ATOM     63  C   UNL     1       6.290  12.844  -7.436  1.00  0.00     0.029 A 
ATOM     64  C   UNL     1       6.558  14.027  -6.768  1.00  0.00     0.049 A 
ATOM     65  H   UNL     1       8.126  14.466  -5.430  1.00  0.00     0.167 HD
ATOM     66  C   UNL     1       4.663  15.422  -6.327  1.00  0.00     0.074 A 
ATOM     67  C   UNL     1       3.651  16.465  -6.250  1.00  0.00     0.031 C 
ATOM     68  C   UNL     1       5.952  15.357  -6.795  1.00  0.00     0.034 A 
BRANCH  55  69
ATOM     69  C   UNL     1      10.316  11.227  -5.487  1.00  0.00     0.023 A 
ATOM     70  C   UNL     1      10.536  11.013  -6.868  1.00  0.00     0.012 A 
ATOM     71  C   UNL     1      11.317  10.723  -4.625  1.00  0.00     0.148 A 
ATOM     72  C   UNL     1      11.611  10.263  -7.358  1.00  0.00     0.002 A 
ATOM     73  C   UNL     1      12.361   9.924  -5.104  1.00  0.00     0.091 A 
ATOM     74  F   UNL     1      11.326  11.075  -3.338  1.00  0.00    -0.205 F 
ATOM     75  C   UNL     1      12.507   9.687  -6.472  1.00  0.00     0.022 A 
BRANCH  73  76
ATOM     76  S   UNL     1      13.534   9.096  -4.012  1.00  0.00     0.127 S 
ATOM     77  O   UNL     1      13.431   7.702  -4.450  1.00  0.00    -0.237 OA
ATOM     78  O   UNL     1      14.797   9.747  -4.354  1.00  0.00    -0.237 OA
ATOM     79  O   UNL     1      13.059   9.327  -2.653  1.00  0.00    -0.744 OA
ENDBRANCH  73  76
ENDBRANCH  55  69
BRANCH  56  80
ATOM     80  C   UNL     1       1.328  14.229  -3.078  1.00  0.00     0.023 A 
ATOM     81  C   UNL     1       0.126  13.533  -2.796  1.00  0.00     0.012 A 
ATOM     82  C   UNL     1       1.972  14.916  -2.034  1.00  0.00     0.148 A 
ATOM     83  C   UNL     1      -0.335  13.393  -1.487  1.00  0.00     0.002 A 
ATOM     84  C   UNL     1       1.503  14.774  -0.728  1.00  0.00     0.091 A 
ATOM     85  F   UNL     1       3.076  15.619  -2.316  1.00  0.00    -0.205 F 
ATOM     86  C   UNL     1       0.378  13.980  -0.448  1.00  0.00     0.022 A 
BRANCH  84  87
ATOM     87  S   UNL     1       2.391  15.468   0.674  1.00  0.00     0.127 S 
ATOM     88  O   UNL     1       1.665  16.715   0.891  1.00  0.00    -0.237 OA
ATOM     89  O   UNL     1       2.189  14.453   1.707  1.00  0.00    -0.237 OA
ATOM     90  O   UNL     1       3.768  15.591   0.219  1.00  0.00    -0.744 OA
ENDBRANCH  84  87
ENDBRANCH  56  80
BRANCH  68  91
ATOM     91  C   UNL     1       6.794  16.523  -7.306  1.00  0.00     0.023 A 
ATOM     92  C   UNL     1       6.456  17.869  -7.080  1.00  0.00     0.012 A 
ATOM     93  C   UNL     1       8.056  16.292  -7.924  1.00  0.00     0.148 A 
ATOM     94  C   UNL     1       7.289  18.925  -7.474  1.00  0.00     0.002 A 
ATOM     95  C   UNL     1       8.933  17.338  -8.200  1.00  0.00     0.091 A 
ATOM     96  F   UNL     1       8.414  15.050  -8.283  1.00  0.00    -0.205 F 
ATOM     97  C   UNL     1       8.541  18.660  -8.006  1.00  0.00     0.022 A 
BRANCH  95  98
ATOM     98  S   UNL     1      10.647  17.013  -8.646  1.00  0.00     0.127 S 
ATOM     99  O   UNL     1      10.591  17.039 -10.106  1.00  0.00    -0.237 OA
ATOM    100  O   UNL     1      11.349  18.148  -8.044  1.00  0.00    -0.237 OA
ATOM    101  O   UNL     1      10.957  15.729  -8.033  1.00  0.00    -0.744 OA
ENDBRANCH  95  98
ENDBRANCH  68  91
ENDBRANCH  42  43
ENDBRANCH  34  37
ENDBRANCH  32  33
ENDBRANCH  31  32
ENDBRANCH   1  31
TORSDOF 19
