REMARK SMILES CC(C)N(CC1CC1)C(=O)NC1(CC(=O)NCCCCNC(=O)c2ccc(-c3c4nc(c(-c5cccc(S(=O)(=O)[O-])c5F)c5ccc([nH]5)c(-c5cccc(S(=O)(=O)[O-])c5F)c5nc(c(-c6cccc(S(=O)(=O)[O-])c6F)c6ccc3[nH]6)C=C5)C=C4)cc2)CCC1
REMARK SMILES IDX 17 1 16 2 14 3 15 4 13 6 12 7 87 8 89 9 88 10 11 11 9 12
REMARK SMILES IDX 10 13 4 15 2 16 1 17 3 18 5 19 6 20 7 21 8 22 18 23 19 24
REMARK SMILES IDX 20 25 21 26 22 27 23 29 24 30 25 31 86 32 26 33 85 34 27 35
REMARK SMILES IDX 28 36 29 37 79 38 30 39 84 40 78 41 80 42 31 43 83 44 77 45
REMARK SMILES IDX 76 46 32 48 64 49 44 50 63 51 45 52 48 53 62 54 81 55 46 56
REMARK SMILES IDX 47 57 61 59 82 60 49 61 33 62 34 63 42 64 35 65 37 66 43 67
REMARK SMILES IDX 36 68 38 69 39 70 40 71 41 72 65 73 66 74 74 75 67 76 69 77
REMARK SMILES IDX 75 78 68 79 70 80 71 81 72 82 73 83 50 84 51 85 59 86 52 87
REMARK SMILES IDX 54 88 60 89 53 90 55 91 56 92 57 93 58 94
REMARK H PARENT 16 5 11 14 21 28 80 47 48 58
REMARK Flexibility Score: inf
ROOT
ATOM      1  C   UNL     1      -7.239   0.253  -0.467  1.00  0.00     0.116 C 
ENDROOT
BRANCH   1   2
ATOM      2  N   UNL     1      -6.075   0.979  -0.931  1.00  0.00    -0.356 N 
ATOM      3  C   UNL     1      -4.760   0.664  -0.739  1.00  0.00     0.222 C 
ATOM      4  O   UNL     1      -3.912   1.539  -0.912  1.00  0.00    -0.275 OA
ATOM      5  H   UNL     1      -6.253   1.797  -1.449  1.00  0.00     0.163 HD
BRANCH   3   6
ATOM      6  C   UNL     1      -4.374  -0.757  -0.393  1.00  0.00     0.128 C 
BRANCH   6   7
ATOM      7  C   UNL     1      -3.982  -1.075   1.061  1.00  0.00     0.051 C 
ATOM      8  C   UNL     1      -4.164  -2.591   1.367  1.00  0.00     0.029 C 
ATOM      9  C   UNL     1      -4.942  -0.931   2.323  1.00  0.00     0.029 C 
ATOM     10  C   UNL     1      -5.557  -2.275   1.931  1.00  0.00     0.005 C 
BRANCH   7  11
ATOM     11  N   UNL     1      -2.747  -0.368   1.413  1.00  0.00    -0.332 N 
ATOM     12  C   UNL     1      -1.415  -0.488   1.420  1.00  0.00     0.318 C 
ATOM     13  O   UNL     1      -0.859   0.524   1.867  1.00  0.00    -0.249 OA
ATOM     14  H   UNL     1      -2.985   0.515   1.776  1.00  0.00     0.165 HD
BRANCH  12  15
ATOM     15  N   UNL     1      -0.700  -1.567   0.993  1.00  0.00    -0.322 N 
BRANCH  15  16
ATOM     16  C   UNL     1       0.778  -1.446   1.006  1.00  0.00     0.080 C 
ATOM     17  C   UNL     1       1.270  -0.390   0.009  1.00  0.00     0.031 C 
ATOM     18  C   UNL     1       1.369  -1.228   2.405  1.00  0.00     0.031 C 
ENDBRANCH  15  16
BRANCH  15  19
ATOM     19  C   UNL     1      -1.204  -2.836   0.474  1.00  0.00     0.125 C 
BRANCH  19  20
ATOM     20  C   UNL     1      -1.208  -3.894   1.554  1.00  0.00     0.009 C 
ATOM     21  C   UNL     1      -2.210  -5.035   1.538  1.00  0.00     0.006 C 
ATOM     22  C   UNL     1      -0.771  -5.313   1.258  1.00  0.00     0.006 C 
ENDBRANCH  19  20
ENDBRANCH  15  19
ENDBRANCH  12  15
ENDBRANCH   7  11
ENDBRANCH   6   7
ENDBRANCH   3   6
ENDBRANCH   1   2
BRANCH   1  23
ATOM     23  C   UNL     1      -7.522   0.635   0.982  1.00  0.00     0.023 C 
BRANCH  23  24
ATOM     24  C   UNL     1      -8.579   1.692   1.212  1.00  0.00     0.023 C 
BRANCH  24  25
ATOM     25  C   UNL     1      -9.941   1.345   0.662  1.00  0.00     0.116 C 
BRANCH  25  26
ATOM     26  N   UNL     1     -10.481   0.073   1.127  1.00  0.00    -0.352 N 
ATOM     27  C   UNL     1     -11.812  -0.225   1.349  1.00  0.00     0.251 C 
ATOM     28  H   UNL     1      -9.831  -0.647   1.301  1.00  0.00     0.163 HD
ATOM     29  O   UNL     1     -12.164  -1.307   1.782  1.00  0.00    -0.269 OA
BRANCH  27  30
ATOM     30  C   UNL     1     -12.786   0.858   1.089  1.00  0.00     0.039 A 
ATOM     31  C   UNL     1     -13.550   1.344   2.149  1.00  0.00     0.014 A 
ATOM     32  C   UNL     1     -12.747   1.523  -0.138  1.00  0.00     0.014 A 
ATOM     33  C   UNL     1     -14.210   2.565   2.003  1.00  0.00     0.010 A 
ATOM     34  C   UNL     1     -13.297   2.792  -0.231  1.00  0.00     0.010 A 
ATOM     35  C   UNL     1     -14.041   3.325   0.833  1.00  0.00    -0.014 A 
BRANCH  35  36
ATOM     36  C   UNL     1     -14.634   4.679   0.685  1.00  0.00     0.031 A 
ATOM     37  C   UNL     1     -15.572   4.953  -0.461  1.00  0.00     0.074 A 
ATOM     38  C   UNL     1     -14.249   5.683   1.501  1.00  0.00     0.049 A 
ATOM     39  N   UNL     1     -16.118   6.082  -0.827  1.00  0.00    -0.248 NA
ATOM     40  C   UNL     1     -15.901   3.819  -1.344  1.00  0.00     0.031 C 
ATOM     41  C   UNL     1     -13.260   5.576   2.578  1.00  0.00     0.029 A 
ATOM     42  N   UNL     1     -14.624   7.003   1.532  1.00  0.00    -0.354 N 
ATOM     43  C   UNL     1     -16.800   5.806  -2.006  1.00  0.00     0.074 A 
ATOM     44  C   UNL     1     -16.562   4.417  -2.322  1.00  0.00     0.031 C 
ATOM     45  C   UNL     1     -13.119   6.774   3.170  1.00  0.00     0.029 A 
ATOM     46  C   UNL     1     -13.985   7.740   2.504  1.00  0.00     0.049 A 
ATOM     47  H   UNL     1     -15.289   7.388   0.916  1.00  0.00     0.167 HD
ATOM     48  C   UNL     1     -17.592   6.622  -2.738  1.00  0.00     0.034 A 
ATOM     49  C   UNL     1     -14.091   9.046   2.821  1.00  0.00     0.034 A 
ATOM     50  C   UNL     1     -17.906   7.972  -2.367  1.00  0.00     0.049 A 
ATOM     51  C   UNL     1     -15.063   9.904   2.055  1.00  0.00     0.074 A 
ATOM     52  C   UNL     1     -18.799   8.842  -2.965  1.00  0.00     0.029 A 
ATOM     53  N   UNL     1     -17.345   8.644  -1.294  1.00  0.00    -0.354 N 
ATOM     54  N   UNL     1     -15.842   9.573   1.054  1.00  0.00    -0.248 NA
ATOM     55  C   UNL     1     -15.204  11.302   2.486  1.00  0.00     0.031 C 
ATOM     56  C   UNL     1     -18.773  10.046  -2.255  1.00  0.00     0.029 A 
ATOM     57  C   UNL     1     -17.872   9.919  -1.209  1.00  0.00     0.049 A 
ATOM     58  H   UNL     1     -16.670   8.269  -0.682  1.00  0.00     0.167 HD
ATOM     59  C   UNL     1     -16.588  10.708   0.759  1.00  0.00     0.074 A 
ATOM     60  C   UNL     1     -16.186  11.729   1.704  1.00  0.00     0.031 C 
ATOM     61  C   UNL     1     -17.509  10.897  -0.218  1.00  0.00     0.034 A 
BRANCH  48  62
ATOM     62  C   UNL     1     -18.244   6.048  -3.967  1.00  0.00     0.023 A 
ATOM     63  C   UNL     1     -19.290   5.114  -3.826  1.00  0.00     0.012 A 
ATOM     64  C   UNL     1     -17.864   6.474  -5.255  1.00  0.00     0.148 A 
ATOM     65  C   UNL     1     -19.928   4.587  -4.946  1.00  0.00     0.002 A 
ATOM     66  C   UNL     1     -18.536   5.978  -6.366  1.00  0.00     0.091 A 
ATOM     67  F   UNL     1     -16.851   7.344  -5.369  1.00  0.00    -0.205 F 
ATOM     68  C   UNL     1     -19.560   5.027  -6.214  1.00  0.00     0.022 A 
BRANCH  66  69
ATOM     69  S   UNL     1     -18.193   6.537  -8.037  1.00  0.00     0.127 S 
ATOM     70  O   UNL     1     -17.580   5.347  -8.626  1.00  0.00    -0.237 OA
ATOM     71  O   UNL     1     -19.532   6.845  -8.539  1.00  0.00    -0.237 OA
ATOM     72  O   UNL     1     -17.313   7.690  -7.904  1.00  0.00    -0.744 OA
ENDBRANCH  66  69
ENDBRANCH  48  62
BRANCH  49  73
ATOM     73  C   UNL     1     -13.319   9.607   3.968  1.00  0.00     0.023 A 
ATOM     74  C   UNL     1     -14.004   9.980   5.142  1.00  0.00     0.012 A 
ATOM     75  C   UNL     1     -11.922   9.764   3.913  1.00  0.00     0.148 A 
ATOM     76  C   UNL     1     -13.318  10.533   6.224  1.00  0.00     0.002 A 
ATOM     77  C   UNL     1     -11.237  10.267   5.015  1.00  0.00     0.091 A 
ATOM     78  F   UNL     1     -11.286   9.421   2.784  1.00  0.00    -0.205 F 
ATOM     79  C   UNL     1     -11.934  10.668   6.165  1.00  0.00     0.022 A 
BRANCH  77  80
ATOM     80  S   UNL     1      -9.443  10.347   5.067  1.00  0.00     0.127 S 
ATOM     81  O   UNL     1      -9.199  11.765   4.823  1.00  0.00    -0.237 OA
ATOM     82  O   UNL     1      -9.154   9.896   6.429  1.00  0.00    -0.237 OA
ATOM     83  O   UNL     1      -8.988   9.430   4.029  1.00  0.00    -0.744 OA
ENDBRANCH  77  80
ENDBRANCH  49  73
BRANCH  61  84
ATOM     84  C   UNL     1     -18.177  12.242  -0.300  1.00  0.00     0.023 A 
ATOM     85  C   UNL     1     -17.462  13.345  -0.804  1.00  0.00     0.012 A 
ATOM     86  C   UNL     1     -19.538  12.389   0.031  1.00  0.00     0.148 A 
ATOM     87  C   UNL     1     -18.085  14.583  -0.952  1.00  0.00     0.002 A 
ATOM     88  C   UNL     1     -20.165  13.613  -0.164  1.00  0.00     0.091 A 
ATOM     89  F   UNL     1     -20.195  11.329   0.526  1.00  0.00    -0.205 F 
ATOM     90  C   UNL     1     -19.437  14.714  -0.645  1.00  0.00     0.022 A 
BRANCH  88  91
ATOM     91  S   UNL     1     -21.925  13.843   0.112  1.00  0.00     0.127 S 
ATOM     92  O   UNL     1     -21.936  14.582   1.372  1.00  0.00    -0.237 OA
ATOM     93  O   UNL     1     -22.325  14.625  -1.058  1.00  0.00    -0.237 OA
ATOM     94  O   UNL     1     -22.498  12.504   0.164  1.00  0.00    -0.744 OA
ENDBRANCH  88  91
ENDBRANCH  61  84
ENDBRANCH  35  36
ENDBRANCH  27  30
ENDBRANCH  25  26
ENDBRANCH  24  25
ENDBRANCH  23  24
ENDBRANCH   1  23
TORSDOF 20
