REMARK SMILES CC(C)(Cn1ccnc1C(N)=S)C(=O)NCCCCNC(=O)c1ccc(-c2c3nc(c(-c4cccc(S(=O)(=O)[O-])c4F)c4ccc([nH]4)c(-c4cccc(S(=O)(=O)[O-])c4F)c4nc(c(-c5cccc(S(=O)(=O)[O-])c5F)c5ccc2[nH]5)C=C4)C=C3)cc1
REMARK SMILES IDX 17 1 16 2 15 3 13 4 14 5 2 7 1 8 3 9 4 10 5 11 6 12 9 13
REMARK SMILES IDX 7 14 8 15 10 16 12 17 11 18 18 21 19 22 20 23 21 24 22 26
REMARK SMILES IDX 23 27 24 28 85 29 25 30 84 31 26 32 27 33 28 34 78 35 29 36
REMARK SMILES IDX 83 37 77 38 79 39 30 40 82 41 76 42 75 43 31 45 63 46 43 47
REMARK SMILES IDX 62 48 44 49 47 50 61 51 80 52 45 53 46 54 60 56 81 57 48 58
REMARK SMILES IDX 32 59 33 60 41 61 34 62 36 63 42 64 35 65 37 66 38 67 39 68
REMARK SMILES IDX 40 69 64 70 65 71 73 72 66 73 68 74 74 75 67 76 69 77 70 78
REMARK SMILES IDX 71 79 72 80 49 81 50 82 58 83 51 84 53 85 59 86 52 87 54 88
REMARK SMILES IDX 55 89 56 90 57 91
REMARK H PARENT 15 6 11 19 11 20 20 25 79 44 47 55
REMARK Flexibility Score: inf
ROOT
ATOM      1  C   UNL     1      -1.527  -2.645   4.184  1.00  0.00     0.023 C 
ENDROOT
BRANCH   1   2
ATOM      2  C   UNL     1      -0.209  -1.868   4.113  1.00  0.00     0.116 C 
BRANCH   2   3
ATOM      3  N   UNL     1       0.676  -2.334   3.061  1.00  0.00    -0.356 N 
ATOM      4  C   UNL     1       1.068  -1.818   1.863  1.00  0.00     0.227 C 
ATOM      5  O   UNL     1       1.827  -2.529   1.198  1.00  0.00    -0.274 OA
ATOM      6  H   UNL     1       1.079  -3.212   3.255  1.00  0.00     0.163 HD
BRANCH   4   7
ATOM      7  C   UNL     1       0.580  -0.463   1.321  1.00  0.00     0.061 C 
ATOM      8  C   UNL     1       1.221  -0.201  -0.067  1.00  0.00     0.023 C 
ATOM      9  C   UNL     1       1.086   0.676   2.230  1.00  0.00     0.023 C 
BRANCH   7  10
ATOM     10  C   UNL     1      -0.962  -0.419   1.177  1.00  0.00     0.140 C 
BRANCH  10  11
ATOM     11  N   UNL     1      -1.546  -1.280   0.156  1.00  0.00    -0.328 N 
ATOM     12  C   UNL     1      -1.473  -2.654   0.202  1.00  0.00     0.108 A 
ATOM     13  C   UNL     1      -2.249  -0.948  -0.995  1.00  0.00     0.167 A 
ATOM     14  C   UNL     1      -2.006  -3.102  -0.974  1.00  0.00     0.131 A 
ATOM     15  N   UNL     1      -2.484  -2.055  -1.701  1.00  0.00    -0.235 NA
BRANCH  13  16
ATOM     16  C   UNL     1      -2.734   0.311  -1.542  1.00  0.00     0.140 C 
ATOM     17  S   UNL     1      -2.885   1.757  -0.742  1.00  0.00    -0.057 S 
BRANCH  16  18
ATOM     18  N   UNL     1      -3.164   0.229  -2.841  1.00  0.00    -0.387 N 
ATOM     19  H   UNL     1      -3.083  -0.620  -3.333  1.00  0.00     0.157 HD
ATOM     20  H   UNL     1      -3.553   1.018  -3.282  1.00  0.00     0.157 HD
ENDBRANCH  16  18
ENDBRANCH  13  16
ENDBRANCH  10  11
ENDBRANCH   7  10
ENDBRANCH   4   7
ENDBRANCH   2   3
ENDBRANCH   1   2
BRANCH   1  21
ATOM     21  C   UNL     1      -1.424  -4.128   4.559  1.00  0.00     0.023 C 
BRANCH  21  22
ATOM     22  C   UNL     1      -0.806  -4.404   5.925  1.00  0.00     0.116 C 
BRANCH  22  23
ATOM     23  N   UNL     1      -1.550  -3.771   7.010  1.00  0.00    -0.352 N 
ATOM     24  C   UNL     1      -1.180  -3.619   8.330  1.00  0.00     0.251 C 
ATOM     25  H   UNL     1      -2.431  -3.404   6.768  1.00  0.00     0.163 HD
ATOM     26  O   UNL     1      -2.026  -3.385   9.185  1.00  0.00    -0.269 OA
BRANCH  24  27
ATOM     27  C   UNL     1       0.239  -3.758   8.705  1.00  0.00     0.039 A 
ATOM     28  C   UNL     1       0.595  -4.525   9.817  1.00  0.00     0.014 A 
ATOM     29  C   UNL     1       1.216  -3.137   7.927  1.00  0.00     0.014 A 
ATOM     30  C   UNL     1       1.943  -4.747  10.082  1.00  0.00     0.010 A 
ATOM     31  C   UNL     1       2.548  -3.429   8.136  1.00  0.00     0.010 A 
ATOM     32  C   UNL     1       2.920  -4.225   9.220  1.00  0.00    -0.014 A 
BRANCH  32  33
ATOM     33  C   UNL     1       4.311  -4.658   9.358  1.00  0.00     0.031 A 
ATOM     34  C   UNL     1       4.524  -6.133   9.295  1.00  0.00     0.074 A 
ATOM     35  C   UNL     1       5.369  -3.820   9.312  1.00  0.00     0.049 A 
ATOM     36  N   UNL     1       4.996  -6.904  10.219  1.00  0.00    -0.248 NA
ATOM     37  C   UNL     1       4.053  -6.854   8.103  1.00  0.00     0.031 C 
ATOM     38  C   UNL     1       5.352  -2.377   9.054  1.00  0.00     0.029 A 
ATOM     39  N   UNL     1       6.702  -4.114   9.326  1.00  0.00    -0.354 N 
ATOM     40  C   UNL     1       5.092  -8.174   9.647  1.00  0.00     0.074 A 
ATOM     41  C   UNL     1       4.329  -8.118   8.428  1.00  0.00     0.031 C 
ATOM     42  C   UNL     1       6.585  -1.979   8.676  1.00  0.00     0.029 A 
ATOM     43  C   UNL     1       7.502  -3.096   8.816  1.00  0.00     0.049 A 
ATOM     44  H   UNL     1       7.063  -4.965   9.665  1.00  0.00     0.167 HD
ATOM     45  C   UNL     1       5.987  -9.094  10.107  1.00  0.00     0.034 A 
ATOM     46  C   UNL     1       8.812  -3.173   8.481  1.00  0.00     0.034 A 
ATOM     47  C   UNL     1       6.514  -8.712  11.394  1.00  0.00     0.049 A 
ATOM     48  C   UNL     1       9.383  -4.339   9.188  1.00  0.00     0.074 A 
ATOM     49  C   UNL     1       5.978  -8.423  12.633  1.00  0.00     0.029 A 
ATOM     50  N   UNL     1       7.803  -8.239  11.420  1.00  0.00    -0.354 N 
ATOM     51  N   UNL     1       9.557  -4.386  10.479  1.00  0.00    -0.248 NA
ATOM     52  C   UNL     1       9.429  -5.620   8.504  1.00  0.00     0.031 C 
ATOM     53  C   UNL     1       6.806  -7.388  13.159  1.00  0.00     0.029 A 
ATOM     54  C   UNL     1       7.826  -7.144  12.238  1.00  0.00     0.049 A 
ATOM     55  H   UNL     1       8.571  -8.619  10.936  1.00  0.00     0.167 HD
ATOM     56  C   UNL     1       9.260  -5.698  10.815  1.00  0.00     0.074 A 
ATOM     57  C   UNL     1       9.339  -6.436   9.557  1.00  0.00     0.031 C 
ATOM     58  C   UNL     1       8.682  -6.000  12.016  1.00  0.00     0.034 A 
BRANCH  45  59
ATOM     59  C   UNL     1       6.695 -10.146   9.269  1.00  0.00     0.023 A 
ATOM     60  C   UNL     1       7.549 -11.043   9.958  1.00  0.00     0.012 A 
ATOM     61  C   UNL     1       6.808 -10.123   7.861  1.00  0.00     0.148 A 
ATOM     62  C   UNL     1       8.527 -11.793   9.295  1.00  0.00     0.002 A 
ATOM     63  C   UNL     1       7.726 -10.933   7.199  1.00  0.00     0.091 A 
ATOM     64  F   UNL     1       6.124  -9.230   7.144  1.00  0.00    -0.205 F 
ATOM     65  C   UNL     1       8.616 -11.739   7.912  1.00  0.00     0.022 A 
BRANCH  63  66
ATOM     66  S   UNL     1       7.843 -10.950   5.405  1.00  0.00     0.127 S 
ATOM     67  O   UNL     1       9.071 -10.192   5.185  1.00  0.00    -0.237 OA
ATOM     68  O   UNL     1       7.938 -12.383   5.124  1.00  0.00    -0.237 OA
ATOM     69  O   UNL     1       6.612 -10.331   4.929  1.00  0.00    -0.744 OA
ENDBRANCH  63  66
ENDBRANCH  45  59
BRANCH  46  70
ATOM     70  C   UNL     1       9.597  -2.398   7.493  1.00  0.00     0.023 A 
ATOM     71  C   UNL     1      11.000  -2.344   7.608  1.00  0.00     0.012 A 
ATOM     72  C   UNL     1       9.009  -1.927   6.299  1.00  0.00     0.148 A 
ATOM     73  C   UNL     1      11.794  -1.871   6.557  1.00  0.00     0.002 A 
ATOM     74  C   UNL     1       9.802  -1.443   5.261  1.00  0.00     0.091 A 
ATOM     75  F   UNL     1       7.683  -2.038   6.140  1.00  0.00    -0.205 F 
ATOM     76  C   UNL     1      11.197  -1.427   5.382  1.00  0.00     0.022 A 
BRANCH  74  77
ATOM     77  S   UNL     1       9.092  -0.865   3.714  1.00  0.00     0.127 S 
ATOM     78  O   UNL     1       9.868   0.348   3.454  1.00  0.00    -0.237 OA
ATOM     79  O   UNL     1       9.379  -1.980   2.816  1.00  0.00    -0.237 OA
ATOM     80  O   UNL     1       7.684  -0.620   3.997  1.00  0.00    -0.744 OA
ENDBRANCH  74  77
ENDBRANCH  46  70
BRANCH  58  81
ATOM     81  C   UNL     1       8.673  -4.945  13.095  1.00  0.00     0.023 A 
ATOM     82  C   UNL     1       8.049  -3.693  12.920  1.00  0.00     0.012 A 
ATOM     83  C   UNL     1       9.149  -5.292  14.371  1.00  0.00     0.148 A 
ATOM     84  C   UNL     1       7.933  -2.794  13.983  1.00  0.00     0.002 A 
ATOM     85  C   UNL     1       8.982  -4.418  15.439  1.00  0.00     0.091 A 
ATOM     86  F   UNL     1       9.740  -6.487  14.528  1.00  0.00    -0.205 F 
ATOM     87  C   UNL     1       8.386  -3.163  15.247  1.00  0.00     0.022 A 
BRANCH  85  88
ATOM     88  S   UNL     1       9.415  -4.904  17.112  1.00  0.00     0.127 S 
ATOM     89  O   UNL     1      10.717  -4.266  17.290  1.00  0.00    -0.237 OA
ATOM     90  O   UNL     1       8.333  -4.317  17.905  1.00  0.00    -0.237 OA
ATOM     91  O   UNL     1       9.420  -6.362  17.109  1.00  0.00    -0.744 OA
ENDBRANCH  85  88
ENDBRANCH  58  81
ENDBRANCH  32  33
ENDBRANCH  24  27
ENDBRANCH  22  23
ENDBRANCH  21  22
ENDBRANCH   1  21
TORSDOF 18
