REMARK SMILES COc1ccccc1[C@@H]1C[N@@H+](Cc2cn3cc(C)ccc3n2)C[C@H]1C(=O)NCCCCNC(=O)c1ccc(-c2c3nc(c(-c4cccc(S(=O)(=O)[O-])c4F)c4ccc([nH]4)c(-c4cccc(S(=O)(=O)[O-])c4F)c4nc(c(-c5cccc(S(=O)(=O)[O-])c5F)c5ccc2[nH]5)C=C4)C=C3)cc1
REMARK SMILES IDX 30 1 29 2 28 3 27 4 25 5 26 6 24 8 9 9 10 10 11 11 23 12
REMARK SMILES IDX 8 14 3 15 4 16 5 17 7 18 6 19 2 20 1 21 12 22 13 23 14 24
REMARK SMILES IDX 22 25 15 26 21 27 16 28 20 29 17 30 19 31 18 32 31 33 32 34
REMARK SMILES IDX 33 35 34 37 35 38 36 39 97 40 37 41 96 42 38 43 39 44 40 45
REMARK SMILES IDX 90 46 41 47 95 48 89 49 91 50 42 51 94 52 88 53 87 54 43 56
REMARK SMILES IDX 75 57 55 58 74 59 56 60 59 61 73 62 92 63 57 64 58 65 72 67
REMARK SMILES IDX 93 68 60 69 44 70 45 71 53 72 46 73 48 74 54 75 47 76 49 77
REMARK SMILES IDX 50 78 51 79 52 80 76 81 77 82 85 83 78 84 80 85 86 86 79 87
REMARK SMILES IDX 81 88 82 89 83 90 84 91 61 92 62 93 70 94 63 95 65 96 71 97
REMARK SMILES IDX 64 98 66 99 67 100 68 101 69 102
REMARK H PARENT 27 7 11 13 32 36 91 55 59 66
REMARK Flexibility Score: inf
ROOT
ATOM      1  C   UNL     1       7.227   3.380   1.390  1.00  0.00     0.023 C 
ENDROOT
BRANCH   1   2
ATOM      2  C   UNL     1       6.865   1.889   1.469  1.00  0.00     0.023 C 
BRANCH   2   3
ATOM      3  C   UNL     1       5.546   1.486   2.167  1.00  0.00     0.116 C 
BRANCH   3   4
ATOM      4  N   UNL     1       4.333   2.198   1.772  1.00  0.00    -0.356 N 
ATOM      5  C   UNL     1       3.214   1.997   1.028  1.00  0.00     0.229 C 
ATOM      6  O   UNL     1       2.480   3.001   0.958  1.00  0.00    -0.275 OA
ATOM      7  H   UNL     1       4.323   3.100   2.167  1.00  0.00     0.163 HD
BRANCH   5   8
ATOM      8  C   UNL     1       2.719   0.722   0.309  1.00  0.00     0.146 C 
ATOM      9  C   UNL     1       2.455   0.905  -1.220  1.00  0.00     0.096 C 
ATOM     10  C   UNL     1       2.860  -0.425  -1.865  1.00  0.00     0.272 C 
ATOM     11  N   UNL     1       3.950  -0.934  -1.020  1.00  0.00    -0.329 N 
ATOM     12  C   UNL     1       3.535  -0.571   0.351  1.00  0.00     0.276 C 
ATOM     13  H   UNL     1       4.059  -1.942  -1.134  1.00  0.00     0.348 HD
BRANCH   9  14
ATOM     14  C   UNL     1       1.322   1.682  -1.862  1.00  0.00     0.004 A 
ATOM     15  C   UNL     1       0.018   1.250  -2.096  1.00  0.00     0.122 A 
ATOM     16  C   UNL     1      -0.853   2.037  -2.874  1.00  0.00     0.047 A 
ATOM     17  C   UNL     1      -0.444   3.250  -3.436  1.00  0.00     0.004 A 
ATOM     18  C   UNL     1       1.698   2.931  -2.437  1.00  0.00     0.008 A 
ATOM     19  C   UNL     1       0.846   3.696  -3.223  1.00  0.00     0.001 A 
BRANCH  15  20
ATOM     20  O   UNL     1      -0.470   0.020  -1.755  1.00  0.00    -0.496 OA
ATOM     21  C   UNL     1      -0.515  -0.202  -0.349  1.00  0.00     0.278 C 
ENDBRANCH  15  20
ENDBRANCH   9  14
BRANCH  11  22
ATOM     22  C   UNL     1       5.335  -0.535  -1.400  1.00  0.00     0.321 C 
BRANCH  22  23
ATOM     23  C   UNL     1       5.638   0.919  -1.702  1.00  0.00     0.114 A 
ATOM     24  C   UNL     1       6.524   1.524  -2.585  1.00  0.00     0.122 A 
ATOM     25  N   UNL     1       5.080   1.900  -0.935  1.00  0.00    -0.228 NA
ATOM     26  N   UNL     1       6.461   2.887  -2.328  1.00  0.00    -0.306 N 
ATOM     27  C   UNL     1       5.439   3.058  -1.419  1.00  0.00     0.137 A 
ATOM     28  C   UNL     1       7.272   3.950  -2.732  1.00  0.00     0.096 A 
ATOM     29  C   UNL     1       5.071   4.373  -1.034  1.00  0.00     0.048 A 
ATOM     30  C   UNL     1       7.022   5.192  -2.255  1.00  0.00    -0.034 A 
ATOM     31  C   UNL     1       5.831   5.406  -1.431  1.00  0.00     0.009 A 
ATOM     32  C   UNL     1       7.936   6.364  -2.420  1.00  0.00     0.046 C 
ENDBRANCH  22  23
ENDBRANCH  11  22
ENDBRANCH   5   8
ENDBRANCH   3   4
ENDBRANCH   2   3
ENDBRANCH   1   2
BRANCH   1  33
ATOM     33  C   UNL     1       8.562   3.834   1.992  1.00  0.00     0.116 C 
BRANCH  33  34
ATOM     34  N   UNL     1       9.758   3.304   1.318  1.00  0.00    -0.352 N 
ATOM     35  C   UNL     1      10.929   2.801   1.893  1.00  0.00     0.251 C 
ATOM     36  H   UNL     1       9.730   3.305   0.334  1.00  0.00     0.163 HD
ATOM     37  O   UNL     1      11.960   2.708   1.283  1.00  0.00    -0.269 OA
BRANCH  35  38
ATOM     38  C   UNL     1      10.819   2.349   3.297  1.00  0.00     0.039 A 
ATOM     39  C   UNL     1      11.562   2.919   4.324  1.00  0.00     0.014 A 
ATOM     40  C   UNL     1       9.746   1.519   3.565  1.00  0.00     0.014 A 
ATOM     41  C   UNL     1      11.080   2.790   5.627  1.00  0.00     0.010 A 
ATOM     42  C   UNL     1       9.152   1.596   4.796  1.00  0.00     0.010 A 
ATOM     43  C   UNL     1       9.818   2.205   5.851  1.00  0.00    -0.014 A 
BRANCH  43  44
ATOM     44  C   UNL     1       9.126   2.369   7.132  1.00  0.00     0.031 A 
ATOM     45  C   UNL     1       9.233   3.722   7.744  1.00  0.00     0.074 A 
ATOM     46  C   UNL     1       8.277   1.473   7.682  1.00  0.00     0.049 A 
ATOM     47  N   UNL     1      10.088   4.099   8.637  1.00  0.00    -0.248 NA
ATOM     48  C   UNL     1       8.425   4.819   7.198  1.00  0.00     0.031 C 
ATOM     49  C   UNL     1       7.759   0.218   7.120  1.00  0.00     0.029 A 
ATOM     50  N   UNL     1       7.604   1.568   8.860  1.00  0.00    -0.354 N 
ATOM     51  C   UNL     1       9.733   5.404   8.971  1.00  0.00     0.074 A 
ATOM     52  C   UNL     1       8.899   5.860   7.890  1.00  0.00     0.031 C 
ATOM     53  C   UNL     1       6.681  -0.185   7.825  1.00  0.00     0.029 A 
ATOM     54  C   UNL     1       6.585   0.639   9.010  1.00  0.00     0.049 A 
ATOM     55  H   UNL     1       7.821   2.238   9.548  1.00  0.00     0.167 HD
ATOM     56  C   UNL     1       9.917   5.874  10.240  1.00  0.00     0.034 A 
ATOM     57  C   UNL     1       5.733   0.528  10.052  1.00  0.00     0.034 A 
ATOM     58  C   UNL     1      10.707   4.940  11.017  1.00  0.00     0.049 A 
ATOM     59  C   UNL     1       6.410   1.137  11.218  1.00  0.00     0.074 A 
ATOM     60  C   UNL     1      11.951   4.352  10.903  1.00  0.00     0.029 A 
ATOM     61  N   UNL     1      10.011   4.175  11.924  1.00  0.00    -0.354 N 
ATOM     62  N   UNL     1       7.494   0.645  11.755  1.00  0.00    -0.248 NA
ATOM     63  C   UNL     1       6.117   2.518  11.555  1.00  0.00     0.031 C 
ATOM     64  C   UNL     1      11.775   3.019  11.387  1.00  0.00     0.029 A 
ATOM     65  C   UNL     1      10.458   2.887  11.835  1.00  0.00     0.049 A 
ATOM     66  H   UNL     1       9.311   4.500  12.534  1.00  0.00     0.167 HD
ATOM     67  C   UNL     1       8.245   1.762  12.094  1.00  0.00     0.074 A 
ATOM     68  C   UNL     1       7.290   2.866  12.091  1.00  0.00     0.031 C 
ATOM     69  C   UNL     1       9.612   1.730  12.055  1.00  0.00     0.034 A 
BRANCH  56  70
ATOM     70  C   UNL     1       9.062   6.915  10.956  1.00  0.00     0.023 A 
ATOM     71  C   UNL     1       9.443   7.238  12.284  1.00  0.00     0.012 A 
ATOM     72  C   UNL     1       7.783   7.352  10.549  1.00  0.00     0.148 A 
ATOM     73  C   UNL     1       8.559   7.838  13.187  1.00  0.00     0.002 A 
ATOM     74  C   UNL     1       6.928   8.005  11.433  1.00  0.00     0.091 A 
ATOM     75  F   UNL     1       7.318   7.052   9.338  1.00  0.00    -0.205 F 
ATOM     76  C   UNL     1       7.294   8.213  12.764  1.00  0.00     0.022 A 
BRANCH  74  77
ATOM     77  S   UNL     1       5.288   8.548  10.929  1.00  0.00     0.127 S 
ATOM     78  O   UNL     1       4.442   7.564  11.599  1.00  0.00    -0.237 OA
ATOM     79  O   UNL     1       5.236   9.899  11.489  1.00  0.00    -0.237 OA
ATOM     80  O   UNL     1       5.291   8.505   9.472  1.00  0.00    -0.744 OA
ENDBRANCH  74  77
ENDBRANCH  56  70
BRANCH  57  81
ATOM     81  C   UNL     1       4.334   0.062  10.082  1.00  0.00     0.023 A 
ATOM     82  C   UNL     1       3.773  -0.385  11.293  1.00  0.00     0.012 A 
ATOM     83  C   UNL     1       3.470   0.320   8.995  1.00  0.00     0.148 A 
ATOM     84  C   UNL     1       2.388  -0.519  11.435  1.00  0.00     0.002 A 
ATOM     85  C   UNL     1       2.093   0.183   9.140  1.00  0.00     0.091 A 
ATOM     86  F   UNL     1       3.992   0.787   7.852  1.00  0.00    -0.205 F 
ATOM     87  C   UNL     1       1.548  -0.222  10.365  1.00  0.00     0.022 A 
BRANCH  85  88
ATOM     88  S   UNL     1       0.946   0.571   7.811  1.00  0.00     0.127 S 
ATOM     89  O   UNL     1       0.046  -0.583   7.840  1.00  0.00    -0.237 OA
ATOM     90  O   UNL     1       0.355   1.821   8.278  1.00  0.00    -0.237 OA
ATOM     91  O   UNL     1       1.759   0.663   6.604  1.00  0.00    -0.744 OA
ENDBRANCH  85  88
ENDBRANCH  57  81
BRANCH  69  92
ATOM     92  C   UNL     1      10.293   0.384  11.975  1.00  0.00     0.023 A 
ATOM     93  C   UNL     1      10.123  -0.488  10.880  1.00  0.00     0.012 A 
ATOM     94  C   UNL     1      11.252   0.064  12.951  1.00  0.00     0.148 A 
ATOM     95  C   UNL     1      10.873  -1.663  10.775  1.00  0.00     0.002 A 
ATOM     96  C   UNL     1      12.030  -1.081  12.820  1.00  0.00     0.091 A 
ATOM     97  F   UNL     1      11.407   0.903  13.988  1.00  0.00    -0.205 F 
ATOM     98  C   UNL     1      11.836  -1.953  11.738  1.00  0.00     0.022 A 
BRANCH  96  99
ATOM     99  S   UNL     1      13.368  -1.440  13.960  1.00  0.00     0.127 S 
ATOM    100  O   UNL     1      12.783  -2.483  14.800  1.00  0.00    -0.237 OA
ATOM    101  O   UNL     1      14.432  -1.900  13.066  1.00  0.00    -0.237 OA
ATOM    102  O   UNL     1      13.665  -0.182  14.634  1.00  0.00    -0.744 OA
ENDBRANCH  96  99
ENDBRANCH  69  92
ENDBRANCH  43  44
ENDBRANCH  35  38
ENDBRANCH  33  34
ENDBRANCH   1  33
TORSDOF 18
