REMARK SMILES O=C(NCCCCNC(=O)[C@@H]1CCCN1S(=O)(=O)c1ccc2c3c(cccc13)C(=O)N2)c1ccc(-c2c3nc(c(-c4cccc(S(=O)(=O)[O-])c4F)c4ccc([nH]4)c(-c4cccc(S(=O)(=O)[O-])c4F)c4nc(c(-c5cccc(S(=O)(=O)[O-])c5F)c5ccc2[nH]5)C=C4)C=C3)cc1
REMARK SMILES IDX 5 1 4 2 3 3 1 4 2 5 32 7 33 8 94 9 34 10 93 11 35 12 36 13
REMARK SMILES IDX 37 14 87 15 38 16 92 17 86 18 88 19 39 20 91 21 85 22 84 23
REMARK SMILES IDX 40 25 72 26 52 27 71 28 53 29 56 30 70 31 89 32 54 33 55 34
REMARK SMILES IDX 69 36 90 37 57 38 41 39 42 40 50 41 43 42 45 43 51 44 44 45
REMARK SMILES IDX 46 46 47 47 48 48 49 49 73 50 74 51 82 52 75 53 77 54 83 55
REMARK SMILES IDX 76 56 78 57 79 58 80 59 81 60 58 61 59 62 67 63 60 64 62 65
REMARK SMILES IDX 68 66 61 67 63 68 64 69 65 70 66 71 6 72 7 73 8 74 9 75
REMARK SMILES IDX 10 77 11 78 12 79 15 80 13 81 14 82 16 83 17 84 18 85 19 86
REMARK SMILES IDX 20 87 28 88 21 89 23 90 27 91 22 92 24 93 26 94 31 95 25 96
REMARK SMILES IDX 29 97 30 99
REMARK H PARENT 3 6 88 24 56 35 8 76 31 98
REMARK Flexibility Score: inf
ROOT
ATOM      1  C   UNL     1       4.866  -1.783   1.750  1.00  0.00     0.023 C 
ENDROOT
BRANCH   1   2
ATOM      2  C   UNL     1       4.551  -1.081   0.434  1.00  0.00     0.116 C 
BRANCH   2   3
ATOM      3  N   UNL     1       3.119  -1.029   0.186  1.00  0.00    -0.352 N 
ATOM      4  O   UNL     1       1.110  -0.027  -0.006  1.00  0.00    -0.269 OA
ATOM      5  C   UNL     1       2.332   0.070  -0.048  1.00  0.00     0.251 C 
ATOM      6  H   UNL     1       2.653  -1.896   0.188  1.00  0.00     0.163 HD
BRANCH   5   7
ATOM      7  C   UNL     1       2.982   1.361  -0.338  1.00  0.00     0.039 A 
ATOM      8  C   UNL     1       3.979   1.434  -1.317  1.00  0.00     0.014 A 
ATOM      9  C   UNL     1       2.607   2.493   0.387  1.00  0.00     0.014 A 
ATOM     10  C   UNL     1       4.678   2.622  -1.495  1.00  0.00     0.010 A 
ATOM     11  C   UNL     1       3.275   3.697   0.168  1.00  0.00     0.010 A 
ATOM     12  C   UNL     1       4.335   3.761  -0.751  1.00  0.00    -0.014 A 
BRANCH  12  13
ATOM     13  C   UNL     1       5.078   5.024  -0.965  1.00  0.00     0.031 A 
ATOM     14  C   UNL     1       5.996   5.563   0.095  1.00  0.00     0.074 A 
ATOM     15  C   UNL     1       4.926   5.680  -2.131  1.00  0.00     0.049 A 
ATOM     16  N   UNL     1       6.739   6.637   0.062  1.00  0.00    -0.248 NA
ATOM     17  C   UNL     1       6.099   4.800   1.350  1.00  0.00     0.031 C 
ATOM     18  C   UNL     1       4.048   5.257  -3.225  1.00  0.00     0.029 A 
ATOM     19  N   UNL     1       5.497   6.838  -2.588  1.00  0.00    -0.354 N 
ATOM     20  C   UNL     1       7.381   6.695   1.292  1.00  0.00     0.074 A 
ATOM     21  C   UNL     1       6.935   5.551   2.056  1.00  0.00     0.031 C 
ATOM     22  C   UNL     1       4.146   6.141  -4.230  1.00  0.00     0.029 A 
ATOM     23  C   UNL     1       5.062   7.207  -3.838  1.00  0.00     0.049 A 
ATOM     24  H   UNL     1       6.156   7.356  -2.071  1.00  0.00     0.167 HD
ATOM     25  C   UNL     1       8.274   7.610   1.733  1.00  0.00     0.034 A 
ATOM     26  C   UNL     1       5.357   8.290  -4.584  1.00  0.00     0.034 A 
ATOM     27  C   UNL     1       8.730   8.734   0.962  1.00  0.00     0.049 A 
ATOM     28  C   UNL     1       6.335   9.300  -4.059  1.00  0.00     0.074 A 
ATOM     29  C   UNL     1       9.672   9.685   1.314  1.00  0.00     0.029 A 
ATOM     30  N   UNL     1       8.274   9.068  -0.302  1.00  0.00    -0.354 N 
ATOM     31  N   UNL     1       7.006   9.283  -2.934  1.00  0.00    -0.248 NA
ATOM     32  C   UNL     1       6.615  10.465  -4.911  1.00  0.00     0.031 C 
ATOM     33  C   UNL     1       9.768  10.609   0.271  1.00  0.00     0.029 A 
ATOM     34  C   UNL     1       8.906  10.218  -0.740  1.00  0.00     0.049 A 
ATOM     35  H   UNL     1       7.600   8.563  -0.812  1.00  0.00     0.167 HD
ATOM     36  C   UNL     1       7.805  10.420  -2.950  1.00  0.00     0.074 A 
ATOM     37  C   UNL     1       7.543  11.099  -4.203  1.00  0.00     0.031 C 
ATOM     38  C   UNL     1       8.668  10.862  -2.006  1.00  0.00     0.034 A 
BRANCH  25  39
ATOM     39  C   UNL     1       8.867   7.425   3.102  1.00  0.00     0.023 A 
ATOM     40  C   UNL     1       9.902   6.487   3.283  1.00  0.00     0.012 A 
ATOM     41  C   UNL     1       8.492   8.264   4.169  1.00  0.00     0.148 A 
ATOM     42  C   UNL     1      10.557   6.386   4.509  1.00  0.00     0.002 A 
ATOM     43  C   UNL     1       9.168   8.177   5.380  1.00  0.00     0.091 A 
ATOM     44  F   UNL     1       7.498   9.142   3.971  1.00  0.00    -0.205 F 
ATOM     45  C   UNL     1      10.199   7.237   5.552  1.00  0.00     0.022 A 
BRANCH  43  46
ATOM     46  S   UNL     1       8.819   9.257   6.771  1.00  0.00     0.127 S 
ATOM     47  O   UNL     1       8.349   8.302   7.774  1.00  0.00    -0.237 OA
ATOM     48  O   UNL     1      10.134   9.835   7.047  1.00  0.00    -0.237 OA
ATOM     49  O   UNL     1       7.816  10.205   6.306  1.00  0.00    -0.744 OA
ENDBRANCH  43  46
ENDBRANCH  25  39
BRANCH  26  50
ATOM     50  C   UNL     1       4.741   8.433  -5.929  1.00  0.00     0.023 A 
ATOM     51  C   UNL     1       5.519   8.181  -7.074  1.00  0.00     0.012 A 
ATOM     52  C   UNL     1       3.375   8.741  -6.072  1.00  0.00     0.148 A 
ATOM     53  C   UNL     1       4.946   8.240  -8.344  1.00  0.00     0.002 A 
ATOM     54  C   UNL     1       2.802   8.763  -7.337  1.00  0.00     0.091 A 
ATOM     55  F   UNL     1       2.659   8.972  -4.962  1.00  0.00    -0.205 F 
ATOM     56  C   UNL     1       3.588   8.521  -8.475  1.00  0.00     0.022 A 
BRANCH  54  57
ATOM     57  S   UNL     1       1.046   9.027  -7.603  1.00  0.00     0.127 S 
ATOM     58  O   UNL     1       1.046  10.260  -8.387  1.00  0.00    -0.237 OA
ATOM     59  O   UNL     1       0.675   7.824  -8.347  1.00  0.00    -0.237 OA
ATOM     60  O   UNL     1       0.453   9.131  -6.277  1.00  0.00    -0.744 OA
ENDBRANCH  54  57
ENDBRANCH  26  50
BRANCH  38  61
ATOM     61  C   UNL     1       9.425  12.134  -2.272  1.00  0.00     0.023 A 
ATOM     62  C   UNL     1       8.779  13.373  -2.100  1.00  0.00     0.012 A 
ATOM     63  C   UNL     1      10.805  12.099  -2.550  1.00  0.00     0.148 A 
ATOM     64  C   UNL     1       9.499  14.562  -2.205  1.00  0.00     0.002 A 
ATOM     65  C   UNL     1      11.522  13.286  -2.619  1.00  0.00     0.091 A 
ATOM     66  F   UNL     1      11.392  10.904  -2.712  1.00  0.00    -0.205 F 
ATOM     67  C   UNL     1      10.870  14.519  -2.450  1.00  0.00     0.022 A 
BRANCH  65  68
ATOM     68  S   UNL     1      13.301  13.332  -2.862  1.00  0.00     0.127 S 
ATOM     69  O   UNL     1      13.406  13.998  -4.160  1.00  0.00    -0.237 OA
ATOM     70  O   UNL     1      13.746  14.137  -1.725  1.00  0.00    -0.237 OA
ATOM     71  O   UNL     1      13.750  11.946  -2.842  1.00  0.00    -0.744 OA
ENDBRANCH  65  68
ENDBRANCH  38  61
ENDBRANCH  12  13
ENDBRANCH   5   7
ENDBRANCH   2   3
ENDBRANCH   1   2
BRANCH   1  72
ATOM     72  C   UNL     1       4.328  -3.216   1.843  1.00  0.00     0.023 C 
BRANCH  72  73
ATOM     73  C   UNL     1       4.821  -4.139   0.724  1.00  0.00     0.116 C 
BRANCH  73  74
ATOM     74  N   UNL     1       6.258  -4.318   0.833  1.00  0.00    -0.355 N 
ATOM     75  C   UNL     1       6.783  -5.206   1.742  1.00  0.00     0.238 C 
ATOM     76  H   UNL     1       6.861  -3.800   0.251  1.00  0.00     0.163 HD
ATOM     77  O   UNL     1       7.482  -4.768   2.651  1.00  0.00    -0.273 OA
BRANCH  75  78
ATOM     78  C   UNL     1       6.440  -6.658   1.550  1.00  0.00     0.162 C 
ATOM     79  C   UNL     1       5.902  -7.219   2.861  1.00  0.00     0.032 C 
ATOM     80  N   UNL     1       7.411  -7.697   1.070  1.00  0.00    -0.185 NA
ATOM     81  C   UNL     1       5.683  -8.672   2.519  1.00  0.00     0.019 C 
ATOM     82  C   UNL     1       6.803  -9.008   1.537  1.00  0.00     0.103 C 
BRANCH  80  83
ATOM     83  S   UNL     1       9.095  -7.600   1.425  1.00  0.00     0.244 S 
ATOM     84  O   UNL     1       9.246  -7.055   2.755  1.00  0.00    -0.207 OA
ATOM     85  O   UNL     1       9.604  -8.931   1.155  1.00  0.00    -0.207 OA
BRANCH  83  86
ATOM     86  C   UNL     1       9.914  -6.488   0.262  1.00  0.00     0.090 A 
ATOM     87  C   UNL     1       9.696  -5.096   0.414  1.00  0.00     0.024 A 
ATOM     88  C   UNL     1      10.969  -6.935  -0.617  1.00  0.00     0.005 A 
ATOM     89  C   UNL     1      10.371  -4.111  -0.328  1.00  0.00     0.028 A 
ATOM     90  C   UNL     1      11.630  -5.927  -1.274  1.00  0.00     0.019 A 
ATOM     91  C   UNL     1      11.519  -8.220  -0.900  1.00  0.00     0.010 A 
ATOM     92  C   UNL     1      11.353  -4.583  -1.163  1.00  0.00     0.050 A 
ATOM     93  C   UNL     1      12.746  -6.052  -2.093  1.00  0.00     0.050 A 
ATOM     94  C   UNL     1      12.656  -8.390  -1.726  1.00  0.00     0.002 A 
ATOM     95  N   UNL     1      12.268  -3.891  -1.933  1.00  0.00    -0.321 N 
ATOM     96  C   UNL     1      13.297  -7.304  -2.331  1.00  0.00     0.014 A 
ATOM     97  C   UNL     1      13.187  -4.747  -2.543  1.00  0.00     0.256 C 
ATOM     98  H   UNL     1      12.271  -2.913  -2.039  1.00  0.00     0.170 HD
ATOM     99  O   UNL     1      14.117  -4.388  -3.253  1.00  0.00    -0.269 OA
ENDBRANCH  83  86
ENDBRANCH  80  83
ENDBRANCH  75  78
ENDBRANCH  73  74
ENDBRANCH  72  73
ENDBRANCH   1  72
TORSDOF 16
