REMARK SMILES NS(=O)(=O)c1ccc(-n2nc(C(=O)NCCCCNC(=O)c3ccc(-c4c5nc(c(-c6cccc(S(=O)(=O)[O-])c6F)c6ccc([nH]6)c(-c6cccc(S(=O)(=O)[O-])c6F)c6nc(c(-c7cccc(S(=O)(=O)[O-])c7F)c7ccc4[nH]7)C=C6)C=C5)cc3)cc2-c2cc3ccccc3s2)cc1
REMARK SMILES IDX 16 1 15 2 14 3 12 4 13 5 11 7 9 8 10 9 86 10 85 11 8 12 5 13
REMARK SMILES IDX 6 14 97 15 7 16 96 17 2 18 3 19 4 20 1 21 87 24 88 25 95 26
REMARK SMILES IDX 89 27 94 28 90 29 93 30 91 31 92 32 17 33 18 34 19 35 20 36
REMARK SMILES IDX 21 38 22 39 23 40 84 41 24 42 83 43 25 44 26 45 27 46 77 47
REMARK SMILES IDX 28 48 82 49 76 50 78 51 29 52 81 53 75 54 74 55 30 57 62 58
REMARK SMILES IDX 42 59 61 60 43 61 46 62 60 63 79 64 44 65 45 66 59 68 80 69
REMARK SMILES IDX 47 70 31 71 32 72 40 73 33 74 35 75 41 76 34 77 36 78 37 79
REMARK SMILES IDX 38 80 39 81 63 82 64 83 72 84 65 85 67 86 73 87 66 88 68 89
REMARK SMILES IDX 69 90 70 91 71 92 48 93 49 94 57 95 50 96 52 97 58 98 51 99
REMARK SMILES IDX 53 100 54 101 55 102 56 103
REMARK H PARENT 14 6 1 22 1 23 19 37 78 56 46 67
REMARK Flexibility Score: inf
ROOT
ATOM      1  C   UNL     1       5.412 -11.007   2.090  1.00  0.00     0.023 C 
ENDROOT
BRANCH   1   2
ATOM      2  C   UNL     1       4.039 -10.874   2.770  1.00  0.00     0.116 C 
BRANCH   2   3
ATOM      3  N   UNL     1       4.104 -10.082   3.992  1.00  0.00    -0.351 N 
ATOM      4  C   UNL     1       3.887  -8.739   4.259  1.00  0.00     0.271 C 
ATOM      5  O   UNL     1       4.013  -8.379   5.430  1.00  0.00    -0.267 OA
ATOM      6  H   UNL     1       4.353 -10.606   4.788  1.00  0.00     0.163 HD
BRANCH   4   7
ATOM      7  C   UNL     1       3.494  -7.801   3.187  1.00  0.00     0.151 A 
ATOM      8  N   UNL     1       2.374  -6.216   2.239  1.00  0.00    -0.231 N 
ATOM      9  N   UNL     1       2.892  -6.619   3.434  1.00  0.00    -0.162 NA
ATOM     10  C   UNL     1       2.716  -7.099   1.238  1.00  0.00     0.085 A 
ATOM     11  C   UNL     1       3.667  -7.928   1.803  1.00  0.00     0.066 A 
BRANCH   8  12
ATOM     12  C   UNL     1       1.791  -4.930   2.119  1.00  0.00     0.065 A 
ATOM     13  C   UNL     1       0.867  -2.318   1.818  1.00  0.00     0.082 A 
ATOM     14  C   UNL     1       0.226  -3.365   1.144  1.00  0.00     0.024 A 
ATOM     15  C   UNL     1       1.939  -2.573   2.675  1.00  0.00     0.024 A 
ATOM     16  C   UNL     1       0.707  -4.674   1.271  1.00  0.00     0.030 A 
ATOM     17  C   UNL     1       2.382  -3.882   2.845  1.00  0.00     0.030 A 
BRANCH  13  18
ATOM     18  S   UNL     1       0.316  -0.652   1.613  1.00  0.00     0.238 S 
ATOM     19  O   UNL     1       0.897   0.190   2.622  1.00  0.00    -0.207 OA
ATOM     20  O   UNL     1      -1.105  -0.645   1.313  1.00  0.00    -0.207 OA
BRANCH  18  21
ATOM     21  N   UNL     1       1.078  -0.214   0.178  1.00  0.00    -0.225 NA
ATOM     22  H   UNL     1       0.836   0.749  -0.055  1.00  0.00     0.137 HD
ATOM     23  H   UNL     1       0.772  -0.833  -0.572  1.00  0.00     0.137 HD
ENDBRANCH  18  21
ENDBRANCH  13  18
ENDBRANCH   8  12
BRANCH  10  24
ATOM     24  C   UNL     1       2.205  -7.296  -0.090  1.00  0.00     0.054 A 
ATOM     25  C   UNL     1       2.999  -7.467  -1.219  1.00  0.00     0.031 A 
ATOM     26  S   UNL     1       0.889  -8.419  -0.262  1.00  0.00    -0.134 S 
ATOM     27  C   UNL     1       3.113  -8.903  -1.433  1.00  0.00    -0.007 A 
ATOM     28  C   UNL     1       2.042  -9.583  -0.837  1.00  0.00     0.035 A 
ATOM     29  C   UNL     1       4.162  -9.671  -1.990  1.00  0.00     0.009 A 
ATOM     30  C   UNL     1       2.005 -10.982  -0.730  1.00  0.00     0.019 A 
ATOM     31  C   UNL     1       4.159 -11.063  -1.837  1.00  0.00     0.001 A 
ATOM     32  C   UNL     1       3.103 -11.706  -1.199  1.00  0.00     0.001 A 
ENDBRANCH  10  24
ENDBRANCH   4   7
ENDBRANCH   2   3
ENDBRANCH   1   2
BRANCH   1  33
ATOM     33  C   UNL     1       6.372 -12.028   2.721  1.00  0.00     0.023 C 
BRANCH  33  34
ATOM     34  C   UNL     1       5.984 -13.495   2.541  1.00  0.00     0.116 C 
BRANCH  34  35
ATOM     35  N   UNL     1       5.982 -13.930   1.137  1.00  0.00    -0.352 N 
ATOM     36  C   UNL     1       5.402 -15.061   0.586  1.00  0.00     0.251 C 
ATOM     37  H   UNL     1       6.454 -13.341   0.506  1.00  0.00     0.163 HD
ATOM     38  O   UNL     1       5.789 -15.504  -0.490  1.00  0.00    -0.269 OA
BRANCH  36  39
ATOM     39  C   UNL     1       4.294 -15.712   1.307  1.00  0.00     0.039 A 
ATOM     40  C   UNL     1       4.186 -17.102   1.414  1.00  0.00     0.014 A 
ATOM     41  C   UNL     1       3.382 -14.877   1.942  1.00  0.00     0.014 A 
ATOM     42  C   UNL     1       3.209 -17.634   2.255  1.00  0.00     0.010 A 
ATOM     43  C   UNL     1       2.560 -15.392   2.908  1.00  0.00     0.010 A 
ATOM     44  C   UNL     1       2.417 -16.768   3.027  1.00  0.00    -0.014 A 
BRANCH  44  45
ATOM     45  C   UNL     1       1.517 -17.280   4.059  1.00  0.00     0.031 A 
ATOM     46  C   UNL     1       2.182 -18.167   5.049  1.00  0.00     0.074 A 
ATOM     47  C   UNL     1       0.265 -16.805   4.254  1.00  0.00     0.049 A 
ATOM     48  N   UNL     1       2.100 -19.454   5.135  1.00  0.00    -0.248 NA
ATOM     49  C   UNL     1       3.196 -17.578   5.940  1.00  0.00     0.031 C 
ATOM     50  C   UNL     1      -0.361 -15.654   3.584  1.00  0.00     0.029 A 
ATOM     51  N   UNL     1      -0.667 -17.142   5.191  1.00  0.00    -0.354 N 
ATOM     52  C   UNL     1       2.805 -19.780   6.293  1.00  0.00     0.074 A 
ATOM     53  C   UNL     1       3.666 -18.662   6.563  1.00  0.00     0.031 C 
ATOM     54  C   UNL     1      -1.413 -15.223   4.311  1.00  0.00     0.029 A 
ATOM     55  C   UNL     1      -1.666 -16.187   5.361  1.00  0.00     0.049 A 
ATOM     56  H   UNL     1      -0.636 -17.984   5.701  1.00  0.00     0.167 HD
ATOM     57  C   UNL     1       2.343 -20.754   7.128  1.00  0.00     0.034 A 
ATOM     58  C   UNL     1      -2.634 -16.174   6.306  1.00  0.00     0.034 A 
ATOM     59  C   UNL     1       1.269 -21.485   6.504  1.00  0.00     0.049 A 
ATOM     60  C   UNL     1      -2.808 -17.562   6.775  1.00  0.00     0.074 A 
ATOM     61  C   UNL     1       1.115 -22.438   5.525  1.00  0.00     0.029 A 
ATOM     62  N   UNL     1       0.046 -20.908   6.719  1.00  0.00    -0.354 N 
ATOM     63  N   UNL     1      -3.240 -18.527   6.011  1.00  0.00    -0.248 NA
ATOM     64  C   UNL     1      -2.198 -17.976   8.033  1.00  0.00     0.031 C 
ATOM     65  C   UNL     1      -0.230 -22.319   5.064  1.00  0.00     0.029 A 
ATOM     66  C   UNL     1      -0.872 -21.323   5.798  1.00  0.00     0.049 A 
ATOM     67  H   UNL     1      -0.148 -20.274   7.447  1.00  0.00     0.167 HD
ATOM     68  C   UNL     1      -2.552 -19.634   6.467  1.00  0.00     0.074 A 
ATOM     69  C   UNL     1      -2.095 -19.287   7.805  1.00  0.00     0.031 C 
ATOM     70  C   UNL     1      -2.099 -20.582   5.601  1.00  0.00     0.034 A 
BRANCH  57  71
ATOM     71  C   UNL     1       2.443 -20.763   8.648  1.00  0.00     0.023 A 
ATOM     72  C   UNL     1       1.944 -21.912   9.309  1.00  0.00     0.012 A 
ATOM     73  C   UNL     1       2.701 -19.635   9.459  1.00  0.00     0.148 A 
ATOM     74  C   UNL     1       1.665 -21.919  10.681  1.00  0.00     0.002 A 
ATOM     75  C   UNL     1       2.493 -19.670  10.836  1.00  0.00     0.091 A 
ATOM     76  F   UNL     1       3.019 -18.465   8.904  1.00  0.00    -0.205 F 
ATOM     77  C   UNL     1       1.945 -20.797  11.448  1.00  0.00     0.022 A 
BRANCH  75  78
ATOM     78  S   UNL     1       2.872 -18.256  11.882  1.00  0.00     0.127 S 
ATOM     79  O   UNL     1       1.535 -17.791  12.236  1.00  0.00    -0.237 OA
ATOM     80  O   UNL     1       3.621 -18.885  12.970  1.00  0.00    -0.237 OA
ATOM     81  O   UNL     1       3.666 -17.358  11.052  1.00  0.00    -0.744 OA
ENDBRANCH  75  78
ENDBRANCH  57  71
BRANCH  58  82
ATOM     82  C   UNL     1      -3.316 -15.040   6.967  1.00  0.00     0.023 A 
ATOM     83  C   UNL     1      -4.571 -15.245   7.574  1.00  0.00     0.012 A 
ATOM     84  C   UNL     1      -2.608 -13.858   7.270  1.00  0.00     0.148 A 
ATOM     85  C   UNL     1      -5.078 -14.330   8.503  1.00  0.00     0.002 A 
ATOM     86  C   UNL     1      -3.116 -12.952   8.196  1.00  0.00     0.091 A 
ATOM     87  F   UNL     1      -1.400 -13.673   6.720  1.00  0.00    -0.205 F 
ATOM     88  C   UNL     1      -4.344 -13.194   8.827  1.00  0.00     0.022 A 
BRANCH  86  89
ATOM     89  S   UNL     1      -2.214 -11.480   8.697  1.00  0.00     0.127 S 
ATOM     90  O   UNL     1      -3.231 -10.440   8.540  1.00  0.00    -0.237 OA
ATOM     91  O   UNL     1      -1.869 -11.797  10.079  1.00  0.00    -0.237 OA
ATOM     92  O   UNL     1      -1.094 -11.372   7.771  1.00  0.00    -0.744 OA
ENDBRANCH  86  89
ENDBRANCH  58  82
BRANCH  70  93
ATOM     93  C   UNL     1      -2.813 -20.751   4.297  1.00  0.00     0.023 A 
ATOM     94  C   UNL     1      -2.763 -19.806   3.255  1.00  0.00     0.012 A 
ATOM     95  C   UNL     1      -3.459 -21.979   4.083  1.00  0.00     0.148 A 
ATOM     96  C   UNL     1      -3.353 -20.089   2.019  1.00  0.00     0.002 A 
ATOM     97  C   UNL     1      -3.999 -22.276   2.843  1.00  0.00     0.091 A 
ATOM     98  F   UNL     1      -3.508 -22.852   5.102  1.00  0.00    -0.205 F 
ATOM     99  C   UNL     1      -3.956 -21.330   1.807  1.00  0.00     0.022 A 
BRANCH  97 100
ATOM    100  S   UNL     1      -4.668 -23.900   2.484  1.00  0.00     0.127 S 
ATOM    101  O   UNL     1      -6.105 -23.637   2.443  1.00  0.00    -0.237 OA
ATOM    102  O   UNL     1      -4.063 -24.206   1.187  1.00  0.00    -0.237 OA
ATOM    103  O   UNL     1      -4.220 -24.767   3.567  1.00  0.00    -0.744 OA
ENDBRANCH  97 100
ENDBRANCH  70  93
ENDBRANCH  44  45
ENDBRANCH  36  39
ENDBRANCH  34  35
ENDBRANCH  33  34
ENDBRANCH   1  33
TORSDOF 18
