REMARK SMILES COC(=O)Cc1nc(NC(=O)[C@H]2CC[C@@H]2C(=O)NCCCCNC(=O)c2ccc(-c3c4nc(c(-c5cccc(S(=O)(=O)[O-])c5F)c5ccc([nH]5)c(-c5cccc(S(=O)(=O)[O-])c5F)c5nc(c(-c6cccc(S(=O)(=O)[O-])c6F)c6ccc3[nH]6)C=C5)C=C4)cc2)sc1C
REMARK SMILES IDX 19 1 18 2 16 3 17 4 15 6 12 7 13 8 14 9 10 10 9 11 11 13
REMARK SMILES IDX 8 14 6 15 7 16 90 17 89 18 91 19 5 20 3 21 4 22 2 23 1 24
REMARK SMILES IDX 20 25 21 26 22 27 23 28 24 29 25 31 26 32 27 33 88 34 28 35
REMARK SMILES IDX 87 36 29 37 30 38 31 39 81 40 32 41 86 42 80 43 82 44 33 45
REMARK SMILES IDX 85 46 79 47 78 48 34 50 66 51 46 52 65 53 47 54 50 55 64 56
REMARK SMILES IDX 83 57 48 58 49 59 63 61 84 62 51 63 35 64 36 65 44 66 37 67
REMARK SMILES IDX 39 68 45 69 38 70 40 71 41 72 42 73 43 74 67 75 68 76 76 77
REMARK SMILES IDX 69 78 71 79 77 80 70 81 72 82 73 83 74 84 75 85 52 86 53 87
REMARK SMILES IDX 61 88 54 89 56 90 62 91 55 92 57 93 58 94 59 95 60 96
REMARK H PARENT 18 5 9 12 23 30 82 49 50 60
REMARK Flexibility Score: inf
ROOT
ATOM      1  C   UNL     1       4.927 -10.451   4.056  1.00  0.00     0.116 C 
ENDROOT
BRANCH   1   2
ATOM      2  N   UNL     1       4.633  -9.490   5.104  1.00  0.00    -0.356 N 
ATOM      3  C   UNL     1       3.601  -8.588   5.203  1.00  0.00     0.223 C 
ATOM      4  O   UNL     1       3.553  -7.895   6.225  1.00  0.00    -0.275 OA
ATOM      5  H   UNL     1       5.268  -9.484   5.857  1.00  0.00     0.163 HD
BRANCH   3   6
ATOM      6  C   UNL     1       2.570  -8.486   4.048  1.00  0.00     0.091 C 
ATOM      7  C   UNL     1       1.917  -7.083   3.787  1.00  0.00     0.091 C 
ATOM      8  C   UNL     1       0.629  -7.618   4.457  1.00  0.00     0.015 C 
ATOM      9  C   UNL     1       1.159  -9.047   4.325  1.00  0.00     0.015 C 
BRANCH   7  10
ATOM     10  C   UNL     1       1.853  -6.641   2.295  1.00  0.00     0.230 C 
ATOM     11  N   UNL     1       3.010  -6.427   1.575  1.00  0.00    -0.302 N 
ATOM     12  H   UNL     1       2.884  -6.348   0.601  1.00  0.00     0.172 HD
ATOM     13  O   UNL     1       0.788  -6.592   1.660  1.00  0.00    -0.274 OA
BRANCH  11  14
ATOM     14  C   UNL     1       4.304  -6.307   1.999  1.00  0.00     0.189 A 
ATOM     15  C   UNL     1       6.514  -6.514   1.954  1.00  0.00     0.068 A 
ATOM     16  N   UNL     1       5.325  -6.580   1.224  1.00  0.00    -0.224 NA
ATOM     17  C   UNL     1       6.337  -6.136   3.278  1.00  0.00     0.027 A 
ATOM     18  S   UNL     1       4.705  -5.687   3.525  1.00  0.00    -0.102 S 
ATOM     19  C   UNL     1       7.276  -6.106   4.433  1.00  0.00     0.058 C 
BRANCH  15  20
ATOM     20  C   UNL     1       7.786  -6.986   1.325  1.00  0.00     0.180 C 
BRANCH  20  21
ATOM     21  C   UNL     1       7.878  -6.691  -0.146  1.00  0.00     0.311 C 
ATOM     22  O   UNL     1       8.479  -5.737  -0.626  1.00  0.00    -0.252 OA
BRANCH  21  23
ATOM     23  O   UNL     1       7.239  -7.655  -0.873  1.00  0.00    -0.469 OA
ATOM     24  C   UNL     1       7.269  -7.437  -2.281  1.00  0.00     0.282 C 
ENDBRANCH  21  23
ENDBRANCH  20  21
ENDBRANCH  15  20
ENDBRANCH  11  14
ENDBRANCH   7  10
ENDBRANCH   3   6
ENDBRANCH   1   2
BRANCH   1  25
ATOM     25  C   UNL     1       6.062  -9.984   3.146  1.00  0.00     0.023 C 
BRANCH  25  26
ATOM     26  C   UNL     1       7.401  -9.793   3.863  1.00  0.00     0.023 C 
BRANCH  26  27
ATOM     27  C   UNL     1       8.038 -11.078   4.372  1.00  0.00     0.116 C 
BRANCH  27  28
ATOM     28  N   UNL     1       8.500 -11.934   3.289  1.00  0.00    -0.352 N 
ATOM     29  C   UNL     1       9.757 -12.440   3.043  1.00  0.00     0.251 C 
ATOM     30  H   UNL     1       7.811 -12.189   2.634  1.00  0.00     0.163 HD
ATOM     31  O   UNL     1       9.988 -13.000   1.980  1.00  0.00    -0.269 OA
BRANCH  29  32
ATOM     32  C   UNL     1      10.833 -12.279   4.051  1.00  0.00     0.039 A 
ATOM     33  C   UNL     1      12.122 -11.951   3.621  1.00  0.00     0.014 A 
ATOM     34  C   UNL     1      10.574 -12.440   5.413  1.00  0.00     0.014 A 
ATOM     35  C   UNL     1      13.128 -11.713   4.562  1.00  0.00     0.010 A 
ATOM     36  C   UNL     1      11.546 -12.101   6.348  1.00  0.00     0.010 A 
ATOM     37  C   UNL     1      12.838 -11.742   5.936  1.00  0.00    -0.014 A 
BRANCH  37  38
ATOM     38  C   UNL     1      13.862 -11.402   6.959  1.00  0.00     0.031 A 
ATOM     39  C   UNL     1      14.250 -12.413   8.007  1.00  0.00     0.074 A 
ATOM     40  C   UNL     1      14.372 -10.155   7.006  1.00  0.00     0.049 A 
ATOM     41  N   UNL     1      15.056 -12.276   9.027  1.00  0.00    -0.248 NA
ATOM     42  C   UNL     1      13.626 -13.745   7.915  1.00  0.00     0.031 C 
ATOM     43  C   UNL     1      14.018  -9.060   6.099  1.00  0.00     0.029 A 
ATOM     44  N   UNL     1      15.275  -9.587   7.871  1.00  0.00    -0.354 N 
ATOM     45  C   UNL     1      15.004 -13.480   9.719  1.00  0.00     0.074 A 
ATOM     46  C   UNL     1      14.057 -14.325   9.025  1.00  0.00     0.031 C 
ATOM     47  C   UNL     1      14.702  -7.959   6.449  1.00  0.00     0.029 A 
ATOM     48  C   UNL     1      15.512  -8.254   7.626  1.00  0.00     0.049 A 
ATOM     49  H   UNL     1      15.712 -10.087   8.598  1.00  0.00     0.167 HD
ATOM     50  C   UNL     1      15.704 -13.864  10.813  1.00  0.00     0.034 A 
ATOM     51  C   UNL     1      16.283  -7.365   8.283  1.00  0.00     0.034 A 
ATOM     52  C   UNL     1      16.680 -13.039  11.471  1.00  0.00     0.049 A 
ATOM     53  C   UNL     1      17.072  -7.824   9.478  1.00  0.00     0.074 A 
ATOM     54  C   UNL     1      17.510 -13.368  12.527  1.00  0.00     0.029 A 
ATOM     55  N   UNL     1      16.950 -11.719  11.146  1.00  0.00    -0.354 N 
ATOM     56  N   UNL     1      17.128  -9.017  10.021  1.00  0.00    -0.248 NA
ATOM     57  C   UNL     1      17.929  -6.825  10.134  1.00  0.00     0.031 C 
ATOM     58  C   UNL     1      18.260 -12.236  12.861  1.00  0.00     0.029 A 
ATOM     59  C   UNL     1      17.922 -11.213  11.991  1.00  0.00     0.049 A 
ATOM     60  H   UNL     1      16.514 -11.216  10.420  1.00  0.00     0.167 HD
ATOM     61  C   UNL     1      18.048  -8.920  11.059  1.00  0.00     0.074 A 
ATOM     62  C   UNL     1      18.541  -7.559  11.054  1.00  0.00     0.031 C 
ATOM     63  C   UNL     1      18.438  -9.869  11.945  1.00  0.00     0.034 A 
BRANCH  50  64
ATOM     64  C   UNL     1      15.476 -15.258  11.339  1.00  0.00     0.023 A 
ATOM     65  C   UNL     1      15.932 -16.367  10.597  1.00  0.00     0.012 A 
ATOM     66  C   UNL     1      14.863 -15.469  12.589  1.00  0.00     0.148 A 
ATOM     67  C   UNL     1      15.749 -17.665  11.072  1.00  0.00     0.002 A 
ATOM     68  C   UNL     1      14.727 -16.763  13.079  1.00  0.00     0.091 A 
ATOM     69  F   UNL     1      14.418 -14.405  13.272  1.00  0.00    -0.205 F 
ATOM     70  C   UNL     1      15.157 -17.862  12.317  1.00  0.00     0.022 A 
BRANCH  68  71
ATOM     71  S   UNL     1      14.052 -17.120  14.705  1.00  0.00     0.127 S 
ATOM     72  O   UNL     1      12.781 -17.756  14.362  1.00  0.00    -0.237 OA
ATOM     73  O   UNL     1      15.057 -18.026  15.262  1.00  0.00    -0.237 OA
ATOM     74  O   UNL     1      13.944 -15.838  15.386  1.00  0.00    -0.744 OA
ENDBRANCH  68  71
ENDBRANCH  50  64
BRANCH  51  75
ATOM     75  C   UNL     1      16.386  -5.960   7.792  1.00  0.00     0.023 A 
ATOM     76  C   UNL     1      17.595  -5.509   7.228  1.00  0.00     0.012 A 
ATOM     77  C   UNL     1      15.289  -5.080   7.858  1.00  0.00     0.148 A 
ATOM     78  C   UNL     1      17.721  -4.197   6.769  1.00  0.00     0.002 A 
ATOM     79  C   UNL     1      15.403  -3.792   7.347  1.00  0.00     0.091 A 
ATOM     80  F   UNL     1      14.150  -5.524   8.409  1.00  0.00    -0.205 F 
ATOM     81  C   UNL     1      16.623  -3.343   6.819  1.00  0.00     0.022 A 
BRANCH  79  82
ATOM     82  S   UNL     1      14.004  -2.670   7.246  1.00  0.00     0.127 S 
ATOM     83  O   UNL     1      14.355  -1.663   8.243  1.00  0.00    -0.237 OA
ATOM     84  O   UNL     1      14.081  -2.218   5.856  1.00  0.00    -0.237 OA
ATOM     85  O   UNL     1      12.830  -3.478   7.547  1.00  0.00    -0.744 OA
ENDBRANCH  79  82
ENDBRANCH  51  75
BRANCH  63  86
ATOM     86  C   UNL     1      19.474  -9.488  12.969  1.00  0.00     0.023 A 
ATOM     87  C   UNL     1      19.127  -8.636  14.036  1.00  0.00     0.012 A 
ATOM     88  C   UNL     1      20.769 -10.042  12.919  1.00  0.00     0.148 A 
ATOM     89  C   UNL     1      20.061  -8.317  15.021  1.00  0.00     0.002 A 
ATOM     90  C   UNL     1      21.678  -9.762  13.931  1.00  0.00     0.091 A 
ATOM     91  F   UNL     1      21.083 -10.838  11.887  1.00  0.00    -0.205 F 
ATOM     92  C   UNL     1      21.330  -8.889  14.976  1.00  0.00     0.022 A 
BRANCH  90  93
ATOM     93  S   UNL     1      23.300 -10.528  14.012  1.00  0.00     0.127 S 
ATOM     94  O   UNL     1      24.180  -9.393  13.739  1.00  0.00    -0.237 OA
ATOM     95  O   UNL     1      23.343 -11.015  15.391  1.00  0.00    -0.237 OA
ATOM     96  O   UNL     1      23.303 -11.575  12.999  1.00  0.00    -0.744 OA
ENDBRANCH  90  93
ENDBRANCH  63  86
ENDBRANCH  37  38
ENDBRANCH  29  32
ENDBRANCH  27  28
ENDBRANCH  26  27
ENDBRANCH  25  26
ENDBRANCH   1  25
TORSDOF 19
