REMARK SMILES CC[C@@H](NC(=O)NC1(CC(=O)NCCCCNC(=O)c2ccc(-c3c4nc(c(-c5cccc(S(=O)(=O)[O-])c5F)c5ccc([nH]5)c(-c5cccc(S(=O)(=O)[O-])c5F)c5nc(c(-c6cccc(S(=O)(=O)[O-])c6F)c6ccc3[nH]6)C=C5)C=C4)cc2)CCC1)C(C)C
REMARK SMILES IDX 14 1 13 2 12 3 10 4 11 5 9 7 8 8 83 9 85 10 84 11 7 12 4 13
REMARK SMILES IDX 5 14 6 16 3 18 2 19 1 20 86 21 87 22 88 23 15 24 16 25 17 26
REMARK SMILES IDX 18 27 19 29 20 30 21 31 82 32 22 33 81 34 23 35 24 36 25 37
REMARK SMILES IDX 75 38 26 39 80 40 74 41 76 42 27 43 79 44 73 45 72 46 28 48
REMARK SMILES IDX 60 49 40 50 59 51 41 52 44 53 58 54 77 55 42 56 43 57 57 59
REMARK SMILES IDX 78 60 45 61 29 62 30 63 38 64 31 65 33 66 39 67 32 68 34 69
REMARK SMILES IDX 35 70 36 71 37 72 61 73 62 74 70 75 63 76 65 77 71 78 64 79
REMARK SMILES IDX 66 80 67 81 68 82 69 83 46 84 47 85 55 86 48 87 50 88 56 89
REMARK SMILES IDX 49 90 51 91 52 92 53 93 54 94
REMARK H PARENT 12 6 4 15 7 17 17 28 76 47 44 58
REMARK Flexibility Score: inf
ROOT
ATOM      1  C   UNL     1       0.861   2.155  -0.340  1.00  0.00     0.023 C 
ENDROOT
BRANCH   1   2
ATOM      2  C   UNL     1       2.064   1.177  -0.837  1.00  0.00     0.116 C 
BRANCH   2   3
ATOM      3  N   UNL     1       2.485   0.708  -2.378  1.00  0.00    -0.356 N 
ATOM      4  C   UNL     1       2.405   0.261  -3.687  1.00  0.00     0.222 C 
ATOM      5  O   UNL     1       3.583   0.013  -4.063  1.00  0.00    -0.275 OA
ATOM      6  H   UNL     1       3.459   0.834  -2.317  1.00  0.00     0.163 HD
BRANCH   4   7
ATOM      7  C   UNL     1       1.302  -0.122  -4.940  1.00  0.00     0.128 C 
BRANCH   7   8
ATOM      8  C   UNL     1      -0.288   0.307  -5.422  1.00  0.00     0.051 C 
ATOM      9  C   UNL     1      -0.421   0.846  -6.949  1.00  0.00     0.029 C 
ATOM     10  C   UNL     1      -1.630   1.408  -5.300  1.00  0.00     0.029 C 
ATOM     11  C   UNL     1      -1.161   2.150  -6.507  1.00  0.00     0.005 C 
BRANCH   8  12
ATOM     12  N   UNL     1      -1.017  -0.955  -5.144  1.00  0.00    -0.332 N 
ATOM     13  N   UNL     1      -1.595   0.022  -3.121  1.00  0.00    -0.335 N 
ATOM     14  C   UNL     1      -1.740  -1.037  -3.996  1.00  0.00     0.315 C 
ATOM     15  H   UNL     1      -2.413   0.462  -2.795  1.00  0.00     0.165 HD
ATOM     16  O   UNL     1      -2.573  -1.943  -3.823  1.00  0.00    -0.249 OA
ATOM     17  H   UNL     1      -0.978  -1.711  -5.773  1.00  0.00     0.165 HD
BRANCH  13  18
ATOM     18  C   UNL     1      -0.268   0.549  -2.631  1.00  0.00     0.086 C 
BRANCH  18  19
ATOM     19  C   UNL     1      -0.181  -0.353  -1.273  1.00  0.00     0.022 C 
ATOM     20  C   UNL     1       0.559  -1.709  -1.346  1.00  0.00     0.006 C 
ENDBRANCH  18  19
BRANCH  18  21
ATOM     21  C   UNL     1       0.298   2.271  -3.249  1.00  0.00     0.005 C 
ATOM     22  C   UNL     1       1.049   3.515  -2.527  1.00  0.00     0.009 C 
ATOM     23  C   UNL     1       1.187   2.542  -4.562  1.00  0.00     0.009 C 
ENDBRANCH  18  21
ENDBRANCH  13  18
ENDBRANCH   8  12
ENDBRANCH   7   8
ENDBRANCH   4   7
ENDBRANCH   2   3
ENDBRANCH   1   2
BRANCH   1  24
ATOM     24  C   UNL     1      -0.371   2.017   0.591  1.00  0.00     0.023 C 
BRANCH  24  25
ATOM     25  C   UNL     1      -0.047   1.920   2.034  1.00  0.00     0.116 C 
BRANCH  25  26
ATOM     26  N   UNL     1       0.203   3.247   2.579  1.00  0.00    -0.352 N 
ATOM     27  C   UNL     1       0.083   3.578   3.892  1.00  0.00     0.251 C 
ATOM     28  H   UNL     1       0.480   3.954   1.952  1.00  0.00     0.163 HD
ATOM     29  O   UNL     1       0.044   4.771   4.250  1.00  0.00    -0.269 OA
BRANCH  27  30
ATOM     30  C   UNL     1      -0.048   2.486   4.863  1.00  0.00     0.039 A 
ATOM     31  C   UNL     1      -1.079   2.513   5.800  1.00  0.00     0.014 A 
ATOM     32  C   UNL     1       0.808   1.380   4.764  1.00  0.00     0.014 A 
ATOM     33  C   UNL     1      -1.242   1.424   6.649  1.00  0.00     0.010 A 
ATOM     34  C   UNL     1       0.565   0.251   5.524  1.00  0.00     0.010 A 
ATOM     35  C   UNL     1      -0.419   0.291   6.516  1.00  0.00    -0.014 A 
BRANCH  35  36
ATOM     36  C   UNL     1      -0.502  -0.817   7.487  1.00  0.00     0.031 A 
ATOM     37  C   UNL     1       0.660  -1.071   8.408  1.00  0.00     0.074 A 
ATOM     38  C   UNL     1      -1.597  -1.596   7.519  1.00  0.00     0.049 A 
ATOM     39  N   UNL     1       0.765  -1.942   9.375  1.00  0.00    -0.248 NA
ATOM     40  C   UNL     1       1.876  -0.261   8.201  1.00  0.00     0.031 C 
ATOM     41  C   UNL     1      -2.736  -1.495   6.605  1.00  0.00     0.029 A 
ATOM     42  N   UNL     1      -1.925  -2.631   8.352  1.00  0.00    -0.354 N 
ATOM     43  C   UNL     1       2.055  -1.801   9.871  1.00  0.00     0.074 A 
ATOM     44  C   UNL     1       2.718  -0.804   9.065  1.00  0.00     0.031 C 
ATOM     45  C   UNL     1      -3.650  -2.420   6.943  1.00  0.00     0.029 A 
ATOM     46  C   UNL     1      -3.156  -3.180   8.088  1.00  0.00     0.049 A 
ATOM     47  H   UNL     1      -1.335  -2.951   9.073  1.00  0.00     0.167 HD
ATOM     48  C   UNL     1       2.622  -2.413  10.934  1.00  0.00     0.034 A 
ATOM     49  C   UNL     1      -3.813  -4.173   8.715  1.00  0.00     0.034 A 
ATOM     50  C   UNL     1       1.934  -3.362  11.761  1.00  0.00     0.049 A 
ATOM     51  C   UNL     1      -3.186  -4.794   9.934  1.00  0.00     0.074 A 
ATOM     52  C   UNL     1       2.375  -3.974  12.919  1.00  0.00     0.029 A 
ATOM     53  N   UNL     1       0.656  -3.839  11.512  1.00  0.00    -0.354 N 
ATOM     54  N   UNL     1      -2.037  -4.518  10.504  1.00  0.00    -0.248 NA
ATOM     55  C   UNL     1      -3.964  -5.832  10.623  1.00  0.00     0.031 C 
ATOM     56  C   UNL     1       1.367  -4.839  13.361  1.00  0.00     0.029 A 
ATOM     57  C   UNL     1       0.294  -4.749  12.488  1.00  0.00     0.049 A 
ATOM     58  H   UNL     1       0.091  -3.570  10.752  1.00  0.00     0.167 HD
ATOM     59  C   UNL     1      -1.965  -5.326  11.632  1.00  0.00     0.074 A 
ATOM     60  C   UNL     1      -3.203  -6.080  11.680  1.00  0.00     0.031 C 
ATOM     61  C   UNL     1      -0.963  -5.452  12.536  1.00  0.00     0.034 A 
BRANCH  48  62
ATOM     62  C   UNL     1       4.031  -2.021  11.292  1.00  0.00     0.023 A 
ATOM     63  C   UNL     1       4.279  -0.746  11.842  1.00  0.00     0.012 A 
ATOM     64  C   UNL     1       5.100  -2.919  11.117  1.00  0.00     0.148 A 
ATOM     65  C   UNL     1       5.574  -0.358  12.181  1.00  0.00     0.002 A 
ATOM     66  C   UNL     1       6.383  -2.541  11.500  1.00  0.00     0.091 A 
ATOM     67  F   UNL     1       4.849  -4.114  10.565  1.00  0.00    -0.205 F 
ATOM     68  C   UNL     1       6.623  -1.259  12.020  1.00  0.00     0.022 A 
BRANCH  66  69
ATOM     69  S   UNL     1       7.787  -3.656  11.401  1.00  0.00     0.127 S 
ATOM     70  O   UNL     1       8.547  -3.074  10.293  1.00  0.00    -0.237 OA
ATOM     71  O   UNL     1       8.406  -3.487  12.717  1.00  0.00    -0.237 OA
ATOM     72  O   UNL     1       7.235  -4.978  11.154  1.00  0.00    -0.744 OA
ENDBRANCH  66  69
ENDBRANCH  48  62
BRANCH  49  73
ATOM     73  C   UNL     1      -5.172  -4.571   8.254  1.00  0.00     0.023 A 
ATOM     74  C   UNL     1      -6.293  -4.257   9.047  1.00  0.00     0.012 A 
ATOM     75  C   UNL     1      -5.363  -5.222   7.021  1.00  0.00     0.148 A 
ATOM     76  C   UNL     1      -7.577  -4.613   8.635  1.00  0.00     0.002 A 
ATOM     77  C   UNL     1      -6.650  -5.526   6.591  1.00  0.00     0.091 A 
ATOM     78  F   UNL     1      -4.282  -5.521   6.286  1.00  0.00    -0.205 F 
ATOM     79  C   UNL     1      -7.757  -5.238   7.404  1.00  0.00     0.022 A 
BRANCH  77  80
ATOM     80  S   UNL     1      -6.980  -6.207   4.963  1.00  0.00     0.127 S 
ATOM     81  O   UNL     1      -7.341  -7.587   5.284  1.00  0.00    -0.237 OA
ATOM     82  O   UNL     1      -8.090  -5.371   4.504  1.00  0.00    -0.237 OA
ATOM     83  O   UNL     1      -5.748  -6.032   4.209  1.00  0.00    -0.744 OA
ENDBRANCH  77  80
ENDBRANCH  49  73
BRANCH  61  84
ATOM     84  C   UNL     1      -1.165  -6.430  13.662  1.00  0.00     0.023 A 
ATOM     85  C   UNL     1      -1.109  -7.813  13.398  1.00  0.00     0.012 A 
ATOM     86  C   UNL     1      -1.335  -5.982  14.986  1.00  0.00     0.148 A 
ATOM     87  C   UNL     1      -1.257  -8.736  14.431  1.00  0.00     0.002 A 
ATOM     88  C   UNL     1      -1.432  -6.908  16.017  1.00  0.00     0.091 A 
ATOM     89  F   UNL     1      -1.403  -4.662  15.212  1.00  0.00    -0.205 F 
ATOM     90  C   UNL     1      -1.406  -8.285  15.740  1.00  0.00     0.022 A 
BRANCH  88  91
ATOM     91  S   UNL     1      -1.527  -6.414  17.741  1.00  0.00     0.127 S 
ATOM     92  O   UNL     1      -2.939  -6.643  18.040  1.00  0.00    -0.237 OA
ATOM     93  O   UNL     1      -0.607  -7.351  18.386  1.00  0.00    -0.237 OA
ATOM     94  O   UNL     1      -1.093  -5.024  17.781  1.00  0.00    -0.744 OA
ENDBRANCH  88  91
ENDBRANCH  61  84
ENDBRANCH  35  36
ENDBRANCH  27  30
ENDBRANCH  25  26
ENDBRANCH  24  25
ENDBRANCH   1  24
TORSDOF 19
