REMARK SMILES CSc1ccccc1[C@H](C(=O)NCCCCNC(=O)c1ccc(-c2c3nc(c(-c4cccc(S(=O)(=O)[O-])c4F)c4ccc([nH]4)c(-c4cccc(S(=O)(=O)[O-])c4F)c4nc(c(-c5cccc(S(=O)(=O)[O-])c5F)c5ccc2[nH]5)C=C4)C=C3)cc1)[N@@H+](C)CCc1cnn(C)c1
REMARK SMILES IDX 14 1 13 2 12 3 10 4 11 5 9 7 8 8 3 9 4 10 5 11 7 12 6 13
REMARK SMILES IDX 2 14 1 15 83 16 84 17 85 19 86 20 87 21 88 22 92 23 89 24
REMARK SMILES IDX 90 25 91 26 15 27 16 28 17 29 18 30 19 32 20 33 21 34 82 35
REMARK SMILES IDX 22 36 81 37 23 38 24 39 25 40 75 41 26 42 80 43 74 44 76 45
REMARK SMILES IDX 27 46 79 47 73 48 72 49 28 51 60 52 40 53 59 54 41 55 44 56
REMARK SMILES IDX 58 57 77 58 42 59 43 60 57 62 78 63 45 64 29 65 30 66 38 67
REMARK SMILES IDX 31 68 33 69 39 70 32 71 34 72 35 73 36 74 37 75 61 76 62 77
REMARK SMILES IDX 70 78 63 79 65 80 71 81 64 82 66 83 67 84 68 85 69 86 46 87
REMARK SMILES IDX 47 88 55 89 48 90 50 91 56 92 49 93 51 94 52 95 53 96 54 97
REMARK H PARENT 12 6 83 18 17 31 76 50 44 61
REMARK Flexibility Score: inf
ROOT
ATOM      1  C   UNL     1       1.737   1.827   1.210  1.00  0.00     0.023 C 
ENDROOT
BRANCH   1   2
ATOM      2  C   UNL     1       0.626   2.490   0.389  1.00  0.00     0.116 C 
BRANCH   2   3
ATOM      3  N   UNL     1       0.288   2.144  -1.010  1.00  0.00    -0.351 N 
ATOM      4  C   UNL     1      -0.670   2.389  -1.970  1.00  0.00     0.283 C 
ATOM      5  O   UNL     1      -0.250   1.834  -3.025  1.00  0.00    -0.268 OA
ATOM      6  H   UNL     1       0.974   1.540  -1.375  1.00  0.00     0.163 HD
BRANCH   4   7
ATOM      7  C   UNL     1      -2.164   3.270  -2.224  1.00  0.00     0.306 C 
BRANCH   7   8
ATOM      8  C   UNL     1      -3.318   4.044  -1.349  1.00  0.00     0.033 A 
ATOM      9  C   UNL     1      -3.516   5.478  -1.032  1.00  0.00     0.017 A 
ATOM     10  C   UNL     1      -4.344   5.842   0.057  1.00  0.00     0.015 A 
ATOM     11  C   UNL     1      -5.102   4.899   0.733  1.00  0.00     0.001 A 
ATOM     12  C   UNL     1      -4.225   3.157  -0.713  1.00  0.00     0.011 A 
ATOM     13  C   UNL     1      -5.098   3.580   0.300  1.00  0.00     0.001 A 
BRANCH   9  14
ATOM     14  S   UNL     1      -3.117   7.005  -1.977  1.00  0.00    -0.129 SA
ATOM     15  C   UNL     1      -2.057   8.079  -0.907  1.00  0.00     0.091 C 
ENDBRANCH   9  14
ENDBRANCH   7   8
BRANCH   7  16
ATOM     16  N   UNL     1      -1.823   4.061  -3.380  1.00  0.00    -0.323 N 
ATOM     17  C   UNL     1      -2.932   4.219  -4.310  1.00  0.00     0.333 C 
ATOM     18  H   UNL     1      -1.208   3.557  -4.018  1.00  0.00     0.348 HD
BRANCH  16  19
ATOM     19  C   UNL     1      -0.926   5.160  -3.039  1.00  0.00     0.267 C 
BRANCH  19  20
ATOM     20  C   UNL     1      -0.191   5.331  -1.596  1.00  0.00     0.100 C 
BRANCH  20  21
ATOM     21  C   UNL     1      -0.787   5.131  -0.134  1.00  0.00    -0.004 A 
ATOM     22  C   UNL     1      -0.563   5.902   1.058  1.00  0.00     0.139 A 
ATOM     23  C   UNL     1      -1.472   4.079   0.454  1.00  0.00     0.112 A 
ATOM     24  N   UNL     1      -1.073   5.381   2.192  1.00  0.00    -0.182 NA
ATOM     25  N   UNL     1      -1.671   4.263   1.784  1.00  0.00    -0.276 N 
ATOM     26  C   UNL     1      -2.169   3.228   2.672  1.00  0.00     0.173 C 
ENDBRANCH  20  21
ENDBRANCH  19  20
ENDBRANCH  16  19
ENDBRANCH   7  16
ENDBRANCH   4   7
ENDBRANCH   2   3
ENDBRANCH   1   2
BRANCH   1  27
ATOM     27  C   UNL     1       2.708   2.767   1.990  1.00  0.00     0.023 C 
BRANCH  27  28
ATOM     28  C   UNL     1       2.339   4.196   2.439  1.00  0.00     0.116 C 
BRANCH  28  29
ATOM     29  N   UNL     1       1.383   4.339   3.532  1.00  0.00    -0.352 N 
ATOM     30  C   UNL     1       1.519   4.866   4.803  1.00  0.00     0.251 C 
ATOM     31  H   UNL     1       0.481   3.999   3.329  1.00  0.00     0.163 HD
ATOM     32  O   UNL     1       0.567   4.862   5.581  1.00  0.00    -0.269 OA
BRANCH  30  33
ATOM     33  C   UNL     1       2.814   5.424   5.256  1.00  0.00     0.039 A 
ATOM     34  C   UNL     1       3.323   5.054   6.504  1.00  0.00     0.014 A 
ATOM     35  C   UNL     1       3.538   6.302   4.449  1.00  0.00     0.014 A 
ATOM     36  C   UNL     1       4.615   5.447   6.871  1.00  0.00     0.010 A 
ATOM     37  C   UNL     1       4.860   6.604   4.767  1.00  0.00     0.010 A 
ATOM     38  C   UNL     1       5.426   6.163   5.973  1.00  0.00    -0.014 A 
BRANCH  38  39
ATOM     39  C   UNL     1       6.871   6.402   6.255  1.00  0.00     0.031 A 
ATOM     40  C   UNL     1       7.437   7.798   6.290  1.00  0.00     0.074 A 
ATOM     41  C   UNL     1       7.704   5.346   6.385  1.00  0.00     0.049 A 
ATOM     42  N   UNL     1       8.672   8.183   6.489  1.00  0.00    -0.248 NA
ATOM     43  C   UNL     1       6.503   8.908   6.035  1.00  0.00     0.031 C 
ATOM     44  C   UNL     1       7.313   3.938   6.265  1.00  0.00     0.029 A 
ATOM     45  N   UNL     1       9.056   5.290   6.626  1.00  0.00    -0.354 N 
ATOM     46  C   UNL     1       8.670   9.566   6.351  1.00  0.00     0.074 A 
ATOM     47  C   UNL     1       7.320   9.950   6.003  1.00  0.00     0.031 C 
ATOM     48  C   UNL     1       8.390   3.161   6.459  1.00  0.00     0.029 A 
ATOM     49  C   UNL     1       9.556   4.008   6.682  1.00  0.00     0.049 A 
ATOM     50  H   UNL     1       9.614   6.091   6.748  1.00  0.00     0.167 HD
ATOM     51  C   UNL     1       9.687  10.444   6.531  1.00  0.00     0.034 A 
ATOM     52  C   UNL     1      10.811   3.561   6.888  1.00  0.00     0.034 A 
ATOM     53  C   UNL     1      11.021  10.067   6.916  1.00  0.00     0.049 A 
ATOM     54  C   UNL     1      11.911   4.557   7.136  1.00  0.00     0.074 A 
ATOM     55  C   UNL     1      12.095  10.888   7.213  1.00  0.00     0.029 A 
ATOM     56  N   UNL     1      11.469   8.762   7.048  1.00  0.00    -0.354 N 
ATOM     57  N   UNL     1      11.849   5.865   7.169  1.00  0.00    -0.248 NA
ATOM     58  C   UNL     1      13.248   4.013   7.417  1.00  0.00     0.031 C 
ATOM     59  C   UNL     1      13.201  10.078   7.493  1.00  0.00     0.029 A 
ATOM     60  C   UNL     1      12.805   8.753   7.411  1.00  0.00     0.049 A 
ATOM     61  H   UNL     1      10.917   7.959   6.904  1.00  0.00     0.167 HD
ATOM     62  C   UNL     1      13.125   6.300   7.510  1.00  0.00     0.074 A 
ATOM     63  C   UNL     1      13.932   5.112   7.699  1.00  0.00     0.031 C 
ATOM     64  C   UNL     1      13.589   7.567   7.641  1.00  0.00     0.034 A 
BRANCH  51  65
ATOM     65  C   UNL     1       9.380  11.912   6.366  1.00  0.00     0.023 A 
ATOM     66  C   UNL     1       8.559  12.563   7.311  1.00  0.00     0.012 A 
ATOM     67  C   UNL     1       9.945  12.660   5.314  1.00  0.00     0.148 A 
ATOM     68  C   UNL     1       8.268  13.921   7.188  1.00  0.00     0.002 A 
ATOM     69  C   UNL     1       9.692  14.024   5.227  1.00  0.00     0.091 A 
ATOM     70  F   UNL     1      10.710  12.024   4.416  1.00  0.00    -0.205 F 
ATOM     71  C   UNL     1       8.843  14.653   6.153  1.00  0.00     0.022 A 
BRANCH  69  72
ATOM     72  S   UNL     1      10.449  15.075   3.982  1.00  0.00     0.127 S 
ATOM     73  O   UNL     1       9.298  15.422   3.150  1.00  0.00    -0.237 OA
ATOM     74  O   UNL     1      10.973  16.177   4.788  1.00  0.00    -0.237 OA
ATOM     75  O   UNL     1      11.465  14.260   3.330  1.00  0.00    -0.744 OA
ENDBRANCH  69  72
ENDBRANCH  51  65
BRANCH  52  76
ATOM     76  C   UNL     1      11.086   2.095   6.940  1.00  0.00     0.023 A 
ATOM     77  C   UNL     1      11.441   1.499   8.167  1.00  0.00     0.012 A 
ATOM     78  C   UNL     1      10.986   1.288   5.791  1.00  0.00     0.148 A 
ATOM     79  C   UNL     1      11.730   0.136   8.241  1.00  0.00     0.002 A 
ATOM     80  C   UNL     1      11.218  -0.080   5.883  1.00  0.00     0.091 A 
ATOM     81  F   UNL     1      10.656   1.873   4.631  1.00  0.00    -0.205 F 
ATOM     82  C   UNL     1      11.610  -0.655   7.102  1.00  0.00     0.022 A 
BRANCH  80  83
ATOM     83  S   UNL     1      10.962  -1.201   4.503  1.00  0.00     0.127 S 
ATOM     84  O   UNL     1      12.324  -1.610   4.190  1.00  0.00    -0.237 OA
ATOM     85  O   UNL     1      10.123  -2.234   5.104  1.00  0.00    -0.237 OA
ATOM     86  O   UNL     1      10.288  -0.406   3.473  1.00  0.00    -0.744 OA
ENDBRANCH  80  83
ENDBRANCH  52  76
BRANCH  64  87
ATOM     87  C   UNL     1      15.030   7.742   8.049  1.00  0.00     0.023 A 
ATOM     88  C   UNL     1      16.065   7.413   7.150  1.00  0.00     0.012 A 
ATOM     89  C   UNL     1      15.357   8.280   9.309  1.00  0.00     0.148 A 
ATOM     90  C   UNL     1      17.401   7.573   7.516  1.00  0.00     0.002 A 
ATOM     91  C   UNL     1      16.689   8.489   9.646  1.00  0.00     0.091 A 
ATOM     92  F   UNL     1      14.362   8.571  10.159  1.00  0.00    -0.205 F 
ATOM     93  C   UNL     1      17.712   8.120   8.759  1.00  0.00     0.022 A 
BRANCH  91  94
ATOM     94  S   UNL     1      17.180   9.280  11.182  1.00  0.00     0.127 S 
ATOM     95  O   UNL     1      17.715   8.151  11.942  1.00  0.00    -0.237 OA
ATOM     96  O   UNL     1      18.185  10.241  10.729  1.00  0.00    -0.237 OA
ATOM     97  O   UNL     1      15.971   9.884  11.726  1.00  0.00    -0.744 OA
ENDBRANCH  91  94
ENDBRANCH  64  87
ENDBRANCH  38  39
ENDBRANCH  30  33
ENDBRANCH  28  29
ENDBRANCH  27  28
ENDBRANCH   1  27
TORSDOF 20
