REMARK SMILES Cn1ccc(C(=O)N[C@H]2CCCCC[C@H]2C(=O)NCCCCNC(=O)c2ccc(-c3c4nc(c(-c5cccc(S(=O)(=O)[O-])c5F)c5ccc([nH]5)c(-c5cccc(S(=O)(=O)[O-])c5F)c5nc(c(-c6cccc(S(=O)(=O)[O-])c6F)c6ccc3[nH]6)C=C5)C=C4)cc2)cc1=O
REMARK SMILES IDX 20 1 19 2 18 3 16 4 17 5 15 7 9 8 8 9 6 10 7 11 5 13 1 14
REMARK SMILES IDX 2 15 3 16 90 17 4 18 89 19 91 20 10 21 11 22 14 24 13 25
REMARK SMILES IDX 12 26 21 28 22 29 23 30 24 31 25 33 26 34 27 35 88 36 28 37
REMARK SMILES IDX 87 38 29 39 30 40 31 41 81 42 32 43 86 44 80 45 82 46 33 47
REMARK SMILES IDX 85 48 79 49 78 50 34 52 66 53 46 54 65 55 47 56 50 57 64 58
REMARK SMILES IDX 83 59 48 60 49 61 63 63 84 64 51 65 35 66 36 67 44 68 37 69
REMARK SMILES IDX 39 70 45 71 38 72 40 73 41 74 42 75 43 76 67 77 68 78 76 79
REMARK SMILES IDX 69 80 71 81 77 82 70 83 72 84 73 85 74 86 75 87 52 88 53 89
REMARK SMILES IDX 61 90 54 91 56 92 62 93 55 94 57 95 58 96 59 97 60 98
REMARK H PARENT 18 6 8 12 23 32 82 51 50 62
REMARK Flexibility Score: 90.00
ROOT
ATOM      1  C   UNL     1      -1.348   6.155  -0.619  1.00  0.00     0.023 C 
ENDROOT
BRANCH   1   2
ATOM      2  C   UNL     1      -1.678   4.871   0.129  1.00  0.00     0.116 C 
BRANCH   2   3
ATOM      3  N   UNL     1      -1.508   3.678  -0.663  1.00  0.00    -0.356 N 
ATOM      4  C   UNL     1      -0.617   2.662  -0.574  1.00  0.00     0.225 C 
ATOM      5  O   UNL     1      -0.768   1.726  -1.369  1.00  0.00    -0.275 OA
ATOM      6  H   UNL     1      -2.156   3.584  -1.398  1.00  0.00     0.163 HD
BRANCH   4   7
ATOM      7  C   UNL     1       0.558   2.613   0.415  1.00  0.00     0.101 C 
BRANCH   7   8
ATOM      8  C   UNL     1       1.727   3.627   0.220  1.00  0.00     0.094 C 
BRANCH   8   9
ATOM      9  N   UNL     1       1.581   4.463  -0.991  1.00  0.00    -0.349 N 
ATOM     10  C   UNL     1       2.036   5.642  -1.489  1.00  0.00     0.251 C 
ATOM     11  O   UNL     1       1.905   5.851  -2.696  1.00  0.00    -0.269 OA
ATOM     12  H   UNL     1       0.969   4.034  -1.631  1.00  0.00     0.164 HD
BRANCH  10  13
ATOM     13  C   UNL     1       2.528   6.734  -0.624  1.00  0.00     0.046 A 
ATOM     14  C   UNL     1       3.523   9.759   2.126  1.00  0.00     0.153 C 
ATOM     15  N   UNL     1       3.228   8.762   1.114  1.00  0.00    -0.319 N 
ATOM     16  C   UNL     1       2.122   8.922   0.304  1.00  0.00     0.089 A 
ATOM     17  C   UNL     1       4.098   7.680   0.980  1.00  0.00     0.251 A 
ATOM     18  C   UNL     1       1.770   7.965  -0.559  1.00  0.00     0.032 A 
ATOM     19  C   UNL     1       3.716   6.645  -0.017  1.00  0.00     0.085 A 
ATOM     20  O   UNL     1       5.115   7.514   1.649  1.00  0.00    -0.269 OA
ENDBRANCH  10  13
ENDBRANCH   8   9
BRANCH   8  21
ATOM     21  C   UNL     1       2.248   4.226   1.530  1.00  0.00     0.026 C 
BRANCH  21  22
ATOM     22  C   UNL     1       1.287   5.118   2.289  1.00  0.00     0.002 CG0
ATOM     23  G   UNL     1       0.440   4.359   3.305  1.00  0.00     0.000 G0
ENDBRANCH  21  22
ENDBRANCH   8  21
ENDBRANCH   7   8
BRANCH   7  24
ATOM     24  C   UNL     1       0.169   2.194   1.849  1.00  0.00     0.015 C 
BRANCH  24  25
ATOM     25  C   UNL     1      -0.436   3.201   2.822  1.00  0.00     0.001 C 
BRANCH  25  26
ATOM     26  C   UNL     1       0.440   4.359   3.305  1.00  0.00     0.000 CG0
ATOM     27  G   UNL     1       1.287   5.118   2.289  1.00  0.00     0.000 G0
ENDBRANCH  25  26
ENDBRANCH  24  25
ENDBRANCH   7  24
ENDBRANCH   4   7
ENDBRANCH   2   3
ENDBRANCH   1   2
BRANCH   1  28
ATOM     28  C   UNL     1      -2.534   7.074  -0.883  1.00  0.00     0.023 C 
BRANCH  28  29
ATOM     29  C   UNL     1      -3.323   7.506   0.346  1.00  0.00     0.116 C 
BRANCH  29  30
ATOM     30  N   UNL     1      -2.571   8.286   1.324  1.00  0.00    -0.352 N 
ATOM     31  C   UNL     1      -3.050   9.324   2.100  1.00  0.00     0.251 C 
ATOM     32  H   UNL     1      -1.624   8.047   1.443  1.00  0.00     0.163 HD
ATOM     33  O   UNL     1      -2.311   9.938   2.863  1.00  0.00    -0.269 OA
BRANCH  31  34
ATOM     34  C   UNL     1      -4.469   9.716   1.939  1.00  0.00     0.039 A 
ATOM     35  C   UNL     1      -4.770  11.012   1.516  1.00  0.00     0.014 A 
ATOM     36  C   UNL     1      -5.470   8.747   2.030  1.00  0.00     0.014 A 
ATOM     37  C   UNL     1      -6.063  11.304   1.071  1.00  0.00     0.010 A 
ATOM     38  C   UNL     1      -6.726   9.015   1.498  1.00  0.00     0.010 A 
ATOM     39  C   UNL     1      -7.033  10.290   0.996  1.00  0.00    -0.014 A 
BRANCH  39  40
ATOM     40  C   UNL     1      -8.356  10.521   0.353  1.00  0.00     0.031 A 
ATOM     41  C   UNL     1      -9.625  10.301   1.133  1.00  0.00     0.074 A 
ATOM     42  C   UNL     1      -8.423  10.803  -0.965  1.00  0.00     0.049 A 
ATOM     43  N   UNL     1     -10.865  10.361   0.723  1.00  0.00    -0.248 NA
ATOM     44  C   UNL     1      -9.480   9.923   2.548  1.00  0.00     0.031 C 
ATOM     45  C   UNL     1      -7.275  10.931  -1.866  1.00  0.00     0.029 A 
ATOM     46  N   UNL     1      -9.507  11.006  -1.785  1.00  0.00    -0.354 N 
ATOM     47  C   UNL     1     -11.642   9.978   1.809  1.00  0.00     0.074 A 
ATOM     48  C   UNL     1     -10.732   9.651   2.884  1.00  0.00     0.031 C 
ATOM     49  C   UNL     1      -7.713  11.202  -3.106  1.00  0.00     0.029 A 
ATOM     50  C   UNL     1      -9.172  11.245  -3.099  1.00  0.00     0.049 A 
ATOM     51  H   UNL     1     -10.437  10.982  -1.463  1.00  0.00     0.167 HD
ATOM     52  C   UNL     1     -12.991   9.940   1.920  1.00  0.00     0.034 A 
ATOM     53  C   UNL     1      -9.950  11.477  -4.175  1.00  0.00     0.034 A 
ATOM     54  C   UNL     1     -13.896  10.344   0.879  1.00  0.00     0.049 A 
ATOM     55  C   UNL     1     -11.444  11.526  -4.003  1.00  0.00     0.074 A 
ATOM     56  C   UNL     1     -15.273  10.459   0.934  1.00  0.00     0.029 A 
ATOM     57  N   UNL     1     -13.514  10.705  -0.403  1.00  0.00    -0.354 N 
ATOM     58  N   UNL     1     -12.155  11.340  -2.917  1.00  0.00    -0.248 NA
ATOM     59  C   UNL     1     -12.243  11.855  -5.193  1.00  0.00     0.031 C 
ATOM     60  C   UNL     1     -15.725  10.887  -0.319  1.00  0.00     0.029 A 
ATOM     61  C   UNL     1     -14.627  11.045  -1.150  1.00  0.00     0.049 A 
ATOM     62  H   UNL     1     -12.586  10.718  -0.733  1.00  0.00     0.167 HD
ATOM     63  C   UNL     1     -13.477  11.560  -3.284  1.00  0.00     0.074 A 
ATOM     64  C   UNL     1     -13.468  11.915  -4.688  1.00  0.00     0.031 C 
ATOM     65  C   UNL     1     -14.599  11.458  -2.530  1.00  0.00     0.034 A 
BRANCH  52  66
ATOM     66  C   UNL     1     -13.565   9.520   3.247  1.00  0.00     0.023 A 
ATOM     67  C   UNL     1     -13.464  10.393   4.349  1.00  0.00     0.012 A 
ATOM     68  C   UNL     1     -14.229   8.287   3.399  1.00  0.00     0.148 A 
ATOM     69  C   UNL     1     -13.976  10.030   5.593  1.00  0.00     0.002 A 
ATOM     70  C   UNL     1     -14.775   7.950   4.633  1.00  0.00     0.091 A 
ATOM     71  F   UNL     1     -14.293   7.458   2.348  1.00  0.00    -0.205 F 
ATOM     72  C   UNL     1     -14.639   8.814   5.733  1.00  0.00     0.022 A 
BRANCH  70  73
ATOM     73  S   UNL     1     -15.712   6.439   4.889  1.00  0.00     0.127 S 
ATOM     74  O   UNL     1     -14.738   5.604   5.590  1.00  0.00    -0.237 OA
ATOM     75  O   UNL     1     -16.827   6.900   5.718  1.00  0.00    -0.237 OA
ATOM     76  O   UNL     1     -16.097   5.983   3.561  1.00  0.00    -0.744 OA
ENDBRANCH  70  73
ENDBRANCH  52  66
BRANCH  53  77
ATOM     77  C   UNL     1      -9.322  11.778  -5.494  1.00  0.00     0.023 A 
ATOM     78  C   UNL     1      -9.365  13.097  -5.987  1.00  0.00     0.012 A 
ATOM     79  C   UNL     1      -8.655  10.788  -6.240  1.00  0.00     0.148 A 
ATOM     80  C   UNL     1      -8.777  13.420  -7.210  1.00  0.00     0.002 A 
ATOM     81  C   UNL     1      -8.027  11.127  -7.434  1.00  0.00     0.091 A 
ATOM     82  F   UNL     1      -8.636   9.536  -5.760  1.00  0.00    -0.205 F 
ATOM     83  C   UNL     1      -8.100  12.439  -7.928  1.00  0.00     0.022 A 
BRANCH  81  84
ATOM     84  S   UNL     1      -7.024   9.959  -8.359  1.00  0.00     0.127 S 
ATOM     85  O   UNL     1      -7.874   9.683  -9.514  1.00  0.00    -0.237 OA
ATOM     86  O   UNL     1      -5.827  10.750  -8.649  1.00  0.00    -0.237 OA
ATOM     87  O   UNL     1      -6.796   8.839  -7.455  1.00  0.00    -0.744 OA
ENDBRANCH  81  84
ENDBRANCH  53  77
BRANCH  65  88
ATOM     88  C   UNL     1     -15.918  11.758  -3.190  1.00  0.00     0.023 A 
ATOM     89  C   UNL     1     -16.480  10.819  -4.078  1.00  0.00     0.012 A 
ATOM     90  C   UNL     1     -16.641  12.921  -2.862  1.00  0.00     0.148 A 
ATOM     91  C   UNL     1     -17.733  11.045  -4.646  1.00  0.00     0.002 A 
ATOM     92  C   UNL     1     -17.908  13.119  -3.400  1.00  0.00     0.091 A 
ATOM     93  F   UNL     1     -16.079  13.813  -2.033  1.00  0.00    -0.205 F 
ATOM     94  C   UNL     1     -18.452  12.187  -4.298  1.00  0.00     0.022 A 
BRANCH  92  95
ATOM     95  S   UNL     1     -18.939  14.514  -2.931  1.00  0.00     0.127 S 
ATOM     96  O   UNL     1     -18.808  15.387  -4.096  1.00  0.00    -0.237 OA
ATOM     97  O   UNL     1     -20.256  13.894  -2.779  1.00  0.00    -0.237 OA
ATOM     98  O   UNL     1     -18.371  15.029  -1.692  1.00  0.00    -0.744 OA
ENDBRANCH  92  95
ENDBRANCH  65  88
ENDBRANCH  39  40
ENDBRANCH  31  34
ENDBRANCH  29  30
ENDBRANCH  28  29
ENDBRANCH   1  28
TORSDOF 16
