REMARK SMILES O=C(NCCCCNC(=O)c1ccccc1-c1ccccc1C(=O)N1CC[NH+](Cc2ccc3c(c2)OCO3)CC1)c1ccc(-c2c3nc(c(-c4cccc(S(=O)(=O)[O-])c4F)c4ccc([nH]4)c(-c4cccc(S(=O)(=O)[O-])c4F)c4nc(c(-c5cccc(S(=O)(=O)[O-])c5F)c5ccc2[nH]5)C=C4)C=C3)cc1
REMARK SMILES IDX 6 1 5 2 4 3 3 4 1 5 2 6 41 8 42 9 103 10 43 11 102 12 44 13
REMARK SMILES IDX 45 14 46 15 96 16 47 17 101 18 95 19 97 20 48 21 100 22
REMARK SMILES IDX 94 23 93 24 49 26 81 27 61 28 80 29 62 30 65 31 79 32 98 33
REMARK SMILES IDX 63 34 64 35 78 37 99 38 66 39 50 40 51 41 59 42 52 43 54 44
REMARK SMILES IDX 60 45 53 46 55 47 56 48 57 49 58 50 82 51 83 52 91 53 84 54
REMARK SMILES IDX 86 55 92 56 85 57 87 58 88 59 89 60 90 61 67 62 68 63 76 64
REMARK SMILES IDX 69 65 71 66 77 67 70 68 72 69 73 70 74 71 75 72 7 73 8 74
REMARK SMILES IDX 9 75 10 77 11 78 12 79 16 80 13 81 15 82 14 83 17 84 18 85
REMARK SMILES IDX 22 86 19 87 21 88 20 89 23 90 24 91 25 92 26 93 40 94 27 95
REMARK SMILES IDX 39 96 28 97 29 99 30 100 31 101 35 102 32 103 34 104 33 105
REMARK SMILES IDX 36 106 38 107 37 108
REMARK H PARENT 3 7 97 25 65 36 8 76 28 98
REMARK Flexibility Score: inf
ROOT
ATOM      1  C   UNL     1       3.745  -0.042  -3.555  1.00  0.00     0.023 C 
ENDROOT
BRANCH   1   2
ATOM      2  C   UNL     1       4.446  -0.800  -2.432  1.00  0.00     0.023 C 
BRANCH   2   3
ATOM      3  C   UNL     1       4.248  -0.189  -1.054  1.00  0.00     0.116 C 
BRANCH   3   4
ATOM      4  N   UNL     1       2.848   0.085  -0.753  1.00  0.00    -0.352 N 
ATOM      5  O   UNL     1       0.950   0.008   0.469  1.00  0.00    -0.269 OA
ATOM      6  C   UNL     1       2.147  -0.201   0.394  1.00  0.00     0.251 C 
ATOM      7  H   UNL     1       2.337   0.534  -1.465  1.00  0.00     0.163 HD
BRANCH   6   8
ATOM      8  C   UNL     1       2.900  -0.809   1.503  1.00  0.00     0.039 A 
ATOM      9  C   UNL     1       4.080  -0.201   1.933  1.00  0.00     0.014 A 
ATOM     10  C   UNL     1       2.500  -2.051   1.994  1.00  0.00     0.014 A 
ATOM     11  C   UNL     1       4.948  -0.919   2.736  1.00  0.00     0.010 A 
ATOM     12  C   UNL     1       3.326  -2.720   2.896  1.00  0.00     0.010 A 
ATOM     13  C   UNL     1       4.570  -2.175   3.246  1.00  0.00    -0.014 A 
BRANCH  13  14
ATOM     14  C   UNL     1       5.467  -2.837   4.222  1.00  0.00     0.031 A 
ATOM     15  C   UNL     1       6.098  -4.170   3.944  1.00  0.00     0.074 A 
ATOM     16  C   UNL     1       5.722  -2.178   5.369  1.00  0.00     0.049 A 
ATOM     17  N   UNL     1       6.931  -4.849   4.690  1.00  0.00    -0.248 NA
ATOM     18  C   UNL     1       5.745  -4.840   2.682  1.00  0.00     0.031 C 
ATOM     19  C   UNL     1       5.109  -0.901   5.754  1.00  0.00     0.029 A 
ATOM     20  N   UNL     1       6.563  -2.467   6.408  1.00  0.00    -0.354 N 
ATOM     21  C   UNL     1       7.175  -6.037   4.013  1.00  0.00     0.074 A 
ATOM     22  C   UNL     1       6.394  -5.994   2.795  1.00  0.00     0.031 C 
ATOM     23  C   UNL     1       5.632  -0.493   6.916  1.00  0.00     0.029 A 
ATOM     24  C   UNL     1       6.560  -1.509   7.393  1.00  0.00     0.049 A 
ATOM     25  H   UNL     1       7.115  -3.281   6.446  1.00  0.00     0.167 HD
ATOM     26  C   UNL     1       7.989  -7.059   4.371  1.00  0.00     0.034 A 
ATOM     27  C   UNL     1       7.220  -1.458   8.564  1.00  0.00     0.034 A 
ATOM     28  C   UNL     1       8.785  -7.068   5.572  1.00  0.00     0.049 A 
ATOM     29  C   UNL     1       8.157  -2.576   8.901  1.00  0.00     0.074 A 
ATOM     30  C   UNL     1       9.665  -8.040   6.016  1.00  0.00     0.029 A 
ATOM     31  N   UNL     1       8.804  -6.053   6.518  1.00  0.00    -0.354 N 
ATOM     32  N   UNL     1       8.445  -3.646   8.200  1.00  0.00    -0.248 NA
ATOM     33  C   UNL     1       8.880  -2.472  10.173  1.00  0.00     0.031 C 
ATOM     34  C   UNL     1      10.209  -7.616   7.233  1.00  0.00     0.029 A 
ATOM     35  C   UNL     1       9.682  -6.373   7.541  1.00  0.00     0.049 A 
ATOM     36  H   UNL     1       8.271  -5.227   6.470  1.00  0.00     0.167 HD
ATOM     37  C   UNL     1       9.387  -4.342   8.942  1.00  0.00     0.074 A 
ATOM     38  C   UNL     1       9.656  -3.546  10.124  1.00  0.00     0.031 C 
ATOM     39  C   UNL     1       9.957  -5.546   8.688  1.00  0.00     0.034 A 
BRANCH  26  40
ATOM     40  C   UNL     1       8.103  -8.236   3.434  1.00  0.00     0.023 A 
ATOM     41  C   UNL     1       8.838  -8.098   2.239  1.00  0.00     0.012 A 
ATOM     42  C   UNL     1       7.560  -9.493   3.769  1.00  0.00     0.148 A 
ATOM     43  C   UNL     1       9.012  -9.185   1.382  1.00  0.00     0.002 A 
ATOM     44  C   UNL     1       7.770 -10.581   2.928  1.00  0.00     0.091 A 
ATOM     45  F   UNL     1       6.848  -9.601   4.899  1.00  0.00    -0.205 F 
ATOM     46  C   UNL     1       8.489 -10.427   1.731  1.00  0.00     0.022 A 
BRANCH  44  47
ATOM     47  S   UNL     1       7.200 -12.240   3.321  1.00  0.00     0.127 S 
ATOM     48  O   UNL     1       6.130 -12.424   2.341  1.00  0.00    -0.237 OA
ATOM     49  O   UNL     1       8.397 -13.044   3.073  1.00  0.00    -0.237 OA
ATOM     50  O   UNL     1       6.773 -12.199   4.712  1.00  0.00    -0.744 OA
ENDBRANCH  44  47
ENDBRANCH  26  40
BRANCH  27  51
ATOM     51  C   UNL     1       7.027  -0.287   9.463  1.00  0.00     0.023 A 
ATOM     52  C   UNL     1       8.080   0.626   9.656  1.00  0.00     0.012 A 
ATOM     53  C   UNL     1       5.779  -0.034  10.066  1.00  0.00     0.148 A 
ATOM     54  C   UNL     1       7.899   1.758  10.451  1.00  0.00     0.002 A 
ATOM     55  C   UNL     1       5.587   1.130  10.799  1.00  0.00     0.091 A 
ATOM     56  F   UNL     1       4.792  -0.923   9.887  1.00  0.00    -0.205 F 
ATOM     57  C   UNL     1       6.650   2.019  11.009  1.00  0.00     0.022 A 
BRANCH  55  58
ATOM     58  S   UNL     1       3.959   1.606  11.394  1.00  0.00     0.127 S 
ATOM     59  O   UNL     1       4.009   1.171  12.786  1.00  0.00    -0.237 OA
ATOM     60  O   UNL     1       3.969   3.057  11.200  1.00  0.00    -0.237 OA
ATOM     61  O   UNL     1       3.019   0.901  10.532  1.00  0.00    -0.744 OA
ENDBRANCH  55  58
ENDBRANCH  27  51
BRANCH  39  62
ATOM     62  C   UNL     1      10.926  -6.064   9.715  1.00  0.00     0.023 A 
ATOM     63  C   UNL     1      10.438  -6.540  10.949  1.00  0.00     0.012 A 
ATOM     64  C   UNL     1      12.307  -6.109   9.451  1.00  0.00     0.148 A 
ATOM     65  C   UNL     1      11.316  -7.014  11.921  1.00  0.00     0.002 A 
ATOM     66  C   UNL     1      13.172  -6.626  10.408  1.00  0.00     0.091 A 
ATOM     67  F   UNL     1      12.753  -5.629   8.280  1.00  0.00    -0.205 F 
ATOM     68  C   UNL     1      12.680  -7.066  11.648  1.00  0.00     0.022 A 
BRANCH  66  69
ATOM     69  S   UNL     1      14.933  -6.806  10.104  1.00  0.00     0.127 S 
ATOM     70  O   UNL     1      15.481  -5.670  10.841  1.00  0.00    -0.237 OA
ATOM     71  O   UNL     1      15.221  -8.113  10.696  1.00  0.00    -0.237 OA
ATOM     72  O   UNL     1      15.091  -6.756   8.657  1.00  0.00    -0.744 OA
ENDBRANCH  66  69
ENDBRANCH  39  62
ENDBRANCH  13  14
ENDBRANCH   6   8
ENDBRANCH   3   4
ENDBRANCH   2   3
ENDBRANCH   1   2
BRANCH   1  73
ATOM     73  C   UNL     1       3.966   1.467  -3.501  1.00  0.00     0.116 C 
BRANCH  73  74
ATOM     74  N   UNL     1       5.376   1.755  -3.610  1.00  0.00    -0.352 N 
ATOM     75  C   UNL     1       6.011   1.922  -4.805  1.00  0.00     0.251 C 
ATOM     76  H   UNL     1       5.904   1.835  -2.783  1.00  0.00     0.163 HD
ATOM     77  O   UNL     1       7.104   1.397  -4.989  1.00  0.00    -0.269 OA
BRANCH  75  78
ATOM     78  C   UNL     1       5.327   2.700  -5.870  1.00  0.00     0.047 A 
ATOM     79  C   UNL     1       5.356   2.129  -7.152  1.00  0.00     0.014 A 
ATOM     80  C   UNL     1       4.694   3.947  -5.643  1.00  0.00    -0.005 A 
ATOM     81  C   UNL     1       4.727   2.760  -8.221  1.00  0.00     0.001 A 
ATOM     82  C   UNL     1       4.058   4.554  -6.749  1.00  0.00     0.009 A 
ATOM     83  C   UNL     1       4.069   3.968  -8.018  1.00  0.00     0.001 A 
BRANCH  80  84
ATOM     84  C   UNL     1       4.584   4.619  -4.322  1.00  0.00    -0.005 A 
ATOM     85  C   UNL     1       3.265   4.771  -3.811  1.00  0.00     0.009 A 
ATOM     86  C   UNL     1       5.653   5.046  -3.500  1.00  0.00     0.047 A 
ATOM     87  C   UNL     1       3.004   5.262  -2.531  1.00  0.00     0.001 A 
ATOM     88  C   UNL     1       5.364   5.556  -2.210  1.00  0.00     0.014 A 
ATOM     89  C   UNL     1       4.059   5.652  -1.726  1.00  0.00     0.001 A 
BRANCH  86  90
ATOM     90  C   UNL     1       7.117   4.859  -3.777  1.00  0.00     0.254 C 
ATOM     91  O   UNL     1       7.877   4.749  -2.812  1.00  0.00    -0.269 OA
ATOM     92  N   UNL     1       7.590   4.722  -5.076  1.00  0.00    -0.327 N 
ATOM     93  C   UNL     1       8.788   3.913  -5.248  1.00  0.00     0.181 C 
ATOM     94  C   UNL     1       7.446   5.769  -6.078  1.00  0.00     0.181 C 
ATOM     95  C   UNL     1       8.886   3.317  -6.667  1.00  0.00     0.284 C 
ATOM     96  C   UNL     1       7.671   5.269  -7.530  1.00  0.00     0.284 C 
ATOM     97  N   UNL     1       8.710   4.259  -7.787  1.00  0.00    -0.328 N 
ATOM     98  H   UNL     1       8.316   3.711  -8.551  1.00  0.00     0.348 HD
BRANCH  97  99
ATOM     99  C   UNL     1       9.951   4.720  -8.415  1.00  0.00     0.299 C 
BRANCH  99 100
ATOM    100  C   UNL     1      10.845   5.507  -7.487  1.00  0.00     0.010 A 
ATOM    101  C   UNL     1      10.610   6.888  -7.297  1.00  0.00     0.013 A 
ATOM    102  C   UNL     1      11.720   4.815  -6.635  1.00  0.00     0.060 A 
ATOM    103  C   UNL     1      11.090   7.536  -6.159  1.00  0.00     0.051 A 
ATOM    104  C   UNL     1      12.114   5.461  -5.489  1.00  0.00     0.166 A 
ATOM    105  C   UNL     1      11.777   6.772  -5.241  1.00  0.00     0.165 A 
ATOM    106  O   UNL     1      12.683   4.861  -4.407  1.00  0.00    -0.454 OA
ATOM    107  O   UNL     1      12.094   7.145  -3.970  1.00  0.00    -0.454 OA
ATOM    108  C   UNL     1      12.379   5.847  -3.400  1.00  0.00     0.468 C 
ENDBRANCH  99 100
ENDBRANCH  97  99
ENDBRANCH  86  90
ENDBRANCH  80  84
ENDBRANCH  75  78
ENDBRANCH  73  74
ENDBRANCH   1  73
TORSDOF 18
