REMARK SMILES CC(C)N(CC1CC1)C(=O)N1CC[C@H](C(=O)NCCCCNC(=O)c2ccc(-c3c4nc(c(-c5cccc(S(=O)(=O)[O-])c5F)c5ccc([nH]5)c(-c5cccc(S(=O)(=O)[O-])c5F)c5nc(c(-c6cccc(S(=O)(=O)[O-])c6F)c6ccc3[nH]6)C=C5)C=C4)cc2)[C@H]1C
REMARK SMILES IDX 19 1 18 2 17 3 15 4 16 5 14 7 11 8 12 9 88 10 13 11 89 12
REMARK SMILES IDX 9 13 10 14 4 15 2 16 1 17 3 18 5 19 6 20 7 21 8 22 20 23
REMARK SMILES IDX 21 24 22 25 23 26 24 28 25 29 26 30 87 31 27 32 86 33 28 34
REMARK SMILES IDX 29 35 30 36 80 37 31 38 85 39 79 40 81 41 32 42 84 43 78 44
REMARK SMILES IDX 77 45 33 47 65 48 45 49 64 50 46 51 49 52 63 53 82 54 47 55
REMARK SMILES IDX 48 56 62 58 83 59 50 60 34 61 35 62 43 63 36 64 38 65 44 66
REMARK SMILES IDX 37 67 39 68 40 69 41 70 42 71 66 72 67 73 75 74 68 75 70 76
REMARK SMILES IDX 76 77 69 78 71 79 72 80 73 81 74 82 51 83 52 84 60 85 53 86
REMARK SMILES IDX 55 87 61 88 54 89 56 90 57 91 58 92 59 93
REMARK H PARENT 17 6 22 27 81 46 49 57
REMARK Flexibility Score: inf
ROOT
ATOM      1  C   UNL     1      -4.323   1.373  -3.993  1.00  0.00     0.023 C 
ENDROOT
BRANCH   1   2
ATOM      2  C   UNL     1      -3.880   2.288  -2.855  1.00  0.00     0.116 C 
BRANCH   2   3
ATOM      3  N   UNL     1      -4.990   2.960  -2.222  1.00  0.00    -0.356 N 
ATOM      4  C   UNL     1      -5.719   2.634  -1.129  1.00  0.00     0.225 C 
ATOM      5  O   UNL     1      -6.551   3.469  -0.753  1.00  0.00    -0.275 OA
ATOM      6  H   UNL     1      -5.264   3.798  -2.660  1.00  0.00     0.163 HD
BRANCH   4   7
ATOM      7  C   UNL     1      -5.554   1.354  -0.314  1.00  0.00     0.102 C 
ATOM      8  N   UNL     1      -3.379   0.466   0.145  1.00  0.00    -0.321 N 
ATOM      9  C   UNL     1      -4.025  -0.483  -0.760  1.00  0.00     0.122 C 
ATOM     10  C   UNL     1      -4.391   1.386   0.697  1.00  0.00     0.096 C 
ATOM     11  C   UNL     1      -5.449   0.000  -0.995  1.00  0.00     0.037 C 
ATOM     12  C   UNL     1      -4.967   0.914   2.042  1.00  0.00     0.032 C 
BRANCH   8  13
ATOM     13  C   UNL     1      -2.029   0.721  -0.072  1.00  0.00     0.320 C 
ATOM     14  O   UNL     1      -1.537   0.424  -1.167  1.00  0.00    -0.248 OA
BRANCH  13  15
ATOM     15  N   UNL     1      -1.220   1.218   0.939  1.00  0.00    -0.322 N 
BRANCH  15  16
ATOM     16  C   UNL     1       0.242   1.348   0.684  1.00  0.00     0.080 C 
ATOM     17  C   UNL     1       0.897   0.040   0.209  1.00  0.00     0.031 C 
ATOM     18  C   UNL     1       0.604   2.508  -0.241  1.00  0.00     0.031 C 
ENDBRANCH  15  16
BRANCH  15  19
ATOM     19  C   UNL     1      -1.614   1.350   2.334  1.00  0.00     0.125 C 
BRANCH  19  20
ATOM     20  C   UNL     1      -2.129   2.708   2.732  1.00  0.00     0.009 C 
ATOM     21  C   UNL     1      -1.202   3.897   2.845  1.00  0.00     0.006 C 
ATOM     22  C   UNL     1      -2.271   3.888   1.794  1.00  0.00     0.006 C 
ENDBRANCH  19  20
ENDBRANCH  15  19
ENDBRANCH  13  15
ENDBRANCH   8  13
ENDBRANCH   4   7
ENDBRANCH   2   3
ENDBRANCH   1   2
BRANCH   1  23
ATOM     23  C   UNL     1      -4.309   2.023  -5.372  1.00  0.00     0.023 C 
BRANCH  23  24
ATOM     24  C   UNL     1      -2.943   2.493  -5.853  1.00  0.00     0.116 C 
BRANCH  24  25
ATOM     25  N   UNL     1      -1.937   1.441  -5.894  1.00  0.00    -0.352 N 
ATOM     26  C   UNL     1      -0.920   1.279  -6.812  1.00  0.00     0.251 C 
ATOM     27  H   UNL     1      -1.988   0.763  -5.182  1.00  0.00     0.163 HD
ATOM     28  O   UNL     1      -0.200   0.294  -6.789  1.00  0.00    -0.269 OA
BRANCH  26  29
ATOM     29  C   UNL     1      -0.745   2.313  -7.856  1.00  0.00     0.039 A 
ATOM     30  C   UNL     1      -0.709   1.923  -9.196  1.00  0.00     0.014 A 
ATOM     31  C   UNL     1      -0.697   3.665  -7.508  1.00  0.00     0.014 A 
ATOM     32  C   UNL     1      -0.703   2.899 -10.194  1.00  0.00     0.010 A 
ATOM     33  C   UNL     1      -0.772   4.633  -8.502  1.00  0.00     0.010 A 
ATOM     34  C   UNL     1      -0.775   4.261  -9.855  1.00  0.00    -0.014 A 
BRANCH  34  35
ATOM     35  C   UNL     1      -0.874   5.314 -10.898  1.00  0.00     0.031 A 
ATOM     36  C   UNL     1       0.202   6.358 -11.020  1.00  0.00     0.074 A 
ATOM     37  C   UNL     1      -1.985   5.395 -11.659  1.00  0.00     0.049 A 
ATOM     38  N   UNL     1       0.261   7.388 -11.823  1.00  0.00    -0.248 NA
ATOM     39  C   UNL     1       1.345   6.255 -10.097  1.00  0.00     0.031 C 
ATOM     40  C   UNL     1      -3.147   4.508 -11.560  1.00  0.00     0.029 A 
ATOM     41  N   UNL     1      -2.334   6.287 -12.642  1.00  0.00    -0.354 N 
ATOM     42  C   UNL     1       1.414   8.079 -11.471  1.00  0.00     0.074 A 
ATOM     43  C   UNL     1       2.012   7.368 -10.364  1.00  0.00     0.031 C 
ATOM     44  C   UNL     1      -4.080   4.904 -12.442  1.00  0.00     0.029 A 
ATOM     45  C   UNL     1      -3.594   6.081 -13.155  1.00  0.00     0.049 A 
ATOM     46  H   UNL     1      -1.738   7.008 -12.952  1.00  0.00     0.167 HD
ATOM     47  C   UNL     1       1.944   9.188 -12.038  1.00  0.00     0.034 A 
ATOM     48  C   UNL     1      -4.282   6.766 -14.090  1.00  0.00     0.034 A 
ATOM     49  C   UNL     1       1.385   9.848 -13.186  1.00  0.00     0.049 A 
ATOM     50  C   UNL     1      -3.624   7.938 -14.768  1.00  0.00     0.074 A 
ATOM     51  C   UNL     1       1.916  10.896 -13.917  1.00  0.00     0.029 A 
ATOM     52  N   UNL     1       0.168   9.531 -13.766  1.00  0.00    -0.354 N 
ATOM     53  N   UNL     1      -2.437   8.452 -14.557  1.00  0.00    -0.248 NA
ATOM     54  C   UNL     1      -4.381   8.598 -15.843  1.00  0.00     0.031 C 
ATOM     55  C   UNL     1       1.010  11.223 -14.931  1.00  0.00     0.029 A 
ATOM     56  C   UNL     1      -0.075  10.367 -14.841  1.00  0.00     0.049 A 
ATOM     57  H   UNL     1      -0.435   8.815 -13.459  1.00  0.00     0.167 HD
ATOM     58  C   UNL     1      -2.291   9.471 -15.492  1.00  0.00     0.074 A 
ATOM     59  C   UNL     1      -3.501   9.485 -16.288  1.00  0.00     0.031 C 
ATOM     60  C   UNL     1      -1.256  10.330 -15.663  1.00  0.00     0.034 A 
BRANCH  47  61
ATOM     61  C   UNL     1       3.231   9.724 -11.472  1.00  0.00     0.023 A 
ATOM     62  C   UNL     1       4.434   9.027 -11.702  1.00  0.00     0.012 A 
ATOM     63  C   UNL     1       3.263  10.952 -10.784  1.00  0.00     0.148 A 
ATOM     64  C   UNL     1       5.647   9.529 -11.232  1.00  0.00     0.002 A 
ATOM     65  C   UNL     1       4.481  11.469 -10.357  1.00  0.00     0.091 A 
ATOM     66  F   UNL     1       2.105  11.589 -10.557  1.00  0.00    -0.205 F 
ATOM     67  C   UNL     1       5.671  10.754 -10.571  1.00  0.00     0.022 A 
BRANCH  65  68
ATOM     68  S   UNL     1       4.630  13.075  -9.566  1.00  0.00     0.127 S 
ATOM     69  O   UNL     1       4.978  12.698  -8.197  1.00  0.00    -0.237 OA
ATOM     70  O   UNL     1       5.719  13.690 -10.325  1.00  0.00    -0.237 OA
ATOM     71  O   UNL     1       3.336  13.723  -9.725  1.00  0.00    -0.744 OA
ENDBRANCH  65  68
ENDBRANCH  47  61
BRANCH  48  72
ATOM     72  C   UNL     1      -5.646   6.318 -14.492  1.00  0.00     0.023 A 
ATOM     73  C   UNL     1      -5.840   5.744 -15.764  1.00  0.00     0.012 A 
ATOM     74  C   UNL     1      -6.745   6.436 -13.619  1.00  0.00     0.148 A 
ATOM     75  C   UNL     1      -7.108   5.332 -16.174  1.00  0.00     0.002 A 
ATOM     76  C   UNL     1      -7.995   5.973 -14.013  1.00  0.00     0.091 A 
ATOM     77  F   UNL     1      -6.546   6.997 -12.418  1.00  0.00    -0.205 F 
ATOM     78  C   UNL     1      -8.183   5.437 -15.296  1.00  0.00     0.022 A 
BRANCH  76  79
ATOM     79  S   UNL     1      -9.400   5.947 -12.893  1.00  0.00     0.127 S 
ATOM     80  O   UNL     1     -10.180   7.088 -13.364  1.00  0.00    -0.237 OA
ATOM     81  O   UNL     1      -9.992   4.638 -13.172  1.00  0.00    -0.237 OA
ATOM     82  O   UNL     1      -8.830   6.069 -11.557  1.00  0.00    -0.744 OA
ENDBRANCH  76  79
ENDBRANCH  48  72
BRANCH  60  83
ATOM     83  C   UNL     1      -1.362  11.342 -16.772  1.00  0.00     0.023 A 
ATOM     84  C   UNL     1      -2.231  12.443 -16.631  1.00  0.00     0.012 A 
ATOM     85  C   UNL     1      -0.540  11.250 -17.912  1.00  0.00     0.148 A 
ATOM     86  C   UNL     1      -2.300  13.420 -17.622  1.00  0.00     0.002 A 
ATOM     87  C   UNL     1      -0.580  12.253 -18.873  1.00  0.00     0.091 A 
ATOM     88  F   UNL     1       0.266  10.185 -18.037  1.00  0.00    -0.205 F 
ATOM     89  C   UNL     1      -1.467  13.333 -18.736  1.00  0.00     0.022 A 
BRANCH  87  90
ATOM     90  S   UNL     1       0.527  12.270 -20.288  1.00  0.00     0.127 S 
ATOM     91  O   UNL     1      -0.366  11.862 -21.371  1.00  0.00    -0.237 OA
ATOM     92  O   UNL     1       0.948  13.670 -20.339  1.00  0.00    -0.237 OA
ATOM     93  O   UNL     1       1.596  11.332 -19.968  1.00  0.00    -0.744 OA
ENDBRANCH  87  90
ENDBRANCH  60  83
ENDBRANCH  34  35
ENDBRANCH  26  29
ENDBRANCH  24  25
ENDBRANCH  23  24
ENDBRANCH   1  23
TORSDOF 19
