REMARK SMILES CO[C@H]1CN(C(=O)c2cn(C(C)C)cc(C(=O)NCCCCNC(=O)c3ccc(-c4c5nc(c(-c6cccc(S(=O)(=O)[O-])c6F)c6ccc([nH]6)c(-c6cccc(S(=O)(=O)[O-])c6F)c6nc(c(-c7cccc(S(=O)(=O)[O-])c7F)c7ccc4[nH]7)C=C6)C=C5)cc3)c2=O)CC[C@H]1[NH3+]
REMARK SMILES IDX 20 1 19 2 18 3 16 4 17 5 15 7 8 8 9 9 89 10 10 11 90 12
REMARK SMILES IDX 14 13 6 14 7 15 5 16 3 17 4 18 93 19 92 20 91 21 2 22 1 23
REMARK SMILES IDX 94 24 11 28 12 29 13 30 21 31 22 32 23 33 24 34 25 36 26 37
REMARK SMILES IDX 27 38 88 39 28 40 87 41 29 42 30 43 31 44 81 45 32 46 86 47
REMARK SMILES IDX 80 48 82 49 33 50 85 51 79 52 78 53 34 55 66 56 46 57 65 58
REMARK SMILES IDX 47 59 50 60 64 61 83 62 48 63 49 64 63 66 84 67 51 68 35 69
REMARK SMILES IDX 36 70 44 71 37 72 39 73 45 74 38 75 40 76 41 77 42 78 43 79
REMARK SMILES IDX 67 80 68 81 76 82 69 83 71 84 77 85 70 86 72 87 73 88 74 89
REMARK SMILES IDX 75 90 52 91 53 92 61 93 54 94 56 95 62 96 55 97 57 98 58 99
REMARK SMILES IDX 59 100 60 101
REMARK H PARENT 18 6 94 25 94 26 94 27 23 35 82 54 50 65
REMARK Flexibility Score: inf
ROOT
ATOM      1  C   UNL     1       6.227   1.397  -0.873  1.00  0.00     0.023 C 
ENDROOT
BRANCH   1   2
ATOM      2  C   UNL     1       5.511   1.621   0.463  1.00  0.00     0.116 C 
BRANCH   2   3
ATOM      3  N   UNL     1       5.187   3.022   0.655  1.00  0.00    -0.352 N 
ATOM      4  C   UNL     1       4.067   3.745   0.391  1.00  0.00     0.256 C 
ATOM      5  O   UNL     1       4.114   4.945   0.687  1.00  0.00    -0.269 OA
ATOM      6  H   UNL     1       5.917   3.549   1.054  1.00  0.00     0.163 HD
BRANCH   4   7
ATOM      7  C   UNL     1       2.806   3.167  -0.154  1.00  0.00     0.104 A 
ATOM      8  C   UNL     1       1.235   1.441  -1.173  1.00  0.00     0.104 A 
ATOM      9  C   UNL     1       0.226   2.284  -0.924  1.00  0.00     0.103 A 
ATOM     10  C   UNL     1       2.618   1.940  -0.975  1.00  0.00     0.207 A 
ATOM     11  N   UNL     1       0.399   3.552  -0.377  1.00  0.00    -0.350 N 
ATOM     12  O   UNL     1       3.537   1.350  -1.530  1.00  0.00    -0.288 OA
ATOM     13  C   UNL     1       1.686   3.892   0.045  1.00  0.00     0.103 A 
BRANCH   8  14
ATOM     14  C   UNL     1       0.980   0.093  -1.723  1.00  0.00     0.259 C 
ATOM     15  O   UNL     1       0.406  -0.035  -2.801  1.00  0.00    -0.269 OA
BRANCH  14  16
ATOM     16  N   UNL     1       1.416  -0.977  -0.955  1.00  0.00    -0.335 N 
ATOM     17  C   UNL     1       0.583  -1.855   1.188  1.00  0.00     0.195 C 
ATOM     18  C   UNL     1       1.615  -0.942   0.496  1.00  0.00     0.158 C 
ATOM     19  C   UNL     1       0.650  -3.305   0.611  1.00  0.00     0.213 C 
ATOM     20  C   UNL     1       0.550  -3.270  -0.926  1.00  0.00     0.089 C 
ATOM     21  C   UNL     1       1.540  -2.297  -1.558  1.00  0.00     0.126 C 
BRANCH  17  22
ATOM     22  O   UNL     1       0.794  -1.775   2.603  1.00  0.00    -0.373 OA
ATOM     23  C   UNL     1      -0.228  -2.401   3.365  1.00  0.00     0.195 C 
ENDBRANCH  17  22
BRANCH  19  24
ATOM     24  N   UNL     1       1.829  -4.061   1.060  1.00  0.00    -0.353 N 
ATOM     25  H   UNL     1       2.675  -3.607   0.718  1.00  0.00     0.344 HD
ATOM     26  H   UNL     1       1.782  -5.012   0.694  1.00  0.00     0.344 HD
ATOM     27  H   UNL     1       1.846  -4.090   2.079  1.00  0.00     0.344 HD
ENDBRANCH  19  24
ENDBRANCH  14  16
ENDBRANCH   8  14
BRANCH  11  28
ATOM     28  C   UNL     1      -0.702   4.543  -0.291  1.00  0.00     0.080 C 
ATOM     29  C   UNL     1      -1.152   4.952  -1.694  1.00  0.00     0.031 C 
ATOM     30  C   UNL     1      -1.864   4.016   0.549  1.00  0.00     0.031 C 
ENDBRANCH  11  28
ENDBRANCH   4   7
ENDBRANCH   2   3
ENDBRANCH   1   2
BRANCH   1  31
ATOM     31  C   UNL     1       7.724   1.697  -0.866  1.00  0.00     0.023 C 
BRANCH  31  32
ATOM     32  C   UNL     1       8.554   0.803   0.042  1.00  0.00     0.116 C 
BRANCH  32  33
ATOM     33  N   UNL     1       8.439  -0.619  -0.256  1.00  0.00    -0.352 N 
ATOM     34  C   UNL     1       9.366  -1.606  -0.008  1.00  0.00     0.251 C 
ATOM     35  H   UNL     1       7.601  -0.907  -0.685  1.00  0.00     0.163 HD
ATOM     36  O   UNL     1       9.167  -2.760  -0.372  1.00  0.00    -0.269 OA
BRANCH  34  37
ATOM     37  C   UNL     1      10.634  -1.226   0.650  1.00  0.00     0.039 A 
ATOM     38  C   UNL     1      10.613  -0.479   1.829  1.00  0.00     0.014 A 
ATOM     39  C   UNL     1      11.843  -1.514   0.011  1.00  0.00     0.014 A 
ATOM     40  C   UNL     1      11.779   0.135   2.266  1.00  0.00     0.010 A 
ATOM     41  C   UNL     1      13.027  -0.961   0.502  1.00  0.00     0.010 A 
ATOM     42  C   UNL     1      12.995  -0.081   1.595  1.00  0.00    -0.014 A 
BRANCH  42  43
ATOM     43  C   UNL     1      14.209   0.648   2.042  1.00  0.00     0.031 A 
ATOM     44  C   UNL     1      14.863   1.675   1.157  1.00  0.00     0.074 A 
ATOM     45  C   UNL     1      14.685   0.426   3.282  1.00  0.00     0.049 A 
ATOM     46  N   UNL     1      15.903   2.429   1.408  1.00  0.00    -0.248 NA
ATOM     47  C   UNL     1      14.282   1.886  -0.180  1.00  0.00     0.031 C 
ATOM     48  C   UNL     1      14.143  -0.552   4.227  1.00  0.00     0.029 A 
ATOM     49  N   UNL     1      15.714   1.020   3.967  1.00  0.00    -0.354 N 
ATOM     50  C   UNL     1      16.126   3.170   0.254  1.00  0.00     0.074 A 
ATOM     51  C   UNL     1      15.115   2.777  -0.703  1.00  0.00     0.031 C 
ATOM     52  C   UNL     1      14.812  -0.458   5.385  1.00  0.00     0.029 A 
ATOM     53  C   UNL     1      15.857   0.552   5.251  1.00  0.00     0.049 A 
ATOM     54  H   UNL     1      16.293   1.714   3.577  1.00  0.00     0.167 HD
ATOM     55  C   UNL     1      17.071   4.110   0.021  1.00  0.00     0.034 A 
ATOM     56  C   UNL     1      16.731   0.894   6.217  1.00  0.00     0.034 A 
ATOM     57  C   UNL     1      18.037   4.549   0.990  1.00  0.00     0.049 A 
ATOM     58  C   UNL     1      17.751   1.959   5.943  1.00  0.00     0.074 A 
ATOM     59  C   UNL     1      19.012   5.521   0.851  1.00  0.00     0.029 A 
ATOM     60  N   UNL     1      18.143   4.056   2.281  1.00  0.00    -0.354 N 
ATOM     61  N   UNL     1      17.905   2.689   4.865  1.00  0.00    -0.248 NA
ATOM     62  C   UNL     1      18.711   2.256   7.015  1.00  0.00     0.031 C 
ATOM     63  C   UNL     1      19.703   5.622   2.063  1.00  0.00     0.029 A 
ATOM     64  C   UNL     1      19.162   4.707   2.952  1.00  0.00     0.049 A 
ATOM     65  H   UNL     1      17.576   3.347   2.663  1.00  0.00     0.167 HD
ATOM     66  C   UNL     1      18.979   3.529   5.125  1.00  0.00     0.074 A 
ATOM     67  C   UNL     1      19.420   3.240   6.476  1.00  0.00     0.031 C 
ATOM     68  C   UNL     1      19.564   4.437   4.308  1.00  0.00     0.034 A 
BRANCH  55  69
ATOM     69  C   UNL     1      17.073   4.785  -1.323  1.00  0.00     0.023 A 
ATOM     70  C   UNL     1      16.177   5.847  -1.554  1.00  0.00     0.012 A 
ATOM     71  C   UNL     1      18.006   4.433  -2.316  1.00  0.00     0.148 A 
ATOM     72  C   UNL     1      16.202   6.544  -2.761  1.00  0.00     0.002 A 
ATOM     73  C   UNL     1      18.042   5.149  -3.508  1.00  0.00     0.091 A 
ATOM     74  F   UNL     1      18.835   3.406  -2.079  1.00  0.00    -0.205 F 
ATOM     75  C   UNL     1      17.140   6.202  -3.732  1.00  0.00     0.022 A 
BRANCH  73  76
ATOM     76  S   UNL     1      19.243   4.818  -4.803  1.00  0.00     0.127 S 
ATOM     77  O   UNL     1      18.402   4.218  -5.838  1.00  0.00    -0.237 OA
ATOM     78  O   UNL     1      19.735   6.160  -5.119  1.00  0.00    -0.237 OA
ATOM     79  O   UNL     1      20.235   3.931  -4.213  1.00  0.00    -0.744 OA
ENDBRANCH  73  76
ENDBRANCH  55  69
BRANCH  56  80
ATOM     80  C   UNL     1      16.618   0.244   7.549  1.00  0.00     0.023 A 
ATOM     81  C   UNL     1      16.049   0.962   8.616  1.00  0.00     0.012 A 
ATOM     82  C   UNL     1      16.962  -1.110   7.728  1.00  0.00     0.148 A 
ATOM     83  C   UNL     1      15.819   0.340   9.843  1.00  0.00     0.002 A 
ATOM     84  C   UNL     1      16.687  -1.736   8.937  1.00  0.00     0.091 A 
ATOM     85  F   UNL     1      17.508  -1.766   6.694  1.00  0.00    -0.205 F 
ATOM     86  C   UNL     1      16.124  -1.011   9.999  1.00  0.00     0.022 A 
BRANCH  84  87
ATOM     87  S   UNL     1      16.923  -3.498   9.190  1.00  0.00     0.127 S 
ATOM     88  O   UNL     1      17.969  -3.516  10.210  1.00  0.00    -0.237 OA
ATOM     89  O   UNL     1      15.600  -3.912   9.656  1.00  0.00    -0.237 OA
ATOM     90  O   UNL     1      17.304  -4.038   7.892  1.00  0.00    -0.744 OA
ENDBRANCH  84  87
ENDBRANCH  56  80
BRANCH  68  91
ATOM     91  C   UNL     1      20.762   5.179   4.828  1.00  0.00     0.023 A 
ATOM     92  C   UNL     1      22.021   4.552   4.779  1.00  0.00     0.012 A 
ATOM     93  C   UNL     1      20.663   6.518   5.250  1.00  0.00     0.148 A 
ATOM     94  C   UNL     1      23.171   5.247   5.149  1.00  0.00     0.002 A 
ATOM     95  C   UNL     1      21.817   7.213   5.593  1.00  0.00     0.091 A 
ATOM     96  F   UNL     1      19.449   7.085   5.297  1.00  0.00    -0.205 F 
ATOM     97  C   UNL     1      23.070   6.579   5.545  1.00  0.00     0.022 A 
BRANCH  95  98
ATOM     98  S   UNL     1      21.800   8.950   6.054  1.00  0.00     0.127 S 
ATOM     99  O   UNL     1      22.152   8.884   7.472  1.00  0.00    -0.237 OA
ATOM    100  O   UNL     1      22.840   9.509   5.191  1.00  0.00    -0.237 OA
ATOM    101  O   UNL     1      20.454   9.429   5.771  1.00  0.00    -0.744 OA
ENDBRANCH  95  98
ENDBRANCH  68  91
ENDBRANCH  42  43
ENDBRANCH  34  37
ENDBRANCH  32  33
ENDBRANCH  31  32
ENDBRANCH   1  31
TORSDOF 19
