REMARK SMILES Cc1oc(C)c(C(=O)Nc2cc(C(=O)NCCCCNC(=O)c3ccc(-c4c5nc(c(-c6cccc(S(=O)(=O)[O-])c6F)c6ccc([nH]6)c(-c6cccc(S(=O)(=O)[O-])c6F)c6nc(c(-c7cccc(S(=O)(=O)[O-])c7F)c7ccc4[nH]7)C=C6)C=C5)cc3)ccc2Cl)c1C
REMARK SMILES IDX 18 1 17 2 16 3 15 4 13 5 14 6 12 8 10 9 11 10 88 11 87 12
REMARK SMILES IDX 89 13 86 14 9 15 7 16 8 17 6 19 1 20 2 21 3 22 90 23 4 24
REMARK SMILES IDX 91 25 5 26 19 27 20 28 21 29 22 31 23 32 24 33 85 34 25 35
REMARK SMILES IDX 84 36 26 37 27 38 28 39 78 40 29 41 83 42 77 43 79 44 30 45
REMARK SMILES IDX 82 46 76 47 75 48 31 50 63 51 43 52 62 53 44 54 47 55 61 56
REMARK SMILES IDX 80 57 45 58 46 59 60 61 81 62 48 63 32 64 33 65 41 66 34 67
REMARK SMILES IDX 36 68 42 69 35 70 37 71 38 72 39 73 40 74 64 75 65 76 73 77
REMARK SMILES IDX 66 78 68 79 74 80 67 81 69 82 70 83 71 84 72 85 49 86 50 87
REMARK SMILES IDX 58 88 51 89 53 90 59 91 52 92 54 93 55 94 56 95 57 96
REMARK H PARENT 15 7 9 18 20 30 79 49 47 60
REMARK Flexibility Score: inf
ROOT
ATOM      1  C   UNL     1       6.672   1.627   6.687  1.00  0.00     0.023 C 
ENDROOT
BRANCH   1   2
ATOM      2  C   UNL     1       5.973   1.472   5.325  1.00  0.00     0.023 C 
BRANCH   2   3
ATOM      3  C   UNL     1       4.439   1.481   5.361  1.00  0.00     0.116 C 
BRANCH   3   4
ATOM      4  N   UNL     1       3.918   2.830   5.431  1.00  0.00    -0.352 N 
ATOM      5  C   UNL     1       3.638   3.796   4.503  1.00  0.00     0.251 C 
ATOM      6  O   UNL     1       3.278   4.892   4.939  1.00  0.00    -0.269 OA
ATOM      7  H   UNL     1       3.721   3.116   6.352  1.00  0.00     0.163 HD
BRANCH   5   8
ATOM      8  C   UNL     1       3.713   3.631   3.018  1.00  0.00     0.041 A 
ATOM      9  C   UNL     1       2.895   4.515   0.876  1.00  0.00     0.061 A 
ATOM     10  C   UNL     1       3.060   4.629   2.264  1.00  0.00     0.041 A 
ATOM     11  C   UNL     1       3.569   3.493   0.195  1.00  0.00     0.064 A 
ATOM     12  C   UNL     1       4.252   2.516   0.923  1.00  0.00     0.023 A 
ATOM     13  Cl  UNL     1       3.693   3.440  -1.528  1.00  0.00    -0.082 Cl
ATOM     14  C   UNL     1       4.299   2.570   2.324  1.00  0.00     0.015 A 
BRANCH   9  15
ATOM     15  N   UNL     1       1.969   5.402   0.297  1.00  0.00    -0.320 N 
ATOM     16  C   UNL     1       0.925   5.142  -0.576  1.00  0.00     0.259 C 
ATOM     17  O   UNL     1       0.364   6.109  -1.095  1.00  0.00    -0.269 OA
ATOM     18  H   UNL     1       2.078   6.348   0.550  1.00  0.00     0.170 HD
BRANCH  16  19
ATOM     19  C   UNL     1       0.503   3.766  -0.845  1.00  0.00     0.084 A 
ATOM     20  C   UNL     1       0.389   0.068  -0.722  1.00  0.00     0.088 C 
ATOM     21  C   UNL     1       0.275   1.532  -0.878  1.00  0.00     0.104 A 
ATOM     22  O   UNL     1      -0.100   1.988  -2.099  1.00  0.00    -0.466 OA
ATOM     23  C   UNL     1       0.435   2.592  -0.006  1.00  0.00     0.003 A 
ATOM     24  C   UNL     1      -0.073   3.349  -2.038  1.00  0.00     0.114 A 
ATOM     25  C   UNL     1       0.507   2.474   1.474  1.00  0.00     0.049 C 
ATOM     26  C   UNL     1      -0.656   4.040  -3.206  1.00  0.00     0.088 C 
ENDBRANCH  16  19
ENDBRANCH   9  15
ENDBRANCH   5   8
ENDBRANCH   3   4
ENDBRANCH   2   3
ENDBRANCH   1   2
BRANCH   1  27
ATOM     27  C   UNL     1       6.423   0.489   7.669  1.00  0.00     0.116 C 
BRANCH  27  28
ATOM     28  N   UNL     1       6.852  -0.821   7.160  1.00  0.00    -0.352 N 
ATOM     29  C   UNL     1       6.625  -2.075   7.714  1.00  0.00     0.251 C 
ATOM     30  H   UNL     1       7.365  -0.809   6.320  1.00  0.00     0.163 HD
ATOM     31  O   UNL     1       7.323  -3.032   7.431  1.00  0.00    -0.269 OA
BRANCH  29  32
ATOM     32  C   UNL     1       5.476  -2.222   8.625  1.00  0.00     0.039 A 
ATOM     33  C   UNL     1       5.517  -2.979   9.802  1.00  0.00     0.014 A 
ATOM     34  C   UNL     1       4.336  -1.514   8.269  1.00  0.00     0.014 A 
ATOM     35  C   UNL     1       4.402  -2.963  10.639  1.00  0.00     0.010 A 
ATOM     36  C   UNL     1       3.367  -1.300   9.197  1.00  0.00     0.010 A 
ATOM     37  C   UNL     1       3.334  -2.115  10.318  1.00  0.00    -0.014 A 
BRANCH  37  38
ATOM     38  C   UNL     1       2.148  -1.975  11.142  1.00  0.00     0.031 A 
ATOM     39  C   UNL     1       2.397  -1.317  12.451  1.00  0.00     0.074 A 
ATOM     40  C   UNL     1       0.920  -2.116  10.591  1.00  0.00     0.049 A 
ATOM     41  N   UNL     1       2.343  -1.848  13.627  1.00  0.00    -0.248 NA
ATOM     42  C   UNL     1       2.960   0.045  12.445  1.00  0.00     0.031 C 
ATOM     43  C   UNL     1       0.577  -2.361   9.179  1.00  0.00     0.029 A 
ATOM     44  N   UNL     1      -0.295  -1.879  11.142  1.00  0.00    -0.354 N 
ATOM     45  C   UNL     1       2.610  -0.808  14.518  1.00  0.00     0.074 A 
ATOM     46  C   UNL     1       3.245   0.215  13.737  1.00  0.00     0.031 C 
ATOM     47  C   UNL     1      -0.700  -1.980   8.954  1.00  0.00     0.029 A 
ATOM     48  C   UNL     1      -1.307  -1.620  10.220  1.00  0.00     0.049 A 
ATOM     49  H   UNL     1      -0.450  -1.889  12.114  1.00  0.00     0.167 HD
ATOM     50  C   UNL     1       2.011  -0.759  15.743  1.00  0.00     0.034 A 
ATOM     51  C   UNL     1      -2.519  -1.069  10.489  1.00  0.00     0.034 A 
ATOM     52  C   UNL     1       1.362  -2.019  16.035  1.00  0.00     0.049 A 
ATOM     53  C   UNL     1      -2.733  -1.204  11.953  1.00  0.00     0.074 A 
ATOM     54  C   UNL     1       1.771  -3.335  16.116  1.00  0.00     0.029 A 
ATOM     55  N   UNL     1      -0.005  -2.060  15.873  1.00  0.00    -0.354 N 
ATOM     56  N   UNL     1      -2.849  -2.355  12.556  1.00  0.00    -0.248 NA
ATOM     57  C   UNL     1      -2.310  -0.093  12.792  1.00  0.00     0.031 C 
ATOM     58  C   UNL     1       0.722  -4.078  15.495  1.00  0.00     0.029 A 
ATOM     59  C   UNL     1      -0.301  -3.189  15.159  1.00  0.00     0.049 A 
ATOM     60  H   UNL     1      -0.651  -1.398  16.209  1.00  0.00     0.167 HD
ATOM     61  C   UNL     1      -2.078  -2.220  13.705  1.00  0.00     0.074 A 
ATOM     62  C   UNL     1      -1.845  -0.780  13.840  1.00  0.00     0.031 C 
ATOM     63  C   UNL     1      -1.428  -3.289  14.257  1.00  0.00     0.034 A 
BRANCH  50  64
ATOM     64  C   UNL     1       1.623   0.499  16.508  1.00  0.00     0.023 A 
ATOM     65  C   UNL     1       0.983   0.299  17.756  1.00  0.00     0.012 A 
ATOM     66  C   UNL     1       1.582   1.813  15.988  1.00  0.00     0.148 A 
ATOM     67  C   UNL     1       0.239   1.305  18.380  1.00  0.00     0.002 A 
ATOM     68  C   UNL     1       0.889   2.829  16.641  1.00  0.00     0.091 A 
ATOM     69  F   UNL     1       2.120   2.093  14.803  1.00  0.00    -0.205 F 
ATOM     70  C   UNL     1       0.183   2.570  17.816  1.00  0.00     0.022 A 
BRANCH  68  71
ATOM     71  S   UNL     1       0.810   4.500  15.978  1.00  0.00     0.127 S 
ATOM     72  O   UNL     1      -0.583   4.575  15.547  1.00  0.00    -0.237 OA
ATOM     73  O   UNL     1       1.140   5.302  17.157  1.00  0.00    -0.237 OA
ATOM     74  O   UNL     1       1.808   4.556  14.918  1.00  0.00    -0.744 OA
ENDBRANCH  68  71
ENDBRANCH  50  64
BRANCH  51  75
ATOM     75  C   UNL     1      -3.350  -0.165   9.651  1.00  0.00     0.023 A 
ATOM     76  C   UNL     1      -4.716   0.017   9.949  1.00  0.00     0.012 A 
ATOM     77  C   UNL     1      -2.753   0.728   8.732  1.00  0.00     0.148 A 
ATOM     78  C   UNL     1      -5.452   1.063   9.372  1.00  0.00     0.002 A 
ATOM     79  C   UNL     1      -3.490   1.758   8.153  1.00  0.00     0.091 A 
ATOM     80  F   UNL     1      -1.438   0.629   8.498  1.00  0.00    -0.205 F 
ATOM     81  C   UNL     1      -4.838   1.938   8.479  1.00  0.00     0.022 A 
BRANCH  79  82
ATOM     82  S   UNL     1      -2.746   2.930   7.006  1.00  0.00     0.127 S 
ATOM     83  O   UNL     1      -3.736   2.972   5.930  1.00  0.00    -0.237 OA
ATOM     84  O   UNL     1      -2.670   4.139   7.819  1.00  0.00    -0.237 OA
ATOM     85  O   UNL     1      -1.469   2.343   6.617  1.00  0.00    -0.744 OA
ENDBRANCH  79  82
ENDBRANCH  51  75
BRANCH  63  86
ATOM     86  C   UNL     1      -1.724  -4.671  13.729  1.00  0.00     0.023 A 
ATOM     87  C   UNL     1      -1.417  -5.067  12.409  1.00  0.00     0.012 A 
ATOM     88  C   UNL     1      -2.121  -5.650  14.653  1.00  0.00     0.148 A 
ATOM     89  C   UNL     1      -1.513  -6.407  12.021  1.00  0.00     0.002 A 
ATOM     90  C   UNL     1      -2.170  -6.986  14.278  1.00  0.00     0.091 A 
ATOM     91  F   UNL     1      -2.405  -5.258  15.904  1.00  0.00    -0.205 F 
ATOM     92  C   UNL     1      -1.874  -7.370  12.961  1.00  0.00     0.022 A 
BRANCH  90  93
ATOM     93  S   UNL     1      -2.496  -8.279  15.477  1.00  0.00     0.127 S 
ATOM     94  O   UNL     1      -3.864  -8.667  15.139  1.00  0.00    -0.237 OA
ATOM     95  O   UNL     1      -1.477  -9.277  15.149  1.00  0.00    -0.237 OA
ATOM     96  O   UNL     1      -2.324  -7.663  16.787  1.00  0.00    -0.744 OA
ENDBRANCH  90  93
ENDBRANCH  63  86
ENDBRANCH  37  38
ENDBRANCH  29  32
ENDBRANCH  27  28
ENDBRANCH   1  27
TORSDOF 16
