REMARK SMILES O=C(NCCCCNC(=O)c1ccc(-c2c3nc(c(-c4cccc(S(=O)(=O)[O-])c4F)c4ccc([nH]4)c(-c4cccc(S(=O)(=O)[O-])c4F)c4nc(c(-c5cccc(S(=O)(=O)[O-])c5F)c5ccc2[nH]5)C=C4)C=C3)cc1)C1=Cc2cc(Cl)cc(-c3ccc(CO)cc3)c2O[C@@H]1C(F)(F)F
REMARK SMILES IDX 5 1 4 2 3 3 1 4 2 5 74 7 75 8 92 9 76 10 91 11 77 12 90 13
REMARK SMILES IDX 78 14 81 15 79 16 80 17 93 18 94 19 95 20 96 21 82 22 83 23
REMARK SMILES IDX 89 24 84 25 88 26 85 27 86 28 87 29 6 31 7 32 8 33 9 34
REMARK SMILES IDX 10 36 11 37 12 38 73 39 13 40 72 41 14 42 15 43 16 44 66 45
REMARK SMILES IDX 17 46 71 47 65 48 67 49 18 50 70 51 64 52 63 53 19 55 51 56
REMARK SMILES IDX 31 57 50 58 32 59 35 60 49 61 68 62 33 63 34 64 48 66 69 67
REMARK SMILES IDX 36 68 20 69 21 70 29 71 22 72 24 73 30 74 23 75 25 76 26 77
REMARK SMILES IDX 27 78 28 79 52 80 53 81 61 82 54 83 56 84 62 85 55 86 57 87
REMARK SMILES IDX 58 88 59 89 60 90 37 91 38 92 46 93 39 94 41 95 47 96 40 97
REMARK SMILES IDX 42 98 43 99 44 100 45 101
REMARK H PARENT 3 6 87 30 8 35 67 54 35 65
REMARK Flexibility Score: inf
ROOT
ATOM      1  C   UNL     1       4.357  -1.218   3.010  1.00  0.00     0.023 C 
ENDROOT
BRANCH   1   2
ATOM      2  C   UNL     1       3.742  -1.260   1.609  1.00  0.00     0.116 C 
BRANCH   2   3
ATOM      3  N   UNL     1       2.615  -0.341   1.441  1.00  0.00    -0.352 N 
ATOM      4  O   UNL     1       1.238   1.108   0.379  1.00  0.00    -0.270 OA
ATOM      5  C   UNL     1       2.347   0.592   0.467  1.00  0.00     0.251 C 
ATOM      6  H   UNL     1       1.931  -0.401   2.147  1.00  0.00     0.163 HD
BRANCH   5   7
ATOM      7  C   UNL     1       3.369   0.838  -0.572  1.00  0.00     0.067 C 
ATOM      8  C   UNL     1       4.568   1.394  -0.348  1.00  0.00     0.025 C 
ATOM      9  C   UNL     1       3.131   0.196  -1.901  1.00  0.00     0.314 C 
ATOM     10  C   UNL     1       5.645   0.456  -0.770  1.00  0.00     0.019 A 
ATOM     11  O   UNL     1       4.081  -0.870  -2.114  1.00  0.00    -0.475 OA
ATOM     12  C   UNL     1       6.865   0.522  -0.085  1.00  0.00     0.032 A 
ATOM     13  C   UNL     1       5.309  -0.724  -1.496  1.00  0.00     0.135 A 
ATOM     14  C   UNL     1       7.721  -0.577  -0.093  1.00  0.00     0.042 A 
ATOM     15  C   UNL     1       6.132  -1.872  -1.429  1.00  0.00     0.026 A 
ATOM     16  Cl  UNL     1       9.163  -0.539   0.847  1.00  0.00    -0.084 Cl
ATOM     17  C   UNL     1       7.362  -1.755  -0.747  1.00  0.00     0.033 A 
BRANCH   9  18
ATOM     18  C   UNL     1       3.161   1.257  -3.027  1.00  0.00     0.429 C 
ATOM     19  F   UNL     1       2.823   0.724  -4.225  1.00  0.00    -0.167 F 
ATOM     20  F   UNL     1       2.285   2.266  -2.788  1.00  0.00    -0.167 F 
ATOM     21  F   UNL     1       4.380   1.831  -3.183  1.00  0.00    -0.167 F 
ENDBRANCH   9  18
BRANCH  15  22
ATOM     22  C   UNL     1       5.671  -3.227  -1.827  1.00  0.00    -0.015 A 
ATOM     23  C   UNL     1       5.742  -4.277  -0.891  1.00  0.00     0.009 A 
ATOM     24  C   UNL     1       5.141  -3.531  -3.088  1.00  0.00     0.009 A 
ATOM     25  C   UNL     1       5.341  -5.575  -1.210  1.00  0.00     0.007 A 
ATOM     26  C   UNL     1       4.725  -4.837  -3.406  1.00  0.00     0.007 A 
ATOM     27  C   UNL     1       4.840  -5.876  -2.475  1.00  0.00    -0.023 A 
BRANCH  27  28
ATOM     28  C   UNL     1       4.391  -7.282  -2.785  1.00  0.00     0.191 C 
BRANCH  28  29
ATOM     29  O   UNL     1       5.318  -8.231  -2.269  1.00  0.00    -0.392 OA
ATOM     30  H   UNL     1       6.187  -8.090  -2.677  1.00  0.00     0.211 HD
ENDBRANCH  28  29
ENDBRANCH  27  28
ENDBRANCH  15  22
ENDBRANCH   5   7
ENDBRANCH   2   3
ENDBRANCH   1   2
BRANCH   1  31
ATOM     31  C   UNL     1       4.174  -2.497   3.833  1.00  0.00     0.023 C 
BRANCH  31  32
ATOM     32  C   UNL     1       4.716  -3.783   3.212  1.00  0.00     0.116 C 
BRANCH  32  33
ATOM     33  N   UNL     1       6.139  -3.769   2.919  1.00  0.00    -0.352 N 
ATOM     34  C   UNL     1       7.004  -4.846   2.814  1.00  0.00     0.251 C 
ATOM     35  H   UNL     1       6.540  -2.881   2.776  1.00  0.00     0.163 HD
ATOM     36  O   UNL     1       8.182  -4.664   2.593  1.00  0.00    -0.269 OA
BRANCH  34  37
ATOM     37  C   UNL     1       6.479  -6.226   3.002  1.00  0.00     0.039 A 
ATOM     38  C   UNL     1       7.173  -7.104   3.839  1.00  0.00     0.014 A 
ATOM     39  C   UNL     1       5.300  -6.642   2.381  1.00  0.00     0.014 A 
ATOM     40  C   UNL     1       6.634  -8.364   4.122  1.00  0.00     0.010 A 
ATOM     41  C   UNL     1       4.743  -7.877   2.689  1.00  0.00     0.010 A 
ATOM     42  C   UNL     1       5.396  -8.739   3.578  1.00  0.00    -0.014 A 
BRANCH  42  43
ATOM     43  C   UNL     1       4.705  -9.983   3.987  1.00  0.00     0.031 A 
ATOM     44  C   UNL     1       4.512 -11.105   3.008  1.00  0.00     0.074 A 
ATOM     45  C   UNL     1       4.124 -10.022   5.203  1.00  0.00     0.049 A 
ATOM     46  N   UNL     1       3.890 -12.242   3.177  1.00  0.00    -0.248 NA
ATOM     47  C   UNL     1       5.068 -10.917   1.657  1.00  0.00     0.031 C 
ATOM     48  C   UNL     1       4.146  -8.932   6.184  1.00  0.00     0.029 A 
ATOM     49  N   UNL     1       3.361 -10.990   5.803  1.00  0.00    -0.354 N 
ATOM     50  C   UNL     1       3.973 -12.905   1.958  1.00  0.00     0.074 A 
ATOM     51  C   UNL     1       4.669 -12.024   1.045  1.00  0.00     0.031 C 
ATOM     52  C   UNL     1       3.413  -9.285   7.252  1.00  0.00     0.029 A 
ATOM     53  C   UNL     1       2.863 -10.617   7.030  1.00  0.00     0.049 A 
ATOM     54  H   UNL     1       3.187 -11.869   5.395  1.00  0.00     0.167 HD
ATOM     55  C   UNL     1       3.535 -14.146   1.642  1.00  0.00     0.034 A 
ATOM     56  C   UNL     1       2.050 -11.277   7.878  1.00  0.00     0.034 A 
ATOM     57  C   UNL     1       2.843 -15.008   2.563  1.00  0.00     0.049 A 
ATOM     58  C   UNL     1       1.617 -12.673   7.518  1.00  0.00     0.074 A 
ATOM     59  C   UNL     1       2.416 -16.310   2.371  1.00  0.00     0.029 A 
ATOM     60  N   UNL     1       2.465 -14.649   3.848  1.00  0.00    -0.354 N 
ATOM     61  N   UNL     1       1.870 -13.359   6.429  1.00  0.00    -0.248 NA
ATOM     62  C   UNL     1       0.835 -13.406   8.522  1.00  0.00     0.031 C 
ATOM     63  C   UNL     1       1.763 -16.732   3.534  1.00  0.00     0.029 A 
ATOM     64  C   UNL     1       1.812 -15.703   4.462  1.00  0.00     0.049 A 
ATOM     65  H   UNL     1       2.636 -13.773   4.263  1.00  0.00     0.167 HD
ATOM     66  C   UNL     1       1.323 -14.619   6.638  1.00  0.00     0.074 A 
ATOM     67  C   UNL     1       0.740 -14.605   7.964  1.00  0.00     0.031 C 
ATOM     68  C   UNL     1       1.296 -15.689   5.806  1.00  0.00     0.034 A 
BRANCH  55  69
ATOM     69  C   UNL     1       3.854 -14.680   0.269  1.00  0.00     0.023 A 
ATOM     70  C   UNL     1       5.187 -15.023  -0.040  1.00  0.00     0.012 A 
ATOM     71  C   UNL     1       2.841 -14.929  -0.679  1.00  0.00     0.148 A 
ATOM     72  C   UNL     1       5.512 -15.581  -1.275  1.00  0.00     0.002 A 
ATOM     73  C   UNL     1       3.167 -15.525  -1.893  1.00  0.00     0.091 A 
ATOM     74  F   UNL     1       1.582 -14.585  -0.374  1.00  0.00    -0.205 F 
ATOM     75  C   UNL     1       4.502 -15.842  -2.196  1.00  0.00     0.022 A 
BRANCH  73  76
ATOM     76  S   UNL     1       1.936 -15.977  -3.120  1.00  0.00     0.127 S 
ATOM     77  O   UNL     1       2.284 -15.092  -4.231  1.00  0.00    -0.237 OA
ATOM     78  O   UNL     1       2.238 -17.390  -3.351  1.00  0.00    -0.237 OA
ATOM     79  O   UNL     1       0.640 -15.721  -2.508  1.00  0.00    -0.744 OA
ENDBRANCH  73  76
ENDBRANCH  55  69
BRANCH  56  80
ATOM     80  C   UNL     1       1.661 -10.664   9.179  1.00  0.00     0.023 A 
ATOM     81  C   UNL     1       2.177 -11.197  10.377  1.00  0.00     0.012 A 
ATOM     82  C   UNL     1       0.795  -9.556   9.240  1.00  0.00     0.148 A 
ATOM     83  C   UNL     1       1.799 -10.671  11.613  1.00  0.00     0.002 A 
ATOM     84  C   UNL     1       0.466  -9.001  10.472  1.00  0.00     0.091 A 
ATOM     85  F   UNL     1       0.308  -9.064   8.091  1.00  0.00    -0.205 F 
ATOM     86  C   UNL     1       0.950  -9.569  11.660  1.00  0.00     0.022 A 
BRANCH  84  87
ATOM     87  S   UNL     1      -0.513  -7.501  10.615  1.00  0.00     0.127 S 
ATOM     88  O   UNL     1      -1.803  -8.026  11.055  1.00  0.00    -0.237 OA
ATOM     89  O   UNL     1       0.225  -6.749  11.630  1.00  0.00    -0.237 OA
ATOM     90  O   UNL     1      -0.490  -6.895   9.290  1.00  0.00    -0.744 OA
ENDBRANCH  84  87
ENDBRANCH  56  80
BRANCH  68  91
ATOM     91  C   UNL     1       0.668 -16.956   6.323  1.00  0.00     0.023 A 
ATOM     92  C   UNL     1      -0.729 -17.039   6.484  1.00  0.00     0.012 A 
ATOM     93  C   UNL     1       1.465 -18.088   6.586  1.00  0.00     0.148 A 
ATOM     94  C   UNL     1      -1.319 -18.219   6.936  1.00  0.00     0.002 A 
ATOM     95  C   UNL     1       0.865 -19.275   6.985  1.00  0.00     0.091 A 
ATOM     96  F   UNL     1       2.795 -17.981   6.446  1.00  0.00    -0.205 F 
ATOM     97  C   UNL     1      -0.525 -19.338   7.174  1.00  0.00     0.022 A 
BRANCH  95  98
ATOM     98  S   UNL     1       1.797 -20.792   7.217  1.00  0.00     0.127 S 
ATOM     99  O   UNL     1       1.793 -20.924   8.673  1.00  0.00    -0.237 OA
ATOM    100  O   UNL     1       0.971 -21.774   6.514  1.00  0.00    -0.237 OA
ATOM    101  O   UNL     1       3.102 -20.558   6.614  1.00  0.00    -0.744 OA
ENDBRANCH  95  98
ENDBRANCH  68  91
ENDBRANCH  42  43
ENDBRANCH  34  37
ENDBRANCH  32  33
ENDBRANCH  31  32
ENDBRANCH   1  31
TORSDOF 18
