REMARK SMILES CC(=O)Nc1cnc(N2CC=C(c3ccccc3C)CC2)c(C(=O)NCCCCNC(=O)c2ccc(-c3c4nc(c(-c5cccc(S(=O)(=O)[O-])c5F)c5ccc([nH]5)c(-c5cccc(S(=O)(=O)[O-])c5F)c5nc(c(-c6cccc(S(=O)(=O)[O-])c6F)c6ccc3[nH]6)C=C5)C=C4)cc2)c1
REMARK SMILES IDX 28 1 27 2 26 3 25 4 23 5 24 6 22 8 5 9 6 10 96 11 7 12 8 13
REMARK SMILES IDX 4 14 1 15 2 16 3 17 9 19 10 20 21 21 11 22 20 23 12 24 13 25
REMARK SMILES IDX 14 26 18 27 15 28 17 29 19 30 16 31 29 32 30 33 31 34 32 36
REMARK SMILES IDX 33 37 34 38 95 39 35 40 94 41 36 42 37 43 38 44 88 45 39 46
REMARK SMILES IDX 93 47 87 48 89 49 40 50 92 51 86 52 85 53 41 55 73 56 53 57
REMARK SMILES IDX 72 58 54 59 57 60 71 61 90 62 55 63 56 64 70 66 91 67 58 68
REMARK SMILES IDX 42 69 43 70 51 71 44 72 46 73 52 74 45 75 47 76 48 77 49 78
REMARK SMILES IDX 50 79 74 80 75 81 83 82 76 83 78 84 84 85 77 86 79 87 80 88
REMARK SMILES IDX 81 89 82 90 59 91 60 92 68 93 61 94 63 95 69 96 62 97 64 98
REMARK SMILES IDX 65 99 66 100 67 101
REMARK H PARENT 25 7 4 18 30 35 89 54 57 65
REMARK Flexibility Score: inf
ROOT
ATOM      1  C   UNL     1       6.876  -0.686   1.081  1.00  0.00     0.023 C 
ENDROOT
BRANCH   1   2
ATOM      2  C   UNL     1       5.345  -0.781   0.944  1.00  0.00     0.023 C 
BRANCH   2   3
ATOM      3  C   UNL     1       4.714   0.116  -0.120  1.00  0.00     0.116 C 
BRANCH   3   4
ATOM      4  N   UNL     1       5.106  -0.239  -1.470  1.00  0.00    -0.352 N 
ATOM      5  C   UNL     1       4.651  -1.062  -2.470  1.00  0.00     0.255 C 
ATOM      6  O   UNL     1       5.265  -0.907  -3.527  1.00  0.00    -0.269 OA
ATOM      7  H   UNL     1       5.920   0.242  -1.744  1.00  0.00     0.163 HD
BRANCH   5   8
ATOM      8  C   UNL     1       3.501  -2.031  -2.382  1.00  0.00     0.084 A 
ATOM      9  C   UNL     1       1.436  -2.751  -1.289  1.00  0.00     0.060 A 
ATOM     10  C   UNL     1       1.197  -3.563  -2.374  1.00  0.00     0.139 A 
ATOM     11  C   UNL     1       2.631  -2.038  -1.282  1.00  0.00     0.045 A 
ATOM     12  N   UNL     1       2.026  -3.642  -3.432  1.00  0.00    -0.236 NA
ATOM     13  C   UNL     1       3.170  -2.893  -3.455  1.00  0.00     0.141 A 
BRANCH   9  14
ATOM     14  N   UNL     1       0.510  -2.692  -0.236  1.00  0.00    -0.325 N 
ATOM     15  C   UNL     1       0.572  -0.235   0.164  1.00  0.00     0.114 C 
ATOM     16  C   UNL     1       0.184  -1.635   0.572  1.00  0.00     0.221 C 
ATOM     17  O   UNL     1      -0.490  -1.840   1.582  1.00  0.00    -0.275 OA
ATOM     18  H   UNL     1       0.026  -3.529  -0.053  1.00  0.00     0.169 HD
ENDBRANCH   9  14
BRANCH  13  19
ATOM     19  N   UNL     1       3.927  -3.124  -4.574  1.00  0.00    -0.352 N 
ATOM     20  C   UNL     1       3.357  -2.779  -5.865  1.00  0.00     0.146 C 
ATOM     21  C   UNL     1       5.335  -3.485  -4.525  1.00  0.00     0.123 C 
ATOM     22  C   UNL     1       3.922  -3.665  -6.945  1.00  0.00    -0.002 C 
ATOM     23  C   UNL     1       5.565  -4.718  -5.408  1.00  0.00     0.057 C 
ATOM     24  C   UNL     1       4.906  -4.568  -6.759  1.00  0.00    -0.041 C 
BRANCH  24  25
ATOM     25  C   UNL     1       5.351  -5.425  -7.877  1.00  0.00    -0.020 A 
ATOM     26  C   UNL     1       5.841  -4.801  -9.040  1.00  0.00     0.008 A 
ATOM     27  C   UNL     1       5.275  -6.834  -7.842  1.00  0.00    -0.044 A 
ATOM     28  C   UNL     1       6.239  -5.548 -10.149  1.00  0.00     0.001 A 
ATOM     29  C   UNL     1       5.694  -7.573  -8.963  1.00  0.00     0.004 A 
ATOM     30  C   UNL     1       4.769  -7.588  -6.643  1.00  0.00     0.045 C 
ATOM     31  C   UNL     1       6.163  -6.935 -10.111  1.00  0.00     0.000 A 
ENDBRANCH  24  25
ENDBRANCH  13  19
ENDBRANCH   5   8
ENDBRANCH   3   4
ENDBRANCH   2   3
ENDBRANCH   1   2
BRANCH   1  32
ATOM     32  C   UNL     1       7.433   0.692   1.414  1.00  0.00     0.116 C 
BRANCH  32  33
ATOM     33  N   UNL     1       6.889   1.210   2.662  1.00  0.00    -0.352 N 
ATOM     34  C   UNL     1       7.075   2.453   3.216  1.00  0.00     0.251 C 
ATOM     35  H   UNL     1       6.317   0.592   3.171  1.00  0.00     0.163 HD
ATOM     36  O   UNL     1       7.342   2.496   4.431  1.00  0.00    -0.269 OA
BRANCH  34  37
ATOM     37  C   UNL     1       6.805   3.685   2.449  1.00  0.00     0.039 A 
ATOM     38  C   UNL     1       6.753   4.928   3.097  1.00  0.00     0.014 A 
ATOM     39  C   UNL     1       6.365   3.591   1.135  1.00  0.00     0.014 A 
ATOM     40  C   UNL     1       6.060   5.979   2.499  1.00  0.00     0.010 A 
ATOM     41  C   UNL     1       5.845   4.659   0.482  1.00  0.00     0.010 A 
ATOM     42  C   UNL     1       5.524   5.771   1.235  1.00  0.00    -0.014 A 
BRANCH  42  43
ATOM     43  C   UNL     1       4.559   6.595   0.553  1.00  0.00     0.031 A 
ATOM     44  C   UNL     1       5.015   7.852  -0.020  1.00  0.00     0.074 A 
ATOM     45  C   UNL     1       3.378   6.012   0.237  1.00  0.00     0.049 A 
ATOM     46  N   UNL     1       4.224   8.795  -0.372  1.00  0.00    -0.248 NA
ATOM     47  C   UNL     1       6.428   8.149  -0.222  1.00  0.00     0.031 C 
ATOM     48  C   UNL     1       2.452   6.348  -0.834  1.00  0.00     0.029 A 
ATOM     49  N   UNL     1       2.750   4.918   0.813  1.00  0.00    -0.354 N 
ATOM     50  C   UNL     1       4.971   9.652  -1.145  1.00  0.00     0.074 A 
ATOM     51  C   UNL     1       6.345   9.314  -0.868  1.00  0.00     0.031 C 
ATOM     52  C   UNL     1       1.291   5.694  -0.628  1.00  0.00     0.029 A 
ATOM     53  C   UNL     1       1.373   5.078   0.684  1.00  0.00     0.049 A 
ATOM     54  H   UNL     1       3.202   4.155   1.242  1.00  0.00     0.167 HD
ATOM     55  C   UNL     1       4.320  10.382  -2.092  1.00  0.00     0.034 A 
ATOM     56  C   UNL     1       0.570   5.385   1.755  1.00  0.00     0.034 A 
ATOM     57  C   UNL     1       2.868  10.083  -2.055  1.00  0.00     0.049 A 
ATOM     58  C   UNL     1      -0.034   6.787   1.647  1.00  0.00     0.074 A 
ATOM     59  C   UNL     1       2.041   9.276  -2.824  1.00  0.00     0.029 A 
ATOM     60  N   UNL     1       2.147  10.360  -0.898  1.00  0.00    -0.354 N 
ATOM     61  N   UNL     1       0.186   7.624   0.669  1.00  0.00    -0.248 NA
ATOM     62  C   UNL     1      -0.873   7.376   2.684  1.00  0.00     0.031 C 
ATOM     63  C   UNL     1       0.825   9.063  -2.105  1.00  0.00     0.029 A 
ATOM     64  C   UNL     1       0.892   9.761  -0.912  1.00  0.00     0.049 A 
ATOM     65  H   UNL     1       2.485  10.914  -0.157  1.00  0.00     0.167 HD
ATOM     66  C   UNL     1      -0.287   8.873   0.991  1.00  0.00     0.074 A 
ATOM     67  C   UNL     1      -0.977   8.646   2.255  1.00  0.00     0.031 C 
ATOM     68  C   UNL     1      -0.012   9.981   0.221  1.00  0.00     0.034 A 
BRANCH  55  69
ATOM     69  C   UNL     1       5.000  11.091  -3.253  1.00  0.00     0.023 A 
ATOM     70  C   UNL     1       4.191  11.413  -4.365  1.00  0.00     0.012 A 
ATOM     71  C   UNL     1       6.367  11.446  -3.367  1.00  0.00     0.148 A 
ATOM     72  C   UNL     1       4.711  11.960  -5.544  1.00  0.00     0.002 A 
ATOM     73  C   UNL     1       6.901  11.938  -4.563  1.00  0.00     0.091 A 
ATOM     74  F   UNL     1       7.163  11.400  -2.297  1.00  0.00    -0.205 F 
ATOM     75  C   UNL     1       6.072  12.194  -5.656  1.00  0.00     0.022 A 
BRANCH  73  76
ATOM     76  S   UNL     1       8.667  12.225  -4.799  1.00  0.00     0.127 S 
ATOM     77  O   UNL     1       8.936  11.486  -6.035  1.00  0.00    -0.237 OA
ATOM     78  O   UNL     1       8.734  13.678  -4.936  1.00  0.00    -0.237 OA
ATOM     79  O   UNL     1       9.333  11.675  -3.625  1.00  0.00    -0.744 OA
ENDBRANCH  73  76
ENDBRANCH  55  69
BRANCH  56  80
ATOM     80  C   UNL     1       1.075   4.772   3.035  1.00  0.00     0.023 A 
ATOM     81  C   UNL     1       1.259   3.366   3.029  1.00  0.00     0.012 A 
ATOM     82  C   UNL     1       1.816   5.542   3.946  1.00  0.00     0.148 A 
ATOM     83  C   UNL     1       2.358   2.799   3.679  1.00  0.00     0.002 A 
ATOM     84  C   UNL     1       2.887   4.962   4.620  1.00  0.00     0.091 A 
ATOM     85  F   UNL     1       1.523   6.839   4.100  1.00  0.00    -0.205 F 
ATOM     86  C   UNL     1       3.211   3.611   4.424  1.00  0.00     0.022 A 
BRANCH  84  87
ATOM     87  S   UNL     1       3.921   5.984   5.672  1.00  0.00     0.127 S 
ATOM     88  O   UNL     1       3.102   6.091   6.877  1.00  0.00    -0.237 OA
ATOM     89  O   UNL     1       5.132   5.178   5.836  1.00  0.00    -0.237 OA
ATOM     90  O   UNL     1       4.114   7.204   4.907  1.00  0.00    -0.744 OA
ENDBRANCH  84  87
ENDBRANCH  56  80
BRANCH  68  91
ATOM     91  C   UNL     1      -0.502  11.411   0.477  1.00  0.00     0.023 A 
ATOM     92  C   UNL     1      -1.496  11.723   1.419  1.00  0.00     0.012 A 
ATOM     93  C   UNL     1      -0.010  12.518  -0.275  1.00  0.00     0.148 A 
ATOM     94  C   UNL     1      -1.871  13.041   1.710  1.00  0.00     0.002 A 
ATOM     95  C   UNL     1      -0.365  13.830   0.024  1.00  0.00     0.091 A 
ATOM     96  F   UNL     1       0.744  12.316  -1.360  1.00  0.00    -0.205 F 
ATOM     97  C   UNL     1      -1.281  14.098   1.036  1.00  0.00     0.022 A 
BRANCH  95  98
ATOM     98  S   UNL     1       0.324  15.232  -0.867  1.00  0.00     0.127 S 
ATOM     99  O   UNL     1      -0.822  15.661  -1.668  1.00  0.00    -0.237 OA
ATOM    100  O   UNL     1       0.678  16.140   0.226  1.00  0.00    -0.237 OA
ATOM    101  O   UNL     1       1.460  14.720  -1.618  1.00  0.00    -0.744 OA
ENDBRANCH  95  98
ENDBRANCH  68  91
ENDBRANCH  42  43
ENDBRANCH  34  37
ENDBRANCH  32  33
ENDBRANCH   1  32
TORSDOF 17
