REMARK SMILES Cc1cc([C@H](O)CC2(CC(=O)NCCCCNC(=O)c3ccc(-c4c5nc(c(-c6cccc(S(=O)(=O)[O-])c6F)c6ccc([nH]6)c(-c6cccc(S(=O)(=O)[O-])c6F)c6nc(c(-c7cccc(S(=O)(=O)[O-])c7F)c7ccc4[nH]7)C=C6)C=C5)cc3)CCCC2)ccc1F
REMARK SMILES IDX 14 1 13 2 12 3 10 4 11 5 9 7 8 8 83 9 86 10 84 11 85 12 7 13
REMARK SMILES IDX 5 14 4 15 1 16 2 17 3 18 89 19 88 20 90 21 87 22 6 23 15 25
REMARK SMILES IDX 16 26 17 27 18 28 19 30 20 31 21 32 82 33 22 34 81 35 23 36
REMARK SMILES IDX 24 37 25 38 75 39 26 40 80 41 74 42 76 43 27 44 79 45 73 46
REMARK SMILES IDX 72 47 28 49 60 50 40 51 59 52 41 53 44 54 58 55 77 56 42 57
REMARK SMILES IDX 43 58 57 60 78 61 45 62 29 63 30 64 38 65 31 66 33 67 39 68
REMARK SMILES IDX 32 69 34 70 35 71 36 72 37 73 61 74 62 75 70 76 63 77 65 78
REMARK SMILES IDX 71 79 64 80 66 81 67 82 68 83 69 84 46 85 47 86 55 87 48 88
REMARK SMILES IDX 50 89 56 90 49 91 51 92 52 93 53 94 54 95
REMARK H PARENT 12 6 6 24 17 29 76 48 44 59
REMARK Flexibility Score: inf
ROOT
ATOM      1  C   UNL     1      -5.032   4.228   2.094  1.00  0.00     0.023 C 
ENDROOT
BRANCH   1   2
ATOM      2  C   UNL     1      -5.284   3.644   3.492  1.00  0.00     0.116 C 
BRANCH   2   3
ATOM      3  N   UNL     1      -6.019   2.398   3.392  1.00  0.00    -0.356 N 
ATOM      4  C   UNL     1      -5.545   1.125   3.347  1.00  0.00     0.220 C 
ATOM      5  O   UNL     1      -6.341   0.210   3.122  1.00  0.00    -0.275 OA
ATOM      6  H   UNL     1      -6.998   2.487   3.350  1.00  0.00     0.163 HD
BRANCH   4   7
ATOM      7  C   UNL     1      -4.070   0.826   3.591  1.00  0.00     0.107 C 
BRANCH   7   8
ATOM      8  C   UNL     1      -3.058   0.900   2.390  1.00  0.00    -0.018 C 
ATOM      9  C   UNL     1      -1.828   0.033   2.785  1.00  0.00     0.007 C 
ATOM     10  C   UNL     1      -2.311   2.244   2.270  1.00  0.00     0.007 C 
ATOM     11  C   UNL     1      -1.042   0.883   3.795  1.00  0.00     0.001 C 
ATOM     12  C   UNL     1      -1.402   2.331   3.486  1.00  0.00     0.001 C 
BRANCH   8  13
ATOM     13  C   UNL     1      -3.740   0.407   1.075  1.00  0.00     0.044 C 
BRANCH  13  14
ATOM     14  C   UNL     1      -3.159   0.886  -0.272  1.00  0.00     0.145 C 
BRANCH  14  15
ATOM     15  C   UNL     1      -3.953   0.392  -1.472  1.00  0.00    -0.019 A 
ATOM     16  C   UNL     1      -4.717  -2.871  -3.310  1.00  0.00     0.047 C 
ATOM     17  C   UNL     1      -4.696  -1.421  -2.936  1.00  0.00    -0.015 A 
ATOM     18  C   UNL     1      -4.008  -0.975  -1.799  1.00  0.00     0.012 A 
ATOM     19  C   UNL     1      -5.338  -0.481  -3.743  1.00  0.00     0.126 A 
ATOM     20  C   UNL     1      -5.316   0.873  -3.429  1.00  0.00     0.040 A 
ATOM     21  F   UNL     1      -5.984  -0.881  -4.848  1.00  0.00    -0.207 F 
ATOM     22  C   UNL     1      -4.626   1.309  -2.297  1.00  0.00     0.009 A 
ENDBRANCH  14  15
BRANCH  14  23
ATOM     23  O   UNL     1      -1.807   0.479  -0.443  1.00  0.00    -0.388 OA
ATOM     24  H   UNL     1      -1.763  -0.490  -0.481  1.00  0.00     0.211 HD
ENDBRANCH  14  23
ENDBRANCH  13  14
ENDBRANCH   8  13
ENDBRANCH   7   8
ENDBRANCH   4   7
ENDBRANCH   2   3
ENDBRANCH   1   2
BRANCH   1  25
ATOM     25  C   UNL     1      -6.158   5.068   1.500  1.00  0.00     0.023 C 
BRANCH  25  26
ATOM     26  C   UNL     1      -6.276   6.414   2.185  1.00  0.00     0.116 C 
BRANCH  26  27
ATOM     27  N   UNL     1      -5.145   7.315   1.941  1.00  0.00    -0.352 N 
ATOM     28  C   UNL     1      -5.042   8.637   2.373  1.00  0.00     0.251 C 
ATOM     29  H   UNL     1      -4.389   6.954   1.424  1.00  0.00     0.163 HD
ATOM     30  O   UNL     1      -4.292   9.440   1.861  1.00  0.00    -0.269 OA
BRANCH  28  31
ATOM     31  C   UNL     1      -5.937   9.002   3.488  1.00  0.00     0.039 A 
ATOM     32  C   UNL     1      -6.833  10.073   3.430  1.00  0.00     0.014 A 
ATOM     33  C   UNL     1      -5.976   8.079   4.521  1.00  0.00     0.014 A 
ATOM     34  C   UNL     1      -7.848  10.144   4.389  1.00  0.00     0.010 A 
ATOM     35  C   UNL     1      -7.104   8.010   5.280  1.00  0.00     0.010 A 
ATOM     36  C   UNL     1      -7.996   9.082   5.291  1.00  0.00    -0.014 A 
BRANCH  36  37
ATOM     37  C   UNL     1      -8.976   9.010   6.370  1.00  0.00     0.031 A 
ATOM     38  C   UNL     1     -10.412   9.178   6.126  1.00  0.00     0.074 A 
ATOM     39  C   UNL     1      -8.479   8.766   7.605  1.00  0.00     0.049 A 
ATOM     40  N   UNL     1     -11.226   9.759   6.937  1.00  0.00    -0.248 NA
ATOM     41  C   UNL     1     -11.056   8.719   4.900  1.00  0.00     0.031 C 
ATOM     42  C   UNL     1      -9.149   8.501   8.865  1.00  0.00     0.029 A 
ATOM     43  N   UNL     1      -7.147   8.885   7.974  1.00  0.00    -0.354 N 
ATOM     44  C   UNL     1     -12.504   9.426   6.538  1.00  0.00     0.074 A 
ATOM     45  C   UNL     1     -12.348   8.929   5.188  1.00  0.00     0.031 C 
ATOM     46  C   UNL     1      -8.283   8.754   9.871  1.00  0.00     0.029 A 
ATOM     47  C   UNL     1      -7.065   9.307   9.287  1.00  0.00     0.049 A 
ATOM     48  H   UNL     1      -6.378   8.697   7.389  1.00  0.00     0.167 HD
ATOM     49  C   UNL     1     -13.507   9.411   7.468  1.00  0.00     0.034 A 
ATOM     50  C   UNL     1      -6.523  10.542   9.518  1.00  0.00     0.034 A 
ATOM     51  C   UNL     1     -12.983   9.808   8.777  1.00  0.00     0.049 A 
ATOM     52  C   UNL     1      -7.587  11.469  10.036  1.00  0.00     0.074 A 
ATOM     53  C   UNL     1     -12.591   9.051   9.869  1.00  0.00     0.029 A 
ATOM     54  N   UNL     1     -12.451  11.081   8.969  1.00  0.00    -0.354 N 
ATOM     55  N   UNL     1      -8.852  11.366   9.730  1.00  0.00    -0.248 NA
ATOM     56  C   UNL     1      -7.307  12.542  10.979  1.00  0.00     0.031 C 
ATOM     57  C   UNL     1     -11.724   9.845  10.661  1.00  0.00     0.029 A 
ATOM     58  C   UNL     1     -11.617  11.093  10.071  1.00  0.00     0.049 A 
ATOM     59  H   UNL     1     -12.643  11.861   8.400  1.00  0.00     0.167 HD
ATOM     60  C   UNL     1      -9.561  12.259  10.486  1.00  0.00     0.074 A 
ATOM     61  C   UNL     1      -8.548  12.990  11.230  1.00  0.00     0.031 C 
ATOM     62  C   UNL     1     -10.925  12.309  10.484  1.00  0.00     0.034 A 
BRANCH  49  63
ATOM     63  C   UNL     1     -14.843   8.700   7.282  1.00  0.00     0.023 A 
ATOM     64  C   UNL     1     -15.387   8.412   6.012  1.00  0.00     0.012 A 
ATOM     65  C   UNL     1     -15.603   8.238   8.387  1.00  0.00     0.148 A 
ATOM     66  C   UNL     1     -16.520   7.603   5.835  1.00  0.00     0.002 A 
ATOM     67  C   UNL     1     -16.748   7.453   8.211  1.00  0.00     0.091 A 
ATOM     68  F   UNL     1     -15.236   8.552   9.636  1.00  0.00    -0.205 F 
ATOM     69  C   UNL     1     -17.196   7.108   6.937  1.00  0.00     0.022 A 
BRANCH  67  70
ATOM     70  S   UNL     1     -17.651   6.874   9.654  1.00  0.00     0.127 S 
ATOM     71  O   UNL     1     -16.683   6.008  10.318  1.00  0.00    -0.237 OA
ATOM     72  O   UNL     1     -18.010   8.111  10.339  1.00  0.00    -0.237 OA
ATOM     73  O   UNL     1     -18.792   6.162   9.072  1.00  0.00    -0.744 OA
ENDBRANCH  67  70
ENDBRANCH  49  63
BRANCH  50  74
ATOM     74  C   UNL     1      -5.457  10.911   8.514  1.00  0.00     0.023 A 
ATOM     75  C   UNL     1      -5.730  11.777   7.439  1.00  0.00     0.012 A 
ATOM     76  C   UNL     1      -4.355  10.030   8.396  1.00  0.00     0.148 A 
ATOM     77  C   UNL     1      -4.986  11.690   6.249  1.00  0.00     0.002 A 
ATOM     78  C   UNL     1      -3.699   9.872   7.176  1.00  0.00     0.091 A 
ATOM     79  F   UNL     1      -4.050   9.245   9.443  1.00  0.00    -0.205 F 
ATOM     80  C   UNL     1      -4.004  10.708   6.099  1.00  0.00     0.022 A 
BRANCH  78  81
ATOM     81  S   UNL     1      -2.731   8.375   6.892  1.00  0.00     0.127 S 
ATOM     82  O   UNL     1      -1.412   8.744   7.395  1.00  0.00    -0.237 OA
ATOM     83  O   UNL     1      -3.450   7.346   7.638  1.00  0.00    -0.237 OA
ATOM     84  O   UNL     1      -2.807   8.182   5.443  1.00  0.00    -0.744 OA
ENDBRANCH  78  81
ENDBRANCH  50  74
BRANCH  62  85
ATOM     85  C   UNL     1     -11.739  13.440  11.048  1.00  0.00     0.023 A 
ATOM     86  C   UNL     1     -13.110  13.218  11.331  1.00  0.00     0.012 A 
ATOM     87  C   UNL     1     -11.260  14.744  11.229  1.00  0.00     0.148 A 
ATOM     88  C   UNL     1     -13.949  14.235  11.788  1.00  0.00     0.002 A 
ATOM     89  C   UNL     1     -12.065  15.721  11.806  1.00  0.00     0.091 A 
ATOM     90  F   UNL     1     -10.038  15.084  10.796  1.00  0.00    -0.205 F 
ATOM     91  C   UNL     1     -13.417  15.486  12.060  1.00  0.00     0.022 A 
BRANCH  89  92
ATOM     92  S   UNL     1     -11.282  17.234  12.361  1.00  0.00     0.127 S 
ATOM     93  O   UNL     1     -10.289  16.741  13.313  1.00  0.00    -0.237 OA
ATOM     94  O   UNL     1     -10.764  17.822  11.131  1.00  0.00    -0.237 OA
ATOM     95  O   UNL     1     -12.383  17.980  12.972  1.00  0.00    -0.744 OA
ENDBRANCH  89  92
ENDBRANCH  62  85
ENDBRANCH  36  37
ENDBRANCH  28  31
ENDBRANCH  26  27
ENDBRANCH  25  26
ENDBRANCH   1  25
TORSDOF 19
