REMARK SMILES Cc1cc(F)cc(NC(=O)N[C@@H]2COC[C@H]2C(=O)NCCCCNC(=O)c2ccc(-c3c4nc(c(-c5cccc(S(=O)(=O)[O-])c5F)c5ccc([nH]5)c(-c5cccc(S(=O)(=O)[O-])c5F)c5nc(c(-c6cccc(S(=O)(=O)[O-])c6F)c6ccc3[nH]6)C=C5)C=C4)cc2)c1
REMARK SMILES IDX 22 1 21 2 20 3 19 4 17 5 18 6 16 8 12 9 13 10 14 11 15 12
REMARK SMILES IDX 11 13 8 14 9 15 10 17 7 19 1 20 2 21 3 22 90 23 4 24 5 25
REMARK SMILES IDX 6 26 23 27 24 28 25 29 26 31 27 32 28 33 89 34 29 35 88 36
REMARK SMILES IDX 30 37 31 38 32 39 82 40 33 41 87 42 81 43 83 44 34 45 86 46
REMARK SMILES IDX 80 47 79 48 35 50 67 51 47 52 66 53 48 54 51 55 65 56 84 57
REMARK SMILES IDX 49 58 50 59 64 61 85 62 52 63 36 64 37 65 45 66 38 67 40 68
REMARK SMILES IDX 46 69 39 70 41 71 42 72 43 73 44 74 68 75 69 76 77 77 70 78
REMARK SMILES IDX 72 79 78 80 71 81 73 82 74 83 75 84 76 85 53 86 54 87 62 88
REMARK SMILES IDX 55 89 57 90 63 91 56 92 58 93 59 94 60 95 61 96
REMARK H PARENT 19 7 8 16 11 18 24 30 83 49 51 60
REMARK Flexibility Score: inf
ROOT
ATOM      1  C   UNL     1      -7.521  -3.259   1.232  1.00  0.00     0.023 C 
ENDROOT
BRANCH   1   2
ATOM      2  C   UNL     1      -6.317  -2.705   0.480  1.00  0.00     0.023 C 
BRANCH   2   3
ATOM      3  C   UNL     1      -5.662  -1.504   1.152  1.00  0.00     0.116 C 
BRANCH   3   4
ATOM      4  N   UNL     1      -4.865  -1.879   2.305  1.00  0.00    -0.356 N 
ATOM      5  C   UNL     1      -3.520  -1.840   2.518  1.00  0.00     0.227 C 
ATOM      6  O   UNL     1      -3.109  -2.192   3.626  1.00  0.00    -0.275 OA
ATOM      7  H   UNL     1      -5.388  -2.221   3.067  1.00  0.00     0.163 HD
BRANCH   5   8
ATOM      8  C   UNL     1      -2.532  -1.396   1.448  1.00  0.00     0.129 C 
ATOM      9  C   UNL     1      -2.547  -2.293   0.229  1.00  0.00     0.124 C 
ATOM     10  C   UNL     1      -2.888  -1.410  -0.961  1.00  0.00     0.186 C 
ATOM     11  O   UNL     1      -3.089  -0.070  -0.482  1.00  0.00    -0.378 OA
ATOM     12  C   UNL     1      -2.857  -0.004   0.938  1.00  0.00     0.176 C 
BRANCH   9  13
ATOM     13  N   UNL     1      -1.436  -3.239   0.054  1.00  0.00    -0.332 N 
ATOM     14  N   UNL     1       0.873  -2.523  -0.021  1.00  0.00    -0.308 N 
ATOM     15  C   UNL     1      -0.128  -3.394  -0.030  1.00  0.00     0.319 C 
ATOM     16  H   UNL     1       1.723  -3.013   0.067  1.00  0.00     0.171 HD
ATOM     17  O   UNL     1       0.230  -4.582  -0.106  1.00  0.00    -0.248 OA
ATOM     18  H   UNL     1      -1.835  -4.134  -0.041  1.00  0.00     0.165 HD
BRANCH  14  19
ATOM     19  C   UNL     1       1.143  -1.154  -0.092  1.00  0.00     0.046 A 
ATOM     20  C   UNL     1       4.291   1.032   0.002  1.00  0.00     0.044 C 
ATOM     21  C   UNL     1       2.857   0.606  -0.077  1.00  0.00    -0.046 A 
ATOM     22  C   UNL     1       1.866   1.574  -0.234  1.00  0.00     0.042 A 
ATOM     23  C   UNL     1       2.485  -0.749   0.014  1.00  0.00     0.029 A 
ATOM     24  C   UNL     1       0.551   1.172  -0.361  1.00  0.00     0.125 A 
ATOM     25  F   UNL     1      -0.407   2.090  -0.541  1.00  0.00    -0.207 F 
ATOM     26  C   UNL     1       0.207  -0.175  -0.320  1.00  0.00     0.065 A 
ENDBRANCH  14  19
ENDBRANCH   9  13
ENDBRANCH   5   8
ENDBRANCH   3   4
ENDBRANCH   2   3
ENDBRANCH   1   2
BRANCH   1  27
ATOM     27  C   UNL     1      -8.559  -2.216   1.619  1.00  0.00     0.116 C 
BRANCH  27  28
ATOM     28  N   UNL     1      -8.975  -1.365   0.509  1.00  0.00    -0.352 N 
ATOM     29  C   UNL     1     -10.210  -0.794   0.318  1.00  0.00     0.251 C 
ATOM     30  H   UNL     1      -8.296  -1.179  -0.179  1.00  0.00     0.163 HD
ATOM     31  O   UNL     1     -10.467  -0.153  -0.695  1.00  0.00    -0.269 OA
BRANCH  29  32
ATOM     32  C   UNL     1     -11.227  -1.016   1.357  1.00  0.00     0.039 A 
ATOM     33  C   UNL     1     -12.403  -1.686   1.019  1.00  0.00     0.014 A 
ATOM     34  C   UNL     1     -10.933  -0.691   2.683  1.00  0.00     0.014 A 
ATOM     35  C   UNL     1     -13.269  -2.086   2.034  1.00  0.00     0.010 A 
ATOM     36  C   UNL     1     -11.753  -1.166   3.695  1.00  0.00     0.010 A 
ATOM     37  C   UNL     1     -12.934  -1.857   3.379  1.00  0.00    -0.014 A 
BRANCH  37  38
ATOM     38  C   UNL     1     -13.817  -2.311   4.477  1.00  0.00     0.031 A 
ATOM     39  C   UNL     1     -14.455  -1.293   5.381  1.00  0.00     0.074 A 
ATOM     40  C   UNL     1     -13.974  -3.629   4.710  1.00  0.00     0.049 A 
ATOM     41  N   UNL     1     -15.229  -1.481   6.417  1.00  0.00    -0.248 NA
ATOM     42  C   UNL     1     -14.152   0.123   5.109  1.00  0.00     0.031 C 
ATOM     43  C   UNL     1     -13.329  -4.707   3.957  1.00  0.00     0.029 A 
ATOM     44  N   UNL     1     -14.713  -4.285   5.660  1.00  0.00    -0.354 N 
ATOM     45  C   UNL     1     -15.468  -0.218   6.942  1.00  0.00     0.074 A 
ATOM     46  C   UNL     1     -14.720   0.725   6.141  1.00  0.00     0.031 C 
ATOM     47  C   UNL     1     -13.716  -5.890   4.463  1.00  0.00     0.029 A 
ATOM     48  C   UNL     1     -14.621  -5.655   5.583  1.00  0.00     0.049 A 
ATOM     49  H   UNL     1     -15.258  -3.820   6.335  1.00  0.00     0.167 HD
ATOM     50  C   UNL     1     -16.272   0.133   7.972  1.00  0.00     0.034 A 
ATOM     51  C   UNL     1     -15.213  -6.610   6.327  1.00  0.00     0.034 A 
ATOM     52  C   UNL     1     -17.067  -0.804   8.714  1.00  0.00     0.049 A 
ATOM     53  C   UNL     1     -16.164  -6.192   7.417  1.00  0.00     0.074 A 
ATOM     54  C   UNL     1     -17.997  -0.550   9.705  1.00  0.00     0.029 A 
ATOM     55  N   UNL     1     -17.027  -2.179   8.542  1.00  0.00    -0.354 N 
ATOM     56  N   UNL     1     -16.516  -4.984   7.786  1.00  0.00    -0.248 NA
ATOM     57  C   UNL     1     -16.831  -7.267   8.165  1.00  0.00     0.031 C 
ATOM     58  C   UNL     1     -18.516  -1.776  10.137  1.00  0.00     0.029 A 
ATOM     59  C   UNL     1     -17.916  -2.791   9.407  1.00  0.00     0.049 A 
ATOM     60  H   UNL     1     -16.451  -2.651   7.898  1.00  0.00     0.167 HD
ATOM     61  C   UNL     1     -17.473  -5.152   8.780  1.00  0.00     0.074 A 
ATOM     62  C   UNL     1     -17.659  -6.580   8.941  1.00  0.00     0.031 C 
ATOM     63  C   UNL     1     -18.129  -4.212   9.505  1.00  0.00     0.034 A 
BRANCH  50  64
ATOM     64  C   UNL     1     -16.380   1.598   8.299  1.00  0.00     0.023 A 
ATOM     65  C   UNL     1     -17.061   2.458   7.412  1.00  0.00     0.012 A 
ATOM     66  C   UNL     1     -15.834   2.123   9.485  1.00  0.00     0.148 A 
ATOM     67  C   UNL     1     -17.160   3.822   7.678  1.00  0.00     0.002 A 
ATOM     68  C   UNL     1     -15.975   3.477   9.766  1.00  0.00     0.091 A 
ATOM     69  F   UNL     1     -15.164   1.298  10.303  1.00  0.00    -0.205 F 
ATOM     70  C   UNL     1     -16.626   4.330   8.858  1.00  0.00     0.022 A 
BRANCH  68  71
ATOM     71  S   UNL     1     -15.388   4.209  11.298  1.00  0.00     0.127 S 
ATOM     72  O   UNL     1     -14.185   4.908  10.849  1.00  0.00    -0.237 OA
ATOM     73  O   UNL     1     -16.499   5.086  11.669  1.00  0.00    -0.237 OA
ATOM     74  O   UNL     1     -15.167   3.096  12.210  1.00  0.00    -0.744 OA
ENDBRANCH  68  71
ENDBRANCH  50  64
BRANCH  51  75
ATOM     75  C   UNL     1     -15.014  -8.049   5.992  1.00  0.00     0.023 A 
ATOM     76  C   UNL     1     -16.080  -8.770   5.416  1.00  0.00     0.012 A 
ATOM     77  C   UNL     1     -13.784  -8.698   6.204  1.00  0.00     0.148 A 
ATOM     78  C   UNL     1     -15.934 -10.117   5.087  1.00  0.00     0.002 A 
ATOM     79  C   UNL     1     -13.629 -10.028   5.828  1.00  0.00     0.091 A 
ATOM     80  F   UNL     1     -12.785  -8.000   6.763  1.00  0.00    -0.205 F 
ATOM     81  C   UNL     1     -14.707 -10.744   5.284  1.00  0.00     0.022 A 
BRANCH  79  82
ATOM     82  S   UNL     1     -12.049 -10.879   5.927  1.00  0.00     0.127 S 
ATOM     83  O   UNL     1     -12.262 -11.775   7.060  1.00  0.00    -0.237 OA
ATOM     84  O   UNL     1     -11.976 -11.539   4.623  1.00  0.00    -0.237 OA
ATOM     85  O   UNL     1     -11.055  -9.832   6.122  1.00  0.00    -0.744 OA
ENDBRANCH  79  82
ENDBRANCH  51  75
BRANCH  63  86
ATOM     86  C   UNL     1     -19.135  -4.690  10.517  1.00  0.00     0.023 A 
ATOM     87  C   UNL     1     -18.692  -5.272  11.720  1.00  0.00     0.012 A 
ATOM     88  C   UNL     1     -20.514  -4.487  10.310  1.00  0.00     0.148 A 
ATOM     89  C   UNL     1     -19.608  -5.671  12.692  1.00  0.00     0.002 A 
ATOM     90  C   UNL     1     -21.417  -4.844  11.303  1.00  0.00     0.091 A 
ATOM     91  F   UNL     1     -20.916  -3.951   9.149  1.00  0.00    -0.205 F 
ATOM     92  C   UNL     1     -20.967  -5.445  12.490  1.00  0.00     0.022 A 
BRANCH  90  93
ATOM     93  S   UNL     1     -23.174  -4.498  11.164  1.00  0.00     0.127 S 
ATOM     94  O   UNL     1     -23.712  -5.813  10.820  1.00  0.00    -0.237 OA
ATOM     95  O   UNL     1     -23.511  -4.034  12.511  1.00  0.00    -0.237 OA
ATOM     96  O   UNL     1     -23.297  -3.478  10.131  1.00  0.00    -0.744 OA
ENDBRANCH  90  93
ENDBRANCH  63  86
ENDBRANCH  37  38
ENDBRANCH  29  32
ENDBRANCH  27  28
ENDBRANCH   1  27
TORSDOF 16
