REMARK SMILES Cc1ccccc1C(=O)Nc1cc(NC(=O)c2ccccc2C)cc(C(=O)NCCCCNC(=O)c2ccc(-c3c4nc(c(-c5cccc(S(=O)(=O)[O-])c5F)c5ccc([nH]5)c(-c5cccc(S(=O)(=O)[O-])c5F)c5nc(c(-c6cccc(S(=O)(=O)[O-])c6F)c6ccc3[nH]6)C=C5)C=C4)cc2)c1
REMARK SMILES IDX 31 1 30 2 29 3 28 4 26 5 27 6 25 8 11 9 12 10 99 11 13 12
REMARK SMILES IDX 24 13 10 14 8 15 9 16 7 18 1 19 2 20 3 21 4 22 6 23 5 24
REMARK SMILES IDX 14 25 15 26 16 28 17 29 18 30 22 31 19 32 21 33 23 34 20 35
REMARK SMILES IDX 32 36 33 37 34 38 35 40 36 41 37 42 98 43 38 44 97 45 39 46
REMARK SMILES IDX 40 47 41 48 91 49 42 50 96 51 90 52 92 53 43 54 95 55 89 56
REMARK SMILES IDX 88 57 44 59 76 60 56 61 75 62 57 63 60 64 74 65 93 66 58 67
REMARK SMILES IDX 59 68 73 70 94 71 61 72 45 73 46 74 54 75 47 76 49 77 55 78
REMARK SMILES IDX 48 79 50 80 51 81 52 82 53 83 77 84 78 85 86 86 79 87 81 88
REMARK SMILES IDX 87 89 80 90 82 91 83 92 84 93 85 94 62 95 63 96 71 97 64 98
REMARK SMILES IDX 66 99 72 100 65 101 67 102 68 103 69 104 70 105
REMARK H PARENT 28 7 10 17 14 27 33 39 92 58 60 69
REMARK Flexibility Score: inf
ROOT
ATOM      1  C   UNL     1       9.532  -2.606   0.050  1.00  0.00     0.023 C 
ENDROOT
BRANCH   1   2
ATOM      2  C   UNL     1       8.105  -2.433  -0.475  1.00  0.00     0.023 C 
BRANCH   2   3
ATOM      3  C   UNL     1       6.991  -2.582   0.560  1.00  0.00     0.116 C 
BRANCH   3   4
ATOM      4  N   UNL     1       6.881  -1.448   1.468  1.00  0.00    -0.352 N 
ATOM      5  C   UNL     1       6.076  -0.337   1.536  1.00  0.00     0.251 C 
ATOM      6  O   UNL     1       6.335   0.503   2.400  1.00  0.00    -0.269 OA
ATOM      7  H   UNL     1       7.535  -1.486   2.203  1.00  0.00     0.163 HD
BRANCH   5   8
ATOM      8  C   UNL     1       4.927  -0.076   0.624  1.00  0.00     0.043 A 
ATOM      9  C   UNL     1       3.139   1.393  -0.064  1.00  0.00     0.044 A 
ATOM     10  C   UNL     1       2.722   0.472  -1.022  1.00  0.00     0.052 A 
ATOM     11  C   UNL     1       4.337   1.194   0.632  1.00  0.00     0.040 A 
ATOM     12  C   UNL     1       3.324  -0.773  -1.067  1.00  0.00     0.044 A 
ATOM     13  C   UNL     1       4.303  -1.069  -0.126  1.00  0.00     0.040 A 
BRANCH   9  14
ATOM     14  N   UNL     1       2.301   2.431   0.363  1.00  0.00    -0.322 N 
ATOM     15  C   UNL     1       0.923   2.429   0.517  1.00  0.00     0.255 C 
ATOM     16  O   UNL     1       0.366   3.500   0.774  1.00  0.00    -0.269 OA
ATOM     17  H   UNL     1       2.752   3.277   0.585  1.00  0.00     0.170 HD
BRANCH  15  18
ATOM     18  C   UNL     1       0.071   1.193   0.406  1.00  0.00     0.043 A 
ATOM     19  C   UNL     1       1.455  -0.413   1.903  1.00  0.00     0.045 C 
ATOM     20  C   UNL     1       0.355  -0.088   0.931  1.00  0.00    -0.038 A 
ATOM     21  C   UNL     1      -0.498  -1.165   0.608  1.00  0.00     0.004 A 
ATOM     22  C   UNL     1      -1.688  -0.962  -0.083  1.00  0.00     0.000 A 
ATOM     23  C   UNL     1      -1.163   1.384  -0.246  1.00  0.00     0.014 A 
ATOM     24  C   UNL     1      -2.045   0.323  -0.467  1.00  0.00     0.001 A 
ENDBRANCH  15  18
ENDBRANCH   9  14
BRANCH  12  25
ATOM     25  N   UNL     1       2.970  -1.810  -1.940  1.00  0.00    -0.322 N 
ATOM     26  C   UNL     1       2.373  -1.794  -3.176  1.00  0.00     0.255 C 
ATOM     27  H   UNL     1       3.188  -2.711  -1.608  1.00  0.00     0.170 HD
ATOM     28  O   UNL     1       2.016  -2.853  -3.690  1.00  0.00    -0.269 OA
BRANCH  26  29
ATOM     29  C   UNL     1       2.178  -0.536  -3.930  1.00  0.00     0.043 A 
ATOM     30  C   UNL     1       0.873  -0.316  -4.394  1.00  0.00     0.014 A 
ATOM     31  C   UNL     1       3.199   0.398  -4.202  1.00  0.00    -0.038 A 
ATOM     32  C   UNL     1       0.552   0.864  -5.059  1.00  0.00     0.001 A 
ATOM     33  C   UNL     1       2.843   1.601  -4.835  1.00  0.00     0.004 A 
ATOM     34  C   UNL     1       4.647   0.203  -3.842  1.00  0.00     0.045 C 
ATOM     35  C   UNL     1       1.532   1.833  -5.256  1.00  0.00     0.000 A 
ENDBRANCH  26  29
ENDBRANCH  12  25
ENDBRANCH   5   8
ENDBRANCH   3   4
ENDBRANCH   2   3
ENDBRANCH   1   2
BRANCH   1  36
ATOM     36  C   UNL     1       9.706  -3.867   0.871  1.00  0.00     0.116 C 
BRANCH  36  37
ATOM     37  N   UNL     1       9.509  -5.077   0.104  1.00  0.00    -0.352 N 
ATOM     38  C   UNL     1       9.733  -6.385   0.458  1.00  0.00     0.251 C 
ATOM     39  H   UNL     1       9.162  -4.943  -0.808  1.00  0.00     0.163 HD
ATOM     40  O   UNL     1       9.900  -7.184  -0.473  1.00  0.00    -0.269 OA
BRANCH  38  41
ATOM     41  C   UNL     1       9.598  -6.873   1.855  1.00  0.00     0.039 A 
ATOM     42  C   UNL     1       9.625  -8.262   2.064  1.00  0.00     0.014 A 
ATOM     43  C   UNL     1       9.111  -6.051   2.864  1.00  0.00     0.014 A 
ATOM     44  C   UNL     1       8.897  -8.820   3.108  1.00  0.00     0.010 A 
ATOM     45  C   UNL     1       8.337  -6.589   3.847  1.00  0.00     0.010 A 
ATOM     46  C   UNL     1       8.137  -7.966   3.878  1.00  0.00    -0.014 A 
BRANCH  46  47
ATOM     47  C   UNL     1       7.077  -8.325   4.787  1.00  0.00     0.031 A 
ATOM     48  C   UNL     1       7.425  -8.432   6.204  1.00  0.00     0.074 A 
ATOM     49  C   UNL     1       5.857  -7.952   4.341  1.00  0.00     0.049 A 
ATOM     50  N   UNL     1       6.567  -8.574   7.144  1.00  0.00    -0.248 NA
ATOM     51  C   UNL     1       8.804  -8.357   6.676  1.00  0.00     0.031 C 
ATOM     52  C   UNL     1       4.752  -7.355   5.080  1.00  0.00     0.029 A 
ATOM     53  N   UNL     1       5.356  -8.038   3.054  1.00  0.00    -0.354 N 
ATOM     54  C   UNL     1       7.212  -8.263   8.320  1.00  0.00     0.074 A 
ATOM     55  C   UNL     1       8.614  -8.297   7.996  1.00  0.00     0.031 C 
ATOM     56  C   UNL     1       3.650  -7.363   4.303  1.00  0.00     0.029 A 
ATOM     57  C   UNL     1       3.968  -8.150   3.122  1.00  0.00     0.049 A 
ATOM     58  H   UNL     1       5.891  -8.023   2.228  1.00  0.00     0.167 HD
ATOM     59  C   UNL     1       6.445  -7.844   9.364  1.00  0.00     0.034 A 
ATOM     60  C   UNL     1       3.408  -9.372   2.845  1.00  0.00     0.034 A 
ATOM     61  C   UNL     1       5.014  -8.005   9.024  1.00  0.00     0.049 A 
ATOM     62  C   UNL     1       2.859 -10.071   4.085  1.00  0.00     0.074 A 
ATOM     63  C   UNL     1       4.020  -7.122   8.635  1.00  0.00     0.029 A 
ATOM     64  N   UNL     1       4.539  -9.279   8.713  1.00  0.00    -0.354 N 
ATOM     65  N   UNL     1       3.049  -9.673   5.315  1.00  0.00    -0.248 NA
ATOM     66  C   UNL     1       2.006 -11.251   4.024  1.00  0.00     0.031 C 
ATOM     67  C   UNL     1       2.990  -7.877   7.993  1.00  0.00     0.029 A 
ATOM     68  C   UNL     1       3.334  -9.220   8.027  1.00  0.00     0.049 A 
ATOM     69  H   UNL     1       5.001 -10.116   8.950  1.00  0.00     0.167 HD
ATOM     70  C   UNL     1       2.483 -10.550   6.203  1.00  0.00     0.074 A 
ATOM     71  C   UNL     1       1.768 -11.473   5.330  1.00  0.00     0.031 C 
ATOM     72  C   UNL     1       2.688 -10.455   7.561  1.00  0.00     0.034 A 
BRANCH  59  73
ATOM     73  C   UNL     1       6.923  -7.085  10.598  1.00  0.00     0.023 A 
ATOM     74  C   UNL     1       5.919  -6.602  11.469  1.00  0.00     0.012 A 
ATOM     75  C   UNL     1       8.253  -6.741  10.954  1.00  0.00     0.148 A 
ATOM     76  C   UNL     1       6.203  -5.809  12.589  1.00  0.00     0.002 A 
ATOM     77  C   UNL     1       8.542  -5.966  12.084  1.00  0.00     0.091 A 
ATOM     78  F   UNL     1       9.277  -7.129  10.199  1.00  0.00    -0.205 F 
ATOM     79  C   UNL     1       7.516  -5.490  12.899  1.00  0.00     0.022 A 
BRANCH  77  80
ATOM     80  S   UNL     1      10.226  -5.516  12.559  1.00  0.00     0.127 S 
ATOM     81  O   UNL     1      10.178  -4.054  12.505  1.00  0.00    -0.237 OA
ATOM     82  O   UNL     1      10.329  -6.070  13.908  1.00  0.00    -0.237 OA
ATOM     83  O   UNL     1      11.115  -6.128  11.579  1.00  0.00    -0.744 OA
ENDBRANCH  77  80
ENDBRANCH  59  73
BRANCH  60  84
ATOM     84  C   UNL     1       4.105 -10.032   1.683  1.00  0.00     0.023 A 
ATOM     85  C   UNL     1       4.039  -9.334   0.449  1.00  0.00     0.012 A 
ATOM     86  C   UNL     1       5.176 -10.923   1.895  1.00  0.00     0.148 A 
ATOM     87  C   UNL     1       5.119  -9.345  -0.437  1.00  0.00     0.002 A 
ATOM     88  C   UNL     1       6.243 -10.942   0.993  1.00  0.00     0.091 A 
ATOM     89  F   UNL     1       5.177 -11.673   3.004  1.00  0.00    -0.205 F 
ATOM     90  C   UNL     1       6.244 -10.106  -0.136  1.00  0.00     0.022 A 
BRANCH  88  91
ATOM     91  S   UNL     1       7.711 -11.938   1.297  1.00  0.00     0.127 S 
ATOM     92  O   UNL     1       7.392 -13.164   0.571  1.00  0.00    -0.237 OA
ATOM     93  O   UNL     1       8.782 -11.140   0.697  1.00  0.00    -0.237 OA
ATOM     94  O   UNL     1       7.798 -12.054   2.745  1.00  0.00    -0.744 OA
ENDBRANCH  88  91
ENDBRANCH  60  84
BRANCH  72  95
ATOM     95  C   UNL     1       2.309 -11.515   8.602  1.00  0.00     0.023 A 
ATOM     96  C   UNL     1       1.842 -12.795   8.252  1.00  0.00     0.012 A 
ATOM     97  C   UNL     1       2.507 -11.295   9.996  1.00  0.00     0.148 A 
ATOM     98  C   UNL     1       1.522 -13.770   9.205  1.00  0.00     0.002 A 
ATOM     99  C   UNL     1       2.314 -12.310  10.931  1.00  0.00     0.091 A 
ATOM    100  F   UNL     1       2.850 -10.082  10.449  1.00  0.00    -0.205 F 
ATOM    101  C   UNL     1       1.782 -13.538  10.544  1.00  0.00     0.022 A 
BRANCH  99 102
ATOM    102  S   UNL     1       2.860 -12.144  12.637  1.00  0.00     0.127 S 
ATOM    103  O   UNL     1       1.601 -11.871  13.328  1.00  0.00    -0.237 OA
ATOM    104  O   UNL     1       3.429 -13.466  12.907  1.00  0.00    -0.237 OA
ATOM    105  O   UNL     1       3.835 -11.063  12.632  1.00  0.00    -0.744 OA
ENDBRANCH  99 102
ENDBRANCH  72  95
ENDBRANCH  46  47
ENDBRANCH  38  41
ENDBRANCH  36  37
ENDBRANCH   1  36
TORSDOF 18
