REMARK SMILES O=C(NCCCCNC(=O)c1ccc(-c2c3nc(c(-c4cccc(S(=O)(=O)[O-])c4F)c4ccc([nH]4)c(-c4cccc(S(=O)(=O)[O-])c4F)c4nc(c(-c5cccc(S(=O)(=O)[O-])c5F)c5ccc2[nH]5)C=C4)C=C3)cc1)c1ccc(Cc2nc3ccccc3s2)cc1
REMARK SMILES IDX 6 1 5 2 4 3 3 4 1 5 2 6 74 8 75 9 89 10 76 11 88 12 77 13
REMARK SMILES IDX 78 14 79 15 80 16 87 17 81 18 86 19 82 20 85 21 83 22 84 23
REMARK SMILES IDX 7 24 8 25 9 26 10 28 11 29 12 30 73 31 13 32 72 33 14 34
REMARK SMILES IDX 15 35 16 36 66 37 17 38 71 39 65 40 67 41 18 42 70 43 64 44
REMARK SMILES IDX 63 45 19 47 51 48 31 49 50 50 32 51 35 52 49 53 68 54 33 55
REMARK SMILES IDX 34 56 48 58 69 59 36 60 20 61 21 62 29 63 22 64 24 65 30 66
REMARK SMILES IDX 23 67 25 68 26 69 27 70 28 71 52 72 53 73 61 74 54 75 56 76
REMARK SMILES IDX 62 77 55 78 57 79 58 80 59 81 60 82 37 83 38 84 46 85 39 86
REMARK SMILES IDX 41 87 47 88 40 89 42 90 43 91 44 92 45 93
REMARK H PARENT 3 7 8 27 67 46 35 57
REMARK Flexibility Score: inf
ROOT
ATOM      1  C   UNL     1       4.383  -1.921  -3.050  1.00  0.00     0.023 C 
ENDROOT
BRANCH   1   2
ATOM      2  C   UNL     1       4.859  -1.653  -1.623  1.00  0.00     0.023 C 
BRANCH   2   3
ATOM      3  C   UNL     1       4.510  -0.279  -1.058  1.00  0.00     0.116 C 
BRANCH   3   4
ATOM      4  N   UNL     1       3.078  -0.059  -0.939  1.00  0.00    -0.352 N 
ATOM      5  O   UNL     1       1.114   0.280   0.137  1.00  0.00    -0.269 OA
ATOM      6  C   UNL     1       2.333   0.218   0.185  1.00  0.00     0.251 C 
ATOM      7  H   UNL     1       2.569  -0.115  -1.780  1.00  0.00     0.163 HD
BRANCH   6   8
ATOM      8  C   UNL     1       3.022   0.406   1.478  1.00  0.00     0.039 A 
ATOM      9  C   UNL     1       3.998   1.393   1.633  1.00  0.00     0.014 A 
ATOM     10  C   UNL     1       2.701  -0.451   2.532  1.00  0.00     0.014 A 
ATOM     11  C   UNL     1       4.734   1.453   2.815  1.00  0.00     0.005 A 
ATOM     12  C   UNL     1       3.432  -0.383   3.717  1.00  0.00     0.005 A 
ATOM     13  C   UNL     1       4.475   0.547   3.857  1.00  0.00    -0.041 A 
BRANCH  13  14
ATOM     14  C   UNL     1       5.378   0.505   5.071  1.00  0.00     0.103 C 
BRANCH  14  15
ATOM     15  C   UNL     1       6.637  -0.290   4.835  1.00  0.00     0.098 A 
ATOM     16  N   UNL     1       6.763  -1.268   3.962  1.00  0.00    -0.241 NA
ATOM     17  S   UNL     1       8.046   0.046   5.763  1.00  0.00    -0.118 S 
ATOM     18  C   UNL     1       8.051  -1.769   3.979  1.00  0.00     0.082 A 
ATOM     19  C   UNL     1       8.906  -1.180   4.910  1.00  0.00     0.055 A 
ATOM     20  C   UNL     1       8.547  -2.798   3.153  1.00  0.00     0.030 A 
ATOM     21  C   UNL     1      10.242  -1.591   5.052  1.00  0.00     0.021 A 
ATOM     22  C   UNL     1       9.877  -3.212   3.282  1.00  0.00     0.002 A 
ATOM     23  C   UNL     1      10.711  -2.616   4.222  1.00  0.00     0.002 A 
ENDBRANCH  14  15
ENDBRANCH  13  14
ENDBRANCH   6   8
ENDBRANCH   3   4
ENDBRANCH   2   3
ENDBRANCH   1   2
BRANCH   1  24
ATOM     24  C   UNL     1       4.778  -0.878  -4.091  1.00  0.00     0.116 C 
BRANCH  24  25
ATOM     25  N   UNL     1       6.217  -0.687  -4.203  1.00  0.00    -0.352 N 
ATOM     26  C   UNL     1       7.010  -0.655  -5.327  1.00  0.00     0.251 C 
ATOM     27  H   UNL     1       6.692  -0.563  -3.350  1.00  0.00     0.163 HD
ATOM     28  O   UNL     1       8.231  -0.582  -5.210  1.00  0.00    -0.269 OA
BRANCH  26  29
ATOM     29  C   UNL     1       6.400  -0.744  -6.673  1.00  0.00     0.039 A 
ATOM     30  C   UNL     1       6.955  -1.623  -7.608  1.00  0.00     0.014 A 
ATOM     31  C   UNL     1       5.281   0.020  -7.012  1.00  0.00     0.014 A 
ATOM     32  C   UNL     1       6.340  -1.797  -8.851  1.00  0.00     0.010 A 
ATOM     33  C   UNL     1       4.630  -0.205  -8.223  1.00  0.00     0.010 A 
ATOM     34  C   UNL     1       5.149  -1.119  -9.154  1.00  0.00    -0.014 A 
BRANCH  34  35
ATOM     35  C   UNL     1       4.409  -1.372 -10.419  1.00  0.00     0.031 A 
ATOM     36  C   UNL     1       4.206  -0.264 -11.418  1.00  0.00     0.074 A 
ATOM     37  C   UNL     1       3.819  -2.569 -10.616  1.00  0.00     0.049 A 
ATOM     38  N   UNL     1       3.518  -0.273 -12.530  1.00  0.00    -0.248 NA
ATOM     39  C   UNL     1       4.833   1.033 -11.113  1.00  0.00     0.031 C 
ATOM     40  C   UNL     1       3.864  -3.699  -9.685  1.00  0.00     0.029 A 
ATOM     41  N   UNL     1       3.035  -3.024 -11.648  1.00  0.00    -0.354 N 
ATOM     42  C   UNL     1       3.586   1.021 -13.031  1.00  0.00     0.074 A 
ATOM     43  C   UNL     1       4.369   1.796 -12.093  1.00  0.00     0.031 C 
ATOM     44  C   UNL     1       3.136  -4.711 -10.184  1.00  0.00     0.029 A 
ATOM     45  C   UNL     1       2.552  -4.298 -11.456  1.00  0.00     0.049 A 
ATOM     46  H   UNL     1       2.837  -2.489 -12.450  1.00  0.00     0.167 HD
ATOM     47  C   UNL     1       3.067   1.515 -14.180  1.00  0.00     0.034 A 
ATOM     48  C   UNL     1       1.725  -5.047 -12.213  1.00  0.00     0.034 A 
ATOM     49  C   UNL     1       2.350   0.727 -15.146  1.00  0.00     0.049 A 
ATOM     50  C   UNL     1       1.220  -4.492 -13.518  1.00  0.00     0.074 A 
ATOM     51  C   UNL     1       1.899   1.106 -16.398  1.00  0.00     0.029 A 
ATOM     52  N   UNL     1       1.976  -0.595 -14.970  1.00  0.00    -0.354 N 
ATOM     53  N   UNL     1       1.460  -3.326 -14.066  1.00  0.00    -0.248 NA
ATOM     54  C   UNL     1       0.362  -5.370 -14.328  1.00  0.00     0.031 C 
ATOM     55  C   UNL     1       1.238   0.016 -16.973  1.00  0.00     0.029 A 
ATOM     56  C   UNL     1       1.290  -1.045 -16.084  1.00  0.00     0.049 A 
ATOM     57  H   UNL     1       2.170  -1.135 -14.169  1.00  0.00     0.167 HD
ATOM     58  C   UNL     1       0.815  -3.344 -15.297  1.00  0.00     0.074 A 
ATOM     59  C   UNL     1       0.192  -4.645 -15.425  1.00  0.00     0.031 C 
ATOM     60  C   UNL     1       0.731  -2.364 -16.230  1.00  0.00     0.034 A 
BRANCH  47  61
ATOM     61  C   UNL     1       3.307   2.967 -14.496  1.00  0.00     0.023 A 
ATOM     62  C   UNL     1       4.587   3.382 -14.915  1.00  0.00     0.012 A 
ATOM     63  C   UNL     1       2.253   3.901 -14.460  1.00  0.00     0.148 A 
ATOM     64  C   UNL     1       4.822   4.710 -15.268  1.00  0.00     0.002 A 
ATOM     65  C   UNL     1       2.486   5.215 -14.851  1.00  0.00     0.091 A 
ATOM     66  F   UNL     1       1.048   3.491 -14.038  1.00  0.00    -0.205 F 
ATOM     67  C   UNL     1       3.771   5.622 -15.247  1.00  0.00     0.022 A 
BRANCH  65  68
ATOM     68  S   UNL     1       1.181   6.447 -14.932  1.00  0.00     0.127 S 
ATOM     69  O   UNL     1       1.509   7.299 -13.790  1.00  0.00    -0.237 OA
ATOM     70  O   UNL     1       1.417   7.062 -16.238  1.00  0.00    -0.237 OA
ATOM     71  O   UNL     1      -0.071   5.712 -14.825  1.00  0.00    -0.744 OA
ENDBRANCH  65  68
ENDBRANCH  47  61
BRANCH  48  72
ATOM     72  C   UNL     1       1.379  -6.435 -11.793  1.00  0.00     0.023 A 
ATOM     73  C   UNL     1       1.907  -7.523 -12.515  1.00  0.00     0.012 A 
ATOM     74  C   UNL     1       0.551  -6.686 -10.682  1.00  0.00     0.148 A 
ATOM     75  C   UNL     1       1.590  -8.834 -12.161  1.00  0.00     0.002 A 
ATOM     76  C   UNL     1       0.282  -7.997 -10.302  1.00  0.00     0.091 A 
ATOM     77  F   UNL     1       0.042  -5.640 -10.016  1.00  0.00    -0.205 F 
ATOM     78  C   UNL     1       0.787  -9.072 -11.049  1.00  0.00     0.022 A 
BRANCH  76  79
ATOM     79  S   UNL     1      -0.634  -8.386  -8.806  1.00  0.00     0.127 S 
ATOM     80  O   UNL     1      -1.950  -8.723  -9.339  1.00  0.00    -0.237 OA
ATOM     81  O   UNL     1       0.121  -9.518  -8.267  1.00  0.00    -0.237 OA
ATOM     82  O   UNL     1      -0.562  -7.182  -7.989  1.00  0.00    -0.744 OA
ENDBRANCH  76  79
ENDBRANCH  48  72
BRANCH  60  83
ATOM     83  C   UNL     1      -0.030  -2.661 -17.494  1.00  0.00     0.023 A 
ATOM     84  C   UNL     1      -1.438  -2.709 -17.464  1.00  0.00     0.012 A 
ATOM     85  C   UNL     1       0.642  -2.805 -18.724  1.00  0.00     0.148 A 
ATOM     86  C   UNL     1      -2.164  -2.924 -18.635  1.00  0.00     0.002 A 
ATOM     87  C   UNL     1      -0.091  -2.973 -19.894  1.00  0.00     0.091 A 
ATOM     88  F   UNL     1       1.982  -2.776 -18.729  1.00  0.00    -0.205 F 
ATOM     89  C   UNL     1      -1.492  -3.042 -19.850  1.00  0.00     0.022 A 
BRANCH  87  90
ATOM     90  S   UNL     1       0.689  -3.039 -21.511  1.00  0.00     0.127 S 
ATOM     91  O   UNL     1       0.612  -4.465 -21.822  1.00  0.00    -0.237 OA
ATOM     92  O   UNL     1      -0.190  -2.191 -22.318  1.00  0.00    -0.237 OA
ATOM     93  O   UNL     1       2.033  -2.507 -21.328  1.00  0.00    -0.744 OA
ENDBRANCH  87  90
ENDBRANCH  60  83
ENDBRANCH  34  35
ENDBRANCH  26  29
ENDBRANCH  24  25
ENDBRANCH   1  24
TORSDOF 16
