REMARK SMILES O=C(NCCCCNC(=O)[C@H](CO)NC(=O)[C@H](Cc1ccc(O)cc1)NC(=O)c1ccc(F)cc1)c1ccc(-c2c3nc(c(-c4cccc(S(=O)(=O)[O-])c4F)c4ccc([nH]4)c(-c4cccc(S(=O)(=O)[O-])c4F)c4nc(c(-c5cccc(S(=O)(=O)[O-])c5F)c5ccc2[nH]5)C=C4)C=C3)cc1
REMARK SMILES IDX 6 1 5 2 4 3 3 4 1 5 2 6 36 8 37 9 98 10 38 11 97 12 39 13
REMARK SMILES IDX 40 14 41 15 91 16 42 17 96 18 90 19 92 20 43 21 95 22 89 23
REMARK SMILES IDX 88 24 44 26 76 27 56 28 75 29 57 30 60 31 74 32 93 33 58 34
REMARK SMILES IDX 59 35 73 37 94 38 61 39 45 40 46 41 54 42 47 43 49 44 55 45
REMARK SMILES IDX 48 46 50 47 51 48 52 49 53 50 77 51 78 52 86 53 79 54 81 55
REMARK SMILES IDX 87 56 80 57 82 58 83 59 84 60 85 61 62 62 63 63 71 64 64 65
REMARK SMILES IDX 66 66 72 67 65 68 67 69 68 70 69 71 70 72 7 73 8 74 9 75
REMARK SMILES IDX 10 77 11 78 14 79 15 80 16 82 17 83 26 84 27 85 28 87 29 88
REMARK SMILES IDX 30 89 35 90 31 91 34 92 32 93 33 94 18 95 19 96 20 97 25 98
REMARK SMILES IDX 21 99 24 100 22 101 23 102 12 104 13 105
REMARK H PARENT 3 7 92 25 60 36 8 76 14 81 26 86 23 103 13 106
REMARK Flexibility Score: inf
ROOT
ATOM      1  C   UNL     1       5.738  -2.049  -0.881  1.00  0.00     0.023 C 
ENDROOT
BRANCH   1   2
ATOM      2  C   UNL     1       5.492  -0.798  -0.087  1.00  0.00     0.023 C 
BRANCH   2   3
ATOM      3  C   UNL     1       4.050  -0.365  -0.163  1.00  0.00     0.116 C 
BRANCH   3   4
ATOM      4  N   UNL     1       3.100  -1.448   0.149  1.00  0.00    -0.352 N 
ATOM      5  O   UNL     1       1.427  -2.438   1.327  1.00  0.00    -0.269 OA
ATOM      6  C   UNL     1       2.079  -1.437   1.069  1.00  0.00     0.251 C 
ATOM      7  H   UNL     1       3.211  -2.281  -0.364  1.00  0.00     0.163 HD
BRANCH   6   8
ATOM      8  C   UNL     1       1.860  -0.156   1.745  1.00  0.00     0.039 A 
ATOM      9  C   UNL     1       1.770   0.970   0.928  1.00  0.00     0.014 A 
ATOM     10  C   UNL     1       2.119  -0.062   3.111  1.00  0.00     0.014 A 
ATOM     11  C   UNL     1       2.232   2.166   1.434  1.00  0.00     0.010 A 
ATOM     12  C   UNL     1       2.368   1.195   3.655  1.00  0.00     0.010 A 
ATOM     13  C   UNL     1       2.481   2.310   2.811  1.00  0.00    -0.014 A 
BRANCH  13  14
ATOM     14  C   UNL     1       2.760   3.669   3.326  1.00  0.00     0.031 A 
ATOM     15  C   UNL     1       3.984   3.986   4.136  1.00  0.00     0.074 A 
ATOM     16  C   UNL     1       1.864   4.631   3.021  1.00  0.00     0.049 A 
ATOM     17  N   UNL     1       4.326   5.131   4.667  1.00  0.00    -0.248 NA
ATOM     18  C   UNL     1       4.942   2.898   4.402  1.00  0.00     0.031 C 
ATOM     19  C   UNL     1       0.626   4.415   2.259  1.00  0.00     0.029 A 
ATOM     20  N   UNL     1       1.849   5.971   3.291  1.00  0.00    -0.354 N 
ATOM     21  C   UNL     1       5.499   4.894   5.371  1.00  0.00     0.074 A 
ATOM     22  C   UNL     1       5.817   3.493   5.203  1.00  0.00     0.031 C 
ATOM     23  C   UNL     1       0.013   5.584   2.064  1.00  0.00     0.029 A 
ATOM     24  C   UNL     1       0.735   6.609   2.798  1.00  0.00     0.049 A 
ATOM     25  H   UNL     1       2.562   6.433   3.788  1.00  0.00     0.167 HD
ATOM     26  C   UNL     1       6.238   5.774   6.085  1.00  0.00     0.034 A 
ATOM     27  C   UNL     1       0.299   7.869   2.960  1.00  0.00     0.034 A 
ATOM     28  C   UNL     1       5.917   7.172   6.212  1.00  0.00     0.049 A 
ATOM     29  C   UNL     1       1.132   8.806   3.772  1.00  0.00     0.074 A 
ATOM     30  C   UNL     1       6.636   8.156   6.866  1.00  0.00     0.029 A 
ATOM     31  N   UNL     1       4.783   7.780   5.696  1.00  0.00    -0.354 N 
ATOM     32  N   UNL     1       2.285   8.583   4.351  1.00  0.00    -0.248 NA
ATOM     33  C   UNL     1       0.620  10.170   3.941  1.00  0.00     0.031 C 
ATOM     34  C   UNL     1       5.911   9.346   6.794  1.00  0.00     0.029 A 
ATOM     35  C   UNL     1       4.771   9.121   6.039  1.00  0.00     0.049 A 
ATOM     36  H   UNL     1       4.090   7.326   5.164  1.00  0.00     0.167 HD
ATOM     37  C   UNL     1       2.652   9.786   4.934  1.00  0.00     0.074 A 
ATOM     38  C   UNL     1       1.609  10.741   4.616  1.00  0.00     0.031 C 
ATOM     39  C   UNL     1       3.748  10.068   5.677  1.00  0.00     0.034 A 
BRANCH  26  40
ATOM     40  C   UNL     1       7.483   5.284   6.779  1.00  0.00     0.023 A 
ATOM     41  C   UNL     1       8.629   4.966   6.025  1.00  0.00     0.012 A 
ATOM     42  C   UNL     1       7.558   5.282   8.187  1.00  0.00     0.148 A 
ATOM     43  C   UNL     1       9.828   4.643   6.660  1.00  0.00     0.002 A 
ATOM     44  C   UNL     1       8.768   5.009   8.812  1.00  0.00     0.091 A 
ATOM     45  F   UNL     1       6.452   5.575   8.885  1.00  0.00    -0.205 F 
ATOM     46  C   UNL     1       9.902   4.681   8.051  1.00  0.00     0.022 A 
BRANCH  44  47
ATOM     47  S   UNL     1       8.992   5.121  10.591  1.00  0.00     0.127 S 
ATOM     48  O   UNL     1       9.322   3.738  10.933  1.00  0.00    -0.237 OA
ATOM     49  O   UNL     1      10.109   6.059  10.698  1.00  0.00    -0.237 OA
ATOM     50  O   UNL     1       7.728   5.605  11.129  1.00  0.00    -0.744 OA
ENDBRANCH  44  47
ENDBRANCH  26  40
BRANCH  27  51
ATOM     51  C   UNL     1      -0.988   8.284   2.341  1.00  0.00     0.023 A 
ATOM     52  C   UNL     1      -0.985   9.220   1.292  1.00  0.00     0.012 A 
ATOM     53  C   UNL     1      -2.208   7.701   2.744  1.00  0.00     0.148 A 
ATOM     54  C   UNL     1      -2.179   9.591   0.674  1.00  0.00     0.002 A 
ATOM     55  C   UNL     1      -3.382   8.024   2.079  1.00  0.00     0.091 A 
ATOM     56  F   UNL     1      -2.185   6.807   3.743  1.00  0.00    -0.205 F 
ATOM     57  C   UNL     1      -3.373   8.986   1.058  1.00  0.00     0.022 A 
BRANCH  55  58
ATOM     58  S   UNL     1      -4.936   7.186   2.406  1.00  0.00     0.127 S 
ATOM     59  O   UNL     1      -5.742   8.267   2.970  1.00  0.00    -0.237 OA
ATOM     60  O   UNL     1      -5.330   6.756   1.064  1.00  0.00    -0.237 OA
ATOM     61  O   UNL     1      -4.617   6.097   3.318  1.00  0.00    -0.744 OA
ENDBRANCH  55  58
ENDBRANCH  27  51
BRANCH  39  62
ATOM     62  C   UNL     1       3.912  11.476   6.178  1.00  0.00     0.023 A 
ATOM     63  C   UNL     1       3.095  11.951   7.221  1.00  0.00     0.012 A 
ATOM     64  C   UNL     1       4.968  12.276   5.698  1.00  0.00     0.148 A 
ATOM     65  C   UNL     1       3.319  13.211   7.772  1.00  0.00     0.002 A 
ATOM     66  C   UNL     1       5.222  13.504   6.292  1.00  0.00     0.091 A 
ATOM     67  F   UNL     1       5.720  11.805   4.693  1.00  0.00    -0.205 F 
ATOM     68  C   UNL     1       4.392  13.978   7.321  1.00  0.00     0.022 A 
BRANCH  66  69
ATOM     69  S   UNL     1       6.642  14.511   5.855  1.00  0.00     0.127 S 
ATOM     70  O   UNL     1       6.001  15.707   5.308  1.00  0.00    -0.237 OA
ATOM     71  O   UNL     1       7.290  14.705   7.151  1.00  0.00    -0.237 OA
ATOM     72  O   UNL     1       7.413  13.733   4.895  1.00  0.00    -0.744 OA
ENDBRANCH  66  69
ENDBRANCH  39  62
ENDBRANCH  13  14
ENDBRANCH   6   8
ENDBRANCH   3   4
ENDBRANCH   2   3
ENDBRANCH   1   2
BRANCH   1  73
ATOM     73  C   UNL     1       5.041  -2.083  -2.241  1.00  0.00     0.116 C 
BRANCH  73  74
ATOM     74  N   UNL     1       5.685  -1.350  -3.366  1.00  0.00    -0.354 N 
ATOM     75  C   UNL     1       6.251  -1.630  -4.707  1.00  0.00     0.244 C 
ATOM     76  H   UNL     1       5.756  -0.391  -3.156  1.00  0.00     0.163 HD
ATOM     77  O   UNL     1       6.019  -0.449  -5.154  1.00  0.00    -0.273 OA
BRANCH  75  78
ATOM     78  C   UNL     1       7.218  -3.377  -5.631  1.00  0.00     0.197 C 
BRANCH  78  79
ATOM     79  N   UNL     1       8.411  -3.476  -6.757  1.00  0.00    -0.340 N 
ATOM     80  C   UNL     1       8.320  -3.472  -8.119  1.00  0.00     0.243 C 
ATOM     81  H   UNL     1       9.324  -3.548  -6.397  1.00  0.00     0.164 HD
ATOM     82  O   UNL     1       9.348  -3.660  -8.773  1.00  0.00    -0.273 OA
BRANCH  80  83
ATOM     83  C   UNL     1       6.934  -3.363  -8.788  1.00  0.00     0.176 C 
BRANCH  83  84
ATOM     84  N   UNL     1       6.359  -4.723  -8.696  1.00  0.00    -0.340 N 
ATOM     85  C   UNL     1       6.270  -5.699  -9.657  1.00  0.00     0.251 C 
ATOM     86  H   UNL     1       5.986  -4.963  -7.818  1.00  0.00     0.164 HD
ATOM     87  O   UNL     1       5.951  -6.845  -9.358  1.00  0.00    -0.269 OA
BRANCH  85  88
ATOM     88  C   UNL     1       6.414  -5.325 -11.075  1.00  0.00     0.040 A 
ATOM     89  C   UNL     1       7.565  -4.699 -11.563  1.00  0.00     0.017 A 
ATOM     90  C   UNL     1       5.294  -5.501 -11.894  1.00  0.00     0.017 A 
ATOM     91  C   UNL     1       7.532  -4.092 -12.816  1.00  0.00     0.040 A 
ATOM     92  C   UNL     1       5.283  -4.934 -13.165  1.00  0.00     0.040 A 
ATOM     93  C   UNL     1       6.385  -4.200 -13.597  1.00  0.00     0.123 A 
ATOM     94  F   UNL     1       6.336  -3.575 -14.780  1.00  0.00    -0.207 F 
ENDBRANCH  85  88
ENDBRANCH  83  84
BRANCH  83  95
ATOM     95  C   UNL     1       6.030  -2.198  -8.319  1.00  0.00     0.070 C 
BRANCH  95  96
ATOM     96  C   UNL     1       6.146  -1.966  -6.830  1.00  0.00    -0.045 A 
ATOM     97  C   UNL     1       7.729  -1.353  -6.213  1.00  0.00     0.007 A 
ATOM     98  C   UNL     1       5.075  -2.965  -5.820  1.00  0.00     0.007 A 
ATOM     99  C   UNL     1       8.325  -1.861  -4.611  1.00  0.00     0.046 A 
ATOM    100  C   UNL     1       5.709  -3.566  -4.269  1.00  0.00     0.046 A 
ATOM    101  C   UNL     1       7.341  -2.979  -3.633  1.00  0.00     0.115 A 
BRANCH 101 102
ATOM    102  O   UNL     1       7.863  -3.475  -2.481  1.00  0.00    -0.508 OA
ATOM    103  H   UNL     1       8.692  -3.167  -2.172  1.00  0.00     0.293 HD
ENDBRANCH 101 102
ENDBRANCH  95  96
ENDBRANCH  83  95
ENDBRANCH  80  83
ENDBRANCH  78  79
BRANCH  78 104
ATOM    104  C   UNL     1       7.769  -4.952  -4.918  1.00  0.00     0.191 C 
BRANCH 104 105
ATOM    105  O   UNL     1       7.029  -5.681  -3.936  1.00  0.00    -0.394 OA
ATOM    106  H   UNL     1       7.028  -5.188  -3.100  1.00  0.00     0.210 HD
ENDBRANCH 104 105
ENDBRANCH  78 104
ENDBRANCH  75  78
ENDBRANCH  73  74
ENDBRANCH   1  73
TORSDOF 23
