REMARK SMILES CCN1C(=O)CC[C@H](C(=O)NCCCCNC(=O)c2ccc(-c3c4nc(c(-c5cccc(S(=O)(=O)[O-])c5F)c5ccc([nH]5)c(-c5cccc(S(=O)(=O)[O-])c5F)c5nc(c(-c6cccc(S(=O)(=O)[O-])c6F)c6ccc3[nH]6)C=C5)C=C4)cc2)[C@@H]1c1ccc(OC)cc1
REMARK SMILES IDX 14 1 13 2 12 3 11 4 9 5 10 6 8 8 3 9 4 10 82 11 5 12 6 13
REMARK SMILES IDX 7 14 2 15 1 16 83 17 84 18 90 19 85 20 89 21 86 22 87 23
REMARK SMILES IDX 88 24 15 25 16 26 17 27 18 29 19 30 20 31 81 32 21 33 80 34
REMARK SMILES IDX 22 35 23 36 24 37 74 38 25 39 79 40 73 41 75 42 26 43 78 44
REMARK SMILES IDX 72 45 71 46 27 48 59 49 39 50 58 51 40 52 43 53 57 54 76 55
REMARK SMILES IDX 41 56 42 57 56 59 77 60 44 61 28 62 29 63 37 64 30 65 32 66
REMARK SMILES IDX 38 67 31 68 33 69 34 70 35 71 36 72 60 73 61 74 69 75 62 76
REMARK SMILES IDX 64 77 70 78 63 79 65 80 66 81 67 82 68 83 45 84 46 85 54 86
REMARK SMILES IDX 47 87 49 88 55 89 48 90 50 91 51 92 52 93 53 94
REMARK H PARENT 11 7 16 28 75 47 43 58
REMARK Flexibility Score: inf
ROOT
ATOM      1  C   UNL     1      -0.914  -0.985   8.111  1.00  0.00     0.023 C 
ENDROOT
BRANCH   1   2
ATOM      2  C   UNL     1      -0.760  -1.881   6.884  1.00  0.00     0.023 C 
BRANCH   2   3
ATOM      3  C   UNL     1      -0.173  -1.182   5.670  1.00  0.00     0.116 C 
BRANCH   3   4
ATOM      4  N   UNL     1       1.253  -0.937   5.762  1.00  0.00    -0.356 N 
ATOM      5  C   UNL     1       2.221  -1.041   4.810  1.00  0.00     0.225 C 
ATOM      6  O   UNL     1       3.295  -0.471   5.029  1.00  0.00    -0.275 OA
ATOM      7  H   UNL     1       1.570  -0.651   6.649  1.00  0.00     0.163 HD
BRANCH   5   8
ATOM      8  C   UNL     1       2.039  -1.823   3.512  1.00  0.00     0.106 C 
ATOM      9  N   UNL     1       1.168  -1.903   1.143  1.00  0.00    -0.335 N 
ATOM     10  C   UNL     1       0.993  -3.282   1.219  1.00  0.00     0.223 C 
ATOM     11  C   UNL     1       1.394  -1.048   2.341  1.00  0.00     0.128 C 
ATOM     12  O   UNL     1       0.499  -3.937   0.298  1.00  0.00    -0.275 OA
ATOM     13  C   UNL     1       1.556  -4.010   2.418  1.00  0.00     0.101 C 
ATOM     14  C   UNL     1       1.504  -3.233   3.711  1.00  0.00     0.026 C 
BRANCH   9  15
ATOM     15  C   UNL     1       0.798  -1.287  -0.143  1.00  0.00     0.117 C 
ATOM     16  C   UNL     1       1.321   0.113  -0.420  1.00  0.00     0.027 C 
ENDBRANCH   9  15
BRANCH  11  17
ATOM     17  C   UNL     1       0.171  -0.197   2.680  1.00  0.00    -0.024 A 
ATOM     18  C   UNL     1      -1.144  -0.639   2.468  1.00  0.00     0.010 A 
ATOM     19  C   UNL     1       0.356   1.095   3.212  1.00  0.00     0.010 A 
ATOM     20  C   UNL     1      -2.231   0.174   2.800  1.00  0.00     0.047 A 
ATOM     21  C   UNL     1      -0.736   1.901   3.558  1.00  0.00     0.047 A 
ATOM     22  C   UNL     1      -2.033   1.431   3.370  1.00  0.00     0.118 A 
BRANCH  22  23
ATOM     23  O   UNL     1      -3.175   2.110   3.687  1.00  0.00    -0.497 OA
ATOM     24  C   UNL     1      -3.055   3.073   4.729  1.00  0.00     0.278 C 
ENDBRANCH  22  23
ENDBRANCH  11  17
ENDBRANCH   5   8
ENDBRANCH   3   4
ENDBRANCH   2   3
ENDBRANCH   1   2
BRANCH   1  25
ATOM     25  C   UNL     1      -1.617   0.352   7.876  1.00  0.00     0.116 C 
BRANCH  25  26
ATOM     26  N   UNL     1      -2.906   0.227   7.212  1.00  0.00    -0.352 N 
ATOM     27  C   UNL     1      -4.084   0.886   7.473  1.00  0.00     0.251 C 
ATOM     28  H   UNL     1      -2.939  -0.420   6.472  1.00  0.00     0.163 HD
ATOM     29  O   UNL     1      -5.106   0.574   6.872  1.00  0.00    -0.269 OA
BRANCH  27  30
ATOM     30  C   UNL     1      -4.123   1.958   8.491  1.00  0.00     0.039 A 
ATOM     31  C   UNL     1      -5.183   1.975   9.401  1.00  0.00     0.014 A 
ATOM     32  C   UNL     1      -3.126   2.937   8.556  1.00  0.00     0.014 A 
ATOM     33  C   UNL     1      -5.203   2.931  10.418  1.00  0.00     0.010 A 
ATOM     34  C   UNL     1      -3.115   3.850   9.604  1.00  0.00     0.010 A 
ATOM     35  C   UNL     1      -4.150   3.852  10.547  1.00  0.00    -0.014 A 
BRANCH  35  36
ATOM     36  C   UNL     1      -4.090   4.784  11.697  1.00  0.00     0.031 A 
ATOM     37  C   UNL     1      -4.195   6.267  11.486  1.00  0.00     0.074 A 
ATOM     38  C   UNL     1      -3.856   4.282  12.925  1.00  0.00     0.049 A 
ATOM     39  N   UNL     1      -4.151   7.227  12.371  1.00  0.00    -0.248 NA
ATOM     40  C   UNL     1      -4.345   6.737  10.098  1.00  0.00     0.031 C 
ATOM     41  C   UNL     1      -3.633   2.865  13.230  1.00  0.00     0.029 A 
ATOM     42  N   UNL     1      -3.738   4.904  14.141  1.00  0.00    -0.354 N 
ATOM     43  C   UNL     1      -4.263   8.412  11.655  1.00  0.00     0.074 A 
ATOM     44  C   UNL     1      -4.326   8.054  10.254  1.00  0.00     0.031 C 
ATOM     45  C   UNL     1      -3.401   2.729  14.545  1.00  0.00     0.029 A 
ATOM     46  C   UNL     1      -3.438   4.045  15.173  1.00  0.00     0.049 A 
ATOM     47  H   UNL     1      -3.856   5.874  14.264  1.00  0.00     0.167 HD
ATOM     48  C   UNL     1      -4.344   9.679  12.124  1.00  0.00     0.034 A 
ATOM     49  C   UNL     1      -3.212   4.293  16.477  1.00  0.00     0.034 A 
ATOM     50  C   UNL     1      -4.292  10.021  13.520  1.00  0.00     0.049 A 
ATOM     51  C   UNL     1      -3.340   5.707  16.975  1.00  0.00     0.074 A 
ATOM     52  C   UNL     1      -4.423  11.268  14.107  1.00  0.00     0.029 A 
ATOM     53  N   UNL     1      -4.086   9.115  14.549  1.00  0.00    -0.354 N 
ATOM     54  N   UNL     1      -3.610   6.798  16.300  1.00  0.00    -0.248 NA
ATOM     55  C   UNL     1      -3.178   5.920  18.420  1.00  0.00     0.031 C 
ATOM     56  C   UNL     1      -4.275  11.117  15.490  1.00  0.00     0.029 A 
ATOM     57  C   UNL     1      -4.085   9.773  15.767  1.00  0.00     0.049 A 
ATOM     58  H   UNL     1      -3.959   8.146  14.431  1.00  0.00     0.167 HD
ATOM     59  C   UNL     1      -3.688   7.818  17.240  1.00  0.00     0.074 A 
ATOM     60  C   UNL     1      -3.462   7.209  18.535  1.00  0.00     0.031 C 
ATOM     61  C   UNL     1      -3.911   9.141  17.049  1.00  0.00     0.034 A 
BRANCH  48  62
ATOM     62  C   UNL     1      -4.568  10.786  11.126  1.00  0.00     0.023 A 
ATOM     63  C   UNL     1      -5.821  10.891  10.486  1.00  0.00     0.012 A 
ATOM     64  C   UNL     1      -3.584  11.762  10.878  1.00  0.00     0.148 A 
ATOM     65  C   UNL     1      -6.081  11.931   9.595  1.00  0.00     0.002 A 
ATOM     66  C   UNL     1      -3.866  12.822  10.022  1.00  0.00     0.091 A 
ATOM     67  F   UNL     1      -2.394  11.638  11.483  1.00  0.00    -0.205 F 
ATOM     68  C   UNL     1      -5.109  12.901   9.372  1.00  0.00     0.022 A 
BRANCH  66  69
ATOM     69  S   UNL     1      -2.714  14.167   9.722  1.00  0.00     0.127 S 
ATOM     70  O   UNL     1      -2.390  13.968   8.310  1.00  0.00    -0.237 OA
ATOM     71  O   UNL     1      -3.538  15.343   9.999  1.00  0.00    -0.237 OA
ATOM     72  O   UNL     1      -1.607  13.964  10.646  1.00  0.00    -0.744 OA
ENDBRANCH  66  69
ENDBRANCH  48  62
BRANCH  49  73
ATOM     73  C   UNL     1      -2.894   3.175  17.409  1.00  0.00     0.023 A 
ATOM     74  C   UNL     1      -3.825   2.801  18.397  1.00  0.00     0.012 A 
ATOM     75  C   UNL     1      -1.677   2.472  17.312  1.00  0.00     0.148 A 
ATOM     76  C   UNL     1      -3.530   1.780  19.302  1.00  0.00     0.002 A 
ATOM     77  C   UNL     1      -1.415   1.418  18.178  1.00  0.00     0.091 A 
ATOM     78  F   UNL     1      -0.800   2.847  16.370  1.00  0.00    -0.205 F 
ATOM     79  C   UNL     1      -2.330   1.083  19.188  1.00  0.00     0.022 A 
BRANCH  77  80
ATOM     80  S   UNL     1       0.043   0.382  18.009  1.00  0.00     0.127 S 
ATOM     81  O   UNL     1       0.861   0.833  19.131  1.00  0.00    -0.237 OA
ATOM     82  O   UNL     1      -0.520  -0.961  18.155  1.00  0.00    -0.237 OA
ATOM     83  O   UNL     1       0.570   0.666  16.681  1.00  0.00    -0.744 OA
ENDBRANCH  77  80
ENDBRANCH  49  73
BRANCH  61  84
ATOM     84  C   UNL     1      -3.968  10.019  18.272  1.00  0.00     0.023 A 
ATOM     85  C   UNL     1      -2.789  10.308  18.987  1.00  0.00     0.012 A 
ATOM     86  C   UNL     1      -5.183  10.611  18.670  1.00  0.00     0.148 A 
ATOM     87  C   UNL     1      -2.825  11.142  20.104  1.00  0.00     0.002 A 
ATOM     88  C   UNL     1      -5.202  11.483  19.750  1.00  0.00     0.091 A 
ATOM     89  F   UNL     1      -6.296  10.309  17.985  1.00  0.00    -0.205 F 
ATOM     90  C   UNL     1      -4.027  11.739  20.477  1.00  0.00     0.022 A 
BRANCH  88  91
ATOM     91  S   UNL     1      -6.681  12.374  20.244  1.00  0.00     0.127 S 
ATOM     92  O   UNL     1      -7.013  11.720  21.509  1.00  0.00    -0.237 OA
ATOM     93  O   UNL     1      -6.185  13.744  20.378  1.00  0.00    -0.237 OA
ATOM     94  O   UNL     1      -7.645  12.181  19.170  1.00  0.00    -0.744 OA
ENDBRANCH  88  91
ENDBRANCH  61  84
ENDBRANCH  35  36
ENDBRANCH  27  30
ENDBRANCH  25  26
ENDBRANCH   1  25
TORSDOF 17
