REMARK SMILES O=C(NCCCCNC(=O)[C@@H](Cc1c[nH]c2ccccc12)NC(=O)c1ccc(F)cc1F)c1ccc(-c2c3nc(c(-c4cccc(S(=O)(=O)[O-])c4F)c4ccc([nH]4)c(-c4cccc(S(=O)(=O)[O-])c4F)c4nc(c(-c5cccc(S(=O)(=O)[O-])c5F)c5ccc2[nH]5)C=C4)C=C3)cc1
REMARK SMILES IDX 5 1 4 2 3 3 1 4 2 5 33 7 34 8 95 9 35 10 94 11 36 12 37 13
REMARK SMILES IDX 38 14 88 15 39 16 93 17 87 18 89 19 40 20 92 21 86 22 85 23
REMARK SMILES IDX 41 25 73 26 53 27 72 28 54 29 57 30 71 31 90 32 55 33 56 34
REMARK SMILES IDX 70 36 91 37 58 38 42 39 43 40 51 41 44 42 46 43 52 44 45 45
REMARK SMILES IDX 47 46 48 47 49 48 50 49 74 50 75 51 83 52 76 53 78 54 84 55
REMARK SMILES IDX 77 56 79 57 80 58 81 59 82 60 59 61 60 62 68 63 61 64 63 65
REMARK SMILES IDX 69 66 62 67 64 68 65 69 66 70 67 71 6 72 7 73 8 74 9 75
REMARK SMILES IDX 10 77 11 78 12 79 13 80 14 81 21 82 15 83 16 84 20 85 17 87
REMARK SMILES IDX 19 88 18 89 22 90 23 91 24 93 25 94 26 95 31 96 27 97 30 98
REMARK SMILES IDX 32 99 28 100 29 101
REMARK H PARENT 3 6 89 24 57 35 8 76 15 86 22 92
REMARK Flexibility Score: inf
ROOT
ATOM      1  C   UNL     1       4.842  -2.177   2.144  1.00  0.00     0.023 C 
ENDROOT
BRANCH   1   2
ATOM      2  C   UNL     1       4.737  -1.678  -0.025  1.00  0.00     0.116 C 
BRANCH   2   3
ATOM      3  N   UNL     1       3.367  -1.226  -0.891  1.00  0.00    -0.352 N 
ATOM      4  O   UNL     1       1.407  -0.138  -1.182  1.00  0.00    -0.269 OA
ATOM      5  C   UNL     1       2.599  -0.075  -0.894  1.00  0.00     0.251 C 
ATOM      6  H   UNL     1       3.050  -1.915  -1.519  1.00  0.00     0.163 HD
BRANCH   5   7
ATOM      7  C   UNL     1       3.209   1.216  -0.534  1.00  0.00     0.039 A 
ATOM      8  C   UNL     1       4.432   1.543  -1.112  1.00  0.00     0.014 A 
ATOM      9  C   UNL     1       2.605   2.073   0.397  1.00  0.00     0.014 A 
ATOM     10  C   UNL     1       5.106   2.677  -0.688  1.00  0.00     0.010 A 
ATOM     11  C   UNL     1       3.253   3.259   0.766  1.00  0.00     0.010 A 
ATOM     12  C   UNL     1       4.510   3.569   0.223  1.00  0.00    -0.014 A 
BRANCH  12  13
ATOM     13  C   UNL     1       5.162   4.889   0.411  1.00  0.00     0.031 A 
ATOM     14  C   UNL     1       5.775   5.320   1.709  1.00  0.00     0.074 A 
ATOM     15  C   UNL     1       5.240   5.691  -0.671  1.00  0.00     0.049 A 
ATOM     16  N   UNL     1       6.496   6.385   1.955  1.00  0.00    -0.248 NA
ATOM     17  C   UNL     1       5.553   4.461   2.880  1.00  0.00     0.031 C 
ATOM     18  C   UNL     1       4.641   5.393  -1.976  1.00  0.00     0.029 A 
ATOM     19  N   UNL     1       5.866   6.894  -0.861  1.00  0.00    -0.354 N 
ATOM     20  C   UNL     1       6.796   6.344   3.310  1.00  0.00     0.074 A 
ATOM     21  C   UNL     1       6.168   5.148   3.836  1.00  0.00     0.031 C 
ATOM     22  C   UNL     1       4.972   6.356  -2.843  1.00  0.00     0.029 A 
ATOM     23  C   UNL     1       5.742   7.375  -2.142  1.00  0.00     0.049 A 
ATOM     24  H   UNL     1       6.356   7.367  -0.150  1.00  0.00     0.167 HD
ATOM     25  C   UNL     1       7.529   7.220   4.041  1.00  0.00     0.034 A 
ATOM     26  C   UNL     1       6.180   8.520  -2.697  1.00  0.00     0.034 A 
ATOM     27  C   UNL     1       8.142   8.412   3.506  1.00  0.00     0.049 A 
ATOM     28  C   UNL     1       6.976   9.473  -1.859  1.00  0.00     0.074 A 
ATOM     29  C   UNL     1       8.955   9.326   4.156  1.00  0.00     0.029 A 
ATOM     30  N   UNL     1       7.988   8.876   2.207  1.00  0.00    -0.354 N 
ATOM     31  N   UNL     1       7.364   9.349  -0.613  1.00  0.00    -0.248 NA
ATOM     32  C   UNL     1       7.419  10.713  -2.510  1.00  0.00     0.031 C 
ATOM     33  C   UNL     1       9.243  10.369   3.269  1.00  0.00     0.029 A 
ATOM     34  C   UNL     1       8.664  10.075   2.045  1.00  0.00     0.049 A 
ATOM     35  H   UNL     1       7.473   8.419   1.503  1.00  0.00     0.167 HD
ATOM     36  C   UNL     1       8.120  10.480  -0.338  1.00  0.00     0.074 A 
ATOM     37  C   UNL     1       8.157  11.264  -1.556  1.00  0.00     0.031 C 
ATOM     38  C   UNL     1       8.722  10.839   0.823  1.00  0.00     0.034 A 
BRANCH  25  39
ATOM     39  C   UNL     1       7.715   6.928   5.511  1.00  0.00     0.023 A 
ATOM     40  C   UNL     1       8.515   5.841   5.919  1.00  0.00     0.012 A 
ATOM     41  C   UNL     1       7.148   7.769   6.490  1.00  0.00     0.148 A 
ATOM     42  C   UNL     1       8.710   5.569   7.274  1.00  0.00     0.002 A 
ATOM     43  C   UNL     1       7.386   7.521   7.837  1.00  0.00     0.091 A 
ATOM     44  F   UNL     1       6.383   8.794   6.088  1.00  0.00    -0.205 F 
ATOM     45  C   UNL     1       8.153   6.412   8.231  1.00  0.00     0.022 A 
BRANCH  43  46
ATOM     46  S   UNL     1       6.782   8.594   9.145  1.00  0.00     0.127 S 
ATOM     47  O   UNL     1       5.774   7.745   9.779  1.00  0.00    -0.237 OA
ATOM     48  O   UNL     1       7.988   8.810   9.946  1.00  0.00    -0.237 OA
ATOM     49  O   UNL     1       6.269   9.785   8.485  1.00  0.00    -0.744 OA
ENDBRANCH  43  46
ENDBRANCH  25  39
BRANCH  26  50
ATOM     50  C   UNL     1       5.876   8.809  -4.125  1.00  0.00     0.023 A 
ATOM     51  C   UNL     1       6.916   8.831  -5.072  1.00  0.00     0.012 A 
ATOM     52  C   UNL     1       4.550   9.025  -4.548  1.00  0.00     0.148 A 
ATOM     53  C   UNL     1       6.643   9.095  -6.415  1.00  0.00     0.002 A 
ATOM     54  C   UNL     1       4.278   9.225  -5.894  1.00  0.00     0.091 A 
ATOM     55  F   UNL     1       3.578   9.001  -3.625  1.00  0.00    -0.205 F 
ATOM     56  C   UNL     1       5.325   9.281  -6.827  1.00  0.00     0.022 A 
BRANCH  54  57
ATOM     57  S   UNL     1       2.604   9.342  -6.530  1.00  0.00     0.127 S 
ATOM     58  O   UNL     1       2.563  10.722  -7.006  1.00  0.00    -0.237 OA
ATOM     59  O   UNL     1       2.614   8.325  -7.583  1.00  0.00    -0.237 OA
ATOM     60  O   UNL     1       1.729   9.038  -5.406  1.00  0.00    -0.744 OA
ENDBRANCH  54  57
ENDBRANCH  26  50
BRANCH  38  61
ATOM     61  C   UNL     1       9.514  12.122   0.825  1.00  0.00     0.023 A 
ATOM     62  C   UNL     1       8.856  13.365   0.728  1.00  0.00     0.012 A 
ATOM     63  C   UNL     1      10.915  12.094   0.971  1.00  0.00     0.148 A 
ATOM     64  C   UNL     1       9.584  14.556   0.734  1.00  0.00     0.002 A 
ATOM     65  C   UNL     1      11.627  13.284   1.035  1.00  0.00     0.091 A 
ATOM     66  F   UNL     1      11.526  10.902   1.042  1.00  0.00    -0.205 F 
ATOM     67  C   UNL     1      10.966  14.516   0.900  1.00  0.00     0.022 A 
BRANCH  65  68
ATOM     68  S   UNL     1      13.396  13.336   1.344  1.00  0.00     0.127 S 
ATOM     69  O   UNL     1      13.907  13.829   0.066  1.00  0.00    -0.237 OA
ATOM     70  O   UNL     1      13.487  14.292   2.448  1.00  0.00    -0.237 OA
ATOM     71  O   UNL     1      13.787  11.975   1.686  1.00  0.00    -0.744 OA
ENDBRANCH  65  68
ENDBRANCH  38  61
ENDBRANCH  12  13
ENDBRANCH   5   7
ENDBRANCH   2   3
ENDBRANCH   1   2
BRANCH   1  72
ATOM     72  C   UNL     1       4.734  -3.435   2.057  1.00  0.00     0.023 C 
BRANCH  72  73
ATOM     73  C   UNL     1       4.684  -3.680  -0.155  1.00  0.00     0.116 C 
BRANCH  73  74
ATOM     74  N   UNL     1       5.951  -4.194  -1.111  1.00  0.00    -0.354 N 
ATOM     75  C   UNL     1       6.682  -5.355  -1.198  1.00  0.00     0.242 C 
ATOM     76  H   UNL     1       6.240  -3.512  -1.759  1.00  0.00     0.163 HD
ATOM     77  O   UNL     1       7.811  -5.241  -1.702  1.00  0.00    -0.273 OA
BRANCH  75  78
ATOM     78  C   UNL     1       6.177  -6.794  -0.850  1.00  0.00     0.176 C 
BRANCH  78  79
ATOM     79  C   UNL     1       5.602  -7.181   0.528  1.00  0.00     0.072 C 
BRANCH  79  80
ATOM     80  C   UNL     1       4.596  -6.217   0.988  1.00  0.00    -0.020 A 
ATOM     81  C   UNL     1       3.195  -6.309   1.067  1.00  0.00     0.087 A 
ATOM     82  C   UNL     1       4.950  -4.880   1.151  1.00  0.00     0.003 A 
ATOM     83  N   UNL     1       2.441  -5.112   1.183  1.00  0.00    -0.361 N 
ATOM     84  C   UNL     1       3.230  -3.974   1.134  1.00  0.00     0.046 A 
ATOM     85  C   UNL     1       6.364  -3.491   1.058  1.00  0.00     0.010 A 
ATOM     86  H   UNL     1       1.463  -5.093   1.287  1.00  0.00     0.166 HD
ATOM     87  C   UNL     1       3.118  -2.050   1.283  1.00  0.00     0.026 A 
ATOM     88  C   UNL     1       6.261  -1.559   1.168  1.00  0.00     0.001 A 
ATOM     89  C   UNL     1       4.516  -0.655   1.426  1.00  0.00     0.002 A 
ENDBRANCH  79  80
ENDBRANCH  78  79
BRANCH  78  90
ATOM     90  N   UNL     1       5.305  -7.207  -1.958  1.00  0.00    -0.340 N 
ATOM     91  C   UNL     1       5.578  -8.112  -2.955  1.00  0.00     0.254 C 
ATOM     92  H   UNL     1       4.417  -6.784  -1.989  1.00  0.00     0.164 HD
ATOM     93  O   UNL     1       4.869  -8.165  -3.954  1.00  0.00    -0.269 OA
BRANCH  91  94
ATOM     94  C   UNL     1       6.692  -9.071  -2.796  1.00  0.00     0.075 A 
ATOM     95  C   UNL     1       6.784  -9.871  -1.647  1.00  0.00     0.020 A 
ATOM     96  C   UNL     1       7.634  -9.218  -3.815  1.00  0.00     0.138 A 
ATOM     97  C   UNL     1       7.848 -10.762  -1.502  1.00  0.00     0.040 A 
ATOM     98  C   UNL     1       8.686 -10.122  -3.683  1.00  0.00     0.079 A 
ATOM     99  F   UNL     1       7.565  -8.484  -4.934  1.00  0.00    -0.206 F 
ATOM    100  C   UNL     1       8.788 -10.879  -2.522  1.00  0.00     0.126 A 
ATOM    101  F   UNL     1       9.802 -11.742  -2.382  1.00  0.00    -0.207 F 
ENDBRANCH  91  94
ENDBRANCH  78  90
ENDBRANCH  75  78
ENDBRANCH  73  74
ENDBRANCH  72  73
ENDBRANCH   1  72
TORSDOF 18
