REMARK SMILES CC(C)[C@H](NC(=O)CCC1=c2ccccc2=NC1)C(=O)NCCCCNC(=O)c1ccc(-c2c3nc(c(-c4cccc(S(=O)(=O)[O-])c4F)c4ccc([nH]4)c(-c4cccc(S(=O)(=O)[O-])c4F)c4nc(c(-c5cccc(S(=O)(=O)[O-])c5F)c5ccc2[nH]5)C=C4)C=C3)cc1
REMARK SMILES IDX 23 1 22 2 21 3 19 4 20 5 4 7 2 8 1 9 3 10 5 11 6 12 7 14
REMARK SMILES IDX 8 15 9 16 10 17 11 18 18 19 12 20 16 21 17 22 13 23 15 24
REMARK SMILES IDX 14 25 24 26 25 27 26 28 27 29 28 31 29 32 30 33 91 34 31 35
REMARK SMILES IDX 90 36 32 37 33 38 34 39 84 40 35 41 89 42 83 43 85 44 36 45
REMARK SMILES IDX 88 46 82 47 81 48 37 50 69 51 49 52 68 53 50 54 53 55 67 56
REMARK SMILES IDX 86 57 51 58 52 59 66 61 87 62 54 63 38 64 39 65 47 66 40 67
REMARK SMILES IDX 42 68 48 69 41 70 43 71 44 72 45 73 46 74 70 75 71 76 79 77
REMARK SMILES IDX 72 78 74 79 80 80 73 81 75 82 76 83 77 84 78 85 55 86 56 87
REMARK SMILES IDX 64 88 57 89 59 90 65 91 58 92 60 93 61 94 62 95 63 96
REMARK H PARENT 21 6 5 13 26 30 85 49 53 60
REMARK Flexibility Score: inf
ROOT
ATOM      1  C   UNL     1       1.345   4.961   1.507  1.00  0.00     0.023 C 
ENDROOT
BRANCH   1   2
ATOM      2  C   UNL     1       0.308   3.875   1.258  1.00  0.00     0.116 C 
BRANCH   2   3
ATOM      3  N   UNL     1      -0.442   3.914   0.022  1.00  0.00    -0.354 N 
ATOM      4  C   UNL     1      -1.191   2.939  -0.594  1.00  0.00     0.242 C 
ATOM      5  O   UNL     1      -1.894   3.327  -1.541  1.00  0.00    -0.273 OA
ATOM      6  H   UNL     1      -0.411   4.775  -0.454  1.00  0.00     0.163 HD
BRANCH   4   7
ATOM      7  C   UNL     1      -1.133   1.373  -0.276  1.00  0.00     0.173 C 
BRANCH   7   8
ATOM      8  C   UNL     1      -2.092   0.601   1.002  1.00  0.00     0.015 C 
ATOM      9  C   UNL     1      -2.165   1.071   3.209  1.00  0.00     0.010 C 
ATOM     10  C   UNL     1      -3.437   0.173  -0.054  1.00  0.00     0.010 C 
ENDBRANCH   7   8
BRANCH   7  11
ATOM     11  N   UNL     1       0.226   0.733  -0.501  1.00  0.00    -0.344 N 
ATOM     12  C   UNL     1       0.867  -0.389  -0.044  1.00  0.00     0.220 C 
ATOM     13  H   UNL     1       0.782   1.251  -1.127  1.00  0.00     0.164 HD
ATOM     14  O   UNL     1       2.086  -0.429  -0.256  1.00  0.00    -0.275 OA
BRANCH  12  15
ATOM     15  C   UNL     1       0.196  -1.603   0.648  1.00  0.00     0.104 C 
BRANCH  15  16
ATOM     16  C   UNL     1      -0.230  -1.590   2.156  1.00  0.00     0.043 C 
BRANCH  16  17
ATOM     17  C   UNL     1      -1.311  -0.593   2.455  1.00  0.00    -0.039 C 
ATOM     18  C   UNL     1      -2.899  -0.620   2.467  1.00  0.00     0.001 A 
ATOM     19  C   UNL     1      -0.694   1.274   2.142  1.00  0.00     0.174 C 
ATOM     20  C   UNL     1      -3.937  -1.532   2.840  1.00  0.00     0.010 A 
ATOM     21  C   UNL     1      -3.606   1.190   2.038  1.00  0.00     0.065 A 
ATOM     22  N   UNL     1      -2.425   2.265   1.767  1.00  0.00    -0.280 NA
ATOM     23  C   UNL     1      -5.207  -1.087   2.936  1.00  0.00     0.001 A 
ATOM     24  C   UNL     1      -5.064   1.326   2.150  1.00  0.00     0.028 A 
ATOM     25  C   UNL     1      -5.735   0.241   2.581  1.00  0.00     0.002 A 
ENDBRANCH  16  17
ENDBRANCH  15  16
ENDBRANCH  12  15
ENDBRANCH   7  11
ENDBRANCH   4   7
ENDBRANCH   2   3
ENDBRANCH   1   2
BRANCH   1  26
ATOM     26  C   UNL     1       0.829   6.302   2.006  1.00  0.00     0.023 C 
BRANCH  26  27
ATOM     27  C   UNL     1      -0.019   6.274   3.274  1.00  0.00     0.116 C 
BRANCH  27  28
ATOM     28  N   UNL     1       0.677   5.807   4.473  1.00  0.00    -0.352 N 
ATOM     29  C   UNL     1       0.877   6.463   5.674  1.00  0.00     0.251 C 
ATOM     30  H   UNL     1       1.056   4.900   4.418  1.00  0.00     0.163 HD
ATOM     31  O   UNL     1       1.516   5.939   6.580  1.00  0.00    -0.269 OA
BRANCH  29  32
ATOM     32  C   UNL     1       0.347   7.835   5.820  1.00  0.00     0.039 A 
ATOM     33  C   UNL     1      -0.987   8.085   5.507  1.00  0.00     0.014 A 
ATOM     34  C   UNL     1       1.225   8.886   6.094  1.00  0.00     0.014 A 
ATOM     35  C   UNL     1      -1.373   9.384   5.210  1.00  0.00     0.010 A 
ATOM     36  C   UNL     1       0.792  10.203   5.916  1.00  0.00     0.010 A 
ATOM     37  C   UNL     1      -0.488  10.460   5.400  1.00  0.00    -0.014 A 
BRANCH  37  38
ATOM     38  C   UNL     1      -0.933  11.839   5.063  1.00  0.00     0.031 A 
ATOM     39  C   UNL     1      -0.210  12.673   4.034  1.00  0.00     0.074 A 
ATOM     40  C   UNL     1      -2.032  12.328   5.671  1.00  0.00     0.049 A 
ATOM     41  N   UNL     1      -0.464  13.899   3.651  1.00  0.00    -0.248 NA
ATOM     42  C   UNL     1       0.942  12.065   3.346  1.00  0.00     0.031 C 
ATOM     43  C   UNL     1      -2.816  11.618   6.686  1.00  0.00     0.029 A 
ATOM     44  N   UNL     1      -2.687  13.522   5.524  1.00  0.00    -0.354 N 
ATOM     45  C   UNL     1       0.517  14.225   2.721  1.00  0.00     0.074 A 
ATOM     46  C   UNL     1       1.372  13.067   2.588  1.00  0.00     0.031 C 
ATOM     47  C   UNL     1      -3.868  12.368   7.036  1.00  0.00     0.029 A 
ATOM     48  C   UNL     1      -3.789  13.644   6.336  1.00  0.00     0.049 A 
ATOM     49  H   UNL     1      -2.396  14.225   4.898  1.00  0.00     0.167 HD
ATOM     50  C   UNL     1       0.680  15.381   2.034  1.00  0.00     0.034 A 
ATOM     51  C   UNL     1      -4.632  14.675   6.529  1.00  0.00     0.034 A 
ATOM     52  C   UNL     1      -0.203  16.513   2.131  1.00  0.00     0.049 A 
ATOM     53  C   UNL     1      -4.422  15.944   5.764  1.00  0.00     0.074 A 
ATOM     54  C   UNL     1      -0.139  17.710   1.440  1.00  0.00     0.029 A 
ATOM     55  N   UNL     1      -1.306  16.591   2.966  1.00  0.00    -0.354 N 
ATOM     56  N   UNL     1      -3.515  16.211   4.858  1.00  0.00    -0.248 NA
ATOM     57  C   UNL     1      -5.351  17.048   6.037  1.00  0.00     0.031 C 
ATOM     58  C   UNL     1      -1.193  18.520   1.870  1.00  0.00     0.029 A 
ATOM     59  C   UNL     1      -1.927  17.817   2.811  1.00  0.00     0.049 A 
ATOM     60  H   UNL     1      -1.604  15.879   3.578  1.00  0.00     0.167 HD
ATOM     61  C   UNL     1      -3.773  17.507   4.435  1.00  0.00     0.074 A 
ATOM     62  C   UNL     1      -4.930  17.968   5.177  1.00  0.00     0.031 C 
ATOM     63  C   UNL     1      -3.103  18.248   3.522  1.00  0.00     0.034 A 
BRANCH  50  64
ATOM     64  C   UNL     1       1.835  15.493   1.073  1.00  0.00     0.023 A 
ATOM     65  C   UNL     1       1.740  14.894  -0.198  1.00  0.00     0.012 A 
ATOM     66  C   UNL     1       2.947  16.304   1.377  1.00  0.00     0.148 A 
ATOM     67  C   UNL     1       2.737  15.096  -1.153  1.00  0.00     0.002 A 
ATOM     68  C   UNL     1       3.922  16.525   0.410  1.00  0.00     0.091 A 
ATOM     69  F   UNL     1       3.017  16.859   2.595  1.00  0.00    -0.205 F 
ATOM     70  C   UNL     1       3.820  15.919  -0.853  1.00  0.00     0.022 A 
BRANCH  68  71
ATOM     71  S   UNL     1       5.329  17.612   0.673  1.00  0.00     0.127 S 
ATOM     72  O   UNL     1       6.446  16.671   0.598  1.00  0.00    -0.237 OA
ATOM     73  O   UNL     1       5.225  18.527  -0.463  1.00  0.00    -0.237 OA
ATOM     74  O   UNL     1       5.127  18.227   1.977  1.00  0.00    -0.744 OA
ENDBRANCH  68  71
ENDBRANCH  50  64
BRANCH  51  75
ATOM     75  C   UNL     1      -5.761  14.509   7.481  1.00  0.00     0.023 A 
ATOM     76  C   UNL     1      -7.061  14.319   6.981  1.00  0.00     0.012 A 
ATOM     77  C   UNL     1      -5.531  14.426   8.869  1.00  0.00     0.148 A 
ATOM     78  C   UNL     1      -8.119  14.048   7.849  1.00  0.00     0.002 A 
ATOM     79  C   UNL     1      -6.579  14.113   9.723  1.00  0.00     0.091 A 
ATOM     80  F   UNL     1      -4.279  14.605   9.314  1.00  0.00    -0.205 F 
ATOM     81  C   UNL     1      -7.876  13.932   9.216  1.00  0.00     0.022 A 
BRANCH  79  82
ATOM     82  S   UNL     1      -6.345  13.830  11.481  1.00  0.00     0.127 S 
ATOM     83  O   UNL     1      -7.139  14.909  12.063  1.00  0.00    -0.237 OA
ATOM     84  O   UNL     1      -6.910  12.491  11.645  1.00  0.00    -0.237 OA
ATOM     85  O   UNL     1      -4.909  13.916  11.710  1.00  0.00    -0.744 OA
ENDBRANCH  79  82
ENDBRANCH  51  75
BRANCH  63  86
ATOM     86  C   UNL     1      -3.604  19.634   3.235  1.00  0.00     0.023 A 
ATOM     87  C   UNL     1      -3.305  20.680   4.128  1.00  0.00     0.012 A 
ATOM     88  C   UNL     1      -4.258  19.917   2.021  1.00  0.00     0.148 A 
ATOM     89  C   UNL     1      -3.655  21.993   3.817  1.00  0.00     0.002 A 
ATOM     90  C   UNL     1      -4.573  21.232   1.702  1.00  0.00     0.091 A 
ATOM     91  F   UNL     1      -4.535  18.899   1.194  1.00  0.00    -0.205 F 
ATOM     92  C   UNL     1      -4.276  22.270   2.601  1.00  0.00     0.022 A 
BRANCH  90  93
ATOM     93  S   UNL     1      -5.309  21.697   0.131  1.00  0.00     0.127 S 
ATOM     94  O   UNL     1      -6.613  22.206   0.554  1.00  0.00    -0.237 OA
ATOM     95  O   UNL     1      -4.381  22.720  -0.352  1.00  0.00    -0.237 OA
ATOM     96  O   UNL     1      -5.352  20.483  -0.673  1.00  0.00    -0.744 OA
ENDBRANCH  90  93
ENDBRANCH  63  86
ENDBRANCH  37  38
ENDBRANCH  29  32
ENDBRANCH  27  28
ENDBRANCH  26  27
ENDBRANCH   1  26
TORSDOF 19
