REMARK SMILES NS(=O)(=O)c1ccc(-c2cc(Cl)cc3c2O[C@H](C(F)(F)F)C(C(=O)NCCCCNC(=O)c2ccc(-c4c5nc(c(-c6cccc(S(=O)(=O)[O-])c6F)c6ccc([nH]6)c(-c6cccc(S(=O)(=O)[O-])c6F)c6nc(c(-c7cccc(S(=O)(=O)[O-])c7F)c7ccc4[nH]7)C=C6)C=C5)cc2)=C3)cc1
REMARK SMILES IDX 27 1 26 2 25 3 23 4 24 5 22 7 9 8 10 9 15 10 11 11 14 12
REMARK SMILES IDX 16 13 12 14 13 15 96 16 17 17 8 18 5 19 6 20 98 21 7 22
REMARK SMILES IDX 97 23 2 24 3 25 4 26 1 27 18 30 19 31 20 32 21 33 28 34
REMARK SMILES IDX 29 35 30 36 31 37 32 39 33 40 34 41 95 42 35 43 94 44 36 45
REMARK SMILES IDX 37 46 38 47 88 48 39 49 93 50 87 51 89 52 40 53 92 54 86 55
REMARK SMILES IDX 85 56 41 58 73 59 53 60 72 61 54 62 57 63 71 64 90 65 55 66
REMARK SMILES IDX 56 67 70 69 91 70 58 71 42 72 43 73 51 74 44 75 46 76 52 77
REMARK SMILES IDX 45 78 47 79 48 80 49 81 50 82 74 83 75 84 83 85 76 86 78 87
REMARK SMILES IDX 84 88 77 89 79 90 80 91 81 92 82 93 59 94 60 95 68 96 61 97
REMARK SMILES IDX 63 98 69 99 62 100 64 101 65 102 66 103 67 104
REMARK H PARENT 25 6 1 28 1 29 30 38 89 57 57 68
REMARK Flexibility Score: inf
ROOT
ATOM      1  C   UNL     1       6.652  -8.261 -11.372  1.00  0.00     0.023 C 
ENDROOT
BRANCH   1   2
ATOM      2  C   UNL     1       6.210  -6.823 -11.067  1.00  0.00     0.116 C 
BRANCH   2   3
ATOM      3  N   UNL     1       4.843  -6.821 -10.590  1.00  0.00    -0.352 N 
ATOM      4  C   UNL     1       4.343  -6.236  -9.477  1.00  0.00     0.251 C 
ATOM      5  O   UNL     1       3.441  -6.795  -8.864  1.00  0.00    -0.270 OA
ATOM      6  H   UNL     1       4.194  -7.308 -11.147  1.00  0.00     0.163 HD
BRANCH   4   7
ATOM      7  C   UNL     1       4.849  -4.879  -9.101  1.00  0.00     0.067 C 
ATOM      8  C   UNL     1       2.537  -4.285  -5.804  1.00  0.00     0.026 A 
ATOM      9  C   UNL     1       1.222  -4.693  -6.149  1.00  0.00     0.033 A 
ATOM     10  C   UNL     1       3.439  -4.126  -6.870  1.00  0.00     0.135 A 
ATOM     11  C   UNL     1       0.777  -4.746  -7.468  1.00  0.00     0.042 A 
ATOM     12  C   UNL     1       2.941  -4.071  -8.195  1.00  0.00     0.019 A 
ATOM     13  O   UNL     1       4.815  -4.078  -6.698  1.00  0.00    -0.475 OA
ATOM     14  Cl  UNL     1      -0.829  -5.255  -7.803  1.00  0.00    -0.084 Cl
ATOM     15  C   UNL     1       1.613  -4.357  -8.496  1.00  0.00     0.032 A 
ATOM     16  C   UNL     1       3.924  -3.916  -9.292  1.00  0.00     0.025 C 
ATOM     17  C   UNL     1       5.562  -4.834  -7.752  1.00  0.00     0.314 C 
BRANCH   8  18
ATOM     18  C   UNL     1       2.692  -3.830  -4.397  1.00  0.00    -0.015 A 
ATOM     19  C   UNL     1       1.771  -2.643  -2.005  1.00  0.00     0.082 A 
ATOM     20  C   UNL     1       1.735  -4.031  -2.150  1.00  0.00     0.022 A 
ATOM     21  C   UNL     1       2.390  -1.855  -2.976  1.00  0.00     0.022 A 
ATOM     22  C   UNL     1       2.211  -4.620  -3.330  1.00  0.00     0.010 A 
ATOM     23  C   UNL     1       2.860  -2.451  -4.157  1.00  0.00     0.010 A 
BRANCH  19  24
ATOM     24  S   UNL     1       0.912  -1.923  -0.634  1.00  0.00     0.238 S 
ATOM     25  O   UNL     1       1.354  -2.570   0.583  1.00  0.00    -0.207 OA
ATOM     26  O   UNL     1      -0.480  -1.792  -0.981  1.00  0.00    -0.207 OA
BRANCH  24  27
ATOM     27  N   UNL     1       1.493  -0.348  -0.521  1.00  0.00    -0.225 NA
ATOM     28  H   UNL     1       1.036   0.128   0.256  1.00  0.00     0.137 HD
ATOM     29  H   UNL     1       1.296   0.150  -1.389  1.00  0.00     0.137 HD
ENDBRANCH  24  27
ENDBRANCH  19  24
ENDBRANCH   8  18
BRANCH  17  30
ATOM     30  C   UNL     1       6.979  -4.259  -7.967  1.00  0.00     0.429 C 
ATOM     31  F   UNL     1       7.145  -3.046  -7.394  1.00  0.00    -0.167 F 
ATOM     32  F   UNL     1       7.926  -5.083  -7.454  1.00  0.00    -0.167 F 
ATOM     33  F   UNL     1       7.288  -4.106  -9.283  1.00  0.00    -0.167 F 
ENDBRANCH  17  30
ENDBRANCH   4   7
ENDBRANCH   2   3
ENDBRANCH   1   2
BRANCH   1  34
ATOM     34  C   UNL     1       5.831  -8.982 -12.451  1.00  0.00     0.023 C 
BRANCH  34  35
ATOM     35  C   UNL     1       5.761  -8.261 -13.792  1.00  0.00     0.116 C 
BRANCH  35  36
ATOM     36  N   UNL     1       7.064  -8.176 -14.432  1.00  0.00    -0.352 N 
ATOM     37  C   UNL     1       7.443  -8.616 -15.678  1.00  0.00     0.251 C 
ATOM     38  H   UNL     1       7.772  -7.745 -13.900  1.00  0.00     0.163 HD
ATOM     39  O   UNL     1       8.631  -8.637 -15.987  1.00  0.00    -0.269 OA
BRANCH  37  40
ATOM     40  C   UNL     1       6.415  -9.082 -16.635  1.00  0.00     0.039 A 
ATOM     41  C   UNL     1       6.614 -10.286 -17.314  1.00  0.00     0.014 A 
ATOM     42  C   UNL     1       5.251  -8.339 -16.846  1.00  0.00     0.014 A 
ATOM     43  C   UNL     1       5.614 -10.780 -18.157  1.00  0.00     0.010 A 
ATOM     44  C   UNL     1       4.226  -8.869 -17.626  1.00  0.00     0.010 A 
ATOM     45  C   UNL     1       4.396 -10.093 -18.292  1.00  0.00    -0.014 A 
BRANCH  45  46
ATOM     46  C   UNL     1       3.281 -10.637 -19.112  1.00  0.00     0.031 A 
ATOM     47  C   UNL     1       2.776  -9.870 -20.306  1.00  0.00     0.074 A 
ATOM     48  C   UNL     1       2.656 -11.768 -18.724  1.00  0.00     0.049 A 
ATOM     49  N   UNL     1       1.763 -10.136 -21.088  1.00  0.00    -0.248 NA
ATOM     50  C   UNL     1       3.485  -8.625 -20.649  1.00  0.00     0.031 C 
ATOM     51  C   UNL     1       3.003 -12.568 -17.548  1.00  0.00     0.029 A 
ATOM     52  N   UNL     1       1.575 -12.424 -19.261  1.00  0.00    -0.354 N 
ATOM     53  C   UNL     1       1.681  -9.074 -21.981  1.00  0.00     0.074 A 
ATOM     54  C   UNL     1       2.735  -8.147 -21.632  1.00  0.00     0.031 C 
ATOM     55  C   UNL     1       2.157 -13.607 -17.455  1.00  0.00     0.029 A 
ATOM     56  C   UNL     1       1.185 -13.530 -18.540  1.00  0.00     0.049 A 
ATOM     57  H   UNL     1       1.122 -12.131 -20.085  1.00  0.00     0.167 HD
ATOM     58  C   UNL     1       0.820  -8.896 -23.010  1.00  0.00     0.034 A 
ATOM     59  C   UNL     1       0.154 -14.379 -18.725  1.00  0.00     0.034 A 
ATOM     60  C   UNL     1      -0.190  -9.846 -23.390  1.00  0.00     0.049 A 
ATOM     61  C   UNL     1      -0.764 -14.171 -19.901  1.00  0.00     0.074 A 
ATOM     62  C   UNL     1      -1.035  -9.807 -24.485  1.00  0.00     0.029 A 
ATOM     63  N   UNL     1      -0.500 -10.996 -22.684  1.00  0.00    -0.354 N 
ATOM     64  N   UNL     1      -0.717 -13.251 -20.833  1.00  0.00    -0.248 NA
ATOM     65  C   UNL     1      -1.860 -15.138 -20.069  1.00  0.00     0.031 C 
ATOM     66  C   UNL     1      -1.881 -10.918 -24.423  1.00  0.00     0.029 A 
ATOM     67  C   UNL     1      -1.537 -11.668 -23.309  1.00  0.00     0.049 A 
ATOM     68  H   UNL     1      -0.050 -11.293 -21.860  1.00  0.00     0.167 HD
ATOM     69  C   UNL     1      -1.742 -13.556 -21.722  1.00  0.00     0.074 A 
ATOM     70  C   UNL     1      -2.385 -14.754 -21.225  1.00  0.00     0.031 C 
ATOM     71  C   UNL     1      -2.124 -12.896 -22.843  1.00  0.00     0.034 A 
BRANCH  58  72
ATOM     72  C   UNL     1       0.951  -7.642 -23.836  1.00  0.00     0.023 A 
ATOM     73  C   UNL     1       2.043  -7.493 -24.714  1.00  0.00     0.012 A 
ATOM     74  C   UNL     1      -0.053  -6.654 -23.805  1.00  0.00     0.148 A 
ATOM     75  C   UNL     1       2.149  -6.367 -25.529  1.00  0.00     0.002 A 
ATOM     76  C   UNL     1       0.035  -5.558 -24.654  1.00  0.00     0.091 A 
ATOM     77  F   UNL     1      -1.073  -6.806 -22.949  1.00  0.00    -0.205 F 
ATOM     78  C   UNL     1       1.140  -5.407 -25.508  1.00  0.00     0.022 A 
BRANCH  76  79
ATOM     79  S   UNL     1      -1.252  -4.309 -24.765  1.00  0.00     0.127 S 
ATOM     80  O   UNL     1      -0.579  -3.142 -24.195  1.00  0.00    -0.237 OA
ATOM     81  O   UNL     1      -1.484  -4.236 -26.207  1.00  0.00    -0.237 OA
ATOM     82  O   UNL     1      -2.375  -4.818 -23.991  1.00  0.00    -0.744 OA
ENDBRANCH  76  79
ENDBRANCH  58  72
BRANCH  59  83
ATOM     83  C   UNL     1      -0.039 -15.544 -17.814  1.00  0.00     0.023 A 
ATOM     84  C   UNL     1       0.164 -16.847 -18.311  1.00  0.00     0.012 A 
ATOM     85  C   UNL     1      -0.426 -15.376 -16.471  1.00  0.00     0.148 A 
ATOM     86  C   UNL     1      -0.058 -17.962 -17.502  1.00  0.00     0.002 A 
ATOM     87  C   UNL     1      -0.590 -16.489 -15.654  1.00  0.00     0.091 A 
ATOM     88  F   UNL     1      -0.627 -14.131 -16.018  1.00  0.00    -0.205 F 
ATOM     89  C   UNL     1      -0.426 -17.783 -16.172  1.00  0.00     0.022 A 
BRANCH  87  90
ATOM     90  S   UNL     1      -0.940 -16.350 -13.897  1.00  0.00     0.127 S 
ATOM     91  O   UNL     1      -2.332 -16.786 -13.834  1.00  0.00    -0.237 OA
ATOM     92  O   UNL     1       0.027 -17.286 -13.321  1.00  0.00    -0.237 OA
ATOM     93  O   UNL     1      -0.695 -14.954 -13.560  1.00  0.00    -0.744 OA
ENDBRANCH  87  90
ENDBRANCH  59  83
BRANCH  71  94
ATOM     94  C   UNL     1      -3.252 -13.478 -23.654  1.00  0.00     0.023 A 
ATOM     95  C   UNL     1      -4.575 -13.409 -23.175  1.00  0.00     0.012 A 
ATOM     96  C   UNL     1      -3.007 -14.013 -24.934  1.00  0.00     0.148 A 
ATOM     97  C   UNL     1      -5.633 -13.892 -23.945  1.00  0.00     0.002 A 
ATOM     98  C   UNL     1      -4.070 -14.443 -25.718  1.00  0.00     0.091 A 
ATOM     99  F   UNL     1      -1.738 -14.085 -25.364  1.00  0.00    -0.205 F 
ATOM    100  C   UNL     1      -5.382 -14.396 -25.220  1.00  0.00     0.022 A 
BRANCH  98 101
ATOM    101  S   UNL     1      -3.854 -15.009 -27.409  1.00  0.00     0.127 S 
ATOM    102  O   UNL     1      -4.121 -16.441 -27.280  1.00  0.00    -0.237 OA
ATOM    103  O   UNL     1      -4.888 -14.257 -28.121  1.00  0.00    -0.237 OA
ATOM    104  O   UNL     1      -2.489 -14.660 -27.779  1.00  0.00    -0.744 OA
ENDBRANCH  98 101
ENDBRANCH  71  94
ENDBRANCH  45  46
ENDBRANCH  37  40
ENDBRANCH  35  36
ENDBRANCH  34  35
ENDBRANCH   1  34
TORSDOF 18
