REMARK SMILES O=C(NCCCCNC(=O)[C@@H]1CCCN1C(=O)[C@@H]1CCCN1C(=O)OCC1c2ccccc2-c2ccccc21)c1ccc(-c2c3nc(c(-c4cccc(S(=O)(=O)[O-])c4F)c4ccc([nH]4)c(-c4cccc(S(=O)(=O)[O-])c4F)c4nc(c(-c5cccc(S(=O)(=O)[O-])c5F)c5ccc2[nH]5)C=C4)C=C3)cc1
REMARK SMILES IDX 7 1 6 2 5 3 4 4 3 5 1 6 2 7 40 9 41 10 102 11 42 12 101 13
REMARK SMILES IDX 43 14 44 15 45 16 95 17 46 18 100 19 94 20 96 21 47 22 99 23
REMARK SMILES IDX 93 24 92 25 48 27 80 28 60 29 79 30 61 31 64 32 78 33 97 34
REMARK SMILES IDX 62 35 63 36 77 38 98 39 65 40 49 41 50 42 58 43 51 44 53 45
REMARK SMILES IDX 59 46 52 47 54 48 55 49 56 50 57 51 81 52 82 53 90 54 83 55
REMARK SMILES IDX 85 56 91 57 84 58 86 59 87 60 88 61 89 62 66 63 67 64 75 65
REMARK SMILES IDX 68 66 70 67 76 68 69 69 71 70 72 71 73 72 74 73 8 74 9 75
REMARK SMILES IDX 10 77 11 78 12 79 15 80 13 81 14 82 16 83 17 84 18 85 19 86
REMARK SMILES IDX 22 87 20 88 21 89 23 90 24 91 25 92 26 93 27 94 28 95 39 96
REMARK SMILES IDX 29 97 33 98 34 99 38 100 30 101 32 102 35 103 37 104 31 105
REMARK SMILES IDX 36 106
REMARK H PARENT 3 8 96 26 64 37 8 76
REMARK Flexibility Score: inf
ROOT
ATOM      1  C   UNL     1       5.505  -2.573   3.334  1.00  0.00     0.116 C 
ENDROOT
BRANCH   1   2
ATOM      2  C   UNL     1       4.994  -1.135   3.416  1.00  0.00     0.023 C 
BRANCH   2   3
ATOM      3  C   UNL     1       5.380  -0.210   2.260  1.00  0.00     0.023 C 
BRANCH   3   4
ATOM      4  C   UNL     1       4.989  -0.688   0.866  1.00  0.00     0.116 C 
BRANCH   4   5
ATOM      5  N   UNL     1       3.554  -0.834   0.689  1.00  0.00    -0.352 N 
ATOM      6  O   UNL     1       1.459  -0.257   0.092  1.00  0.00    -0.269 OA
ATOM      7  C   UNL     1       2.666  -0.075  -0.038  1.00  0.00     0.251 C 
ATOM      8  H   UNL     1       3.153  -1.596   1.165  1.00  0.00     0.163 HD
BRANCH   7   9
ATOM      9  C   UNL     1       3.163   0.975  -0.956  1.00  0.00     0.039 A 
ATOM     10  C   UNL     1       4.215   0.716  -1.839  1.00  0.00     0.014 A 
ATOM     11  C   UNL     1       2.555   2.233  -0.944  1.00  0.00     0.014 A 
ATOM     12  C   UNL     1       4.763   1.753  -2.589  1.00  0.00     0.010 A 
ATOM     13  C   UNL     1       3.058   3.254  -1.756  1.00  0.00     0.010 A 
ATOM     14  C   UNL     1       4.194   3.035  -2.551  1.00  0.00    -0.014 A 
BRANCH  14  15
ATOM     15  C   UNL     1       4.773   4.134  -3.366  1.00  0.00     0.031 A 
ATOM     16  C   UNL     1       5.371   5.346  -2.706  1.00  0.00     0.074 A 
ATOM     17  C   UNL     1       4.728   4.051  -4.709  1.00  0.00     0.049 A 
ATOM     18  N   UNL     1       5.867   6.424  -3.257  1.00  0.00    -0.248 NA
ATOM     19  C   UNL     1       5.410   5.355  -1.235  1.00  0.00     0.031 C 
ATOM     20  C   UNL     1       4.144   2.940  -5.462  1.00  0.00     0.029 A 
ATOM     21  N   UNL     1       5.158   4.922  -5.678  1.00  0.00    -0.354 N 
ATOM     22  C   UNL     1       6.231   7.258  -2.207  1.00  0.00     0.074 A 
ATOM     23  C   UNL     1       5.898   6.562  -0.983  1.00  0.00     0.031 C 
ATOM     24  C   UNL     1       4.243   3.198  -6.773  1.00  0.00     0.029 A 
ATOM     25  C   UNL     1       4.854   4.511  -6.955  1.00  0.00     0.049 A 
ATOM     26  H   UNL     1       5.637   5.758  -5.479  1.00  0.00     0.167 HD
ATOM     27  C   UNL     1       6.802   8.486  -2.258  1.00  0.00     0.034 A 
ATOM     28  C   UNL     1       5.017   5.131  -8.139  1.00  0.00     0.034 A 
ATOM     29  C   UNL     1       7.168   9.154  -3.478  1.00  0.00     0.049 A 
ATOM     30  C   UNL     1       5.676   6.480  -8.173  1.00  0.00     0.074 A 
ATOM     31  C   UNL     1       7.817  10.367  -3.634  1.00  0.00     0.029 A 
ATOM     32  N   UNL     1       6.912   8.671  -4.753  1.00  0.00    -0.354 N 
ATOM     33  N   UNL     1       6.127   7.198  -7.173  1.00  0.00    -0.248 NA
ATOM     34  C   UNL     1       5.878   7.092  -9.493  1.00  0.00     0.031 C 
ATOM     35  C   UNL     1       7.938  10.625  -5.003  1.00  0.00     0.029 A 
ATOM     36  C   UNL     1       7.382   9.564  -5.701  1.00  0.00     0.049 A 
ATOM     37  H   UNL     1       6.463   7.819  -4.954  1.00  0.00     0.167 HD
ATOM     38  C   UNL     1       6.692   8.333  -7.742  1.00  0.00     0.074 A 
ATOM     39  C   UNL     1       6.538   8.200  -9.177  1.00  0.00     0.031 C 
ATOM     40  C   UNL     1       7.273   9.392  -7.128  1.00  0.00     0.034 A 
BRANCH  27  41
ATOM     41  C   UNL     1       7.098   9.174  -0.951  1.00  0.00     0.023 A 
ATOM     42  C   UNL     1       8.171   8.725  -0.155  1.00  0.00     0.012 A 
ATOM     43  C   UNL     1       6.350  10.292  -0.533  1.00  0.00     0.148 A 
ATOM     44  C   UNL     1       8.471   9.354   1.054  1.00  0.00     0.002 A 
ATOM     45  C   UNL     1       6.679  10.937   0.655  1.00  0.00     0.091 A 
ATOM     46  F   UNL     1       5.316  10.693  -1.288  1.00  0.00    -0.205 F 
ATOM     47  C   UNL     1       7.732  10.465   1.454  1.00  0.00     0.022 A 
BRANCH  45  48
ATOM     48  S   UNL     1       5.822  12.418   1.204  1.00  0.00     0.127 S 
ATOM     49  O   UNL     1       4.875  11.870   2.173  1.00  0.00    -0.237 OA
ATOM     50  O   UNL     1       6.903  13.210   1.792  1.00  0.00    -0.237 OA
ATOM     51  O   UNL     1       5.239  13.000   0.003  1.00  0.00    -0.744 OA
ENDBRANCH  45  48
ENDBRANCH  27  41
BRANCH  28  52
ATOM     52  C   UNL     1       4.578   4.439  -9.382  1.00  0.00     0.023 A 
ATOM     53  C   UNL     1       5.542   3.906 -10.257  1.00  0.00     0.012 A 
ATOM     54  C   UNL     1       3.210   4.218  -9.644  1.00  0.00     0.148 A 
ATOM     55  C   UNL     1       5.152   3.168 -11.376  1.00  0.00     0.002 A 
ATOM     56  C   UNL     1       2.832   3.435 -10.727  1.00  0.00     0.091 A 
ATOM     57  F   UNL     1       2.310   4.746  -8.803  1.00  0.00    -0.205 F 
ATOM     58  C   UNL     1       3.801   2.920 -11.602  1.00  0.00     0.022 A 
BRANCH  56  59
ATOM     59  S   UNL     1       1.128   2.938 -11.009  1.00  0.00     0.127 S 
ATOM     60  O   UNL     1       0.796   3.684 -12.220  1.00  0.00    -0.237 OA
ATOM     61  O   UNL     1       1.263   1.492 -11.193  1.00  0.00    -0.237 OA
ATOM     62  O   UNL     1       0.401   3.326  -9.809  1.00  0.00    -0.744 OA
ENDBRANCH  56  59
ENDBRANCH  28  52
BRANCH  40  63
ATOM     63  C   UNL     1       7.825  10.490  -7.997  1.00  0.00     0.023 A 
ATOM     64  C   UNL     1       6.946  11.414  -8.595  1.00  0.00     0.012 A 
ATOM     65  C   UNL     1       9.216  10.668  -8.129  1.00  0.00     0.148 A 
ATOM     66  C   UNL     1       7.445  12.492  -9.325  1.00  0.00     0.002 A 
ATOM     67  C   UNL     1       9.706  11.768  -8.822  1.00  0.00     0.091 A 
ATOM     68  F   UNL     1      10.031   9.764  -7.567  1.00  0.00    -0.205 F 
ATOM     69  C   UNL     1       8.823  12.676  -9.427  1.00  0.00     0.022 A 
BRANCH  67  70
ATOM     70  S   UNL     1      11.461  12.136  -8.928  1.00  0.00     0.127 S 
ATOM     71  O   UNL     1      11.746  11.831 -10.329  1.00  0.00    -0.237 OA
ATOM     72  O   UNL     1      11.501  13.559  -8.592  1.00  0.00    -0.237 OA
ATOM     73  O   UNL     1      12.113  11.268  -7.955  1.00  0.00    -0.744 OA
ENDBRANCH  67  70
ENDBRANCH  40  63
ENDBRANCH  14  15
ENDBRANCH   7   9
ENDBRANCH   4   5
ENDBRANCH   3   4
ENDBRANCH   2   3
ENDBRANCH   1   2
BRANCH   1  74
ATOM     74  N   UNL     1       6.954  -2.665   3.336  1.00  0.00    -0.354 N 
ATOM     75  C   UNL     1       7.738  -3.732   3.686  1.00  0.00     0.242 C 
ATOM     76  H   UNL     1       7.435  -1.855   3.050  1.00  0.00     0.163 HD
ATOM     77  O   UNL     1       8.958  -3.623   3.545  1.00  0.00    -0.273 OA
BRANCH  75  78
ATOM     78  C   UNL     1       7.097  -4.968   4.342  1.00  0.00     0.174 C 
ATOM     79  C   UNL     1       7.336  -4.794   5.854  1.00  0.00     0.037 C 
ATOM     80  N   UNL     1       7.712  -6.270   4.047  1.00  0.00    -0.329 N 
ATOM     81  C   UNL     1       7.474  -6.194   6.418  1.00  0.00     0.024 C 
ATOM     82  C   UNL     1       7.920  -7.047   5.254  1.00  0.00     0.120 C 
BRANCH  80  83
ATOM     83  C   UNL     1       7.832  -6.942   2.854  1.00  0.00     0.246 C 
ATOM     84  O   UNL     1       8.318  -8.086   2.846  1.00  0.00    -0.272 OA
BRANCH  83  85
ATOM     85  C   UNL     1       7.562  -6.293   1.489  1.00  0.00     0.178 C 
ATOM     86  C   UNL     1       8.799  -5.537   0.972  1.00  0.00     0.037 C 
ATOM     87  N   UNL     1       6.442  -5.403   1.233  1.00  0.00    -0.296 N 
ATOM     88  C   UNL     1       8.273  -4.266   0.304  1.00  0.00     0.024 C 
ATOM     89  C   UNL     1       6.785  -4.500   0.157  1.00  0.00     0.124 C 
BRANCH  87  90
ATOM     90  C   UNL     1       5.135  -5.814   1.372  1.00  0.00     0.410 C 
ATOM     91  O   UNL     1       4.234  -5.452   0.623  1.00  0.00    -0.224 OA
BRANCH  90  92
ATOM     92  O   UNL     1       4.965  -6.651   2.426  1.00  0.00    -0.448 OA
BRANCH  92  93
ATOM     93  C   UNL     1       3.675  -7.274   2.568  1.00  0.00     0.248 C 
BRANCH  93  94
ATOM     94  C   UNL     1       2.679  -6.559   3.499  1.00  0.00     0.088 C 
ATOM     95  C   UNL     1       3.159  -6.262   4.917  1.00  0.00    -0.029 A 
ATOM     96  C   UNL     1       2.171  -5.196   3.051  1.00  0.00    -0.029 A 
ATOM     97  C   UNL     1       3.649  -7.138   5.872  1.00  0.00     0.005 A 
ATOM     98  C   UNL     1       2.925  -4.904   5.232  1.00  0.00    -0.014 A 
ATOM     99  C   UNL     1       2.302  -4.258   4.098  1.00  0.00    -0.014 A 
ATOM    100  C   UNL     1       1.562  -4.850   1.855  1.00  0.00     0.005 A 
ATOM    101  C   UNL     1       3.928  -6.635   7.146  1.00  0.00     0.000 A 
ATOM    102  C   UNL     1       3.245  -4.397   6.482  1.00  0.00     0.009 A 
ATOM    103  C   UNL     1       1.819  -2.968   3.954  1.00  0.00     0.009 A 
ATOM    104  C   UNL     1       1.096  -3.544   1.703  1.00  0.00     0.000 A 
ATOM    105  C   UNL     1       3.752  -5.273   7.443  1.00  0.00     0.001 A 
ATOM    106  C   UNL     1       1.216  -2.613   2.746  1.00  0.00     0.001 A 
ENDBRANCH  93  94
ENDBRANCH  92  93
ENDBRANCH  90  92
ENDBRANCH  87  90
ENDBRANCH  83  85
ENDBRANCH  80  83
ENDBRANCH  75  78
ENDBRANCH   1  74
TORSDOF 20
