REMARK SMILES O=C(NCCCCNC(=O)[C@H](C[NH+]1CCCC1)c1ccc(Br)cc1)c1ccc(-c2c3nc(c(-c4cccc(S(=O)(=O)[O-])c4F)c4ccc([nH]4)c(-c4cccc(S(=O)(=O)[O-])c4F)c4nc(c(-c5cccc(S(=O)(=O)[O-])c5F)c5ccc2[nH]5)C=C4)C=C3)cc1
REMARK SMILES IDX 5 1 4 2 3 3 1 4 2 5 25 7 26 8 87 9 27 10 86 11 28 12 29 13
REMARK SMILES IDX 30 14 80 15 31 16 85 17 79 18 81 19 32 20 84 21 78 22 77 23
REMARK SMILES IDX 33 25 65 26 45 27 64 28 46 29 49 30 63 31 82 32 47 33 48 34
REMARK SMILES IDX 62 36 83 37 50 38 34 39 35 40 43 41 36 42 38 43 44 44 37 45
REMARK SMILES IDX 39 46 40 47 41 48 42 49 66 50 67 51 75 52 68 53 70 54 76 55
REMARK SMILES IDX 69 56 71 57 72 58 73 59 74 60 51 61 52 62 60 63 53 64 55 65
REMARK SMILES IDX 61 66 54 67 56 68 57 69 58 70 59 71 6 72 7 73 8 74 9 75
REMARK SMILES IDX 10 77 11 78 18 79 19 80 24 81 20 82 23 83 21 84 22 85 12 86
REMARK SMILES IDX 13 87 14 88 17 89 15 91 16 92
REMARK H PARENT 3 6 81 24 49 35 8 76 13 90
REMARK Flexibility Score: inf
ROOT
ATOM      1  C   UNL     1       7.702   8.154  -0.156  1.00  0.00     0.023 C 
ENDROOT
BRANCH   1   2
ATOM      2  C   UNL     1       7.789   9.672  -0.126  1.00  0.00     0.116 C 
BRANCH   2   3
ATOM      3  N   UNL     1       9.100  10.171   0.255  1.00  0.00    -0.352 N 
ATOM      4  O   UNL     1      10.844  11.604   0.169  1.00  0.00    -0.269 OA
ATOM      5  C   UNL     1       9.694  11.352  -0.139  1.00  0.00     0.251 C 
ATOM      6  H   UNL     1       9.624   9.600   0.862  1.00  0.00     0.163 HD
BRANCH   5   7
ATOM      7  C   UNL     1       8.903  12.280  -0.979  1.00  0.00     0.039 A 
ATOM      8  C   UNL     1       7.615  12.652  -0.590  1.00  0.00     0.014 A 
ATOM      9  C   UNL     1       9.440  12.729  -2.187  1.00  0.00     0.014 A 
ATOM     10  C   UNL     1       6.815  13.376  -1.465  1.00  0.00     0.010 A 
ATOM     11  C   UNL     1       8.660  13.522  -3.032  1.00  0.00     0.010 A 
ATOM     12  C   UNL     1       7.336  13.834  -2.686  1.00  0.00    -0.014 A 
BRANCH  12  13
ATOM     13  C   UNL     1       6.518  14.745  -3.523  1.00  0.00     0.031 A 
ATOM     14  C   UNL     1       6.040  14.348  -4.890  1.00  0.00     0.074 A 
ATOM     15  C   UNL     1       6.233  15.964  -3.026  1.00  0.00     0.049 A 
ATOM     16  N   UNL     1       5.316  15.037  -5.733  1.00  0.00    -0.248 NA
ATOM     17  C   UNL     1       6.424  13.015  -5.383  1.00  0.00     0.031 C 
ATOM     18  C   UNL     1       6.698  16.471  -1.731  1.00  0.00     0.029 A 
ATOM     19  N   UNL     1       5.503  17.001  -3.544  1.00  0.00    -0.354 N 
ATOM     20  C   UNL     1       5.192  14.248  -6.869  1.00  0.00     0.074 A 
ATOM     21  C   UNL     1       5.910  13.018  -6.607  1.00  0.00     0.031 C 
ATOM     22  C   UNL     1       6.236  17.715  -1.552  1.00  0.00     0.029 A 
ATOM     23  C   UNL     1       5.487  18.114  -2.737  1.00  0.00     0.049 A 
ATOM     24  H   UNL     1       5.035  16.954  -4.409  1.00  0.00     0.167 HD
ATOM     25  C   UNL     1       4.529  14.524  -8.018  1.00  0.00     0.034 A 
ATOM     26  C   UNL     1       4.954  19.334  -2.936  1.00  0.00     0.034 A 
ATOM     27  C   UNL     1       3.777  15.732  -8.245  1.00  0.00     0.049 A 
ATOM     28  C   UNL     1       4.204  19.593  -4.209  1.00  0.00     0.074 A 
ATOM     29  C   UNL     1       2.980  16.054  -9.330  1.00  0.00     0.029 A 
ATOM     30  N   UNL     1       3.743  16.819  -7.387  1.00  0.00    -0.354 N 
ATOM     31  N   UNL     1       3.954  18.770  -5.198  1.00  0.00    -0.248 NA
ATOM     32  C   UNL     1       3.645  20.940  -4.386  1.00  0.00     0.031 C 
ATOM     33  C   UNL     1       2.482  17.348  -9.138  1.00  0.00     0.029 A 
ATOM     34  C   UNL     1       2.960  17.825  -7.929  1.00  0.00     0.049 A 
ATOM     35  H   UNL     1       4.206  16.870  -6.520  1.00  0.00     0.167 HD
ATOM     36  C   UNL     1       3.203  19.495  -6.112  1.00  0.00     0.074 A 
ATOM     37  C   UNL     1       3.003  20.811  -5.540  1.00  0.00     0.031 C 
ATOM     38  C   UNL     1       2.743  19.116  -7.329  1.00  0.00     0.034 A 
BRANCH  25  39
ATOM     39  C   UNL     1       4.534  13.495  -9.116  1.00  0.00     0.023 A 
ATOM     40  C   UNL     1       3.689  12.372  -9.018  1.00  0.00     0.012 A 
ATOM     41  C   UNL     1       5.276  13.704 -10.296  1.00  0.00     0.148 A 
ATOM     42  C   UNL     1       3.587  11.467 -10.075  1.00  0.00     0.002 A 
ATOM     43  C   UNL     1       5.145  12.815 -11.358  1.00  0.00     0.091 A 
ATOM     44  F   UNL     1       6.086  14.770 -10.361  1.00  0.00    -0.205 F 
ATOM     45  C   UNL     1       4.304  11.695 -11.247  1.00  0.00     0.022 A 
BRANCH  43  46
ATOM     46  S   UNL     1       5.971  13.053 -12.936  1.00  0.00     0.127 S 
ATOM     47  O   UNL     1       6.931  11.950 -12.934  1.00  0.00    -0.237 OA
ATOM     48  O   UNL     1       4.869  12.901 -13.886  1.00  0.00    -0.237 OA
ATOM     49  O   UNL     1       6.555  14.386 -12.887  1.00  0.00    -0.744 OA
ENDBRANCH  43  46
ENDBRANCH  25  39
BRANCH  26  50
ATOM     50  C   UNL     1       5.099  20.382  -1.889  1.00  0.00     0.023 A 
ATOM     51  C   UNL     1       3.970  20.798  -1.161  1.00  0.00     0.012 A 
ATOM     52  C   UNL     1       6.359  20.927  -1.574  1.00  0.00     0.148 A 
ATOM     53  C   UNL     1       4.089  21.753  -0.151  1.00  0.00     0.002 A 
ATOM     54  C   UNL     1       6.481  21.831  -0.526  1.00  0.00     0.091 A 
ATOM     55  F   UNL     1       7.423  20.539  -2.292  1.00  0.00    -0.205 F 
ATOM     56  C   UNL     1       5.345  22.259   0.176  1.00  0.00     0.022 A 
BRANCH  54  57
ATOM     57  S   UNL     1       8.091  22.388   0.042  1.00  0.00     0.127 S 
ATOM     58  O   UNL     1       8.251  23.644  -0.685  1.00  0.00    -0.237 OA
ATOM     59  O   UNL     1       7.884  22.533   1.484  1.00  0.00    -0.237 OA
ATOM     60  O   UNL     1       9.006  21.312  -0.317  1.00  0.00    -0.744 OA
ENDBRANCH  54  57
ENDBRANCH  26  50
BRANCH  38  61
ATOM     61  C   UNL     1       1.989  20.143  -8.128  1.00  0.00     0.023 A 
ATOM     62  C   UNL     1       2.700  21.194  -8.741  1.00  0.00     0.012 A 
ATOM     63  C   UNL     1       0.598  20.043  -8.316  1.00  0.00     0.148 A 
ATOM     64  C   UNL     1       2.033  22.147  -9.508  1.00  0.00     0.002 A 
ATOM     65  C   UNL     1      -0.054  20.973  -9.117  1.00  0.00     0.091 A 
ATOM     66  F   UNL     1      -0.061  19.048  -7.706  1.00  0.00    -0.205 F 
ATOM     67  C   UNL     1       0.659  22.031  -9.704  1.00  0.00     0.022 A 
BRANCH  65  68
ATOM     68  S   UNL     1      -1.807  20.852  -9.493  1.00  0.00     0.127 S 
ATOM     69  O   UNL     1      -2.366  21.906  -8.649  1.00  0.00    -0.237 OA
ATOM     70  O   UNL     1      -1.840  21.138 -10.928  1.00  0.00    -0.237 OA
ATOM     71  O   UNL     1      -2.196  19.493  -9.142  1.00  0.00    -0.744 OA
ENDBRANCH  65  68
ENDBRANCH  38  61
ENDBRANCH  12  13
ENDBRANCH   5   7
ENDBRANCH   2   3
ENDBRANCH   1   2
BRANCH   1  72
ATOM     72  C   UNL     1       7.972   7.476   1.186  1.00  0.00     0.023 C 
BRANCH  72  73
ATOM     73  C   UNL     1       6.957   7.809   2.279  1.00  0.00     0.116 C 
BRANCH  73  74
ATOM     74  N   UNL     1       5.747   7.022   2.130  1.00  0.00    -0.355 N 
ATOM     75  C   UNL     1       5.392   5.859   2.759  1.00  0.00     0.233 C 
ATOM     76  H   UNL     1       5.090   7.372   1.485  1.00  0.00     0.163 HD
ATOM     77  O   UNL     1       4.392   5.268   2.345  1.00  0.00    -0.274 OA
BRANCH  75  78
ATOM     78  C   UNL     1       6.207   5.357   3.958  1.00  0.00     0.163 C 
BRANCH  78  79
ATOM     79  C   UNL     1       5.297   4.706   5.014  1.00  0.00    -0.030 A 
ATOM     80  C   UNL     1       5.082   3.318   5.079  1.00  0.00     0.006 A 
ATOM     81  C   UNL     1       4.670   5.523   5.970  1.00  0.00     0.006 A 
ATOM     82  C   UNL     1       4.340   2.756   6.119  1.00  0.00     0.016 A 
ATOM     83  C   UNL     1       3.909   4.963   6.999  1.00  0.00     0.016 A 
ATOM     84  C   UNL     1       3.765   3.581   7.081  1.00  0.00     0.017 A 
ATOM     85  Br  UNL     1       2.790   2.817   8.508  1.00  0.00    -0.051 Br
ENDBRANCH  78  79
BRANCH  78  86
ATOM     86  C   UNL     1       7.350   4.400   3.516  1.00  0.00     0.280 C 
BRANCH  86  87
ATOM     87  N   UNL     1       8.664   4.968   3.135  1.00  0.00    -0.334 N 
ATOM     88  C   UNL     1       9.624   3.874   2.869  1.00  0.00     0.262 C 
ATOM     89  C   UNL     1       9.316   5.774   4.180  1.00  0.00     0.262 C 
ATOM     90  H   UNL     1       8.455   5.556   2.329  1.00  0.00     0.348 HD
ATOM     91  C   UNL     1      10.214   3.537   4.229  1.00  0.00     0.067 C 
ATOM     92  C   UNL     1      10.311   4.885   4.913  1.00  0.00     0.067 C 
ENDBRANCH  86  87
ENDBRANCH  78  86
ENDBRANCH  75  78
ENDBRANCH  73  74
ENDBRANCH  72  73
ENDBRANCH   1  72
TORSDOF 17
