REMARK SMILES Nc1nc(N)nc(N/C=C/C(=O)NCCCCNC(=O)c2ccc(-c3c4nc(c(-c5cccc(S(=O)(=O)[O-])c5F)c5ccc([nH]5)c(-c5cccc(S(=O)(=O)[O-])c5F)c5nc(c(-c6cccc(S(=O)(=O)[O-])c6F)c6ccc3[nH]6)C=C5)C=C4)cc2)n1
REMARK SMILES IDX 15 1 14 2 13 3 11 4 12 5 10 7 9 8 8 9 7 11 2 12 3 13 84 14
REMARK SMILES IDX 4 15 6 16 1 17 5 20 16 23 17 24 18 25 19 26 20 28 21 29
REMARK SMILES IDX 22 30 83 31 23 32 82 33 24 34 25 35 26 36 76 37 27 38 81 39
REMARK SMILES IDX 75 40 77 41 28 42 80 43 74 44 73 45 29 47 61 48 41 49 60 50
REMARK SMILES IDX 42 51 45 52 59 53 78 54 43 55 44 56 58 58 79 59 46 60 30 61
REMARK SMILES IDX 31 62 39 63 32 64 34 65 40 66 33 67 35 68 36 69 37 70 38 71
REMARK SMILES IDX 62 72 63 73 71 74 64 75 66 76 72 77 65 78 67 79 68 80 69 81
REMARK SMILES IDX 70 82 47 83 48 84 56 85 49 86 51 87 57 88 50 89 52 90 53 91
REMARK SMILES IDX 54 92 55 93
REMARK H PARENT 13 6 8 10 1 18 1 19 5 21 5 22 18 27 77 46 45 57
REMARK Flexibility Score: inf
ROOT
ATOM      1  C   UNL     1       4.417   3.310  -1.057  1.00  0.00     0.023 C 
ENDROOT
BRANCH   1   2
ATOM      2  C   UNL     1       3.989   4.005   0.238  1.00  0.00     0.116 C 
BRANCH   2   3
ATOM      3  N   UNL     1       3.538   5.362  -0.018  1.00  0.00    -0.353 N 
ATOM      4  C   UNL     1       2.289   5.898  -0.082  1.00  0.00     0.245 C 
ATOM      5  O   UNL     1       2.159   7.114  -0.219  1.00  0.00    -0.270 OA
ATOM      6  H   UNL     1       4.264   6.009  -0.173  1.00  0.00     0.163 HD
BRANCH   4   7
ATOM      7  C   UNL     1       1.067   5.077   0.098  1.00  0.00     0.089 C 
ATOM      8  C   UNL     1       0.899   3.824  -0.334  1.00  0.00     0.091 C 
BRANCH   8   9
ATOM      9  N   UNL     1      -0.190   3.013  -0.172  1.00  0.00    -0.330 N 
ATOM     10  H   UNL     1      -1.062   3.450  -0.042  1.00  0.00     0.169 HD
BRANCH   9  11
ATOM     11  C   UNL     1      -0.169   1.617  -0.176  1.00  0.00     0.233 A 
ATOM     12  C   UNL     1      -1.283  -0.314   0.001  1.00  0.00     0.226 A 
ATOM     13  N   UNL     1      -0.175  -1.034  -0.029  1.00  0.00    -0.177 NA
ATOM     14  N   UNL     1      -1.341   1.007  -0.049  1.00  0.00    -0.177 NA
ATOM     15  C   UNL     1       0.940  -0.335  -0.142  1.00  0.00     0.226 A 
ATOM     16  N   UNL     1       0.998   0.980  -0.238  1.00  0.00    -0.177 NA
BRANCH  12  17
ATOM     17  N   UNL     1      -2.466  -0.992   0.087  1.00  0.00    -0.368 N 
ATOM     18  H   UNL     1      -2.468  -1.976   0.126  1.00  0.00     0.159 HD
ATOM     19  H   UNL     1      -3.317  -0.497   0.109  1.00  0.00     0.159 HD
ENDBRANCH  12  17
BRANCH  15  20
ATOM     20  N   UNL     1       2.122  -1.018  -0.138  1.00  0.00    -0.368 N 
ATOM     21  H   UNL     1       2.123  -2.000  -0.068  1.00  0.00     0.159 HD
ATOM     22  H   UNL     1       2.974  -0.528  -0.206  1.00  0.00     0.159 HD
ENDBRANCH  15  20
ENDBRANCH   9  11
ENDBRANCH   8   9
ENDBRANCH   4   7
ENDBRANCH   2   3
ENDBRANCH   1   2
BRANCH   1  23
ATOM     23  C   UNL     1       5.827   3.675  -1.532  1.00  0.00     0.023 C 
BRANCH  23  24
ATOM     24  C   UNL     1       6.956   3.268  -0.589  1.00  0.00     0.116 C 
BRANCH  24  25
ATOM     25  N   UNL     1       6.982   1.840  -0.305  1.00  0.00    -0.352 N 
ATOM     26  C   UNL     1       8.069   1.037  -0.046  1.00  0.00     0.251 C 
ATOM     27  H   UNL     1       6.107   1.390  -0.296  1.00  0.00     0.163 HD
ATOM     28  O   UNL     1       7.925  -0.172   0.075  1.00  0.00    -0.269 OA
BRANCH  26  29
ATOM     29  C   UNL     1       9.415   1.645   0.044  1.00  0.00     0.039 A 
ATOM     30  C   UNL     1      10.460   1.081  -0.692  1.00  0.00     0.014 A 
ATOM     31  C   UNL     1       9.634   2.784   0.823  1.00  0.00     0.014 A 
ATOM     32  C   UNL     1      11.711   1.702  -0.701  1.00  0.00     0.010 A 
ATOM     33  C   UNL     1      10.861   3.437   0.760  1.00  0.00     0.010 A 
ATOM     34  C   UNL     1      11.911   2.904  -0.003  1.00  0.00    -0.014 A 
BRANCH  34  35
ATOM     35  C   UNL     1      13.201   3.635  -0.077  1.00  0.00     0.031 A 
ATOM     36  C   UNL     1      14.036   3.829   1.158  1.00  0.00     0.074 A 
ATOM     37  C   UNL     1      13.569   4.215  -1.237  1.00  0.00     0.049 A 
ATOM     38  N   UNL     1      15.157   4.488   1.300  1.00  0.00    -0.248 NA
ATOM     39  C   UNL     1      13.531   3.229   2.404  1.00  0.00     0.031 C 
ATOM     40  C   UNL     1      12.800   4.175  -2.483  1.00  0.00     0.029 A 
ATOM     41  N   UNL     1      14.667   4.976  -1.549  1.00  0.00    -0.354 N 
ATOM     42  C   UNL     1      15.471   4.417   2.652  1.00  0.00     0.074 A 
ATOM     43  C   UNL     1      14.405   3.677   3.294  1.00  0.00     0.031 C 
ATOM     44  C   UNL     1      13.452   4.875  -3.424  1.00  0.00     0.029 A 
ATOM     45  C   UNL     1      14.670   5.434  -2.846  1.00  0.00     0.049 A 
ATOM     46  H   UNL     1      15.385   5.175  -0.906  1.00  0.00     0.167 HD
ATOM     47  C   UNL     1      16.562   4.894   3.296  1.00  0.00     0.034 A 
ATOM     48  C   UNL     1      15.554   6.215  -3.497  1.00  0.00     0.034 A 
ATOM     49  C   UNL     1      17.644   5.582   2.646  1.00  0.00     0.049 A 
ATOM     50  C   UNL     1      16.786   6.686  -2.772  1.00  0.00     0.074 A 
ATOM     51  C   UNL     1      18.841   6.013   3.190  1.00  0.00     0.029 A 
ATOM     52  N   UNL     1      17.659   5.946   1.308  1.00  0.00    -0.354 N 
ATOM     53  N   UNL     1      17.153   6.458  -1.534  1.00  0.00    -0.248 NA
ATOM     54  C   UNL     1      17.745   7.490  -3.544  1.00  0.00     0.031 C 
ATOM     55  C   UNL     1      19.574   6.650   2.183  1.00  0.00     0.029 A 
ATOM     56  C   UNL     1      18.840   6.603   1.009  1.00  0.00     0.049 A 
ATOM     57  H   UNL     1      16.936   5.763   0.666  1.00  0.00     0.167 HD
ATOM     58  C   UNL     1      18.397   7.059  -1.387  1.00  0.00     0.074 A 
ATOM     59  C   UNL     1      18.731   7.646  -2.670  1.00  0.00     0.031 C 
ATOM     60  C   UNL     1      19.185   7.134  -0.286  1.00  0.00     0.034 A 
BRANCH  47  61
ATOM     61  C   UNL     1      16.667   4.629   4.776  1.00  0.00     0.023 A 
ATOM     62  C   UNL     1      16.933   3.320   5.227  1.00  0.00     0.012 A 
ATOM     63  C   UNL     1      16.545   5.671   5.715  1.00  0.00     0.148 A 
ATOM     64  C   UNL     1      17.037   3.043   6.589  1.00  0.00     0.002 A 
ATOM     65  C   UNL     1      16.692   5.395   7.070  1.00  0.00     0.091 A 
ATOM     66  F   UNL     1      16.267   6.905   5.272  1.00  0.00    -0.205 F 
ATOM     67  C   UNL     1      16.926   4.082   7.509  1.00  0.00     0.022 A 
BRANCH  65  68
ATOM     68  S   UNL     1      16.641   6.680   8.325  1.00  0.00     0.127 S 
ATOM     69  O   UNL     1      15.310   6.480   8.898  1.00  0.00    -0.237 OA
ATOM     70  O   UNL     1      17.746   6.299   9.206  1.00  0.00    -0.237 OA
ATOM     71  O   UNL     1      16.841   7.935   7.616  1.00  0.00    -0.744 OA
ENDBRANCH  65  68
ENDBRANCH  47  61
BRANCH  48  72
ATOM     72  C   UNL     1      15.347   6.524  -4.939  1.00  0.00     0.023 A 
ATOM     73  C   UNL     1      16.179   5.913  -5.897  1.00  0.00     0.012 A 
ATOM     74  C   UNL     1      14.310   7.374  -5.371  1.00  0.00     0.148 A 
ATOM     75  C   UNL     1      16.000   6.162  -7.258  1.00  0.00     0.002 A 
ATOM     76  C   UNL     1      14.104   7.577  -6.731  1.00  0.00     0.091 A 
ATOM     77  F   UNL     1      13.536   7.954  -4.443  1.00  0.00    -0.205 F 
ATOM     78  C   UNL     1      14.957   6.984  -7.676  1.00  0.00     0.022 A 
BRANCH  76  79
ATOM     79  S   UNL     1      12.709   8.514  -7.366  1.00  0.00     0.127 S 
ATOM     80  O   UNL     1      13.364   9.716  -7.878  1.00  0.00    -0.237 OA
ATOM     81  O   UNL     1      12.183   7.614  -8.393  1.00  0.00    -0.237 OA
ATOM     82  O   UNL     1      11.820   8.712  -6.230  1.00  0.00    -0.744 OA
ENDBRANCH  76  79
ENDBRANCH  48  72
BRANCH  60  83
ATOM     83  C   UNL     1      20.502   7.852  -0.416  1.00  0.00     0.023 A 
ATOM     84  C   UNL     1      20.523   9.258  -0.499  1.00  0.00     0.012 A 
ATOM     85  C   UNL     1      21.718   7.143  -0.375  1.00  0.00     0.148 A 
ATOM     86  C   UNL     1      21.734   9.946  -0.566  1.00  0.00     0.002 A 
ATOM     87  C   UNL     1      22.922   7.837  -0.397  1.00  0.00     0.091 A 
ATOM     88  F   UNL     1      21.677   5.803  -0.318  1.00  0.00    -0.205 F 
ATOM     89  C   UNL     1      22.932   9.238  -0.503  1.00  0.00     0.022 A 
BRANCH  87  90
ATOM     90  S   UNL     1      24.509   7.012  -0.225  1.00  0.00     0.127 S 
ATOM     91  O   UNL     1      25.017   7.054  -1.595  1.00  0.00    -0.237 OA
ATOM     92  O   UNL     1      25.215   7.885   0.714  1.00  0.00    -0.237 OA
ATOM     93  O   UNL     1      24.213   5.684   0.295  1.00  0.00    -0.744 OA
ENDBRANCH  87  90
ENDBRANCH  60  83
ENDBRANCH  34  35
ENDBRANCH  26  29
ENDBRANCH  24  25
ENDBRANCH  23  24
ENDBRANCH   1  23
TORSDOF 18
