REMARK SMILES CC[C@H](C)[NH+]1CCN(C(=O)CC(=O)NCCCCNC(=O)c2ccc(-c3c4nc(c(-c5cccc(S(=O)(=O)[O-])c5F)c5ccc([nH]5)c(-c5cccc(S(=O)(=O)[O-])c5F)c5nc(c(-c6cccc(S(=O)(=O)[O-])c6F)c6ccc3[nH]6)C=C5)C=C4)cc2)CC1
REMARK SMILES IDX 16 1 15 2 14 3 12 4 13 5 11 7 9 8 5 9 6 10 86 11 7 13 85 14
REMARK SMILES IDX 8 15 10 16 3 17 4 18 2 19 1 20 17 21 18 22 19 23 20 24 21 26
REMARK SMILES IDX 22 27 23 28 84 29 24 30 83 31 25 32 26 33 27 34 77 35 28 36
REMARK SMILES IDX 82 37 76 38 78 39 29 40 81 41 75 42 74 43 30 45 62 46 42 47
REMARK SMILES IDX 61 48 43 49 46 50 60 51 79 52 44 53 45 54 59 56 80 57 47 58
REMARK SMILES IDX 31 59 32 60 40 61 33 62 35 63 41 64 34 65 36 66 37 67 38 68
REMARK SMILES IDX 39 69 63 70 64 71 72 72 65 73 67 74 73 75 66 76 68 77 69 78
REMARK SMILES IDX 70 79 71 80 48 81 49 82 57 83 50 84 52 85 58 86 51 87 53 88
REMARK SMILES IDX 54 89 55 90 56 91
REMARK H PARENT 14 6 5 12 19 25 78 44 46 55
REMARK Flexibility Score: inf
ROOT
ATOM      1  C   UNL     1      -3.609  -5.436   0.360  1.00  0.00     0.023 C 
ENDROOT
BRANCH   1   2
ATOM      2  C   UNL     1      -4.869  -5.144  -0.453  1.00  0.00     0.116 C 
BRANCH   2   3
ATOM      3  N   UNL     1      -5.053  -3.719  -0.652  1.00  0.00    -0.356 N 
ATOM      4  C   UNL     1      -4.849  -2.984  -1.780  1.00  0.00     0.229 C 
ATOM      5  O   UNL     1      -5.013  -1.763  -1.724  1.00  0.00    -0.275 OA
ATOM      6  H   UNL     1      -5.367  -3.216   0.134  1.00  0.00     0.163 HD
BRANCH   4   7
ATOM      7  C   UNL     1      -4.481  -3.657  -3.076  1.00  0.00     0.200 C 
BRANCH   7   8
ATOM      8  C   UNL     1      -3.135  -4.340  -3.092  1.00  0.00     0.232 C 
ATOM      9  N   UNL     1       0.530  -2.022  -2.949  1.00  0.00    -0.330 N 
ATOM     10  C   UNL     1       0.535  -3.461  -3.271  1.00  0.00     0.284 C 
ATOM     11  C   UNL     1      -0.758  -1.444  -3.357  1.00  0.00     0.284 C 
ATOM     12  H   UNL     1       1.246  -1.562  -3.510  1.00  0.00     0.348 HD
ATOM     13  C   UNL     1      -0.703  -4.269  -2.819  1.00  0.00     0.181 C 
ATOM     14  C   UNL     1      -1.980  -2.128  -2.741  1.00  0.00     0.181 C 
ATOM     15  N   UNL     1      -1.986  -3.574  -2.985  1.00  0.00    -0.331 N 
ATOM     16  O   UNL     1      -3.081  -5.567  -3.229  1.00  0.00    -0.274 OA
BRANCH   9  17
ATOM     17  C   UNL     1       1.059  -1.649  -1.615  1.00  0.00     0.180 C 
ATOM     18  C   UNL     1       0.794  -0.174  -1.267  1.00  0.00     0.075 C 
BRANCH  17  19
ATOM     19  C   UNL     1       0.695  -2.589  -0.440  1.00  0.00     0.061 C 
ATOM     20  C   UNL     1       1.165  -2.112   0.930  1.00  0.00     0.010 C 
ENDBRANCH  17  19
ENDBRANCH   9  17
ENDBRANCH   7   8
ENDBRANCH   4   7
ENDBRANCH   2   3
ENDBRANCH   1   2
BRANCH   1  21
ATOM     21  C   UNL     1      -3.673  -4.975   1.821  1.00  0.00     0.023 C 
BRANCH  21  22
ATOM     22  C   UNL     1      -4.868  -5.490   2.620  1.00  0.00     0.116 C 
BRANCH  22  23
ATOM     23  N   UNL     1      -4.962  -6.941   2.628  1.00  0.00    -0.352 N 
ATOM     24  C   UNL     1      -5.311  -7.783   3.654  1.00  0.00     0.251 C 
ATOM     25  H   UNL     1      -4.744  -7.383   1.776  1.00  0.00     0.163 HD
ATOM     26  O   UNL     1      -5.205  -9.000   3.500  1.00  0.00    -0.269 OA
BRANCH  24  27
ATOM     27  C   UNL     1      -5.783  -7.240   4.947  1.00  0.00     0.039 A 
ATOM     28  C   UNL     1      -5.314  -7.824   6.127  1.00  0.00     0.014 A 
ATOM     29  C   UNL     1      -6.687  -6.175   5.008  1.00  0.00     0.014 A 
ATOM     30  C   UNL     1      -5.715  -7.311   7.362  1.00  0.00     0.010 A 
ATOM     31  C   UNL     1      -7.023  -5.615   6.240  1.00  0.00     0.010 A 
ATOM     32  C   UNL     1      -6.550  -6.183   7.432  1.00  0.00    -0.014 A 
BRANCH  32  33
ATOM     33  C   UNL     1      -6.915  -5.593   8.747  1.00  0.00     0.031 A 
ATOM     34  C   UNL     1      -8.348  -5.550   9.205  1.00  0.00     0.074 A 
ATOM     35  C   UNL     1      -5.950  -5.049   9.516  1.00  0.00     0.049 A 
ATOM     36  N   UNL     1      -8.837  -5.111  10.337  1.00  0.00    -0.248 NA
ATOM     37  C   UNL     1      -9.370  -6.040   8.265  1.00  0.00     0.031 C 
ATOM     38  C   UNL     1      -4.536  -4.940   9.147  1.00  0.00     0.029 A 
ATOM     39  N   UNL     1      -6.011  -4.476  10.762  1.00  0.00    -0.354 N 
ATOM     40  C   UNL     1     -10.217  -5.246  10.236  1.00  0.00     0.074 A 
ATOM     41  C   UNL     1     -10.492  -5.769   8.916  1.00  0.00     0.031 C 
ATOM     42  C   UNL     1      -3.862  -4.358  10.151  1.00  0.00     0.029 A 
ATOM     43  C   UNL     1      -4.795  -4.029  11.224  1.00  0.00     0.049 A 
ATOM     44  H   UNL     1      -6.846  -4.392  11.276  1.00  0.00     0.167 HD
ATOM     45  C   UNL     1     -11.168  -4.989  11.166  1.00  0.00     0.034 A 
ATOM     46  C   UNL     1      -4.465  -3.426  12.383  1.00  0.00     0.034 A 
ATOM     47  C   UNL     1     -10.890  -4.499  12.490  1.00  0.00     0.049 A 
ATOM     48  C   UNL     1      -5.532  -3.201  13.419  1.00  0.00     0.074 A 
ATOM     49  C   UNL     1     -11.774  -4.289  13.534  1.00  0.00     0.029 A 
ATOM     50  N   UNL     1      -9.636  -4.130  12.951  1.00  0.00    -0.354 N 
ATOM     51  N   UNL     1      -6.808  -3.496  13.368  1.00  0.00    -0.248 NA
ATOM     52  C   UNL     1      -5.104  -2.602  14.691  1.00  0.00     0.031 C 
ATOM     53  C   UNL     1     -11.059  -3.764  14.616  1.00  0.00     0.029 A 
ATOM     54  C   UNL     1      -9.723  -3.684  14.260  1.00  0.00     0.049 A 
ATOM     55  H   UNL     1      -8.805  -4.178  12.426  1.00  0.00     0.167 HD
ATOM     56  C   UNL     1      -7.329  -3.152  14.610  1.00  0.00     0.074 A 
ATOM     57  C   UNL     1      -6.222  -2.654  15.402  1.00  0.00     0.031 C 
ATOM     58  C   UNL     1      -8.609  -3.230  15.053  1.00  0.00     0.034 A 
BRANCH  45  59
ATOM     59  C   UNL     1     -12.603  -5.280  10.802  1.00  0.00     0.023 A 
ATOM     60  C   UNL     1     -13.028  -6.617  10.658  1.00  0.00     0.012 A 
ATOM     61  C   UNL     1     -13.542  -4.240  10.662  1.00  0.00     0.148 A 
ATOM     62  C   UNL     1     -14.354  -6.913  10.344  1.00  0.00     0.002 A 
ATOM     63  C   UNL     1     -14.873  -4.545  10.397  1.00  0.00     0.091 A 
ATOM     64  F   UNL     1     -13.118  -2.974  10.783  1.00  0.00    -0.205 F 
ATOM     65  C   UNL     1     -15.277  -5.879  10.224  1.00  0.00     0.022 A 
BRANCH  63  66
ATOM     66  S   UNL     1     -16.157  -3.291  10.307  1.00  0.00     0.127 S 
ATOM     67  O   UNL     1     -16.488  -3.311   8.882  1.00  0.00    -0.237 OA
ATOM     68  O   UNL     1     -17.190  -3.848  11.180  1.00  0.00    -0.237 OA
ATOM     69  O   UNL     1     -15.551  -2.059  10.790  1.00  0.00    -0.744 OA
ENDBRANCH  63  66
ENDBRANCH  45  59
BRANCH  46  70
ATOM     70  C   UNL     1      -3.046  -3.058  12.654  1.00  0.00     0.023 A 
ATOM     71  C   UNL     1      -2.322  -3.758  13.638  1.00  0.00     0.012 A 
ATOM     72  C   UNL     1      -2.406  -2.036  11.927  1.00  0.00     0.148 A 
ATOM     73  C   UNL     1      -0.998  -3.421  13.921  1.00  0.00     0.002 A 
ATOM     74  C   UNL     1      -1.069  -1.745  12.173  1.00  0.00     0.091 A 
ATOM     75  F   UNL     1      -3.115  -1.376  11.001  1.00  0.00    -0.205 F 
ATOM     76  C   UNL     1      -0.369  -2.423  13.183  1.00  0.00     0.022 A 
BRANCH  74  77
ATOM     77  S   UNL     1      -0.142  -0.571  11.180  1.00  0.00     0.127 S 
ATOM     78  O   UNL     1       0.066   0.522  12.125  1.00  0.00    -0.237 OA
ATOM     79  O   UNL     1       1.059  -1.339  10.849  1.00  0.00    -0.237 OA
ATOM     80  O   UNL     1      -0.991  -0.266  10.036  1.00  0.00    -0.744 OA
ENDBRANCH  74  77
ENDBRANCH  46  70
BRANCH  58  81
ATOM     81  C   UNL     1      -8.880  -2.802  16.473  1.00  0.00     0.023 A 
ATOM     82  C   UNL     1      -8.793  -1.441  16.829  1.00  0.00     0.012 A 
ATOM     83  C   UNL     1      -9.264  -3.746  17.445  1.00  0.00     0.148 A 
ATOM     84  C   UNL     1      -9.035  -1.034  18.141  1.00  0.00     0.002 A 
ATOM     85  C   UNL     1      -9.557  -3.326  18.737  1.00  0.00     0.091 A 
ATOM     86  F   UNL     1      -9.325  -5.039  17.094  1.00  0.00    -0.205 F 
ATOM     87  C   UNL     1      -9.427  -1.974  19.091  1.00  0.00     0.022 A 
BRANCH  85  88
ATOM     88  S   UNL     1     -10.165  -4.452  19.997  1.00  0.00     0.127 S 
ATOM     89  O   UNL     1      -8.988  -4.609  20.850  1.00  0.00    -0.237 OA
ATOM     90  O   UNL     1     -11.257  -3.686  20.599  1.00  0.00    -0.237 OA
ATOM     91  O   UNL     1     -10.591  -5.652  19.290  1.00  0.00    -0.744 OA
ENDBRANCH  85  88
ENDBRANCH  58  81
ENDBRANCH  32  33
ENDBRANCH  24  27
ENDBRANCH  22  23
ENDBRANCH  21  22
ENDBRANCH   1  21
TORSDOF 17
