REMARK SMILES COc1cc(C[N@H+]2CC[C@@]([NH3+])(C(=O)NCCCCNC(=O)c3ccc(-c4c5nc(c(-c6cccc(S(=O)(=O)[O-])c6F)c6ccc([nH]6)c(-c6cccc(S(=O)(=O)[O-])c6F)c6nc(c(-c7cccc(S(=O)(=O)[O-])c7F)c7ccc4[nH]7)C=C6)C=C5)cc3)C2)cc2c1OCO2
REMARK SMILES IDX 16 1 15 2 14 3 12 4 13 5 10 7 7 8 8 9 85 10 9 12 6 13 5 14
REMARK SMILES IDX 3 15 4 16 88 17 87 18 89 19 86 20 91 21 90 22 2 23 1 24
REMARK SMILES IDX 11 25 17 29 18 30 19 31 20 32 21 34 22 35 23 36 84 37 24 38
REMARK SMILES IDX 83 39 25 40 26 41 27 42 77 43 28 44 82 45 76 46 78 47 29 48
REMARK SMILES IDX 81 49 75 50 74 51 30 53 62 54 42 55 61 56 43 57 46 58 60 59
REMARK SMILES IDX 79 60 44 61 45 62 59 64 80 65 47 66 31 67 32 68 40 69 33 70
REMARK SMILES IDX 35 71 41 72 34 73 36 74 37 75 38 76 39 77 63 78 64 79 72 80
REMARK SMILES IDX 65 81 67 82 73 83 66 84 68 85 69 86 70 87 71 88 48 89 49 90
REMARK SMILES IDX 57 91 50 92 52 93 58 94 51 95 53 96 54 97 55 98 56 99
REMARK H PARENT 14 6 7 11 11 26 11 27 11 28 19 33 78 52 46 63
REMARK Flexibility Score: inf
ROOT
ATOM      1  C   UNL     1       0.782  -7.977   0.708  1.00  0.00     0.023 C 
ENDROOT
BRANCH   1   2
ATOM      2  C   UNL     1      -0.617  -7.431   0.985  1.00  0.00     0.116 C 
BRANCH   2   3
ATOM      3  N   UNL     1      -0.669  -5.995   0.829  1.00  0.00    -0.350 N 
ATOM      4  C   UNL     1      -1.268  -5.210  -0.112  1.00  0.00     0.287 C 
ATOM      5  O   UNL     1      -1.245  -3.997   0.115  1.00  0.00    -0.268 OA
ATOM      6  H   UNL     1      -0.187  -5.494   1.525  1.00  0.00     0.163 HD
BRANCH   4   7
ATOM      7  C   UNL     1      -2.071  -5.814  -1.315  1.00  0.00     0.228 C 
ATOM      8  N   UNL     1      -1.484  -4.865  -3.475  1.00  0.00    -0.325 N 
ATOM      9  C   UNL     1      -0.496  -5.871  -3.112  1.00  0.00     0.270 C 
ATOM     10  C   UNL     1      -2.409  -4.693  -2.340  1.00  0.00     0.342 C 
ATOM     11  H   UNL     1      -2.021  -5.211  -4.270  1.00  0.00     0.348 HD
ATOM     12  C   UNL     1      -1.276  -6.788  -2.186  1.00  0.00     0.146 C 
BRANCH   8  13
ATOM     13  C   UNL     1      -0.966  -3.643  -4.088  1.00  0.00     0.299 C 
BRANCH  13  14
ATOM     14  C   UNL     1       0.199  -2.974  -3.386  1.00  0.00     0.014 A 
ATOM     15  C   UNL     1       1.062  -1.655  -1.503  1.00  0.00     0.165 A 
ATOM     16  C   UNL     1      -0.004  -2.216  -2.213  1.00  0.00     0.060 A 
ATOM     17  C   UNL     1       2.338  -1.859  -1.988  1.00  0.00     0.207 A 
ATOM     18  C   UNL     1       2.546  -2.580  -3.143  1.00  0.00     0.170 A 
ATOM     19  O   UNL     1       3.511  -1.454  -1.430  1.00  0.00    -0.450 OA
ATOM     20  C   UNL     1       1.509  -3.141  -3.864  1.00  0.00     0.060 A 
ATOM     21  O   UNL     1       3.866  -2.700  -3.458  1.00  0.00    -0.453 OA
ATOM     22  C   UNL     1       4.472  -2.031  -2.333  1.00  0.00     0.468 C 
BRANCH  15  23
ATOM     23  O   UNL     1       0.733  -1.040  -0.331  1.00  0.00    -0.493 OA
ATOM     24  C   UNL     1       1.367   0.215  -0.128  1.00  0.00     0.278 C 
ENDBRANCH  15  23
ENDBRANCH  13  14
ENDBRANCH   8  13
BRANCH   7  25
ATOM     25  N   UNL     1      -3.309  -6.434  -0.773  1.00  0.00    -0.340 N 
ATOM     26  H   UNL     1      -3.851  -6.836  -1.538  1.00  0.00     0.345 HD
ATOM     27  H   UNL     1      -3.866  -5.723  -0.298  1.00  0.00     0.345 HD
ATOM     28  H   UNL     1      -3.060  -7.169  -0.111  1.00  0.00     0.345 HD
ENDBRANCH   7  25
ENDBRANCH   4   7
ENDBRANCH   2   3
ENDBRANCH   1   2
BRANCH   1  29
ATOM     29  C   UNL     1       1.814  -7.677   1.797  1.00  0.00     0.023 C 
BRANCH  29  30
ATOM     30  C   UNL     1       1.453  -8.169   3.195  1.00  0.00     0.116 C 
BRANCH  30  31
ATOM     31  N   UNL     1       1.147  -9.592   3.240  1.00  0.00    -0.352 N 
ATOM     32  C   UNL     1       1.483 -10.514   4.202  1.00  0.00     0.251 C 
ATOM     33  H   UNL     1       0.629  -9.941   2.479  1.00  0.00     0.163 HD
ATOM     34  O   UNL     1       1.239 -11.704   4.023  1.00  0.00    -0.269 OA
BRANCH  32  35
ATOM     35  C   UNL     1       2.166 -10.068   5.434  1.00  0.00     0.039 A 
ATOM     36  C   UNL     1       3.298 -10.763   5.868  1.00  0.00     0.014 A 
ATOM     37  C   UNL     1       1.706  -8.956   6.144  1.00  0.00     0.014 A 
ATOM     38  C   UNL     1       4.007 -10.303   6.979  1.00  0.00     0.010 A 
ATOM     39  C   UNL     1       2.454  -8.458   7.206  1.00  0.00     0.010 A 
ATOM     40  C   UNL     1       3.609  -9.127   7.638  1.00  0.00    -0.014 A 
BRANCH  40  41
ATOM     41  C   UNL     1       4.389  -8.577   8.775  1.00  0.00     0.031 A 
ATOM     42  C   UNL     1       3.765  -8.471  10.140  1.00  0.00     0.074 A 
ATOM     43  C   UNL     1       5.626  -8.088   8.559  1.00  0.00     0.049 A 
ATOM     44  N   UNL     1       4.264  -7.965  11.238  1.00  0.00    -0.248 NA
ATOM     45  C   UNL     1       2.387  -8.971  10.284  1.00  0.00     0.031 C 
ATOM     46  C   UNL     1       6.309  -8.054   7.263  1.00  0.00     0.029 A 
ATOM     47  N   UNL     1       6.519  -7.497   9.418  1.00  0.00    -0.354 N 
ATOM     48  C   UNL     1       3.254  -8.050  12.189  1.00  0.00     0.074 A 
ATOM     49  C   UNL     1       2.101  -8.624  11.530  1.00  0.00     0.031 C 
ATOM     50  C   UNL     1       7.512  -7.478   7.414  1.00  0.00     0.029 A 
ATOM     51  C   UNL     1       7.678  -7.077   8.808  1.00  0.00     0.049 A 
ATOM     52  H   UNL     1       6.346  -7.385  10.381  1.00  0.00     0.167 HD
ATOM     53  C   UNL     1       3.292  -7.712  13.499  1.00  0.00     0.034 A 
ATOM     54  C   UNL     1       8.752  -6.439   9.313  1.00  0.00     0.034 A 
ATOM     55  C   UNL     1       4.455  -7.189  14.162  1.00  0.00     0.049 A 
ATOM     56  C   UNL     1       8.789  -6.125  10.785  1.00  0.00     0.074 A 
ATOM     57  C   UNL     1       4.625  -6.903  15.505  1.00  0.00     0.029 A 
ATOM     58  N   UNL     1       5.648  -6.871  13.531  1.00  0.00    -0.354 N 
ATOM     59  N   UNL     1       7.885  -6.366  11.703  1.00  0.00    -0.248 NA
ATOM     60  C   UNL     1      10.010  -5.487  11.298  1.00  0.00     0.031 C 
ATOM     61  C   UNL     1       5.916  -6.394  15.683  1.00  0.00     0.029 A 
ATOM     62  C   UNL     1       6.558  -6.386  14.455  1.00  0.00     0.049 A 
ATOM     63  H   UNL     1       5.822  -6.974  12.568  1.00  0.00     0.167 HD
ATOM     64  C   UNL     1       8.441  -5.947  12.906  1.00  0.00     0.074 A 
ATOM     65  C   UNL     1       9.769  -5.454  12.602  1.00  0.00     0.031 C 
ATOM     66  C   UNL     1       7.897  -5.954  14.148  1.00  0.00     0.034 A 
BRANCH  53  67
ATOM     67  C   UNL     1       2.051  -7.955  14.320  1.00  0.00     0.023 A 
ATOM     68  C   UNL     1       1.677  -9.277  14.635  1.00  0.00     0.012 A 
ATOM     69  C   UNL     1       1.291  -6.883  14.825  1.00  0.00     0.148 A 
ATOM     70  C   UNL     1       0.544  -9.531  15.408  1.00  0.00     0.002 A 
ATOM     71  C   UNL     1       0.189  -7.142  15.633  1.00  0.00     0.091 A 
ATOM     72  F   UNL     1       1.649  -5.633  14.498  1.00  0.00    -0.205 F 
ATOM     73  C   UNL     1      -0.192  -8.465  15.915  1.00  0.00     0.022 A 
BRANCH  71  74
ATOM     74  S   UNL     1      -0.778  -5.837  16.400  1.00  0.00     0.127 S 
ATOM     75  O   UNL     1      -2.019  -5.899  15.630  1.00  0.00    -0.237 OA
ATOM     76  O   UNL     1      -0.893  -6.310  17.780  1.00  0.00    -0.237 OA
ATOM     77  O   UNL     1      -0.002  -4.616  16.240  1.00  0.00    -0.744 OA
ENDBRANCH  71  74
ENDBRANCH  53  67
BRANCH  54  78
ATOM     78  C   UNL     1       9.914  -6.125   8.434  1.00  0.00     0.023 A 
ATOM     79  C   UNL     1      11.117  -6.837   8.602  1.00  0.00     0.012 A 
ATOM     80  C   UNL     1       9.827  -5.153   7.418  1.00  0.00     0.148 A 
ATOM     81  C   UNL     1      12.225  -6.564   7.798  1.00  0.00     0.002 A 
ATOM     82  C   UNL     1      10.917  -4.925   6.585  1.00  0.00     0.091 A 
ATOM     83  F   UNL     1       8.677  -4.478   7.280  1.00  0.00    -0.205 F 
ATOM     84  C   UNL     1      12.122  -5.616   6.784  1.00  0.00     0.022 A 
BRANCH  82  85
ATOM     85  S   UNL     1      10.832  -3.819   5.171  1.00  0.00     0.127 S 
ATOM     86  O   UNL     1      11.652  -2.696   5.620  1.00  0.00    -0.237 OA
ATOM     87  O   UNL     1      11.429  -4.634   4.113  1.00  0.00    -0.237 OA
ATOM     88  O   UNL     1       9.417  -3.534   4.980  1.00  0.00    -0.744 OA
ENDBRANCH  82  85
ENDBRANCH  54  78
BRANCH  66  89
ATOM     89  C   UNL     1       8.745  -5.452  15.287  1.00  0.00     0.023 A 
ATOM     90  C   UNL     1       8.998  -4.073  15.417  1.00  0.00     0.012 A 
ATOM     91  C   UNL     1       9.223  -6.340  16.271  1.00  0.00     0.148 A 
ATOM     92  C   UNL     1       9.742  -3.588  16.492  1.00  0.00     0.002 A 
ATOM     93  C   UNL     1       9.922  -5.844  17.365  1.00  0.00     0.091 A 
ATOM     94  F   UNL     1       8.989  -7.651  16.119  1.00  0.00    -0.205 F 
ATOM     95  C   UNL     1      10.193  -4.470  17.471  1.00  0.00     0.022 A 
BRANCH  93  96
ATOM     96  S   UNL     1      10.455  -6.895  18.721  1.00  0.00     0.127 S 
ATOM     97  O   UNL     1      11.895  -6.981  18.483  1.00  0.00    -0.237 OA
ATOM     98  O   UNL     1      10.076  -6.106  19.894  1.00  0.00    -0.237 OA
ATOM     99  O   UNL     1       9.719  -8.144  18.572  1.00  0.00    -0.744 OA
ENDBRANCH  93  96
ENDBRANCH  66  89
ENDBRANCH  40  41
ENDBRANCH  32  35
ENDBRANCH  30  31
ENDBRANCH  29  30
ENDBRANCH   1  29
TORSDOF 18
