REMARK SMILES CCOc1cc(OCC)cc(-c2ccc([C@@H](C)C(=O)NCCCCNC(=O)c3ccc(-c4c5nc(c(-c6cccc(S(=O)(=O)[O-])c6F)c6ccc([nH]6)c(-c6cccc(S(=O)(=O)[O-])c6F)c6nc(c(-c7cccc(S(=O)(=O)[O-])c7F)c7ccc4[nH]7)C=C6)C=C5)cc3)cc2F)c1
REMARK SMILES IDX 22 1 21 2 20 3 18 4 19 5 16 7 17 8 15 9 12 10 13 11 92 12
REMARK SMILES IDX 14 13 91 14 93 15 11 16 4 17 5 18 94 19 6 20 10 21 3 22 2 23
REMARK SMILES IDX 1 24 7 25 8 26 9 27 23 28 24 29 25 30 26 31 27 33 28 34
REMARK SMILES IDX 29 35 90 36 30 37 89 38 31 39 32 40 33 41 83 42 34 43 88 44
REMARK SMILES IDX 82 45 84 46 35 47 87 48 81 49 80 50 36 52 68 53 48 54 67 55
REMARK SMILES IDX 49 56 52 57 66 58 85 59 50 60 51 61 65 63 86 64 53 65 37 66
REMARK SMILES IDX 38 67 46 68 39 69 41 70 47 71 40 72 42 73 43 74 44 75 45 76
REMARK SMILES IDX 69 77 70 78 78 79 71 80 73 81 79 82 72 83 74 84 75 85 76 86
REMARK SMILES IDX 77 87 54 88 55 89 63 90 56 91 58 92 64 93 57 94 59 95 60 96
REMARK SMILES IDX 61 97 62 98
REMARK H PARENT 20 6 25 32 84 51 52 62
REMARK Flexibility Score: inf
ROOT
ATOM      1  C   UNL     1       8.332   1.511   0.957  1.00  0.00     0.023 C 
ENDROOT
BRANCH   1   2
ATOM      2  C   UNL     1       9.219   1.095   2.132  1.00  0.00     0.116 C 
BRANCH   2   3
ATOM      3  N   UNL     1       8.498   1.081   3.389  1.00  0.00    -0.356 N 
ATOM      4  C   UNL     1       7.898   0.075   4.082  1.00  0.00     0.227 C 
ATOM      5  O   UNL     1       7.310   0.393   5.123  1.00  0.00    -0.274 OA
ATOM      6  H   UNL     1       8.430   1.963   3.822  1.00  0.00     0.163 HD
BRANCH   4   7
ATOM      7  C   UNL     1       7.919  -1.399   3.648  1.00  0.00     0.105 C 
ATOM      8  C   UNL     1       9.315  -2.019   3.589  1.00  0.00     0.023 C 
BRANCH   7   9
ATOM      9  C   UNL     1       7.017  -1.689   2.461  1.00  0.00    -0.033 A 
ATOM     10  C   UNL     1       5.212  -2.033   0.265  1.00  0.00     0.018 A 
ATOM     11  C   UNL     1       6.580  -1.769   0.073  1.00  0.00     0.012 A 
ATOM     12  C   UNL     1       4.786  -2.157   1.595  1.00  0.00     0.131 A 
ATOM     13  C   UNL     1       7.471  -1.646   1.143  1.00  0.00     0.005 A 
ATOM     14  C   UNL     1       5.659  -1.966   2.672  1.00  0.00     0.044 A 
ATOM     15  F   UNL     1       3.512  -2.465   1.882  1.00  0.00    -0.206 F 
BRANCH  10  16
ATOM     16  C   UNL     1       4.301  -2.137  -0.901  1.00  0.00    -0.008 A 
ATOM     17  C   UNL     1       2.148  -1.754  -1.978  1.00  0.00     0.123 A 
ATOM     18  C   UNL     1       2.654  -2.207  -3.196  1.00  0.00     0.092 A 
ATOM     19  C   UNL     1       2.960  -1.730  -0.843  1.00  0.00     0.055 A 
ATOM     20  C   UNL     1       3.975  -2.639  -3.285  1.00  0.00     0.123 A 
ATOM     21  C   UNL     1       4.773  -2.617  -2.139  1.00  0.00     0.055 A 
BRANCH  17  22
ATOM     22  O   UNL     1       0.815  -1.456  -1.903  1.00  0.00    -0.494 OA
BRANCH  22  23
ATOM     23  C   UNL     1       0.544  -0.070  -1.654  1.00  0.00     0.226 C 
ATOM     24  C   UNL     1       0.372   0.220  -0.171  1.00  0.00     0.049 C 
ENDBRANCH  22  23
ENDBRANCH  17  22
BRANCH  20  25
ATOM     25  O   UNL     1       4.390  -3.037  -4.528  1.00  0.00    -0.494 OA
BRANCH  25  26
ATOM     26  C   UNL     1       5.659  -3.686  -4.644  1.00  0.00     0.226 C 
ATOM     27  C   UNL     1       6.796  -2.688  -4.807  1.00  0.00     0.049 C 
ENDBRANCH  25  26
ENDBRANCH  20  25
ENDBRANCH  10  16
ENDBRANCH   7   9
ENDBRANCH   4   7
ENDBRANCH   2   3
ENDBRANCH   1   2
BRANCH   1  28
ATOM     28  C   UNL     1       8.251   3.015   0.702  1.00  0.00     0.023 C 
BRANCH  28  29
ATOM     29  C   UNL     1       9.574   3.694   0.361  1.00  0.00     0.116 C 
BRANCH  29  30
ATOM     30  N   UNL     1      10.258   3.120  -0.788  1.00  0.00    -0.352 N 
ATOM     31  C   UNL     1      11.089   3.752  -1.691  1.00  0.00     0.251 C 
ATOM     32  H   UNL     1      10.109   2.159  -0.942  1.00  0.00     0.163 HD
ATOM     33  O   UNL     1      11.531   3.147  -2.651  1.00  0.00    -0.269 OA
BRANCH  31  34
ATOM     34  C   UNL     1      11.397   5.188  -1.496  1.00  0.00     0.039 A 
ATOM     35  C   UNL     1      11.230   6.065  -2.571  1.00  0.00     0.014 A 
ATOM     36  C   UNL     1      11.792   5.670  -0.246  1.00  0.00     0.014 A 
ATOM     37  C   UNL     1      11.389   7.439  -2.370  1.00  0.00     0.010 A 
ATOM     38  C   UNL     1      11.871   7.042  -0.030  1.00  0.00     0.010 A 
ATOM     39  C   UNL     1      11.674   7.941  -1.089  1.00  0.00    -0.014 A 
BRANCH  39  40
ATOM     40  C   UNL     1      11.763   9.400  -0.832  1.00  0.00     0.031 A 
ATOM     41  C   UNL     1      13.057  10.006  -0.358  1.00  0.00     0.074 A 
ATOM     42  C   UNL     1      10.657  10.164  -0.931  1.00  0.00     0.049 A 
ATOM     43  N   UNL     1      13.316  11.246  -0.035  1.00  0.00    -0.248 NA
ATOM     44  C   UNL     1      14.200   9.092  -0.191  1.00  0.00     0.031 C 
ATOM     45  C   UNL     1       9.320   9.678  -1.284  1.00  0.00     0.029 A 
ATOM     46  N   UNL     1      10.475  11.508  -0.719  1.00  0.00    -0.354 N 
ATOM     47  C   UNL     1      14.633  11.255   0.409  1.00  0.00     0.074 A 
ATOM     48  C   UNL     1      15.108   9.890   0.352  1.00  0.00     0.031 C 
ATOM     49  C   UNL     1       8.460  10.710  -1.272  1.00  0.00     0.029 A 
ATOM     50  C   UNL     1       9.175  11.925  -0.895  1.00  0.00     0.049 A 
ATOM     51  H   UNL     1      11.206  12.117  -0.465  1.00  0.00     0.167 HD
ATOM     52  C   UNL     1      15.393  12.308   0.793  1.00  0.00     0.034 A 
ATOM     53  C   UNL     1       8.625  13.149  -0.773  1.00  0.00     0.034 A 
ATOM     54  C   UNL     1      14.938  13.671   0.785  1.00  0.00     0.049 A 
ATOM     55  C   UNL     1       9.511  14.315  -0.424  1.00  0.00     0.074 A 
ATOM     56  C   UNL     1      15.659  14.820   1.054  1.00  0.00     0.029 A 
ATOM     57  N   UNL     1      13.644  14.070   0.488  1.00  0.00    -0.354 N 
ATOM     58  N   UNL     1      10.799  14.328  -0.181  1.00  0.00    -0.248 NA
ATOM     59  C   UNL     1       8.877  15.641  -0.375  1.00  0.00     0.031 C 
ATOM     60  C   UNL     1      14.798  15.916   0.926  1.00  0.00     0.029 A 
ATOM     61  C   UNL     1      13.544  15.448   0.567  1.00  0.00     0.049 A 
ATOM     62  H   UNL     1      12.905  13.462   0.256  1.00  0.00     0.167 HD
ATOM     63  C   UNL     1      11.137  15.662   0.015  1.00  0.00     0.074 A 
ATOM     64  C   UNL     1       9.921  16.430  -0.160  1.00  0.00     0.031 C 
ATOM     65  C   UNL     1      12.340  16.202   0.330  1.00  0.00     0.034 A 
BRANCH  52  66
ATOM     66  C   UNL     1      16.821  12.031   1.180  1.00  0.00     0.023 A 
ATOM     67  C   UNL     1      17.753  11.688   0.178  1.00  0.00     0.012 A 
ATOM     68  C   UNL     1      17.255  12.152   2.514  1.00  0.00     0.148 A 
ATOM     69  C   UNL     1      19.085  11.435   0.502  1.00  0.00     0.002 A 
ATOM     70  C   UNL     1      18.594  11.939   2.823  1.00  0.00     0.091 A 
ATOM     71  F   UNL     1      16.351  12.455   3.457  1.00  0.00    -0.205 F 
ATOM     72  C   UNL     1      19.506  11.570   1.821  1.00  0.00     0.022 A 
BRANCH  70  73
ATOM     73  S   UNL     1      19.250  12.160   4.481  1.00  0.00     0.127 S 
ATOM     74  O   UNL     1      19.454  10.775   4.904  1.00  0.00    -0.237 OA
ATOM     75  O   UNL     1      20.482  12.908   4.230  1.00  0.00    -0.237 OA
ATOM     76  O   UNL     1      18.234  12.898   5.217  1.00  0.00    -0.744 OA
ENDBRANCH  70  73
ENDBRANCH  52  66
BRANCH  53  77
ATOM     77  C   UNL     1       7.180  13.349  -1.079  1.00  0.00     0.023 A 
ATOM     78  C   UNL     1       6.817  14.030  -2.257  1.00  0.00     0.012 A 
ATOM     79  C   UNL     1       6.170  12.845  -0.238  1.00  0.00     0.148 A 
ATOM     80  C   UNL     1       5.474  14.233  -2.578  1.00  0.00     0.002 A 
ATOM     81  C   UNL     1       4.833  13.005  -0.590  1.00  0.00     0.091 A 
ATOM     82  F   UNL     1       6.534  12.211   0.885  1.00  0.00    -0.205 F 
ATOM     83  C   UNL     1       4.483  13.713  -1.750  1.00  0.00     0.022 A 
BRANCH  81  84
ATOM     84  S   UNL     1       3.498  12.255   0.349  1.00  0.00     0.127 S 
ATOM     85  O   UNL     1       2.934  13.409   1.043  1.00  0.00    -0.237 OA
ATOM     86  O   UNL     1       2.655  11.699  -0.710  1.00  0.00    -0.237 OA
ATOM     87  O   UNL     1       4.134  11.252   1.193  1.00  0.00    -0.744 OA
ENDBRANCH  81  84
ENDBRANCH  53  77
BRANCH  65  88
ATOM     88  C   UNL     1      12.418  17.698   0.480  1.00  0.00     0.023 A 
ATOM     89  C   UNL     1      11.872  18.311   1.625  1.00  0.00     0.012 A 
ATOM     90  C   UNL     1      13.101  18.483  -0.469  1.00  0.00     0.148 A 
ATOM     91  C   UNL     1      11.982  19.689   1.809  1.00  0.00     0.002 A 
ATOM     92  C   UNL     1      13.245  19.849  -0.256  1.00  0.00     0.091 A 
ATOM     93  F   UNL     1      13.594  17.884  -1.563  1.00  0.00    -0.205 F 
ATOM     94  C   UNL     1      12.678  20.455   0.877  1.00  0.00     0.022 A 
BRANCH  92  95
ATOM     95  S   UNL     1      14.206  20.893  -1.358  1.00  0.00     0.127 S 
ATOM     96  O   UNL     1      13.158  21.576  -2.113  1.00  0.00    -0.237 OA
ATOM     97  O   UNL     1      14.939  21.747  -0.422  1.00  0.00    -0.237 OA
ATOM     98  O   UNL     1      15.049  19.986  -2.127  1.00  0.00    -0.744 OA
ENDBRANCH  92  95
ENDBRANCH  65  88
ENDBRANCH  39  40
ENDBRANCH  31  34
ENDBRANCH  29  30
ENDBRANCH  28  29
ENDBRANCH   1  28
TORSDOF 20
