REMARK SMILES O=C(NCCCCNC(=O)[C@@H]1C=C[C@@H](NS(=O)(=O)c2ccc(F)c(F)c2F)C1)c1ccc(-c2c3nc(c(-c4cccc(S(=O)(=O)[O-])c4F)c4ccc([nH]4)c(-c4cccc(S(=O)(=O)[O-])c4F)c4nc(c(-c5cccc(S(=O)(=O)[O-])c5F)c5ccc2[nH]5)C=C4)C=C3)cc1
REMARK SMILES IDX 5 1 4 2 3 3 1 4 2 5 29 7 30 8 91 9 31 10 90 11 32 12 33 13
REMARK SMILES IDX 34 14 84 15 35 16 89 17 83 18 85 19 36 20 88 21 82 22 81 23
REMARK SMILES IDX 37 25 69 26 49 27 68 28 50 29 53 30 67 31 86 32 51 33 52 34
REMARK SMILES IDX 66 36 87 37 54 38 38 39 39 40 47 41 40 42 42 43 48 44 41 45
REMARK SMILES IDX 43 46 44 47 45 48 46 49 70 50 71 51 79 52 72 53 74 54 80 55
REMARK SMILES IDX 73 56 75 57 76 58 77 59 78 60 55 61 56 62 64 63 57 64 59 65
REMARK SMILES IDX 65 66 58 67 60 68 61 69 62 70 63 71 6 72 7 73 8 74 9 75
REMARK SMILES IDX 10 77 11 78 12 79 28 80 13 81 14 82 15 83 16 85 17 86 18 87
REMARK SMILES IDX 19 88 20 89 26 90 21 91 24 92 27 93 22 94 25 95 23 96
REMARK H PARENT 3 6 85 24 53 35 8 76 15 84
REMARK Flexibility Score: inf
ROOT
ATOM      1  C   UNL     1       3.978   8.887  -3.187  1.00  0.00     0.023 C 
ENDROOT
BRANCH   1   2
ATOM      2  C   UNL     1       2.526   9.338  -3.214  1.00  0.00     0.116 C 
BRANCH   2   3
ATOM      3  N   UNL     1       2.342  10.720  -2.799  1.00  0.00    -0.352 N 
ATOM      4  O   UNL     1       1.403  12.770  -2.862  1.00  0.00    -0.269 OA
ATOM      5  C   UNL     1       1.367  11.598  -3.218  1.00  0.00     0.251 C 
ATOM      6  H   UNL     1       2.989  11.068  -2.144  1.00  0.00     0.163 HD
BRANCH   5   7
ATOM      7  C   UNL     1       0.324  11.107  -4.142  1.00  0.00     0.039 A 
ATOM      8  C   UNL     1      -0.357   9.919  -3.865  1.00  0.00     0.014 A 
ATOM      9  C   UNL     1       0.084  11.801  -5.330  1.00  0.00     0.014 A 
ATOM     10  C   UNL     1      -1.166   9.349  -4.839  1.00  0.00     0.010 A 
ATOM     11  C   UNL     1      -0.795  11.266  -6.275  1.00  0.00     0.010 A 
ATOM     12  C   UNL     1      -1.398  10.018  -6.052  1.00  0.00    -0.014 A 
BRANCH  12  13
ATOM     13  C   UNL     1      -2.337   9.427  -7.037  1.00  0.00     0.031 A 
ATOM     14  C   UNL     1      -1.870   8.973  -8.392  1.00  0.00     0.074 A 
ATOM     15  C   UNL     1      -3.631   9.299  -6.685  1.00  0.00     0.049 A 
ATOM     16  N   UNL     1      -2.563   8.419  -9.353  1.00  0.00    -0.248 NA
ATOM     17  C   UNL     1      -0.448   9.168  -8.718  1.00  0.00     0.031 C 
ATOM     18  C   UNL     1      -4.202   9.747  -5.412  1.00  0.00     0.029 A 
ATOM     19  N   UNL     1      -4.698   8.762  -7.357  1.00  0.00    -0.354 N 
ATOM     20  C   UNL     1      -1.680   8.238 -10.410  1.00  0.00     0.074 A 
ATOM     21  C   UNL     1      -0.394   8.740  -9.974  1.00  0.00     0.031 C 
ATOM     22  C   UNL     1      -5.507   9.445  -5.384  1.00  0.00     0.029 A 
ATOM     23  C   UNL     1      -5.877   8.829  -6.653  1.00  0.00     0.049 A 
ATOM     24  H   UNL     1      -4.627   8.366  -8.255  1.00  0.00     0.167 HD
ATOM     25  C   UNL     1      -1.918   7.690 -11.626  1.00  0.00     0.034 A 
ATOM     26  C   UNL     1      -7.124   8.451  -6.993  1.00  0.00     0.034 A 
ATOM     27  C   UNL     1      -3.190   7.152 -12.035  1.00  0.00     0.049 A 
ATOM     28  C   UNL     1      -7.345   7.813  -8.333  1.00  0.00     0.074 A 
ATOM     29  C   UNL     1      -3.512   6.516 -13.222  1.00  0.00     0.029 A 
ATOM     30  N   UNL     1      -4.348   7.189 -11.275  1.00  0.00    -0.354 N 
ATOM     31  N   UNL     1      -6.468   7.533  -9.265  1.00  0.00    -0.248 NA
ATOM     32  C   UNL     1      -8.721   7.414  -8.658  1.00  0.00     0.031 C 
ATOM     33  C   UNL     1      -4.869   6.177 -13.182  1.00  0.00     0.029 A 
ATOM     34  C   UNL     1      -5.389   6.592 -11.967  1.00  0.00     0.049 A 
ATOM     35  H   UNL     1      -4.420   7.581 -10.375  1.00  0.00     0.167 HD
ATOM     36  C   UNL     1      -7.180   6.910 -10.281  1.00  0.00     0.074 A 
ATOM     37  C   UNL     1      -8.556   6.824  -9.835  1.00  0.00     0.031 C 
ATOM     38  C   UNL     1      -6.740   6.471 -11.486  1.00  0.00     0.034 A 
BRANCH  25  39
ATOM     39  C   UNL     1      -0.772   7.594 -12.598  1.00  0.00     0.023 A 
ATOM     40  C   UNL     1       0.203   6.593 -12.419  1.00  0.00     0.012 A 
ATOM     41  C   UNL     1      -0.711   8.424 -13.735  1.00  0.00     0.148 A 
ATOM     42  C   UNL     1       1.231   6.428 -13.348  1.00  0.00     0.002 A 
ATOM     43  C   UNL     1       0.297   8.232 -14.674  1.00  0.00     0.091 A 
ATOM     44  F   UNL     1      -1.635   9.384 -13.876  1.00  0.00    -0.205 F 
ATOM     45  C   UNL     1       1.271   7.239 -14.480  1.00  0.00     0.022 A 
BRANCH  43  46
ATOM     46  S   UNL     1       0.394   9.180 -16.198  1.00  0.00     0.127 S 
ATOM     47  O   UNL     1       1.529  10.060 -15.925  1.00  0.00    -0.237 OA
ATOM     48  O   UNL     1       0.655   8.140 -17.195  1.00  0.00    -0.237 OA
ATOM     49  O   UNL     1      -0.895   9.843 -16.339  1.00  0.00    -0.744 OA
ENDBRANCH  43  46
ENDBRANCH  25  39
BRANCH  26  50
ATOM     50  C   UNL     1      -8.235   8.626  -6.019  1.00  0.00     0.023 A 
ATOM     51  C   UNL     1      -8.806   7.494  -5.410  1.00  0.00     0.012 A 
ATOM     52  C   UNL     1      -8.681   9.908  -5.642  1.00  0.00     0.148 A 
ATOM     53  C   UNL     1      -9.815   7.634  -4.455  1.00  0.00     0.002 A 
ATOM     54  C   UNL     1      -9.642  10.042  -4.646  1.00  0.00     0.091 A 
ATOM     55  F   UNL     1      -8.142  10.976  -6.248  1.00  0.00    -0.205 F 
ATOM     56  C   UNL     1     -10.221   8.907  -4.062  1.00  0.00     0.022 A 
BRANCH  54  57
ATOM     57  S   UNL     1     -10.087  11.651  -3.984  1.00  0.00     0.127 S 
ATOM     58  O   UNL     1     -11.308  11.954  -4.725  1.00  0.00    -0.237 OA
ATOM     59  O   UNL     1     -10.284  11.360  -2.563  1.00  0.00    -0.237 OA
ATOM     60  O   UNL     1      -8.938  12.504  -4.259  1.00  0.00    -0.744 OA
ENDBRANCH  54  57
ENDBRANCH  26  50
BRANCH  38  61
ATOM     61  C   UNL     1      -7.755   5.846 -12.403  1.00  0.00     0.023 A 
ATOM     62  C   UNL     1      -8.677   6.671 -13.078  1.00  0.00     0.012 A 
ATOM     63  C   UNL     1      -7.760   4.459 -12.642  1.00  0.00     0.148 A 
ATOM     64  C   UNL     1      -9.606   6.120 -13.959  1.00  0.00     0.002 A 
ATOM     65  C   UNL     1      -8.662   3.922 -13.552  1.00  0.00     0.091 A 
ATOM     66  F   UNL     1      -6.891   3.690 -11.970  1.00  0.00    -0.205 F 
ATOM     67  C   UNL     1      -9.592   4.748 -14.204  1.00  0.00     0.022 A 
BRANCH  65  68
ATOM     68  S   UNL     1      -8.653   2.179 -13.986  1.00  0.00     0.127 S 
ATOM     69  O   UNL     1      -9.778   1.670 -13.204  1.00  0.00    -0.237 OA
ATOM     70  O   UNL     1      -8.881   2.213 -15.431  1.00  0.00    -0.237 OA
ATOM     71  O   UNL     1      -7.339   1.683 -13.599  1.00  0.00    -0.744 OA
ENDBRANCH  65  68
ENDBRANCH  38  61
ENDBRANCH  12  13
ENDBRANCH   5   7
ENDBRANCH   2   3
ENDBRANCH   1   2
BRANCH   1  72
ATOM     72  C   UNL     1       4.628   8.933  -1.806  1.00  0.00     0.023 C 
BRANCH  72  73
ATOM     73  C   UNL     1       4.080   7.909  -0.811  1.00  0.00     0.116 C 
BRANCH  73  74
ATOM     74  N   UNL     1       4.772   6.643  -0.902  1.00  0.00    -0.356 N 
ATOM     75  C   UNL     1       5.869   6.149  -0.274  1.00  0.00     0.226 C 
ATOM     76  H   UNL     1       4.369   6.017  -1.546  1.00  0.00     0.163 HD
ATOM     77  O   UNL     1       6.139   4.966  -0.516  1.00  0.00    -0.274 OA
BRANCH  75  78
ATOM     78  C   UNL     1       6.736   6.917   0.741  1.00  0.00     0.103 C 
ATOM     79  C   UNL     1       6.098   7.034   2.088  1.00  0.00    -0.016 C 
ATOM     80  C   UNL     1       7.195   8.352   0.465  1.00  0.00     0.042 C 
ATOM     81  C   UNL     1       5.931   8.311   2.448  1.00  0.00    -0.011 C 
ATOM     82  C   UNL     1       6.352   9.260   1.377  1.00  0.00     0.093 C 
BRANCH  82  83
ATOM     83  N   UNL     1       7.115  10.385   1.877  1.00  0.00    -0.204 NA
ATOM     84  H   UNL     1       7.449  10.884   1.052  1.00  0.00     0.142 HD
BRANCH  83  85
ATOM     85  S   UNL     1       6.476  11.557   2.896  1.00  0.00     0.244 S 
ATOM     86  O   UNL     1       6.022  10.919   4.111  1.00  0.00    -0.207 OA
ATOM     87  O   UNL     1       7.484  12.592   2.938  1.00  0.00    -0.207 OA
BRANCH  85  88
ATOM     88  C   UNL     1       5.026  12.175   2.084  1.00  0.00     0.121 A 
ATOM     89  C   UNL     1       3.865  11.380   2.051  1.00  0.00     0.028 A 
ATOM     90  C   UNL     1       4.973  13.486   1.622  1.00  0.00     0.181 A 
ATOM     91  C   UNL     1       2.682  11.884   1.505  1.00  0.00     0.044 A 
ATOM     92  C   UNL     1       3.781  13.996   1.111  1.00  0.00     0.195 A 
ATOM     93  F   UNL     1       6.038  14.296   1.673  1.00  0.00    -0.202 F 
ATOM     94  C   UNL     1       2.646  13.197   1.048  1.00  0.00     0.161 A 
ATOM     95  F   UNL     1       3.723  15.272   0.704  1.00  0.00    -0.200 F 
ATOM     96  F   UNL     1       1.494  13.692   0.579  1.00  0.00    -0.204 F 
ENDBRANCH  85  88
ENDBRANCH  83  85
ENDBRANCH  82  83
ENDBRANCH  75  78
ENDBRANCH  73  74
ENDBRANCH  72  73
ENDBRANCH   1  72
TORSDOF 17
