REMARK SMILES CC[C@@H](Oc1cc(Cl)ccc1Cl)C(=O)NNC(=O)[C@@H]1[C@@H]2CC[C@@H](C2)[C@@H]1C(=O)NCCCCNC(=O)c1ccc(-c2c3nc(c(-c4cccc(S(=O)(=O)[O-])c4F)c4ccc([nH]4)c(-c4cccc(S(=O)(=O)[O-])c4F)c4nc(c(-c5cccc(S(=O)(=O)[O-])c5F)c5ccc2[nH]5)C=C4)C=C3)cc1
REMARK SMILES IDX 29 1 28 2 26 3 27 4 25 6 19 7 20 8 21 9 24 10 23 11 22 12
REMARK SMILES IDX 17 13 16 14 18 16 15 17 13 18 14 19 3 21 2 22 1 23 4 24 5 25
REMARK SMILES IDX 6 26 11 27 7 28 10 29 12 30 8 31 9 32 30 33 31 34 32 35
REMARK SMILES IDX 33 36 34 37 35 39 36 40 37 41 98 42 38 43 97 44 39 45 40 46
REMARK SMILES IDX 41 47 91 48 42 49 96 50 90 51 92 52 43 53 95 54 89 55 88 56
REMARK SMILES IDX 44 58 76 59 56 60 75 61 57 62 60 63 74 64 93 65 58 66 59 67
REMARK SMILES IDX 73 69 94 70 61 71 45 72 46 73 54 74 47 75 49 76 55 77 48 78
REMARK SMILES IDX 50 79 51 80 52 81 53 82 77 83 78 84 86 85 79 86 81 87 87 88
REMARK SMILES IDX 80 89 82 90 83 91 84 92 85 93 62 94 63 95 71 96 64 97 66 98
REMARK SMILES IDX 72 99 65 100 67 101 68 102 69 103 70 104
REMARK H PARENT 28 5 16 15 15 20 33 38 92 57 60 68
REMARK Flexibility Score: inf
ROOT
ATOM      1  C   UNL     1      -8.180   4.155   1.384  1.00  0.00     0.116 C 
ENDROOT
BRANCH   1   2
ATOM      2  N   UNL     1      -7.244   4.579   2.407  1.00  0.00    -0.356 N 
ATOM      3  C   UNL     1      -5.942   4.960   2.303  1.00  0.00     0.224 C 
ATOM      4  O   UNL     1      -5.404   5.397   3.315  1.00  0.00    -0.275 OA
ATOM      5  H   UNL     1      -7.609   4.593   3.321  1.00  0.00     0.163 HD
BRANCH   3   6
ATOM      6  C   UNL     1      -5.235   4.857   0.965  1.00  0.00     0.094 C 
ATOM      7  C   UNL     1      -3.688   4.881   0.858  1.00  0.00     0.096 C 
ATOM      8  C   UNL     1      -3.424   5.865  -0.319  1.00  0.00     0.002 C 
ATOM      9  C   UNL     1      -3.700   7.331   0.020  1.00  0.00     0.005 C 
ATOM     10  C   UNL     1      -4.649   5.593  -1.210  1.00  0.00     0.009 C 
ATOM     11  C   UNL     1      -5.648   5.916  -0.093  1.00  0.00     0.002 C 
ATOM     12  C   UNL     1      -5.210   7.341   0.296  1.00  0.00     0.005 C 
BRANCH   7  13
ATOM     13  C   UNL     1      -2.718   4.888   2.051  1.00  0.00     0.242 C 
ATOM     14  N   UNL     1      -2.616   5.894   2.964  1.00  0.00    -0.267 N 
ATOM     15  H   UNL     1      -1.905   5.821   3.641  1.00  0.00     0.191 HD
ATOM     16  O   UNL     1      -1.929   3.939   2.172  1.00  0.00    -0.273 OA
BRANCH  14  17
ATOM     17  N   UNL     1      -3.428   7.004   3.016  1.00  0.00    -0.264 N 
ATOM     18  C   UNL     1      -3.113   8.195   3.624  1.00  0.00     0.279 C 
ATOM     19  O   UNL     1      -3.687   9.231   3.278  1.00  0.00    -0.269 OA
ATOM     20  H   UNL     1      -4.309   6.939   2.582  1.00  0.00     0.191 HD
BRANCH  18  21
ATOM     21  C   UNL     1      -2.285   8.135   4.914  1.00  0.00     0.263 C 
BRANCH  21  22
ATOM     22  C   UNL     1      -3.292   7.673   5.993  1.00  0.00     0.052 C 
ATOM     23  C   UNL     1      -3.154   8.430   7.306  1.00  0.00     0.008 C 
ENDBRANCH  21  22
BRANCH  21  24
ATOM     24  O   UNL     1      -1.187   7.220   4.755  1.00  0.00    -0.479 OA
BRANCH  24  25
ATOM     25  C   UNL     1      -0.240   7.330   5.736  1.00  0.00     0.140 A 
ATOM     26  C   UNL     1      -0.378   6.527   6.871  1.00  0.00     0.068 A 
ATOM     27  C   UNL     1       0.895   8.130   5.577  1.00  0.00     0.083 A 
ATOM     28  C   UNL     1       0.566   6.604   7.890  1.00  0.00     0.044 A 
ATOM     29  C   UNL     1       1.855   8.180   6.592  1.00  0.00     0.026 A 
ATOM     30  Cl  UNL     1       1.156   9.053   4.144  1.00  0.00    -0.080 Cl
ATOM     31  Cl  UNL     1       0.345   5.681   9.324  1.00  0.00    -0.084 Cl
ATOM     32  C   UNL     1       1.681   7.428   7.758  1.00  0.00     0.022 A 
ENDBRANCH  24  25
ENDBRANCH  21  24
ENDBRANCH  18  21
ENDBRANCH  14  17
ENDBRANCH   7  13
ENDBRANCH   3   6
ENDBRANCH   1   2
BRANCH   1  33
ATOM     33  C   UNL     1      -8.710   2.741   1.601  1.00  0.00     0.023 C 
BRANCH  33  34
ATOM     34  C   UNL     1      -9.402   2.490   2.940  1.00  0.00     0.023 C 
BRANCH  34  35
ATOM     35  C   UNL     1     -10.482   3.492   3.328  1.00  0.00     0.116 C 
BRANCH  35  36
ATOM     36  N   UNL     1     -11.588   3.544   2.382  1.00  0.00    -0.352 N 
ATOM     37  C   UNL     1     -12.939   3.523   2.641  1.00  0.00     0.251 C 
ATOM     38  H   UNL     1     -11.336   3.601   1.432  1.00  0.00     0.163 HD
ATOM     39  O   UNL     1     -13.744   3.464   1.715  1.00  0.00    -0.269 OA
BRANCH  37  40
ATOM     40  C   UNL     1     -13.413   3.539   4.042  1.00  0.00     0.039 A 
ATOM     41  C   UNL     1     -14.352   2.589   4.455  1.00  0.00     0.014 A 
ATOM     42  C   UNL     1     -12.898   4.462   4.955  1.00  0.00     0.014 A 
ATOM     43  C   UNL     1     -14.717   2.516   5.802  1.00  0.00     0.010 A 
ATOM     44  C   UNL     1     -13.205   4.339   6.306  1.00  0.00     0.010 A 
ATOM     45  C   UNL     1     -14.117   3.366   6.745  1.00  0.00    -0.014 A 
BRANCH  45  46
ATOM     46  C   UNL     1     -14.422   3.273   8.197  1.00  0.00     0.031 A 
ATOM     47  C   UNL     1     -15.037   4.452   8.904  1.00  0.00     0.074 A 
ATOM     48  C   UNL     1     -14.049   2.185   8.900  1.00  0.00     0.049 A 
ATOM     49  N   UNL     1     -15.239   4.637  10.182  1.00  0.00    -0.248 NA
ATOM     50  C   UNL     1     -15.450   5.588   8.062  1.00  0.00     0.031 C 
ATOM     51  C   UNL     1     -13.396   0.998   8.344  1.00  0.00     0.029 A 
ATOM     52  N   UNL     1     -14.133   1.915  10.244  1.00  0.00    -0.354 N 
ATOM     53  C   UNL     1     -15.761   5.920  10.302  1.00  0.00     0.074 A 
ATOM     54  C   UNL     1     -15.813   6.481   8.970  1.00  0.00     0.031 C 
ATOM     55  C   UNL     1     -13.136   0.131   9.337  1.00  0.00     0.029 A 
ATOM     56  C   UNL     1     -13.568   0.712  10.604  1.00  0.00     0.049 A 
ATOM     57  H   UNL     1     -14.558   2.525  10.890  1.00  0.00     0.167 HD
ATOM     58  C   UNL     1     -16.188   6.562  11.415  1.00  0.00     0.034 A 
ATOM     59  C   UNL     1     -13.403   0.150  11.818  1.00  0.00     0.034 A 
ATOM     60  C   UNL     1     -16.182   5.984  12.730  1.00  0.00     0.049 A 
ATOM     61  C   UNL     1     -13.908   0.879  13.036  1.00  0.00     0.074 A 
ATOM     62  C   UNL     1     -16.647   6.531  13.913  1.00  0.00     0.029 A 
ATOM     63  N   UNL     1     -15.691   4.724  13.037  1.00  0.00    -0.354 N 
ATOM     64  N   UNL     1     -14.509   2.041  13.113  1.00  0.00    -0.248 NA
ATOM     65  C   UNL     1     -13.742   0.204  14.333  1.00  0.00     0.031 C 
ATOM     66  C   UNL     1     -16.428   5.605  14.938  1.00  0.00     0.029 A 
ATOM     67  C   UNL     1     -15.849   4.473  14.388  1.00  0.00     0.049 A 
ATOM     68  H   UNL     1     -15.290   4.101  12.389  1.00  0.00     0.167 HD
ATOM     69  C   UNL     1     -14.840   2.211  14.453  1.00  0.00     0.074 A 
ATOM     70  C   UNL     1     -14.379   1.029  15.152  1.00  0.00     0.031 C 
ATOM     71  C   UNL     1     -15.459   3.257  15.053  1.00  0.00     0.034 A 
BRANCH  58  72
ATOM     72  C   UNL     1     -16.759   7.947  11.247  1.00  0.00     0.023 A 
ATOM     73  C   UNL     1     -18.016   8.105  10.629  1.00  0.00     0.012 A 
ATOM     74  C   UNL     1     -16.087   9.079  11.749  1.00  0.00     0.148 A 
ATOM     75  C   UNL     1     -18.580   9.371  10.480  1.00  0.00     0.002 A 
ATOM     76  C   UNL     1     -16.677  10.332  11.637  1.00  0.00     0.091 A 
ATOM     77  F   UNL     1     -14.885   8.910  12.316  1.00  0.00    -0.205 F 
ATOM     78  C   UNL     1     -17.917  10.482  10.992  1.00  0.00     0.022 A 
BRANCH  76  79
ATOM     79  S   UNL     1     -15.943  11.816  12.334  1.00  0.00     0.127 S 
ATOM     80  O   UNL     1     -15.542  12.541  11.129  1.00  0.00    -0.237 OA
ATOM     81  O   UNL     1     -17.071  12.408  13.054  1.00  0.00    -0.237 OA
ATOM     82  O   UNL     1     -14.850  11.363  13.183  1.00  0.00    -0.744 OA
ENDBRANCH  76  79
ENDBRANCH  58  72
BRANCH  59  83
ATOM     83  C   UNL     1     -12.792  -1.204  11.945  1.00  0.00     0.023 A 
ATOM     84  C   UNL     1     -13.600  -2.287  12.346  1.00  0.00     0.012 A 
ATOM     85  C   UNL     1     -11.429  -1.431  11.676  1.00  0.00     0.148 A 
ATOM     86  C   UNL     1     -13.055  -3.560  12.516  1.00  0.00     0.002 A 
ATOM     87  C   UNL     1     -10.903  -2.713  11.794  1.00  0.00     0.091 A 
ATOM     88  F   UNL     1     -10.672  -0.388  11.308  1.00  0.00    -0.205 F 
ATOM     89  C   UNL     1     -11.709  -3.775  12.232  1.00  0.00     0.022 A 
BRANCH  87  90
ATOM     90  S   UNL     1      -9.213  -3.106  11.330  1.00  0.00     0.127 S 
ATOM     91  O   UNL     1      -8.582  -3.300  12.633  1.00  0.00    -0.237 OA
ATOM     92  O   UNL     1      -9.390  -4.326  10.542  1.00  0.00    -0.237 OA
ATOM     93  O   UNL     1      -8.744  -1.961  10.561  1.00  0.00    -0.744 OA
ENDBRANCH  87  90
ENDBRANCH  59  83
BRANCH  71  94
ATOM     94  C   UNL     1     -15.748   3.155  16.527  1.00  0.00     0.023 A 
ATOM     95  C   UNL     1     -14.704   3.288  17.463  1.00  0.00     0.012 A 
ATOM     96  C   UNL     1     -17.076   3.026  16.983  1.00  0.00     0.148 A 
ATOM     97  C   UNL     1     -14.975   3.269  18.831  1.00  0.00     0.002 A 
ATOM     98  C   UNL     1     -17.343   3.058  18.346  1.00  0.00     0.091 A 
ATOM     99  F   UNL     1     -18.052   2.882  16.075  1.00  0.00    -0.205 F 
ATOM    100  C   UNL     1     -16.293   3.169  19.271  1.00  0.00     0.022 A 
BRANCH  98 101
ATOM    101  S   UNL     1     -19.015   3.035  19.001  1.00  0.00     0.127 S 
ATOM    102  O   UNL     1     -19.083   1.703  19.599  1.00  0.00    -0.237 OA
ATOM    103  O   UNL     1     -18.985   4.136  19.965  1.00  0.00    -0.237 OA
ATOM    104  O   UNL     1     -19.897   3.253  17.862  1.00  0.00    -0.744 OA
ENDBRANCH  98 101
ENDBRANCH  71  94
ENDBRANCH  45  46
ENDBRANCH  37  40
ENDBRANCH  35  36
ENDBRANCH  34  35
ENDBRANCH  33  34
ENDBRANCH   1  33
TORSDOF 20
