REMARK SMILES O=C(N[C@@H]1C=C[C@@H](C(=O)NCCCCNC(=O)c2ccc(-c3c4nc(c(-c5cccc(S(=O)(=O)[O-])c5F)c5ccc([nH]5)c(-c5cccc(S(=O)(=O)[O-])c5F)c5nc(c(-c6cccc(S(=O)(=O)[O-])c6F)c6ccc3[nH]6)C=C5)C=C4)cc2)C1)Oc1ccccc1
REMARK SMILES IDX 12 1 11 2 10 3 8 4 9 5 7 7 4 8 5 9 81 10 6 11 3 12 1 13 2 14
REMARK SMILES IDX 82 16 83 17 84 18 88 19 85 20 87 21 86 22 13 23 14 24 15 25
REMARK SMILES IDX 16 26 17 28 18 29 19 30 80 31 20 32 79 33 21 34 22 35 23 36
REMARK SMILES IDX 73 37 24 38 78 39 72 40 74 41 25 42 77 43 71 44 70 45 26 47
REMARK SMILES IDX 58 48 38 49 57 50 39 51 42 52 56 53 75 54 40 55 41 56 55 58
REMARK SMILES IDX 76 59 43 60 27 61 28 62 36 63 29 64 31 65 37 66 30 67 32 68
REMARK SMILES IDX 33 69 34 70 35 71 59 72 60 73 68 74 61 75 63 76 69 77 62 78
REMARK SMILES IDX 64 79 65 80 66 81 67 82 44 83 45 84 53 85 46 86 48 87 54 88
REMARK SMILES IDX 47 89 49 90 50 91 51 92 52 93
REMARK H PARENT 10 6 3 15 15 27 74 46 42 57
REMARK Flexibility Score: inf
ROOT
ATOM      1  C   UNL     1       2.799  -2.118   3.021  1.00  0.00     0.023 C 
ENDROOT
BRANCH   1   2
ATOM      2  C   UNL     1       3.994  -1.371   3.610  1.00  0.00     0.116 C 
BRANCH   2   3
ATOM      3  N   UNL     1       5.212  -2.149   3.522  1.00  0.00    -0.356 N 
ATOM      4  C   UNL     1       6.338  -2.000   2.780  1.00  0.00     0.227 C 
ATOM      5  O   UNL     1       7.250  -2.808   2.991  1.00  0.00    -0.274 OA
ATOM      6  H   UNL     1       5.226  -2.935   4.115  1.00  0.00     0.163 HD
BRANCH   4   7
ATOM      7  C   UNL     1       6.556  -0.881   1.753  1.00  0.00     0.103 C 
ATOM      8  C   UNL     1       4.874   0.698   0.885  1.00  0.00     0.109 C 
ATOM      9  C   UNL     1       5.792   1.331   1.882  1.00  0.00    -0.006 C 
ATOM     10  C   UNL     1       5.500  -0.690   0.657  1.00  0.00     0.047 C 
ATOM     11  C   UNL     1       6.687   0.471   2.375  1.00  0.00    -0.016 C 
BRANCH   8  12
ATOM     12  N   UNL     1       4.849   1.535  -0.285  1.00  0.00    -0.315 N 
ATOM     13  O   UNL     1       4.130   2.989  -1.825  1.00  0.00    -0.224 OA
ATOM     14  C   UNL     1       3.902   2.396  -0.770  1.00  0.00     0.413 C 
ATOM     15  H   UNL     1       5.662   1.478  -0.838  1.00  0.00     0.167 HD
BRANCH  14  16
ATOM     16  O   UNL     1       2.664   2.580  -0.118  1.00  0.00    -0.410 OA
BRANCH  16  17
ATOM     17  C   UNL     1       2.245   2.322   1.211  1.00  0.00     0.132 A 
ATOM     18  C   UNL     1       1.152   1.477   1.390  1.00  0.00     0.047 A 
ATOM     19  C   UNL     1       2.889   2.921   2.289  1.00  0.00     0.047 A 
ATOM     20  C   UNL     1       0.743   1.167   2.687  1.00  0.00     0.004 A 
ATOM     21  C   UNL     1       2.494   2.581   3.583  1.00  0.00     0.004 A 
ATOM     22  C   UNL     1       1.428   1.700   3.782  1.00  0.00     0.000 A 
ENDBRANCH  16  17
ENDBRANCH  14  16
ENDBRANCH   8  12
ENDBRANCH   4   7
ENDBRANCH   2   3
ENDBRANCH   1   2
BRANCH   1  23
ATOM     23  C   UNL     1       2.323  -3.314   3.850  1.00  0.00     0.023 C 
BRANCH  23  24
ATOM     24  C   UNL     1       1.918  -3.001   5.288  1.00  0.00     0.116 C 
BRANCH  24  25
ATOM     25  N   UNL     1       0.846  -2.021   5.386  1.00  0.00    -0.352 N 
ATOM     26  C   UNL     1      -0.255  -2.017   6.213  1.00  0.00     0.251 C 
ATOM     27  H   UNL     1       0.918  -1.254   4.774  1.00  0.00     0.163 HD
ATOM     28  O   UNL     1      -1.110  -1.153   6.082  1.00  0.00    -0.269 OA
BRANCH  26  29
ATOM     29  C   UNL     1      -0.413  -3.082   7.233  1.00  0.00     0.039 A 
ATOM     30  C   UNL     1      -1.646  -3.729   7.347  1.00  0.00     0.014 A 
ATOM     31  C   UNL     1       0.655  -3.462   8.050  1.00  0.00     0.014 A 
ATOM     32  C   UNL     1      -1.785  -4.808   8.226  1.00  0.00     0.010 A 
ATOM     33  C   UNL     1       0.536  -4.583   8.870  1.00  0.00     0.010 A 
ATOM     34  C   UNL     1      -0.683  -5.270   8.965  1.00  0.00    -0.014 A 
BRANCH  34  35
ATOM     35  C   UNL     1      -0.779  -6.490   9.811  1.00  0.00     0.031 A 
ATOM     36  C   UNL     1      -0.561  -6.414  11.297  1.00  0.00     0.074 A 
ATOM     37  C   UNL     1      -0.966  -7.690   9.225  1.00  0.00     0.049 A 
ATOM     38  N   UNL     1      -0.568  -7.378  12.182  1.00  0.00    -0.248 NA
ATOM     39  C   UNL     1      -0.265  -5.087  11.859  1.00  0.00     0.031 C 
ATOM     40  C   UNL     1      -1.085  -7.916   7.783  1.00  0.00     0.029 A 
ATOM     41  N   UNL     1      -1.054  -8.948   9.767  1.00  0.00    -0.354 N 
ATOM     42  C   UNL     1      -0.248  -6.783  13.396  1.00  0.00     0.074 A 
ATOM     43  C   UNL     1      -0.010  -5.381  13.126  1.00  0.00     0.031 C 
ATOM     44  C   UNL     1      -1.229  -9.230   7.555  1.00  0.00     0.029 A 
ATOM     45  C   UNL     1      -1.191  -9.944   8.828  1.00  0.00     0.049 A 
ATOM     46  H   UNL     1      -1.023  -9.121  10.735  1.00  0.00     0.167 HD
ATOM     47  C   UNL     1      -0.191  -7.341  14.630  1.00  0.00     0.034 A 
ATOM     48  C   UNL     1      -1.273 -11.281   8.972  1.00  0.00     0.034 A 
ATOM     49  C   UNL     1      -0.463  -8.727  14.903  1.00  0.00     0.049 A 
ATOM     50  C   UNL     1      -1.269 -11.873  10.354  1.00  0.00     0.074 A 
ATOM     51  C   UNL     1      -0.529  -9.367  16.128  1.00  0.00     0.029 A 
ATOM     52  N   UNL     1      -0.702  -9.692  13.936  1.00  0.00    -0.354 N 
ATOM     53  N   UNL     1      -1.149 -11.267  11.509  1.00  0.00    -0.248 NA
ATOM     54  C   UNL     1      -1.452 -13.328  10.455  1.00  0.00     0.031 C 
ATOM     55  C   UNL     1      -0.790 -10.724  15.900  1.00  0.00     0.029 A 
ATOM     56  C   UNL     1      -0.906 -10.925  14.534  1.00  0.00     0.049 A 
ATOM     57  H   UNL     1      -0.724  -9.525  12.966  1.00  0.00     0.167 HD
ATOM     58  C   UNL     1      -1.264 -12.259  12.476  1.00  0.00     0.074 A 
ATOM     59  C   UNL     1      -1.494 -13.503  11.769  1.00  0.00     0.031 C 
ATOM     60  C   UNL     1      -1.169 -12.152  13.825  1.00  0.00     0.034 A 
BRANCH  47  61
ATOM     61  C   UNL     1       0.123  -6.425  15.786  1.00  0.00     0.023 A 
ATOM     62  C   UNL     1      -0.832  -5.468  16.189  1.00  0.00     0.012 A 
ATOM     63  C   UNL     1       1.341  -6.520  16.486  1.00  0.00     0.148 A 
ATOM     64  C   UNL     1      -0.562  -4.588  17.236  1.00  0.00     0.002 A 
ATOM     65  C   UNL     1       1.585  -5.669  17.559  1.00  0.00     0.091 A 
ATOM     66  F   UNL     1       2.249  -7.417  16.077  1.00  0.00    -0.205 F 
ATOM     67  C   UNL     1       0.642  -4.694  17.926  1.00  0.00     0.022 A 
BRANCH  65  68
ATOM     68  S   UNL     1       3.075  -5.781  18.557  1.00  0.00     0.127 S 
ATOM     69  O   UNL     1       3.851  -4.647  18.057  1.00  0.00    -0.237 OA
ATOM     70  O   UNL     1       2.554  -5.612  19.914  1.00  0.00    -0.237 OA
ATOM     71  O   UNL     1       3.634  -7.098  18.286  1.00  0.00    -0.744 OA
ENDBRANCH  65  68
ENDBRANCH  47  61
BRANCH  48  72
ATOM     72  C   UNL     1      -1.440 -12.137   7.764  1.00  0.00     0.023 A 
ATOM     73  C   UNL     1      -2.688 -12.739   7.508  1.00  0.00     0.012 A 
ATOM     74  C   UNL     1      -0.393 -12.302   6.836  1.00  0.00     0.148 A 
ATOM     75  C   UNL     1      -2.884 -13.507   6.360  1.00  0.00     0.002 A 
ATOM     76  C   UNL     1      -0.613 -13.021   5.667  1.00  0.00     0.091 A 
ATOM     77  F   UNL     1       0.787 -11.727   7.104  1.00  0.00    -0.205 F 
ATOM     78  C   UNL     1      -1.852 -13.638   5.434  1.00  0.00     0.022 A 
BRANCH  76  79
ATOM     79  S   UNL     1       0.609 -13.126   4.354  1.00  0.00     0.127 S 
ATOM     80  O   UNL     1       0.970 -14.541   4.392  1.00  0.00    -0.237 OA
ATOM     81  O   UNL     1      -0.173 -12.720   3.185  1.00  0.00    -0.237 OA
ATOM     82  O   UNL     1       1.666 -12.194   4.722  1.00  0.00    -0.744 OA
ENDBRANCH  76  79
ENDBRANCH  48  72
BRANCH  60  83
ATOM     83  C   UNL     1      -1.320 -13.415  14.635  1.00  0.00     0.023 A 
ATOM     84  C   UNL     1      -0.289 -14.375  14.627  1.00  0.00     0.012 A 
ATOM     85  C   UNL     1      -2.451 -13.624  15.449  1.00  0.00     0.148 A 
ATOM     86  C   UNL     1      -0.396 -15.539  15.388  1.00  0.00     0.002 A 
ATOM     87  C   UNL     1      -2.529 -14.764  16.241  1.00  0.00     0.091 A 
ATOM     88  F   UNL     1      -3.433 -12.711  15.428  1.00  0.00    -0.205 F 
ATOM     89  C   UNL     1      -1.509 -15.728  16.203  1.00  0.00     0.022 A 
BRANCH  87  90
ATOM     90  S   UNL     1      -3.883 -15.043  17.389  1.00  0.00     0.127 S 
ATOM     91  O   UNL     1      -4.666 -16.058  16.686  1.00  0.00    -0.237 OA
ATOM     92  O   UNL     1      -3.187 -15.528  18.582  1.00  0.00    -0.237 OA
ATOM     93  O   UNL     1      -4.535 -13.751  17.558  1.00  0.00    -0.744 OA
ENDBRANCH  87  90
ENDBRANCH  60  83
ENDBRANCH  34  35
ENDBRANCH  26  29
ENDBRANCH  24  25
ENDBRANCH  23  24
ENDBRANCH   1  23
TORSDOF 17
