REMARK SMILES O=C(NCCCCNC(=O)[C@@H](Cc1ccccc1)N1C(=O)/C(=C/c2ccc3ncccc3c2)SC1=S)c1ccc(-c2c3nc(c(-c4cccc(S(=O)(=O)[O-])c4F)c4ccc([nH]4)c(-c4cccc(S(=O)(=O)[O-])c4F)c4nc(c(-c5cccc(S(=O)(=O)[O-])c5F)c5ccc2[nH]5)C=C4)C=C3)cc1
REMARK SMILES IDX 5 1 4 2 3 3 1 4 2 5 37 7 38 8 99 9 39 10 98 11 40 12 41 13
REMARK SMILES IDX 42 14 92 15 43 16 97 17 91 18 93 19 44 20 96 21 90 22 89 23
REMARK SMILES IDX 45 25 77 26 57 27 76 28 58 29 61 30 75 31 94 32 59 33 60 34
REMARK SMILES IDX 74 36 95 37 62 38 46 39 47 40 55 41 48 42 50 43 56 44 49 45
REMARK SMILES IDX 51 46 52 47 53 48 54 49 78 50 79 51 87 52 80 53 82 54 88 55
REMARK SMILES IDX 81 56 83 57 84 58 85 59 86 60 63 61 64 62 72 63 65 64 67 65
REMARK SMILES IDX 73 66 66 67 68 68 69 69 70 70 71 71 6 72 7 73 8 74 9 75
REMARK SMILES IDX 10 77 11 78 12 79 13 80 14 81 18 82 15 83 17 84 16 85 19 86
REMARK SMILES IDX 20 87 35 88 21 89 22 90 34 91 36 92 23 93 24 94 25 95 33 96
REMARK SMILES IDX 26 97 32 98 27 99 31 100 28 101 30 102 29 103
REMARK H PARENT 3 6 93 24 61 35 8 76
REMARK Flexibility Score: inf
ROOT
ATOM      1  C   UNL     1       5.462  -2.213   0.666  1.00  0.00     0.023 C 
ENDROOT
BRANCH   1   2
ATOM      2  C   UNL     1       4.826  -0.915   0.184  1.00  0.00     0.116 C 
BRANCH   2   3
ATOM      3  N   UNL     1       3.389  -0.986  -0.054  1.00  0.00    -0.352 N 
ATOM      4  O   UNL     1       1.257  -0.204  -0.035  1.00  0.00    -0.269 OA
ATOM      5  C   UNL     1       2.447  -0.002   0.185  1.00  0.00     0.251 C 
ATOM      6  H   UNL     1       3.050  -1.831  -0.427  1.00  0.00     0.163 HD
BRANCH   5   7
ATOM      7  C   UNL     1       2.908   1.273   0.780  1.00  0.00     0.039 A 
ATOM      8  C   UNL     1       3.993   1.947   0.220  1.00  0.00     0.014 A 
ATOM      9  C   UNL     1       2.372   1.686   2.002  1.00  0.00     0.014 A 
ATOM     10  C   UNL     1       4.688   2.869   0.993  1.00  0.00     0.010 A 
ATOM     11  C   UNL     1       3.014   2.694   2.728  1.00  0.00     0.010 A 
ATOM     12  C   UNL     1       4.225   3.235   2.270  1.00  0.00    -0.014 A 
BRANCH  12  13
ATOM     13  C   UNL     1       5.048   4.153   3.107  1.00  0.00     0.031 A 
ATOM     14  C   UNL     1       5.600   3.716   4.444  1.00  0.00     0.074 A 
ATOM     15  C   UNL     1       5.349   5.378   2.633  1.00  0.00     0.049 A 
ATOM     16  N   UNL     1       6.373   4.377   5.269  1.00  0.00    -0.248 NA
ATOM     17  C   UNL     1       5.233   2.374   4.926  1.00  0.00     0.031 C 
ATOM     18  C   UNL     1       4.854   5.933   1.371  1.00  0.00     0.029 A 
ATOM     19  N   UNL     1       6.154   6.367   3.137  1.00  0.00    -0.354 N 
ATOM     20  C   UNL     1       6.530   3.565   6.388  1.00  0.00     0.074 A 
ATOM     21  C   UNL     1       5.777   2.356   6.136  1.00  0.00     0.031 C 
ATOM     22  C   UNL     1       5.412   7.136   1.171  1.00  0.00     0.029 A 
ATOM     23  C   UNL     1       6.256   7.464   2.314  1.00  0.00     0.049 A 
ATOM     24  H   UNL     1       6.615   6.298   4.005  1.00  0.00     0.167 HD
ATOM     25  C   UNL     1       7.247   3.795   7.515  1.00  0.00     0.034 A 
ATOM     26  C   UNL     1       6.951   8.609   2.457  1.00  0.00     0.034 A 
ATOM     27  C   UNL     1       8.064   4.960   7.732  1.00  0.00     0.049 A 
ATOM     28  C   UNL     1       7.798   8.803   3.681  1.00  0.00     0.074 A 
ATOM     29  C   UNL     1       8.880   5.248   8.813  1.00  0.00     0.029 A 
ATOM     30  N   UNL     1       8.181   6.022   6.851  1.00  0.00    -0.354 N 
ATOM     31  N   UNL     1       8.012   7.975   4.675  1.00  0.00    -0.248 NA
ATOM     32  C   UNL     1       8.519  10.078   3.793  1.00  0.00     0.031 C 
ATOM     33  C   UNL     1       9.490   6.487   8.585  1.00  0.00     0.029 A 
ATOM     34  C   UNL     1       9.056   6.967   7.360  1.00  0.00     0.049 A 
ATOM     35  H   UNL     1       7.710   6.095   5.989  1.00  0.00     0.167 HD
ATOM     36  C   UNL     1       8.906   8.620   5.520  1.00  0.00     0.074 A 
ATOM     37  C   UNL     1       9.217   9.895   4.906  1.00  0.00     0.031 C 
ATOM     38  C   UNL     1       9.403   8.204   6.710  1.00  0.00     0.034 A 
BRANCH  25  39
ATOM     39  C   UNL     1       7.226   2.743   8.595  1.00  0.00     0.023 A 
ATOM     40  C   UNL     1       7.987   1.568   8.437  1.00  0.00     0.012 A 
ATOM     41  C   UNL     1       6.521   2.953   9.796  1.00  0.00     0.148 A 
ATOM     42  C   UNL     1       8.028   0.607   9.447  1.00  0.00     0.002 A 
ATOM     43  C   UNL     1       6.595   2.007  10.814  1.00  0.00     0.091 A 
ATOM     44  F   UNL     1       5.782   4.064   9.921  1.00  0.00    -0.205 F 
ATOM     45  C   UNL     1       7.342   0.831  10.639  1.00  0.00     0.022 A 
BRANCH  43  46
ATOM     46  S   UNL     1       5.803   2.253  12.409  1.00  0.00     0.127 S 
ATOM     47  O   UNL     1       4.593   1.447  12.266  1.00  0.00    -0.237 OA
ATOM     48  O   UNL     1       6.791   1.707  13.340  1.00  0.00    -0.237 OA
ATOM     49  O   UNL     1       5.599   3.691  12.527  1.00  0.00    -0.744 OA
ENDBRANCH  43  46
ENDBRANCH  25  39
BRANCH  26  50
ATOM     50  C   UNL     1       6.925   9.621   1.365  1.00  0.00     0.023 A 
ATOM     51  C   UNL     1       8.079   9.820   0.583  1.00  0.00     0.012 A 
ATOM     52  C   UNL     1       5.750  10.328   1.048  1.00  0.00     0.148 A 
ATOM     53  C   UNL     1       8.065  10.714  -0.488  1.00  0.00     0.002 A 
ATOM     54  C   UNL     1       5.725  11.169  -0.058  1.00  0.00     0.091 A 
ATOM     55  F   UNL     1       4.668  10.145   1.819  1.00  0.00    -0.205 F 
ATOM     56  C   UNL     1       6.885  11.376  -0.819  1.00  0.00     0.022 A 
BRANCH  54  57
ATOM     57  S   UNL     1       4.199  11.921  -0.635  1.00  0.00     0.127 S 
ATOM     58  O   UNL     1       4.308  13.274  -0.097  1.00  0.00    -0.237 OA
ATOM     59  O   UNL     1       4.336  11.823  -2.090  1.00  0.00    -0.237 OA
ATOM     60  O   UNL     1       3.135  11.093  -0.084  1.00  0.00    -0.744 OA
ENDBRANCH  54  57
ENDBRANCH  26  50
BRANCH  38  61
ATOM     61  C   UNL     1      10.354   9.127   7.422  1.00  0.00     0.023 A 
ATOM     62  C   UNL     1       9.851  10.267   8.079  1.00  0.00     0.012 A 
ATOM     63  C   UNL     1      11.730   8.840   7.489  1.00  0.00     0.148 A 
ATOM     64  C   UNL     1      10.708  11.122   8.770  1.00  0.00     0.002 A 
ATOM     65  C   UNL     1      12.573   9.677   8.212  1.00  0.00     0.091 A 
ATOM     66  F   UNL     1      12.197   7.765   6.836  1.00  0.00    -0.205 F 
ATOM     67  C   UNL     1      12.066  10.823   8.845  1.00  0.00     0.022 A 
BRANCH  65  68
ATOM     68  S   UNL     1      14.319   9.305   8.419  1.00  0.00     0.127 S 
ATOM     69  O   UNL     1      14.925  10.106   7.358  1.00  0.00    -0.237 OA
ATOM     70  O   UNL     1      14.590   9.786   9.775  1.00  0.00    -0.237 OA
ATOM     71  O   UNL     1      14.428   7.860   8.267  1.00  0.00    -0.744 OA
ENDBRANCH  65  68
ENDBRANCH  38  61
ENDBRANCH  12  13
ENDBRANCH   5   7
ENDBRANCH   2   3
ENDBRANCH   1   2
BRANCH   1  72
ATOM     72  C   UNL     1       5.355  -3.375  -0.311  1.00  0.00     0.023 C 
BRANCH  72  73
ATOM     73  C   UNL     1       6.038  -3.144  -1.657  1.00  0.00     0.116 C 
BRANCH  73  74
ATOM     74  N   UNL     1       7.171  -4.028  -1.838  1.00  0.00    -0.354 N 
ATOM     75  C   UNL     1       7.353  -5.099  -2.654  1.00  0.00     0.243 C 
ATOM     76  H   UNL     1       7.946  -3.816  -1.270  1.00  0.00     0.163 HD
ATOM     77  O   UNL     1       8.490  -5.587  -2.683  1.00  0.00    -0.273 OA
BRANCH  75  78
ATOM     78  C   UNL     1       6.229  -5.745  -3.498  1.00  0.00     0.185 C 
BRANCH  78  79
ATOM     79  C   UNL     1       5.190  -6.445  -2.557  1.00  0.00     0.071 C 
BRANCH  79  80
ATOM     80  C   UNL     1       3.916  -5.790  -2.054  1.00  0.00    -0.045 A 
ATOM     81  C   UNL     1       3.174  -4.824  -2.745  1.00  0.00     0.004 A 
ATOM     82  C   UNL     1       3.401  -6.241  -0.821  1.00  0.00     0.004 A 
ATOM     83  C   UNL     1       2.006  -4.276  -2.197  1.00  0.00     0.000 A 
ATOM     84  C   UNL     1       2.234  -5.699  -0.274  1.00  0.00     0.000 A 
ATOM     85  C   UNL     1       1.542  -4.707  -0.959  1.00  0.00     0.000 A 
ENDBRANCH  79  80
ENDBRANCH  78  79
BRANCH  78  86
ATOM     86  N   UNL     1       5.684  -5.111  -4.721  1.00  0.00    -0.280 N 
ATOM     87  C   UNL     1       4.843  -5.894  -5.510  1.00  0.00     0.266 C 
ATOM     88  C   UNL     1       6.069  -3.926  -5.314  1.00  0.00     0.149 C 
ATOM     89  O   UNL     1       4.617  -7.088  -5.369  1.00  0.00    -0.268 OA
ATOM     90  C   UNL     1       4.264  -5.099  -6.621  1.00  0.00     0.081 C 
ATOM     91  S   UNL     1       4.950  -3.531  -6.616  1.00  0.00    -0.054 SA
ATOM     92  S   UNL     1       7.361  -2.919  -5.024  1.00  0.00    -0.052 S 
ATOM     93  C   UNL     1       3.316  -5.593  -7.432  1.00  0.00     0.029 C 
BRANCH  93  94
ATOM     94  C   UNL     1       2.628  -4.836  -8.484  1.00  0.00    -0.024 A 
ATOM     95  C   UNL     1       1.234  -4.768  -8.477  1.00  0.00     0.010 A 
ATOM     96  C   UNL     1       3.331  -4.139  -9.471  1.00  0.00     0.018 A 
ATOM     97  C   UNL     1       0.565  -3.955  -9.399  1.00  0.00     0.029 A 
ATOM     98  C   UNL     1       2.658  -3.290 -10.364  1.00  0.00     0.001 A 
ATOM     99  C   UNL     1       1.252  -3.188 -10.330  1.00  0.00     0.070 A 
ATOM    100  C   UNL     1       3.358  -2.496 -11.280  1.00  0.00     0.012 A 
ATOM    101  N   UNL     1       0.574  -2.366 -11.149  1.00  0.00    -0.256 NA
ATOM    102  C   UNL     1       2.663  -1.624 -12.106  1.00  0.00     0.021 A 
ATOM    103  C   UNL     1       1.285  -1.596 -12.003  1.00  0.00     0.112 A 
ENDBRANCH  93  94
ENDBRANCH  78  86
ENDBRANCH  75  78
ENDBRANCH  73  74
ENDBRANCH  72  73
ENDBRANCH   1  72
TORSDOF 18
