REMARK SMILES O=C(NCCCCNC(=O)[C@H]1CC[C@@H](C[NH2+][C@H]2CCC[C@H](C3CC3)C2)CC1)c1ccc(-c2c3nc(c(-c4cccc(S(=O)(=O)[O-])c4F)c4ccc([nH]4)c(-c4cccc(S(=O)(=O)[O-])c4F)c4nc(c(-c5cccc(S(=O)(=O)[O-])c5F)c5ccc2[nH]5)C=C4)C=C3)cc1
REMARK SMILES IDX 6 1 5 2 4 3 3 4 1 5 2 6 28 8 29 9 90 10 30 11 89 12 31 13
REMARK SMILES IDX 32 14 33 15 83 16 34 17 88 18 82 19 84 20 35 21 87 22 81 23
REMARK SMILES IDX 80 24 36 26 68 27 48 28 67 29 49 30 52 31 66 32 85 33 50 34
REMARK SMILES IDX 51 35 65 37 86 38 53 39 37 40 38 41 46 42 39 43 41 44 47 45
REMARK SMILES IDX 40 46 42 47 43 48 44 49 45 50 69 51 70 52 78 53 71 54 73 55
REMARK SMILES IDX 79 56 72 57 74 58 75 59 76 60 77 61 54 62 55 63 63 64 56 65
REMARK SMILES IDX 58 66 64 67 57 68 59 69 60 70 61 71 62 72 7 73 8 74 9 75
REMARK SMILES IDX 10 77 11 78 27 79 12 80 26 81 13 82 14 83 15 84 16 85 17 88
REMARK SMILES IDX 18 89 25 90 19 91 21 92 20 93 22 94 23 95 24 96
REMARK H PARENT 3 7 84 25 52 36 8 76 16 86 16 87
REMARK Flexibility Score: inf
ROOT
ATOM      1  C   UNL     1       0.262  12.052  -0.770  1.00  0.00     0.023 C 
ENDROOT
BRANCH   1   2
ATOM      2  C   UNL     1       0.493  12.945   0.451  1.00  0.00     0.023 C 
BRANCH   2   3
ATOM      3  C   UNL     1       1.865  12.801   1.099  1.00  0.00     0.116 C 
BRANCH   3   4
ATOM      4  N   UNL     1       2.968  13.152   0.217  1.00  0.00    -0.352 N 
ATOM      5  O   UNL     1       4.978  14.042  -0.304  1.00  0.00    -0.269 OA
ATOM      6  C   UNL     1       4.183  13.710   0.561  1.00  0.00     0.251 C 
ATOM      7  H   UNL     1       2.832  12.968  -0.741  1.00  0.00     0.163 HD
BRANCH   6   8
ATOM      8  C   UNL     1       4.476  13.937   1.994  1.00  0.00     0.039 A 
ATOM      9  C   UNL     1       4.262  12.918   2.922  1.00  0.00     0.014 A 
ATOM     10  C   UNL     1       4.907  15.198   2.416  1.00  0.00     0.014 A 
ATOM     11  C   UNL     1       4.320  13.204   4.279  1.00  0.00     0.010 A 
ATOM     12  C   UNL     1       5.051  15.457   3.783  1.00  0.00     0.010 A 
ATOM     13  C   UNL     1       4.718  14.475   4.728  1.00  0.00    -0.014 A 
BRANCH  13  14
ATOM     14  C   UNL     1       4.831  14.711   6.191  1.00  0.00     0.031 A 
ATOM     15  C   UNL     1       3.950  15.702   6.903  1.00  0.00     0.074 A 
ATOM     16  C   UNL     1       5.718  13.973   6.887  1.00  0.00     0.049 A 
ATOM     17  N   UNL     1       3.871  15.951   8.186  1.00  0.00    -0.248 NA
ATOM     18  C   UNL     1       3.050  16.524   6.079  1.00  0.00     0.031 C 
ATOM     19  C   UNL     1       6.664  13.024   6.295  1.00  0.00     0.029 A 
ATOM     20  N   UNL     1       5.961  13.888   8.233  1.00  0.00    -0.354 N 
ATOM     21  C   UNL     1       2.940  16.974   8.323  1.00  0.00     0.074 A 
ATOM     22  C   UNL     1       2.488  17.310   6.989  1.00  0.00     0.031 C 
ATOM     23  C   UNL     1       7.354  12.422   7.272  1.00  0.00     0.029 A 
ATOM     24  C   UNL     1       6.935  12.972   8.556  1.00  0.00     0.049 A 
ATOM     25  H   UNL     1       5.485  14.430   8.903  1.00  0.00     0.167 HD
ATOM     26  C   UNL     1       2.488  17.563   9.457  1.00  0.00     0.034 A 
ATOM     27  C   UNL     1       7.439  12.613   9.752  1.00  0.00     0.034 A 
ATOM     28  C   UNL     1       2.916  17.200  10.784  1.00  0.00     0.049 A 
ATOM     29  C   UNL     1       6.874  13.238  10.993  1.00  0.00     0.074 A 
ATOM     30  C   UNL     1       2.493  17.717  11.997  1.00  0.00     0.029 A 
ATOM     31  N   UNL     1       3.859  16.226  11.075  1.00  0.00    -0.354 N 
ATOM     32  N   UNL     1       5.911  14.122  11.104  1.00  0.00    -0.248 NA
ATOM     33  C   UNL     1       7.439  12.797  12.275  1.00  0.00     0.031 C 
ATOM     34  C   UNL     1       3.183  17.057  13.020  1.00  0.00     0.029 A 
ATOM     35  C   UNL     1       4.028  16.122  12.446  1.00  0.00     0.049 A 
ATOM     36  H   UNL     1       4.338  15.686  10.405  1.00  0.00     0.167 HD
ATOM     37  C   UNL     1       5.751  14.339  12.466  1.00  0.00     0.074 A 
ATOM     38  C   UNL     1       6.684  13.459  13.141  1.00  0.00     0.031 C 
ATOM     39  C   UNL     1       4.931  15.211  13.101  1.00  0.00     0.034 A 
BRANCH  26  40
ATOM     40  C   UNL     1       1.428  18.626   9.325  1.00  0.00     0.023 A 
ATOM     41  C   UNL     1       0.100  18.242   9.046  1.00  0.00     0.012 A 
ATOM     42  C   UNL     1       1.718  19.985   9.560  1.00  0.00     0.148 A 
ATOM     43  C   UNL     1      -0.917  19.194   8.983  1.00  0.00     0.002 A 
ATOM     44  C   UNL     1       0.692  20.924   9.529  1.00  0.00     0.091 A 
ATOM     45  F   UNL     1       2.989  20.335   9.804  1.00  0.00    -0.205 F 
ATOM     46  C   UNL     1      -0.624  20.531   9.235  1.00  0.00     0.022 A 
BRANCH  44  47
ATOM     47  S   UNL     1       0.954  22.661   9.909  1.00  0.00     0.127 S 
ATOM     48  O   UNL     1       0.835  23.273   8.586  1.00  0.00    -0.237 OA
ATOM     49  O   UNL     1      -0.157  22.952  10.816  1.00  0.00    -0.237 OA
ATOM     50  O   UNL     1       2.273  22.742  10.521  1.00  0.00    -0.744 OA
ENDBRANCH  44  47
ENDBRANCH  26  40
BRANCH  27  51
ATOM     51  C   UNL     1       8.501  11.571   9.816  1.00  0.00     0.023 A 
ATOM     52  C   UNL     1       8.204  10.304  10.353  1.00  0.00     0.012 A 
ATOM     53  C   UNL     1       9.782  11.806   9.281  1.00  0.00     0.148 A 
ATOM     54  C   UNL     1       9.171   9.298  10.373  1.00  0.00     0.002 A 
ATOM     55  C   UNL     1      10.718  10.779   9.244  1.00  0.00     0.091 A 
ATOM     56  F   UNL     1      10.058  13.025   8.794  1.00  0.00    -0.205 F 
ATOM     57  C   UNL     1      10.421   9.529   9.805  1.00  0.00     0.022 A 
BRANCH  55  58
ATOM     58  S   UNL     1      12.277  10.969   8.372  1.00  0.00     0.127 S 
ATOM     59  O   UNL     1      13.184  11.342   9.453  1.00  0.00    -0.237 OA
ATOM     60  O   UNL     1      12.492   9.631   7.819  1.00  0.00    -0.237 OA
ATOM     61  O   UNL     1      12.019  11.989   7.363  1.00  0.00    -0.744 OA
ENDBRANCH  55  58
ENDBRANCH  27  51
BRANCH  39  62
ATOM     62  C   UNL     1       5.013  15.256  14.602  1.00  0.00     0.023 A 
ATOM     63  C   UNL     1       6.125  15.869  15.214  1.00  0.00     0.012 A 
ATOM     64  C   UNL     1       3.981  14.734  15.405  1.00  0.00     0.148 A 
ATOM     65  C   UNL     1       6.227  15.929  16.602  1.00  0.00     0.002 A 
ATOM     66  C   UNL     1       4.071  14.834  16.789  1.00  0.00     0.091 A 
ATOM     67  F   UNL     1       2.943  14.133  14.807  1.00  0.00    -0.205 F 
ATOM     68  C   UNL     1       5.197  15.421  17.390  1.00  0.00     0.022 A 
BRANCH  66  69
ATOM     69  S   UNL     1       2.749  14.274  17.869  1.00  0.00     0.127 S 
ATOM     70  O   UNL     1       3.249  12.971  18.303  1.00  0.00    -0.237 OA
ATOM     71  O   UNL     1       2.737  15.300  18.913  1.00  0.00    -0.237 OA
ATOM     72  O   UNL     1       1.551  14.249  17.041  1.00  0.00    -0.744 OA
ENDBRANCH  66  69
ENDBRANCH  39  62
ENDBRANCH  13  14
ENDBRANCH   6   8
ENDBRANCH   3   4
ENDBRANCH   2   3
ENDBRANCH   1   2
BRANCH   1  73
ATOM     73  C   UNL     1       0.262  10.555  -0.459  1.00  0.00     0.116 C 
BRANCH  73  74
ATOM     74  N   UNL     1      -0.981  10.141   0.149  1.00  0.00    -0.356 N 
ATOM     75  C   UNL     1      -2.101   9.598  -0.395  1.00  0.00     0.223 C 
ATOM     76  H   UNL     1      -1.024  10.275   1.123  1.00  0.00     0.163 HD
ATOM     77  O   UNL     1      -3.057   9.411   0.365  1.00  0.00    -0.275 OA
BRANCH  75  78
ATOM     78  C   UNL     1      -2.187   9.119  -1.847  1.00  0.00     0.078 C 
ATOM     79  C   UNL     1      -1.827  10.124  -2.951  1.00  0.00     0.014 C 
ATOM     80  C   UNL     1      -1.472   7.772  -1.994  1.00  0.00     0.014 C 
ATOM     81  C   UNL     1      -1.859   9.510  -4.360  1.00  0.00     0.010 C 
ATOM     82  C   UNL     1      -1.658   7.216  -3.402  1.00  0.00     0.010 C 
ATOM     83  C   UNL     1      -1.098   8.170  -4.473  1.00  0.00     0.044 C 
BRANCH  83  84
ATOM     84  C   UNL     1       0.442   8.383  -4.406  1.00  0.00     0.264 C 
BRANCH  84  85
ATOM     85  N   UNL     1       1.168   7.125  -4.301  1.00  0.00    -0.344 N 
ATOM     86  H   UNL     1       0.958   6.588  -5.143  1.00  0.00     0.346 HD
ATOM     87  H   UNL     1       0.848   6.732  -3.416  1.00  0.00     0.346 HD
BRANCH  85  88
ATOM     88  C   UNL     1       2.634   7.152  -4.163  1.00  0.00     0.182 C 
ATOM     89  C   UNL     1       3.332   8.465  -3.769  1.00  0.00     0.065 C 
ATOM     90  C   UNL     1       3.056   6.045  -3.167  1.00  0.00     0.069 C 
ATOM     91  C   UNL     1       3.166   8.852  -2.303  1.00  0.00     0.006 C 
ATOM     92  C   UNL     1       2.740   6.419  -1.702  1.00  0.00    -0.002 C 
ATOM     93  C   UNL     1       3.475   7.715  -1.337  1.00  0.00     0.004 C 
BRANCH  92  94
ATOM     94  C   UNL     1       3.039   5.258  -0.771  1.00  0.00    -0.008 C 
ATOM     95  C   UNL     1       3.911   5.351   0.461  1.00  0.00     0.004 C 
ATOM     96  C   UNL     1       2.422   5.258   0.609  1.00  0.00     0.004 C 
ENDBRANCH  92  94
ENDBRANCH  85  88
ENDBRANCH  84  85
ENDBRANCH  83  84
ENDBRANCH  75  78
ENDBRANCH  73  74
ENDBRANCH   1  73
TORSDOF 18
