REMARK SMILES O=C(NCCCCNC(=O)[C@@H]1C[NH2+]CCN1C(=O)N[C@@H]1CCOC1)c1ccc(-c2c3nc(c(-c4cccc(S(=O)(=O)[O-])c4F)c4ccc([nH]4)c(-c4cccc(S(=O)(=O)[O-])c4F)c4nc(c(-c5cccc(S(=O)(=O)[O-])c5F)c5ccc2[nH]5)C=C4)C=C3)cc1
REMARK SMILES IDX 5 1 4 2 3 3 1 4 2 5 25 7 26 8 87 9 27 10 86 11 28 12 29 13
REMARK SMILES IDX 30 14 80 15 31 16 85 17 79 18 81 19 32 20 84 21 78 22 77 23
REMARK SMILES IDX 33 25 65 26 45 27 64 28 46 29 49 30 63 31 82 32 47 33 48 34
REMARK SMILES IDX 62 36 83 37 50 38 34 39 35 40 43 41 36 42 38 43 44 44 37 45
REMARK SMILES IDX 39 46 40 47 41 48 42 49 66 50 67 51 75 52 68 53 70 54 76 55
REMARK SMILES IDX 69 56 71 57 72 58 73 59 74 60 51 61 52 62 60 63 53 64 55 65
REMARK SMILES IDX 61 66 54 67 56 68 57 69 58 70 59 71 6 72 7 73 8 74 9 75
REMARK SMILES IDX 10 77 11 78 12 79 16 80 13 81 15 82 14 83 17 86 18 87 19 88
REMARK SMILES IDX 20 90 21 91 24 92 22 93 23 94
REMARK H PARENT 3 6 81 24 49 35 8 76 13 84 13 85 19 89
REMARK Flexibility Score: inf
ROOT
ATOM      1  C   UNL     1       4.640   0.683  -2.624  1.00  0.00     0.023 C 
ENDROOT
BRANCH   1   2
ATOM      2  C   UNL     1       4.482   0.951  -1.131  1.00  0.00     0.116 C 
BRANCH   2   3
ATOM      3  N   UNL     1       3.091   0.889  -0.704  1.00  0.00    -0.352 N 
ATOM      4  O   UNL     1       1.216  -0.060   0.105  1.00  0.00    -0.269 OA
ATOM      5  C   UNL     1       2.443  -0.075   0.036  1.00  0.00     0.251 C 
ATOM      6  H   UNL     1       2.531   1.648  -0.986  1.00  0.00     0.163 HD
BRANCH   5   7
ATOM      7  C   UNL     1       3.219  -1.132   0.724  1.00  0.00     0.039 A 
ATOM      8  C   UNL     1       4.388  -0.809   1.414  1.00  0.00     0.014 A 
ATOM      9  C   UNL     1       2.770  -2.456   0.698  1.00  0.00     0.014 A 
ATOM     10  C   UNL     1       5.190  -1.821   1.927  1.00  0.00     0.010 A 
ATOM     11  C   UNL     1       3.529  -3.464   1.308  1.00  0.00     0.010 A 
ATOM     12  C   UNL     1       4.763  -3.159   1.901  1.00  0.00    -0.014 A 
BRANCH  12  13
ATOM     13  C   UNL     1       5.593  -4.182   2.591  1.00  0.00     0.031 A 
ATOM     14  C   UNL     1       6.237  -5.321   1.849  1.00  0.00     0.074 A 
ATOM     15  C   UNL     1       5.799  -4.040   3.917  1.00  0.00     0.049 A 
ATOM     16  N   UNL     1       7.062  -6.231   2.303  1.00  0.00    -0.248 NA
ATOM     17  C   UNL     1       5.913  -5.471   0.422  1.00  0.00     0.031 C 
ATOM     18  C   UNL     1       5.177  -3.011   4.756  1.00  0.00     0.029 A 
ATOM     19  N   UNL     1       6.592  -4.740   4.789  1.00  0.00    -0.354 N 
ATOM     20  C   UNL     1       7.336  -7.074   1.233  1.00  0.00     0.074 A 
ATOM     21  C   UNL     1       6.577  -6.576   0.105  1.00  0.00     0.031 C 
ATOM     22  C   UNL     1       5.645  -3.118   6.006  1.00  0.00     0.029 A 
ATOM     23  C   UNL     1       6.557  -4.252   6.074  1.00  0.00     0.049 A 
ATOM     24  H   UNL     1       7.134  -5.517   4.521  1.00  0.00     0.167 HD
ATOM     25  C   UNL     1       8.160  -8.149   1.189  1.00  0.00     0.034 A 
ATOM     26  C   UNL     1       7.183  -4.671   7.190  1.00  0.00     0.034 A 
ATOM     27  C   UNL     1       8.936  -8.621   2.308  1.00  0.00     0.049 A 
ATOM     28  C   UNL     1       8.125  -5.835   7.097  1.00  0.00     0.074 A 
ATOM     29  C   UNL     1       9.831  -9.678   2.349  1.00  0.00     0.029 A 
ATOM     30  N   UNL     1       8.914  -8.071   3.580  1.00  0.00    -0.354 N 
ATOM     31  N   UNL     1       8.464  -6.537   6.043  1.00  0.00    -0.248 NA
ATOM     32  C   UNL     1       8.795  -6.245   8.338  1.00  0.00     0.031 C 
ATOM     33  C   UNL     1      10.339  -9.773   3.650  1.00  0.00     0.029 A 
ATOM     34  C   UNL     1       9.775  -8.765   4.414  1.00  0.00     0.049 A 
ATOM     35  H   UNL     1       8.365  -7.300   3.852  1.00  0.00     0.167 HD
ATOM     36  C   UNL     1       9.393  -7.467   6.491  1.00  0.00     0.074 A 
ATOM     37  C   UNL     1       9.599  -7.205   7.901  1.00  0.00     0.031 C 
ATOM     38  C   UNL     1       9.998  -8.468   5.806  1.00  0.00     0.034 A 
BRANCH  25  39
ATOM     39  C   UNL     1       8.319  -8.867  -0.127  1.00  0.00     0.023 A 
ATOM     40  C   UNL     1       9.092  -8.275  -1.146  1.00  0.00     0.012 A 
ATOM     41  C   UNL     1       7.791 -10.160  -0.324  1.00  0.00     0.148 A 
ATOM     42  C   UNL     1       9.324  -8.948  -2.345  1.00  0.00     0.002 A 
ATOM     43  C   UNL     1       8.057 -10.839  -1.508  1.00  0.00     0.091 A 
ATOM     44  F   UNL     1       7.045 -10.700   0.650  1.00  0.00    -0.205 F 
ATOM     45  C   UNL     1       8.817 -10.232  -2.522  1.00  0.00     0.022 A 
BRANCH  43  46
ATOM     46  S   UNL     1       7.512 -12.526  -1.808  1.00  0.00     0.127 S 
ATOM     47  O   UNL     1       6.508 -12.329  -2.852  1.00  0.00    -0.237 OA
ATOM     48  O   UNL     1       8.744 -13.172  -2.261  1.00  0.00    -0.237 OA
ATOM     49  O   UNL     1       7.000 -13.016  -0.536  1.00  0.00    -0.744 OA
ENDBRANCH  43  46
ENDBRANCH  25  39
BRANCH  26  50
ATOM     50  C   UNL     1       6.960  -3.954   8.477  1.00  0.00     0.023 A 
ATOM     51  C   UNL     1       8.008  -3.213   9.056  1.00  0.00     0.012 A 
ATOM     52  C   UNL     1       5.700  -3.965   9.105  1.00  0.00     0.148 A 
ATOM     53  C   UNL     1       7.811  -2.521  10.252  1.00  0.00     0.002 A 
ATOM     54  C   UNL     1       5.493  -3.220  10.259  1.00  0.00     0.091 A 
ATOM     55  F   UNL     1       4.718  -4.694   8.553  1.00  0.00    -0.205 F 
ATOM     56  C   UNL     1       6.551  -2.512  10.845  1.00  0.00     0.022 A 
BRANCH  54  57
ATOM     57  S   UNL     1       3.857  -3.037  10.978  1.00  0.00     0.127 S 
ATOM     58  O   UNL     1       3.890  -4.019  12.057  1.00  0.00    -0.237 OA
ATOM     59  O   UNL     1       3.864  -1.640  11.415  1.00  0.00    -0.237 OA
ATOM     60  O   UNL     1       2.930  -3.311   9.887  1.00  0.00    -0.744 OA
ENDBRANCH  54  57
ENDBRANCH  26  50
BRANCH  38  61
ATOM     61  C   UNL     1      10.941  -9.351   6.578  1.00  0.00     0.023 A 
ATOM     62  C   UNL     1      10.420 -10.275   7.507  1.00  0.00     0.012 A 
ATOM     63  C   UNL     1      12.331  -9.293   6.366  1.00  0.00     0.148 A 
ATOM     64  C   UNL     1      11.271 -11.097   8.244  1.00  0.00     0.002 A 
ATOM     65  C   UNL     1      13.170 -10.148   7.071  1.00  0.00     0.091 A 
ATOM     66  F   UNL     1      12.810  -8.393   5.495  1.00  0.00    -0.205 F 
ATOM     67  C   UNL     1      12.644 -11.040   8.019  1.00  0.00     0.022 A 
BRANCH  65  68
ATOM     68  S   UNL     1      14.943 -10.199   6.782  1.00  0.00     0.127 S 
ATOM     69  O   UNL     1      15.454  -9.447   7.927  1.00  0.00    -0.237 OA
ATOM     70  O   UNL     1      15.225 -11.635   6.820  1.00  0.00    -0.237 OA
ATOM     71  O   UNL     1      15.149  -9.582   5.479  1.00  0.00    -0.744 OA
ENDBRANCH  65  68
ENDBRANCH  38  61
ENDBRANCH  12  13
ENDBRANCH   5   7
ENDBRANCH   2   3
ENDBRANCH   1   2
BRANCH   1  72
ATOM     72  C   UNL     1       4.150   1.814  -3.526  1.00  0.00     0.023 C 
BRANCH  72  73
ATOM     73  C   UNL     1       4.944   3.113  -3.414  1.00  0.00     0.116 C 
BRANCH  73  74
ATOM     74  N   UNL     1       6.321   2.995  -3.873  1.00  0.00    -0.354 N 
ATOM     75  C   UNL     1       7.200   4.019  -4.162  1.00  0.00     0.248 C 
ATOM     76  H   UNL     1       6.665   2.080  -3.989  1.00  0.00     0.163 HD
ATOM     77  O   UNL     1       8.364   3.741  -4.445  1.00  0.00    -0.272 OA
BRANCH  75  78
ATOM     78  C   UNL     1       6.638   5.455  -4.180  1.00  0.00     0.231 C 
ATOM     79  C   UNL     1       6.291   5.610  -5.705  1.00  0.00     0.296 C 
ATOM     80  N   UNL     1       7.457   6.608  -3.732  1.00  0.00    -0.302 N 
ATOM     81  N   UNL     1       5.727   6.912  -6.108  1.00  0.00    -0.343 N 
ATOM     82  C   UNL     1       6.938   7.910  -4.183  1.00  0.00     0.183 C 
ATOM     83  C   UNL     1       6.667   7.963  -5.689  1.00  0.00     0.282 C 
ATOM     84  H   UNL     1       4.824   7.054  -5.655  1.00  0.00     0.346 HD
ATOM     85  H   UNL     1       5.590   6.942  -7.119  1.00  0.00     0.346 HD
BRANCH  80  86
ATOM     86  C   UNL     1       8.506   6.665  -2.870  1.00  0.00     0.318 C 
ATOM     87  O   UNL     1       9.282   7.628  -2.874  1.00  0.00    -0.249 OA
ATOM     88  N   UNL     1       8.764   5.753  -1.925  1.00  0.00    -0.333 N 
ATOM     89  H   UNL     1       9.707   5.769  -1.641  1.00  0.00     0.165 HD
BRANCH  88  90
ATOM     90  C   UNL     1       7.993   4.748  -1.219  1.00  0.00     0.112 C 
ATOM     91  C   UNL     1       6.955   5.328  -0.273  1.00  0.00     0.056 C 
ATOM     92  C   UNL     1       8.857   3.855  -0.331  1.00  0.00     0.185 C 
ATOM     93  C   UNL     1       7.244   4.674   1.064  1.00  0.00     0.162 C 
ATOM     94  O   UNL     1       8.031   3.514   0.786  1.00  0.00    -0.379 OA
ENDBRANCH  88  90
ENDBRANCH  80  86
ENDBRANCH  75  78
ENDBRANCH  73  74
ENDBRANCH  72  73
ENDBRANCH   1  72
TORSDOF 16
