REMARK SMILES O=C(NCCCCNC(=O)c1ccc(-c2c3nc(c(-c4cccc(S(=O)(=O)[O-])c4F)c4ccc([nH]4)c(-c4cccc(S(=O)(=O)[O-])c4F)c4nc(c(-c5cccc(S(=O)(=O)[O-])c5F)c5ccc2[nH]5)C=C4)C=C3)cc1)c1ccc(NC(=O)[C@@H]2CC=CC[C@H]2C(=O)Nc2cccc([N+](=O)[O-])c2)cc1
REMARK SMILES IDX 4 1 3 2 1 3 2 4 74 6 75 7 100 8 76 9 99 10 77 11 78 12 79 13
REMARK SMILES IDX 80 15 81 16 82 17 86 18 83 19 85 20 84 21 87 22 88 23 89 24
REMARK SMILES IDX 90 26 91 27 98 28 92 29 94 30 93 31 95 32 96 33 97 34 5 35
REMARK SMILES IDX 6 36 7 37 8 38 9 39 10 41 11 42 12 43 73 44 13 45 72 46
REMARK SMILES IDX 14 47 15 48 16 49 66 50 17 51 71 52 65 53 67 54 18 55 70 56
REMARK SMILES IDX 64 57 63 58 19 60 51 61 31 62 50 63 32 64 35 65 49 66 68 67
REMARK SMILES IDX 33 68 34 69 48 71 69 72 36 73 20 74 21 75 29 76 22 77 24 78
REMARK SMILES IDX 30 79 23 80 25 81 26 82 27 83 28 84 52 85 53 86 61 87 54 88
REMARK SMILES IDX 56 89 62 90 55 91 57 92 58 93 59 94 60 95 37 96 38 97 46 98
REMARK SMILES IDX 39 99 41 100 47 101 40 102 42 103 43 104 44 105 45 106
REMARK H PARENT 3 5 78 14 89 25 8 40 67 59 35 70
REMARK Flexibility Score: inf
ROOT
ATOM      1  C   UNL     1       2.591   6.161   6.465  1.00  0.00     0.116 C 
ENDROOT
BRANCH   1   2
ATOM      2  N   UNL     1       2.492   7.538   6.006  1.00  0.00    -0.352 N 
ATOM      3  O   UNL     1       3.225   9.467   5.068  1.00  0.00    -0.269 OA
ATOM      4  C   UNL     1       3.377   8.258   5.241  1.00  0.00     0.251 C 
ATOM      5  H   UNL     1       1.679   8.020   6.281  1.00  0.00     0.163 HD
BRANCH   4   6
ATOM      6  C   UNL     1       4.522   7.574   4.607  1.00  0.00     0.039 A 
ATOM      7  C   UNL     1       4.303   6.457   3.808  1.00  0.00     0.016 A 
ATOM      8  C   UNL     1       5.815   8.087   4.723  1.00  0.00     0.016 A 
ATOM      9  C   UNL     1       5.387   5.816   3.213  1.00  0.00     0.027 A 
ATOM     10  C   UNL     1       6.897   7.402   4.140  1.00  0.00     0.027 A 
ATOM     11  C   UNL     1       6.691   6.217   3.420  1.00  0.00     0.041 A 
BRANCH  11  12
ATOM     12  N   UNL     1       7.769   5.593   2.767  1.00  0.00    -0.326 N 
ATOM     13  C   UNL     1       7.875   4.442   2.020  1.00  0.00     0.228 C 
ATOM     14  H   UNL     1       8.621   6.077   2.865  1.00  0.00     0.169 HD
ATOM     15  O   UNL     1       8.612   4.526   1.028  1.00  0.00    -0.274 OA
BRANCH  13  16
ATOM     16  C   UNL     1       7.370   3.045   2.513  1.00  0.00     0.095 C 
ATOM     17  C   UNL     1       8.579   2.087   2.229  1.00  0.00     0.041 C 
ATOM     18  C   UNL     1       6.063   2.471   1.893  1.00  0.00     0.095 C 
ATOM     19  C   UNL     1       8.319   0.619   2.296  1.00  0.00    -0.030 C 
ATOM     20  C   UNL     1       5.907   0.926   1.845  1.00  0.00     0.041 C 
ATOM     21  C   UNL     1       7.110   0.096   2.100  1.00  0.00    -0.030 C 
BRANCH  18  22
ATOM     22  C   UNL     1       4.662   2.932   2.340  1.00  0.00     0.228 C 
ATOM     23  O   UNL     1       3.929   3.451   1.481  1.00  0.00    -0.274 OA
ATOM     24  N   UNL     1       4.050   2.696   3.538  1.00  0.00    -0.326 N 
ATOM     25  H   UNL     1       3.111   2.992   3.552  1.00  0.00     0.169 HD
BRANCH  24  26
ATOM     26  C   UNL     1       4.458   2.127   4.751  1.00  0.00     0.048 A 
ATOM     27  C   UNL     1       3.545   1.321   5.438  1.00  0.00     0.026 A 
ATOM     28  C   UNL     1       5.694   2.354   5.330  1.00  0.00     0.111 A 
ATOM     29  C   UNL     1       3.930   0.625   6.592  1.00  0.00     0.009 A 
ATOM     30  C   UNL     1       6.118   1.598   6.430  1.00  0.00     0.271 A 
ATOM     31  C   UNL     1       5.238   0.723   7.066  1.00  0.00     0.086 A 
BRANCH  30  32
ATOM     32  N   UNL     1       7.512   1.707   6.877  1.00  0.00     0.062 N 
ATOM     33  O   UNL     1       7.874   0.986   7.817  1.00  0.00    -0.258 OA
ATOM     34  O   UNL     1       8.254   2.488   6.263  1.00  0.00    -0.258 OA
ENDBRANCH  30  32
ENDBRANCH  24  26
ENDBRANCH  18  22
ENDBRANCH  13  16
ENDBRANCH  11  12
ENDBRANCH   4   6
ENDBRANCH   1   2
BRANCH   1  35
ATOM     35  C   UNL     1       2.724   6.059   7.981  1.00  0.00     0.023 C 
BRANCH  35  36
ATOM     36  C   UNL     1       1.486   6.478   8.770  1.00  0.00     0.023 C 
BRANCH  36  37
ATOM     37  C   UNL     1       0.196   5.755   8.399  1.00  0.00     0.116 C 
BRANCH  37  38
ATOM     38  N   UNL     1       0.276   4.309   8.567  1.00  0.00    -0.352 N 
ATOM     39  C   UNL     1      -0.579   3.468   9.243  1.00  0.00     0.251 C 
ATOM     40  H   UNL     1       1.048   3.874   8.138  1.00  0.00     0.163 HD
ATOM     41  O   UNL     1      -0.297   2.280   9.373  1.00  0.00    -0.269 OA
BRANCH  39  42
ATOM     42  C   UNL     1      -1.819   4.015   9.836  1.00  0.00     0.039 A 
ATOM     43  C   UNL     1      -2.108   3.749  11.177  1.00  0.00     0.014 A 
ATOM     44  C   UNL     1      -2.661   4.835   9.082  1.00  0.00     0.014 A 
ATOM     45  C   UNL     1      -3.198   4.379  11.787  1.00  0.00     0.010 A 
ATOM     46  C   UNL     1      -3.696   5.520   9.711  1.00  0.00     0.010 A 
ATOM     47  C   UNL     1      -3.974   5.305  11.071  1.00  0.00    -0.014 A 
BRANCH  47  48
ATOM     48  C   UNL     1      -5.068   6.082  11.715  1.00  0.00     0.031 A 
ATOM     49  C   UNL     1      -6.480   5.951  11.208  1.00  0.00     0.074 A 
ATOM     50  C   UNL     1      -4.775   6.996  12.664  1.00  0.00     0.049 A 
ATOM     51  N   UNL     1      -7.543   6.635  11.543  1.00  0.00    -0.248 NA
ATOM     52  C   UNL     1      -6.725   4.940  10.165  1.00  0.00     0.031 C 
ATOM     53  C   UNL     1      -3.437   7.275  13.191  1.00  0.00     0.029 A 
ATOM     54  N   UNL     1      -5.581   7.893  13.325  1.00  0.00    -0.354 N 
ATOM     55  C   UNL     1      -8.564   6.181  10.717  1.00  0.00     0.074 A 
ATOM     56  C   UNL     1      -7.993   5.170   9.855  1.00  0.00     0.031 C 
ATOM     57  C   UNL     1      -3.513   8.277  14.083  1.00  0.00     0.029 A 
ATOM     58  C   UNL     1      -4.894   8.740  14.165  1.00  0.00     0.049 A 
ATOM     59  H   UNL     1      -6.558   7.926  13.208  1.00  0.00     0.167 HD
ATOM     60  C   UNL     1      -9.863   6.559  10.690  1.00  0.00     0.034 A 
ATOM     61  C   UNL     1      -5.322   9.786  14.901  1.00  0.00     0.034 A 
ATOM     62  C   UNL     1     -10.444   7.514  11.593  1.00  0.00     0.049 A 
ATOM     63  C   UNL     1      -6.785  10.147  14.882  1.00  0.00     0.074 A 
ATOM     64  C   UNL     1     -11.775   7.868  11.724  1.00  0.00     0.029 A 
ATOM     65  N   UNL     1      -9.734   8.275  12.506  1.00  0.00    -0.354 N 
ATOM     66  N   UNL     1      -7.767   9.579  14.225  1.00  0.00    -0.248 NA
ATOM     67  C   UNL     1      -7.207  11.272  15.732  1.00  0.00     0.031 C 
ATOM     68  C   UNL     1     -11.867   8.868  12.696  1.00  0.00     0.029 A 
ATOM     69  C   UNL     1     -10.597   9.110  13.193  1.00  0.00     0.049 A 
ATOM     70  H   UNL     1      -8.761   8.228  12.646  1.00  0.00     0.167 HD
ATOM     71  C   UNL     1      -8.923  10.245  14.617  1.00  0.00     0.074 A 
ATOM     72  C   UNL     1      -8.524  11.248  15.581  1.00  0.00     0.031 C 
ATOM     73  C   UNL     1     -10.199  10.052  14.206  1.00  0.00     0.034 A 
BRANCH  60  74
ATOM     74  C   UNL     1     -10.774   5.911   9.683  1.00  0.00     0.023 A 
ATOM     75  C   UNL     1     -11.189   4.578   9.869  1.00  0.00     0.012 A 
ATOM     76  C   UNL     1     -11.305   6.661   8.614  1.00  0.00     0.148 A 
ATOM     77  C   UNL     1     -12.104   3.993   8.995  1.00  0.00     0.002 A 
ATOM     78  C   UNL     1     -12.251   6.086   7.775  1.00  0.00     0.091 A 
ATOM     79  F   UNL     1     -10.882   7.922   8.446  1.00  0.00    -0.205 F 
ATOM     80  C   UNL     1     -12.644   4.750   7.958  1.00  0.00     0.022 A 
BRANCH  78  81
ATOM     81  S   UNL     1     -13.070   7.000   6.464  1.00  0.00     0.127 S 
ATOM     82  O   UNL     1     -12.553   6.331   5.271  1.00  0.00    -0.237 OA
ATOM     83  O   UNL     1     -14.482   6.739   6.746  1.00  0.00    -0.237 OA
ATOM     84  O   UNL     1     -12.661   8.388   6.623  1.00  0.00    -0.744 OA
ENDBRANCH  78  81
ENDBRANCH  60  74
BRANCH  61  85
ATOM     85  C   UNL     1      -4.370  10.553  15.757  1.00  0.00     0.023 A 
ATOM     86  C   UNL     1      -4.492  10.483  17.160  1.00  0.00     0.012 A 
ATOM     87  C   UNL     1      -3.364  11.362  15.197  1.00  0.00     0.148 A 
ATOM     88  C   UNL     1      -3.663  11.243  17.986  1.00  0.00     0.002 A 
ATOM     89  C   UNL     1      -2.503  12.071  16.028  1.00  0.00     0.091 A 
ATOM     90  F   UNL     1      -3.271  11.430  13.862  1.00  0.00    -0.205 F 
ATOM     91  C   UNL     1      -2.664  12.031  17.421  1.00  0.00     0.022 A 
BRANCH  89  92
ATOM     92  S   UNL     1      -1.109  13.004  15.386  1.00  0.00     0.127 S 
ATOM     93  O   UNL     1      -1.585  14.379  15.508  1.00  0.00    -0.237 OA
ATOM     94  O   UNL     1      -0.041  12.636  16.317  1.00  0.00    -0.237 OA
ATOM     95  O   UNL     1      -0.909  12.515  14.028  1.00  0.00    -0.744 OA
ENDBRANCH  89  92
ENDBRANCH  61  85
BRANCH  73  96
ATOM     96  C   UNL     1     -11.281  10.889  14.834  1.00  0.00     0.023 A 
ATOM     97  C   UNL     1     -11.406  12.250  14.498  1.00  0.00     0.012 A 
ATOM     98  C   UNL     1     -12.237  10.294  15.683  1.00  0.00     0.148 A 
ATOM     99  C   UNL     1     -12.450  13.014  15.017  1.00  0.00     0.002 A 
ATOM    100  C   UNL     1     -13.304  11.048  16.155  1.00  0.00     0.091 A 
ATOM    101  F   UNL     1     -12.089   9.000  16.003  1.00  0.00    -0.205 F 
ATOM    102  C   UNL     1     -13.406  12.411  15.833  1.00  0.00     0.022 A 
BRANCH 100 103
ATOM    103  S   UNL     1     -14.636  10.331  17.124  1.00  0.00     0.127 S 
ATOM    104  O   UNL     1     -14.396  10.920  18.440  1.00  0.00    -0.237 OA
ATOM    105  O   UNL     1     -15.825  10.836  16.436  1.00  0.00    -0.237 OA
ATOM    106  O   UNL     1     -14.460   8.887  17.046  1.00  0.00    -0.744 OA
ENDBRANCH 100 103
ENDBRANCH  73  96
ENDBRANCH  47  48
ENDBRANCH  39  42
ENDBRANCH  37  38
ENDBRANCH  36  37
ENDBRANCH  35  36
ENDBRANCH   1  35
TORSDOF 19
