REMARK SMILES Cc1cccc(-c2cccnc2C(=O)NCCCCNC(=O)c2ccc(-c3c4nc(c(-c5cccc(S(=O)(=O)[O-])c5F)c5ccc([nH]5)c(-c5cccc(S(=O)(=O)[O-])c5F)c5nc(c(-c6cccc(S(=O)(=O)[O-])c6F)c6ccc3[nH]6)C=C5)C=C4)cc2)c1
REMARK SMILES IDX 18 1 17 2 16 3 15 4 13 5 14 6 12 8 7 9 8 10 9 11 11 12 10 13
REMARK SMILES IDX 6 14 1 15 2 16 3 17 86 18 4 19 5 20 19 21 20 22 21 23 22 25
REMARK SMILES IDX 23 26 24 27 85 28 25 29 84 30 26 31 27 32 28 33 78 34 29 35
REMARK SMILES IDX 83 36 77 37 79 38 30 39 82 40 76 41 75 42 31 44 63 45 43 46
REMARK SMILES IDX 62 47 44 48 47 49 61 50 80 51 45 52 46 53 60 55 81 56 48 57
REMARK SMILES IDX 32 58 33 59 41 60 34 61 36 62 42 63 35 64 37 65 38 66 39 67
REMARK SMILES IDX 40 68 64 69 65 70 73 71 66 72 68 73 74 74 67 75 69 76 70 77
REMARK SMILES IDX 71 78 72 79 49 80 50 81 58 82 51 83 53 84 59 85 52 86 54 87
REMARK SMILES IDX 55 88 56 89 57 90
REMARK H PARENT 15 7 20 24 79 43 47 54
REMARK Flexibility Score: inf
ROOT
ATOM      1  C   UNL     1       0.567  -0.589   4.209  1.00  0.00     0.023 C 
ENDROOT
BRANCH   1   2
ATOM      2  C   UNL     1       0.518   0.619   3.268  1.00  0.00     0.023 C 
BRANCH   2   3
ATOM      3  C   UNL     1      -0.593   0.733   2.228  1.00  0.00     0.116 C 
BRANCH   3   4
ATOM      4  N   UNL     1      -1.922   1.089   2.657  1.00  0.00    -0.351 N 
ATOM      5  C   UNL     1      -2.873   1.878   2.020  1.00  0.00     0.270 C 
ATOM      6  O   UNL     1      -4.006   1.863   2.516  1.00  0.00    -0.267 OA
ATOM      7  H   UNL     1      -2.197   0.721   3.527  1.00  0.00     0.163 HD
BRANCH   5   8
ATOM      8  C   UNL     1      -2.617   2.825   0.850  1.00  0.00     0.135 A 
ATOM      9  C   UNL     1      -1.932   2.560  -0.352  1.00  0.00     0.013 A 
ATOM     10  C   UNL     1      -1.872   3.607  -1.300  1.00  0.00     0.013 A 
ATOM     11  C   UNL     1      -2.492   4.828  -1.072  1.00  0.00     0.021 A 
ATOM     12  N   UNL     1      -3.228   4.037   1.070  1.00  0.00    -0.250 NA
ATOM     13  C   UNL     1      -3.167   4.987   0.117  1.00  0.00     0.112 A 
BRANCH   9  14
ATOM     14  C   UNL     1      -1.264   1.306  -0.713  1.00  0.00    -0.016 A 
ATOM     15  C   UNL     1       2.332   0.016  -0.808  1.00  0.00     0.044 C 
ATOM     16  C   UNL     1       0.839   0.068  -0.951  1.00  0.00    -0.051 A 
ATOM     17  C   UNL     1       0.105  -1.110  -1.083  1.00  0.00     0.003 A 
ATOM     18  C   UNL     1       0.146   1.276  -0.824  1.00  0.00     0.012 A 
ATOM     19  C   UNL     1      -1.292  -1.080  -1.082  1.00  0.00     0.001 A 
ATOM     20  C   UNL     1      -1.977   0.117  -0.884  1.00  0.00     0.009 A 
ENDBRANCH   9  14
ENDBRANCH   5   8
ENDBRANCH   3   4
ENDBRANCH   2   3
ENDBRANCH   1   2
BRANCH   1  21
ATOM     21  C   UNL     1       0.541  -1.970   3.565  1.00  0.00     0.116 C 
BRANCH  21  22
ATOM     22  N   UNL     1       1.627  -2.204   2.608  1.00  0.00    -0.352 N 
ATOM     23  C   UNL     1       1.855  -3.303   1.790  1.00  0.00     0.251 C 
ATOM     24  H   UNL     1       2.289  -1.479   2.534  1.00  0.00     0.163 HD
ATOM     25  O   UNL     1       2.982  -3.486   1.336  1.00  0.00    -0.269 OA
BRANCH  23  26
ATOM     26  C   UNL     1       0.734  -4.194   1.426  1.00  0.00     0.039 A 
ATOM     27  C   UNL     1       0.876  -5.542   1.065  1.00  0.00     0.014 A 
ATOM     28  C   UNL     1      -0.509  -3.593   1.338  1.00  0.00     0.014 A 
ATOM     29  C   UNL     1      -0.241  -6.258   0.609  1.00  0.00     0.010 A 
ATOM     30  C   UNL     1      -1.625  -4.330   1.116  1.00  0.00     0.010 A 
ATOM     31  C   UNL     1      -1.478  -5.623   0.615  1.00  0.00    -0.014 A 
BRANCH  31  32
ATOM     32  C   UNL     1      -2.708  -6.081  -0.007  1.00  0.00     0.031 A 
ATOM     33  C   UNL     1      -3.579  -7.047   0.655  1.00  0.00     0.074 A 
ATOM     34  C   UNL     1      -3.172  -5.213  -0.936  1.00  0.00     0.049 A 
ATOM     35  N   UNL     1      -4.644  -7.521   0.115  1.00  0.00    -0.248 NA
ATOM     36  C   UNL     1      -3.321  -7.557   1.992  1.00  0.00     0.031 C 
ATOM     37  C   UNL     1      -4.537  -4.850  -1.272  1.00  0.00     0.029 A 
ATOM     38  N   UNL     1      -2.397  -4.431  -1.798  1.00  0.00    -0.354 N 
ATOM     39  C   UNL     1      -5.371  -8.122   1.119  1.00  0.00     0.074 A 
ATOM     40  C   UNL     1      -4.449  -8.238   2.225  1.00  0.00     0.031 C 
ATOM     41  C   UNL     1      -4.519  -4.141  -2.417  1.00  0.00     0.029 A 
ATOM     42  C   UNL     1      -3.163  -4.214  -2.941  1.00  0.00     0.049 A 
ATOM     43  H   UNL     1      -1.486  -4.099  -1.629  1.00  0.00     0.167 HD
ATOM     44  C   UNL     1      -6.714  -8.272   0.940  1.00  0.00     0.034 A 
ATOM     45  C   UNL     1      -2.792  -4.737  -4.147  1.00  0.00     0.034 A 
ATOM     46  C   UNL     1      -7.112  -7.736  -0.377  1.00  0.00     0.049 A 
ATOM     47  C   UNL     1      -3.798  -5.766  -4.626  1.00  0.00     0.074 A 
ATOM     48  C   UNL     1      -7.678  -6.534  -0.772  1.00  0.00     0.029 A 
ATOM     49  N   UNL     1      -6.633  -8.338  -1.536  1.00  0.00    -0.354 N 
ATOM     50  N   UNL     1      -4.766  -6.250  -3.896  1.00  0.00    -0.248 NA
ATOM     51  C   UNL     1      -3.803  -6.315  -5.972  1.00  0.00     0.031 C 
ATOM     52  C   UNL     1      -7.488  -6.396  -2.176  1.00  0.00     0.029 A 
ATOM     53  C   UNL     1      -6.835  -7.526  -2.643  1.00  0.00     0.049 A 
ATOM     54  H   UNL     1      -6.205  -9.224  -1.566  1.00  0.00     0.167 HD
ATOM     55  C   UNL     1      -5.454  -7.213  -4.583  1.00  0.00     0.074 A 
ATOM     56  C   UNL     1      -4.847  -7.161  -5.906  1.00  0.00     0.031 C 
ATOM     57  C   UNL     1      -6.422  -7.978  -3.975  1.00  0.00     0.034 A 
BRANCH  44  58
ATOM     58  C   UNL     1      -7.735  -8.611   2.020  1.00  0.00     0.023 A 
ATOM     59  C   UNL     1      -9.089  -8.316   1.734  1.00  0.00     0.012 A 
ATOM     60  C   UNL     1      -7.489  -9.169   3.297  1.00  0.00     0.148 A 
ATOM     61  C   UNL     1     -10.117  -8.479   2.669  1.00  0.00     0.002 A 
ATOM     62  C   UNL     1      -8.508  -9.294   4.251  1.00  0.00     0.091 A 
ATOM     63  F   UNL     1      -6.282  -9.657   3.591  1.00  0.00    -0.205 F 
ATOM     64  C   UNL     1      -9.824  -8.944   3.939  1.00  0.00     0.022 A 
BRANCH  62  65
ATOM     65  S   UNL     1      -8.208  -9.862   5.937  1.00  0.00     0.127 S 
ATOM     66  O   UNL     1      -8.774  -8.771   6.734  1.00  0.00    -0.237 OA
ATOM     67  O   UNL     1      -8.970 -11.108   5.990  1.00  0.00    -0.237 OA
ATOM     68  O   UNL     1      -6.764 -10.008   6.071  1.00  0.00    -0.744 OA
ENDBRANCH  62  65
ENDBRANCH  44  58
BRANCH  45  69
ATOM     69  C   UNL     1      -1.300  -4.804  -4.314  1.00  0.00     0.023 A 
ATOM     70  C   UNL     1      -0.617  -3.562  -4.344  1.00  0.00     0.012 A 
ATOM     71  C   UNL     1      -0.580  -5.957  -3.945  1.00  0.00     0.148 A 
ATOM     72  C   UNL     1       0.689  -3.446  -3.860  1.00  0.00     0.002 A 
ATOM     73  C   UNL     1       0.720  -5.829  -3.447  1.00  0.00     0.091 A 
ATOM     74  F   UNL     1      -1.207  -7.139  -3.974  1.00  0.00    -0.205 F 
ATOM     75  C   UNL     1       1.338  -4.571  -3.364  1.00  0.00     0.022 A 
BRANCH  73  76
ATOM     76  S   UNL     1       1.592  -7.239  -2.743  1.00  0.00     0.127 S 
ATOM     77  O   UNL     1       2.349  -7.718  -3.902  1.00  0.00    -0.237 OA
ATOM     78  O   UNL     1       2.414  -6.620  -1.697  1.00  0.00    -0.237 OA
ATOM     79  O   UNL     1       0.552  -8.108  -2.241  1.00  0.00    -0.744 OA
ENDBRANCH  73  76
ENDBRANCH  45  69
BRANCH  57  80
ATOM     80  C   UNL     1      -7.082  -9.234  -4.546  1.00  0.00     0.023 A 
ATOM     81  C   UNL     1      -6.677  -9.828  -5.754  1.00  0.00     0.012 A 
ATOM     82  C   UNL     1      -8.086  -9.939  -3.820  1.00  0.00     0.148 A 
ATOM     83  C   UNL     1      -7.238 -11.018  -6.234  1.00  0.00     0.002 A 
ATOM     84  C   UNL     1      -8.553 -11.182  -4.240  1.00  0.00     0.091 A 
ATOM     85  F   UNL     1      -8.641  -9.397  -2.728  1.00  0.00    -0.205 F 
ATOM     86  C   UNL     1      -8.154 -11.712  -5.463  1.00  0.00     0.022 A 
BRANCH  84  87
ATOM     87  S   UNL     1      -9.576 -12.211  -3.176  1.00  0.00     0.127 S 
ATOM     88  O   UNL     1     -10.910 -11.973  -3.722  1.00  0.00    -0.237 OA
ATOM     89  O   UNL     1      -9.041 -13.549  -3.437  1.00  0.00    -0.237 OA
ATOM     90  O   UNL     1      -9.339 -11.727  -1.824  1.00  0.00    -0.744 OA
ENDBRANCH  84  87
ENDBRANCH  57  80
ENDBRANCH  31  32
ENDBRANCH  23  26
ENDBRANCH  21  22
ENDBRANCH   1  21
TORSDOF 15
