REMARK SMILES [NH3+][C@@H](Cc1cn(-c2nc(Cl)nc(N3CCOCC3)n2)c2ccccc12)C(=O)NCCCCNC(=O)c1ccc(-c2c3nc(c(-c4cccc(S(=O)(=O)[O-])c4F)c4ccc([nH]4)c(-c4cccc(S(=O)(=O)[O-])c4F)c4nc(c(-c5cccc(S(=O)(=O)[O-])c5F)c5ccc2[nH]5)C=C4)C=C3)cc1
REMARK SMILES IDX 30 1 29 2 28 3 26 4 27 5 2 7 1 8 3 12 4 13 5 14 25 15 6 16
REMARK SMILES IDX 20 17 24 18 21 19 23 20 22 21 7 22 8 23 19 24 9 25 12 26
REMARK SMILES IDX 10 27 11 28 13 29 14 30 18 31 15 32 17 33 16 34 31 35 32 36
REMARK SMILES IDX 33 37 34 38 35 40 36 41 37 42 98 43 38 44 97 45 39 46 40 47
REMARK SMILES IDX 41 48 91 49 42 50 96 51 90 52 92 53 43 54 95 55 89 56 88 57
REMARK SMILES IDX 44 59 76 60 56 61 75 62 57 63 60 64 74 65 93 66 58 67 59 68
REMARK SMILES IDX 73 70 94 71 61 72 45 73 46 74 54 75 47 76 49 77 55 78 48 79
REMARK SMILES IDX 50 80 51 81 52 82 53 83 77 84 78 85 86 86 79 87 81 88 87 89
REMARK SMILES IDX 80 90 82 91 83 92 84 93 85 94 62 95 63 96 71 97 64 98 66 99
REMARK SMILES IDX 72 100 65 101 67 102 68 103 69 104 70 105
REMARK H PARENT 28 6 1 9 1 10 1 11 33 39 92 58 60 69
REMARK Flexibility Score: inf
ROOT
ATOM      1  C   UNL     1      -2.266  -2.185  -1.181  1.00  0.00     0.023 C 
ENDROOT
BRANCH   1   2
ATOM      2  C   UNL     1      -1.503  -0.937  -1.566  1.00  0.00     0.116 C 
BRANCH   2   3
ATOM      3  N   UNL     1      -1.810   0.248  -0.810  1.00  0.00    -0.351 N 
ATOM      4  C   UNL     1      -0.973   1.284  -0.499  1.00  0.00     0.278 C 
ATOM      5  O   UNL     1      -1.501   2.337  -0.118  1.00  0.00    -0.268 OA
ATOM      6  H   UNL     1      -2.733   0.322  -0.476  1.00  0.00     0.163 HD
BRANCH   4   7
ATOM      7  C   UNL     1       0.575   1.183  -0.603  1.00  0.00     0.275 C 
BRANCH   7   8
ATOM      8  N   UNL     1       1.127   0.100   0.242  1.00  0.00    -0.347 N 
ATOM      9  H   UNL     1       2.142   0.073   0.140  1.00  0.00     0.345 HD
ATOM     10  H   UNL     1       0.733  -0.794  -0.051  1.00  0.00     0.345 HD
ATOM     11  H   UNL     1       0.888   0.274   1.218  1.00  0.00     0.345 HD
ENDBRANCH   7   8
BRANCH   7  12
ATOM     12  C   UNL     1       1.185   1.350  -2.014  1.00  0.00     0.113 C 
BRANCH  12  13
ATOM     13  C   UNL     1       1.010   0.250  -3.023  1.00  0.00    -0.015 A 
ATOM     14  C   UNL     1       1.465  -1.053  -2.935  1.00  0.00     0.099 A 
ATOM     15  C   UNL     1       0.300   0.338  -4.267  1.00  0.00     0.004 A 
ATOM     16  N   UNL     1       0.974  -1.788  -4.001  1.00  0.00    -0.285 N 
ATOM     17  C   UNL     1       0.316  -0.928  -4.872  1.00  0.00     0.056 A 
ATOM     18  C   UNL     1      -0.421   1.378  -4.894  1.00  0.00     0.010 A 
ATOM     19  C   UNL     1      -0.384  -1.180  -6.067  1.00  0.00     0.027 A 
ATOM     20  C   UNL     1      -1.136   1.124  -6.068  1.00  0.00     0.001 A 
ATOM     21  C   UNL     1      -1.123  -0.141  -6.639  1.00  0.00     0.002 A 
BRANCH  16  22
ATOM     22  C   UNL     1       0.952  -3.214  -4.051  1.00  0.00     0.240 A 
ATOM     23  N   UNL     1       1.266  -3.821  -5.185  1.00  0.00    -0.181 NA
ATOM     24  N   UNL     1       0.580  -3.832  -2.925  1.00  0.00    -0.176 NA
ATOM     25  C   UNL     1       1.210  -5.144  -5.077  1.00  0.00     0.228 A 
ATOM     26  C   UNL     1       0.476  -5.159  -2.981  1.00  0.00     0.231 A 
ATOM     27  Cl  UNL     1       1.809  -6.016  -6.421  1.00  0.00    -0.041 Cl
ATOM     28  N   UNL     1       0.858  -5.873  -4.022  1.00  0.00    -0.182 NA
BRANCH  26  29
ATOM     29  N   UNL     1      -0.035  -5.770  -1.864  1.00  0.00    -0.336 N 
ATOM     30  C   UNL     1      -1.496  -5.917  -1.819  1.00  0.00     0.148 C 
ATOM     31  C   UNL     1       0.655  -6.929  -1.306  1.00  0.00     0.148 C 
ATOM     32  C   UNL     1      -1.916  -6.106  -0.352  1.00  0.00     0.181 C 
ATOM     33  C   UNL     1       0.195  -7.070   0.158  1.00  0.00     0.181 C 
ATOM     34  O   UNL     1      -1.232  -7.218   0.254  1.00  0.00    -0.378 OA
ENDBRANCH  26  29
ENDBRANCH  16  22
ENDBRANCH  12  13
ENDBRANCH   7  12
ENDBRANCH   4   7
ENDBRANCH   2   3
ENDBRANCH   1   2
BRANCH   1  35
ATOM     35  C   UNL     1      -3.669  -2.325  -1.761  1.00  0.00     0.023 C 
BRANCH  35  36
ATOM     36  C   UNL     1      -3.833  -2.038  -3.261  1.00  0.00     0.116 C 
BRANCH  36  37
ATOM     37  N   UNL     1      -2.913  -2.734  -4.142  1.00  0.00    -0.352 N 
ATOM     38  C   UNL     1      -2.985  -3.878  -4.893  1.00  0.00     0.251 C 
ATOM     39  H   UNL     1      -2.041  -2.283  -4.216  1.00  0.00     0.163 HD
ATOM     40  O   UNL     1      -2.132  -4.013  -5.774  1.00  0.00    -0.269 OA
BRANCH  38  41
ATOM     41  C   UNL     1      -3.934  -4.992  -4.641  1.00  0.00     0.039 A 
ATOM     42  C   UNL     1      -4.878  -4.994  -3.619  1.00  0.00     0.014 A 
ATOM     43  C   UNL     1      -3.752  -6.165  -5.398  1.00  0.00     0.014 A 
ATOM     44  C   UNL     1      -5.509  -6.168  -3.250  1.00  0.00     0.010 A 
ATOM     45  C   UNL     1      -4.415  -7.340  -5.059  1.00  0.00     0.010 A 
ATOM     46  C   UNL     1      -5.240  -7.348  -3.941  1.00  0.00    -0.014 A 
BRANCH  46  47
ATOM     47  C   UNL     1      -5.908  -8.545  -3.456  1.00  0.00     0.031 A 
ATOM     48  C   UNL     1      -7.396  -8.490  -3.463  1.00  0.00     0.074 A 
ATOM     49  C   UNL     1      -5.245  -9.644  -3.053  1.00  0.00     0.049 A 
ATOM     50  N   UNL     1      -8.195  -8.516  -2.444  1.00  0.00    -0.248 NA
ATOM     51  C   UNL     1      -8.064  -8.251  -4.750  1.00  0.00     0.031 C 
ATOM     52  C   UNL     1      -3.823  -9.954  -3.207  1.00  0.00     0.029 A 
ATOM     53  N   UNL     1      -5.761 -10.791  -2.534  1.00  0.00    -0.354 N 
ATOM     54  C   UNL     1      -9.482  -8.500  -2.976  1.00  0.00     0.074 A 
ATOM     55  C   UNL     1      -9.344  -8.197  -4.379  1.00  0.00     0.031 C 
ATOM     56  C   UNL     1      -3.651 -11.285  -3.054  1.00  0.00     0.029 A 
ATOM     57  C   UNL     1      -4.916 -11.886  -2.673  1.00  0.00     0.049 A 
ATOM     58  H   UNL     1      -6.644 -10.841  -2.102  1.00  0.00     0.167 HD
ATOM     59  C   UNL     1     -10.569  -8.928  -2.279  1.00  0.00     0.034 A 
ATOM     60  C   UNL     1      -5.293 -13.186  -2.605  1.00  0.00     0.034 A 
ATOM     61  C   UNL     1     -10.317  -9.047  -0.872  1.00  0.00     0.049 A 
ATOM     62  C   UNL     1      -6.548 -13.229  -1.811  1.00  0.00     0.074 A 
ATOM     63  C   UNL     1      -9.923  -8.177   0.124  1.00  0.00     0.029 A 
ATOM     64  N   UNL     1     -10.122 -10.310  -0.368  1.00  0.00    -0.354 N 
ATOM     65  N   UNL     1      -6.615 -12.912  -0.546  1.00  0.00    -0.248 NA
ATOM     66  C   UNL     1      -7.816 -13.224  -2.525  1.00  0.00     0.031 C 
ATOM     67  C   UNL     1      -9.054  -8.944   0.951  1.00  0.00     0.029 A 
ATOM     68  C   UNL     1      -9.010 -10.238   0.427  1.00  0.00     0.049 A 
ATOM     69  H   UNL     1     -10.672 -11.107  -0.543  1.00  0.00     0.167 HD
ATOM     70  C   UNL     1      -7.832 -12.257  -0.415  1.00  0.00     0.074 A 
ATOM     71  C   UNL     1      -8.569 -12.570  -1.636  1.00  0.00     0.031 C 
ATOM     72  C   UNL     1      -8.022 -11.288   0.529  1.00  0.00     0.034 A 
BRANCH  59  73
ATOM     73  C   UNL     1     -11.782  -9.546  -2.914  1.00  0.00     0.023 A 
ATOM     74  C   UNL     1     -12.972  -9.623  -2.161  1.00  0.00     0.012 A 
ATOM     75  C   UNL     1     -11.720 -10.289  -4.114  1.00  0.00     0.148 A 
ATOM     76  C   UNL     1     -14.049 -10.412  -2.582  1.00  0.00     0.002 A 
ATOM     77  C   UNL     1     -12.817 -11.011  -4.564  1.00  0.00     0.091 A 
ATOM     78  F   UNL     1     -10.552 -10.407  -4.757  1.00  0.00    -0.205 F 
ATOM     79  C   UNL     1     -13.977 -11.094  -3.792  1.00  0.00     0.022 A 
BRANCH  77  80
ATOM     80  S   UNL     1     -12.776 -11.871  -6.139  1.00  0.00     0.127 S 
ATOM     81  O   UNL     1     -12.590 -13.258  -5.707  1.00  0.00    -0.237 OA
ATOM     82  O   UNL     1     -14.105 -11.568  -6.681  1.00  0.00    -0.237 OA
ATOM     83  O   UNL     1     -11.682 -11.272  -6.876  1.00  0.00    -0.744 OA
ENDBRANCH  77  80
ENDBRANCH  59  73
BRANCH  60  84
ATOM     84  C   UNL     1      -4.834 -14.327  -3.442  1.00  0.00     0.023 A 
ATOM     85  C   UNL     1      -5.250 -15.633  -3.111  1.00  0.00     0.012 A 
ATOM     86  C   UNL     1      -4.219 -14.138  -4.702  1.00  0.00     0.148 A 
ATOM     87  C   UNL     1      -5.103 -16.695  -4.014  1.00  0.00     0.002 A 
ATOM     88  C   UNL     1      -4.050 -15.201  -5.585  1.00  0.00     0.091 A 
ATOM     89  F   UNL     1      -3.888 -12.902  -5.095  1.00  0.00    -0.205 F 
ATOM     90  C   UNL     1      -4.506 -16.479  -5.252  1.00  0.00     0.022 A 
BRANCH  88  91
ATOM     91  S   UNL     1      -3.273 -14.969  -7.191  1.00  0.00     0.127 S 
ATOM     92  O   UNL     1      -2.480 -16.191  -7.332  1.00  0.00    -0.237 OA
ATOM     93  O   UNL     1      -4.428 -14.882  -8.080  1.00  0.00    -0.237 OA
ATOM     94  O   UNL     1      -2.472 -13.757  -7.064  1.00  0.00    -0.744 OA
ENDBRANCH  88  91
ENDBRANCH  60  84
BRANCH  72  95
ATOM     95  C   UNL     1      -6.962 -11.079   1.578  1.00  0.00     0.023 A 
ATOM     96  C   UNL     1      -5.684 -10.581   1.245  1.00  0.00     0.012 A 
ATOM     97  C   UNL     1      -7.340 -11.141   2.930  1.00  0.00     0.148 A 
ATOM     98  C   UNL     1      -4.803 -10.153   2.241  1.00  0.00     0.002 A 
ATOM     99  C   UNL     1      -6.476 -10.679   3.915  1.00  0.00     0.091 A 
ATOM    100  F   UNL     1      -8.568 -11.599   3.221  1.00  0.00    -0.205 F 
ATOM    101  C   UNL     1      -5.205 -10.188   3.575  1.00  0.00     0.022 A 
BRANCH  99 102
ATOM    102  S   UNL     1      -6.970 -10.571   5.637  1.00  0.00     0.127 S 
ATOM    103  O   UNL     1      -6.097 -11.558   6.269  1.00  0.00    -0.237 OA
ATOM    104  O   UNL     1      -6.657  -9.179   5.963  1.00  0.00    -0.237 OA
ATOM    105  O   UNL     1      -8.393 -10.888   5.673  1.00  0.00    -0.744 OA
ENDBRANCH  99 102
ENDBRANCH  72  95
ENDBRANCH  46  47
ENDBRANCH  38  41
ENDBRANCH  36  37
ENDBRANCH  35  36
ENDBRANCH   1  35
TORSDOF 19
