REMARK SMILES C[N@H+]1C[C@@H](Oc2cccc3cccnc23)C[C@H]1C(=O)NCCCCNC(=O)c1ccc(-c2c3nc(c(-c4cccc(S(=O)(=O)[O-])c4F)c4ccc([nH]4)c(-c4cccc(S(=O)(=O)[O-])c4F)c4nc(c(-c5cccc(S(=O)(=O)[O-])c5F)c5ccc2[nH]5)C=C4)C=C3)cc1
REMARK SMILES IDX 23 1 22 2 21 3 20 4 18 5 19 6 17 8 1 9 2 10 3 11 4 13 16 14
REMARK SMILES IDX 5 15 6 16 7 17 15 18 8 19 10 20 14 21 9 22 11 23 13 24 12 25
REMARK SMILES IDX 24 26 25 27 26 28 27 30 28 31 29 32 90 33 30 34 89 35 31 36
REMARK SMILES IDX 32 37 33 38 83 39 34 40 88 41 82 42 84 43 35 44 87 45 81 46
REMARK SMILES IDX 80 47 36 49 68 50 48 51 67 52 49 53 52 54 66 55 85 56 50 57
REMARK SMILES IDX 51 58 65 60 86 61 53 62 37 63 38 64 46 65 39 66 41 67 47 68
REMARK SMILES IDX 40 69 42 70 43 71 44 72 45 73 69 74 70 75 78 76 71 77 73 78
REMARK SMILES IDX 79 79 72 80 74 81 75 82 76 83 77 84 54 85 55 86 63 87 56 88
REMARK SMILES IDX 58 89 64 90 57 91 59 92 60 93 61 94 62 95
REMARK H PARENT 20 7 2 12 25 29 84 48 52 59
REMARK Flexibility Score: inf
ROOT
ATOM      1  C   UNL     1      -1.809   2.290   4.340  1.00  0.00     0.023 C 
ENDROOT
BRANCH   1   2
ATOM      2  C   UNL     1      -1.394   1.895   2.920  1.00  0.00     0.023 C 
BRANCH   2   3
ATOM      3  C   UNL     1      -0.362   0.772   2.826  1.00  0.00     0.116 C 
BRANCH   3   4
ATOM      4  N   UNL     1      -0.883  -0.552   2.557  1.00  0.00    -0.351 N 
ATOM      5  C   UNL     1      -0.569  -1.435   1.568  1.00  0.00     0.278 C 
ATOM      6  O   UNL     1      -0.595  -2.631   1.902  1.00  0.00    -0.268 OA
ATOM      7  H   UNL     1      -1.572  -0.862   3.187  1.00  0.00     0.163 HD
BRANCH   5   8
ATOM      8  C   UNL     1      -0.231  -1.111   0.092  1.00  0.00     0.278 C 
ATOM      9  C   UNL     1      -2.028   0.531  -0.407  1.00  0.00     0.333 C 
ATOM     10  N   UNL     1      -0.646   0.158  -0.485  1.00  0.00    -0.324 N 
ATOM     11  C   UNL     1       0.430   1.134  -0.430  1.00  0.00     0.308 C 
ATOM     12  H   UNL     1      -0.773   0.036  -1.490  1.00  0.00     0.348 HD
ATOM     13  C   UNL     1       1.722   0.280  -0.320  1.00  0.00     0.234 C 
ATOM     14  C   UNL     1       1.235  -1.169  -0.309  1.00  0.00     0.126 C 
BRANCH  13  15
ATOM     15  O   UNL     1       2.704   0.759   0.607  1.00  0.00    -0.482 OA
BRANCH  15  16
ATOM     16  C   UNL     1       2.813   0.442   1.935  1.00  0.00     0.146 A 
ATOM     17  C   UNL     1       2.833  -0.871   2.414  1.00  0.00     0.049 A 
ATOM     18  C   UNL     1       3.060   1.513   2.824  1.00  0.00     0.112 A 
ATOM     19  C   UNL     1       2.974  -1.146   3.772  1.00  0.00     0.005 A 
ATOM     20  C   UNL     1       3.273   1.207   4.194  1.00  0.00     0.004 A 
ATOM     21  N   UNL     1       3.085   2.800   2.401  1.00  0.00    -0.252 NA
ATOM     22  C   UNL     1       3.194  -0.109   4.662  1.00  0.00     0.010 A 
ATOM     23  C   UNL     1       3.574   2.241   5.085  1.00  0.00     0.012 A 
ATOM     24  C   UNL     1       3.362   3.777   3.298  1.00  0.00     0.112 A 
ATOM     25  C   UNL     1       3.628   3.548   4.632  1.00  0.00     0.021 A 
ENDBRANCH  15  16
ENDBRANCH  13  15
ENDBRANCH   5   8
ENDBRANCH   3   4
ENDBRANCH   2   3
ENDBRANCH   1   2
BRANCH   1  26
ATOM     26  C   UNL     1      -0.692   2.814   5.240  1.00  0.00     0.116 C 
BRANCH  26  27
ATOM     27  N   UNL     1      -0.059   4.038   4.772  1.00  0.00    -0.352 N 
ATOM     28  C   UNL     1       0.630   4.982   5.502  1.00  0.00     0.251 C 
ATOM     29  H   UNL     1      -0.133   4.215   3.806  1.00  0.00     0.163 HD
ATOM     30  O   UNL     1       1.063   5.990   4.948  1.00  0.00    -0.269 OA
BRANCH  28  31
ATOM     31  C   UNL     1       0.839   4.805   6.963  1.00  0.00     0.039 A 
ATOM     32  C   UNL     1       0.670   5.908   7.806  1.00  0.00     0.014 A 
ATOM     33  C   UNL     1       1.191   3.568   7.509  1.00  0.00     0.014 A 
ATOM     34  C   UNL     1       0.748   5.742   9.193  1.00  0.00     0.010 A 
ATOM     35  C   UNL     1       1.217   3.388   8.888  1.00  0.00     0.010 A 
ATOM     36  C   UNL     1       0.967   4.467   9.742  1.00  0.00    -0.014 A 
BRANCH  36  37
ATOM     37  C   UNL     1       0.775   4.212  11.190  1.00  0.00     0.031 A 
ATOM     38  C   UNL     1       1.911   3.788  12.073  1.00  0.00     0.074 A 
ATOM     39  C   UNL     1      -0.486   4.233  11.668  1.00  0.00     0.049 A 
ATOM     40  N   UNL     1       1.903   3.543  13.358  1.00  0.00    -0.248 NA
ATOM     41  C   UNL     1       3.219   3.579  11.431  1.00  0.00     0.031 C 
ATOM     42  C   UNL     1      -1.685   4.484  10.862  1.00  0.00     0.029 A 
ATOM     43  N   UNL     1      -0.976   4.009  12.928  1.00  0.00    -0.354 N 
ATOM     44  C   UNL     1       3.191   3.135  13.679  1.00  0.00     0.074 A 
ATOM     45  C   UNL     1       3.949   3.131  12.445  1.00  0.00     0.031 C 
ATOM     46  C   UNL     1      -2.769   4.408  11.649  1.00  0.00     0.029 A 
ATOM     47  C   UNL     1      -2.346   4.099  13.009  1.00  0.00     0.049 A 
ATOM     48  H   UNL     1      -0.402   3.804  13.701  1.00  0.00     0.167 HD
ATOM     49  C   UNL     1       3.700   2.823  14.896  1.00  0.00     0.034 A 
ATOM     50  C   UNL     1      -3.170   3.964  14.066  1.00  0.00     0.034 A 
ATOM     51  C   UNL     1       2.934   2.858  16.115  1.00  0.00     0.049 A 
ATOM     52  C   UNL     1      -2.566   3.725  15.420  1.00  0.00     0.074 A 
ATOM     53  C   UNL     1       3.372   2.670  17.415  1.00  0.00     0.029 A 
ATOM     54  N   UNL     1       1.568   3.087  16.185  1.00  0.00    -0.354 N 
ATOM     55  N   UNL     1      -1.306   3.558  15.741  1.00  0.00    -0.248 NA
ATOM     56  C   UNL     1      -3.487   3.710  16.565  1.00  0.00     0.031 C 
ATOM     57  C   UNL     1       2.266   2.771  18.268  1.00  0.00     0.029 A 
ATOM     58  C   UNL     1       1.143   3.040  17.502  1.00  0.00     0.049 A 
ATOM     59  H   UNL     1       0.985   3.257  15.410  1.00  0.00     0.167 HD
ATOM     60  C   UNL     1      -1.276   3.449  17.125  1.00  0.00     0.074 A 
ATOM     61  C   UNL     1      -2.644   3.595  17.582  1.00  0.00     0.031 C 
ATOM     62  C   UNL     1      -0.216   3.232  17.942  1.00  0.00     0.034 A 
BRANCH  49  63
ATOM     63  C   UNL     1       5.168   2.489  14.983  1.00  0.00     0.023 A 
ATOM     64  C   UNL     1       6.119   3.515  14.799  1.00  0.00     0.012 A 
ATOM     65  C   UNL     1       5.611   1.194  15.316  1.00  0.00     0.148 A 
ATOM     66  C   UNL     1       7.483   3.253  14.911  1.00  0.00     0.002 A 
ATOM     67  C   UNL     1       6.973   0.949  15.467  1.00  0.00     0.091 A 
ATOM     68  F   UNL     1       4.698   0.225  15.470  1.00  0.00    -0.205 F 
ATOM     69  C   UNL     1       7.909   1.974  15.255  1.00  0.00     0.022 A 
BRANCH  67  70
ATOM     70  S   UNL     1       7.621  -0.647  15.981  1.00  0.00     0.127 S 
ATOM     71  O   UNL     1       8.223  -1.133  14.739  1.00  0.00    -0.237 OA
ATOM     72  O   UNL     1       8.585  -0.270  17.017  1.00  0.00    -0.237 OA
ATOM     73  O   UNL     1       6.478  -1.407  16.463  1.00  0.00    -0.744 OA
ENDBRANCH  67  70
ENDBRANCH  49  63
BRANCH  50  74
ATOM     74  C   UNL     1      -4.632   4.180  13.888  1.00  0.00     0.023 A 
ATOM     75  C   UNL     1      -5.216   5.363  14.381  1.00  0.00     0.012 A 
ATOM     76  C   UNL     1      -5.431   3.267  13.174  1.00  0.00     0.148 A 
ATOM     77  C   UNL     1      -6.573   5.621  14.190  1.00  0.00     0.002 A 
ATOM     78  C   UNL     1      -6.771   3.555  12.939  1.00  0.00     0.091 A 
ATOM     79  F   UNL     1      -4.859   2.143  12.718  1.00  0.00    -0.205 F 
ATOM     80  C   UNL     1      -7.348   4.724  13.459  1.00  0.00     0.022 A 
BRANCH  78  81
ATOM     81  S   UNL     1      -7.800   2.527  11.884  1.00  0.00     0.127 S 
ATOM     82  O   UNL     1      -8.626   1.826  12.863  1.00  0.00    -0.237 OA
ATOM     83  O   UNL     1      -8.508   3.524  11.081  1.00  0.00    -0.237 OA
ATOM     84  O   UNL     1      -6.871   1.701  11.124  1.00  0.00    -0.744 OA
ENDBRANCH  78  81
ENDBRANCH  50  74
BRANCH  62  85
ATOM     85  C   UNL     1      -0.489   3.156  19.420  1.00  0.00     0.023 A 
ATOM     86  C   UNL     1      -1.129   2.019  19.952  1.00  0.00     0.012 A 
ATOM     87  C   UNL     1      -0.060   4.179  20.287  1.00  0.00     0.148 A 
ATOM     88  C   UNL     1      -1.368   1.917  21.322  1.00  0.00     0.002 A 
ATOM     89  C   UNL     1      -0.260   4.050  21.656  1.00  0.00     0.091 A 
ATOM     90  F   UNL     1       0.527   5.263  19.758  1.00  0.00    -0.205 F 
ATOM     91  C   UNL     1      -0.924   2.926  22.174  1.00  0.00     0.022 A 
BRANCH  89  92
ATOM     92  S   UNL     1       0.360   5.258  22.831  1.00  0.00     0.127 S 
ATOM     93  O   UNL     1      -0.860   5.980  23.189  1.00  0.00    -0.237 OA
ATOM     94  O   UNL     1       0.901   4.410  23.895  1.00  0.00    -0.237 OA
ATOM     95  O   UNL     1       1.363   6.033  22.113  1.00  0.00    -0.744 OA
ENDBRANCH  89  92
ENDBRANCH  62  85
ENDBRANCH  36  37
ENDBRANCH  28  31
ENDBRANCH  26  27
ENDBRANCH   1  26
TORSDOF 16
