REMARK SMILES C[C@H](NC(=O)N1CC[C@@H](C(=O)NCCCCNC(=O)c2ccc(-c3c4nc(c(-c5cccc(S(=O)(=O)[O-])c5F)c5ccc([nH]5)c(-c5cccc(S(=O)(=O)[O-])c5F)c5nc(c(-c6cccc(S(=O)(=O)[O-])c6F)c6ccc3[nH]6)C=C5)C=C4)cc2)[C@H]1C)c1ccc(Cl)cc1
REMARK SMILES IDX 14 1 13 2 12 3 10 4 11 5 9 7 6 8 7 9 83 10 8 11 84 12 4 13
REMARK SMILES IDX 3 14 5 16 2 17 1 18 85 19 86 20 91 21 87 22 90 23 88 24
REMARK SMILES IDX 89 25 15 26 16 27 17 28 18 29 19 31 20 32 21 33 82 34 22 35
REMARK SMILES IDX 81 36 23 37 24 38 25 39 75 40 26 41 80 42 74 43 76 44 27 45
REMARK SMILES IDX 79 46 73 47 72 48 28 50 60 51 40 52 59 53 41 54 44 55 58 56
REMARK SMILES IDX 77 57 42 58 43 59 57 61 78 62 45 63 29 64 30 65 38 66 31 67
REMARK SMILES IDX 33 68 39 69 32 70 34 71 35 72 36 73 37 74 61 75 62 76 70 77
REMARK SMILES IDX 63 78 65 79 71 80 64 81 66 82 67 83 68 84 69 85 46 86 47 87
REMARK SMILES IDX 55 88 48 89 50 90 56 91 49 92 51 93 52 94 53 95 54 96
REMARK H PARENT 12 6 3 15 17 30 76 49 44 60
REMARK Flexibility Score: inf
ROOT
ATOM      1  C   UNL     1       0.157  -1.464  -5.006  1.00  0.00     0.023 C 
ENDROOT
BRANCH   1   2
ATOM      2  C   UNL     1       0.708  -2.774  -4.455  1.00  0.00     0.116 C 
BRANCH   2   3
ATOM      3  N   UNL     1       2.062  -3.046  -4.896  1.00  0.00    -0.356 N 
ATOM      4  C   UNL     1       3.200  -3.298  -4.199  1.00  0.00     0.225 C 
ATOM      5  O   UNL     1       4.220  -3.528  -4.857  1.00  0.00    -0.275 OA
ATOM      6  H   UNL     1       2.177  -3.047  -5.874  1.00  0.00     0.163 HD
BRANCH   4   7
ATOM      7  C   UNL     1       3.281  -3.296  -2.677  1.00  0.00     0.102 C 
ATOM      8  N   UNL     1       1.982  -1.950  -1.142  1.00  0.00    -0.321 N 
ATOM      9  C   UNL     1       1.703  -3.356  -0.851  1.00  0.00     0.122 C 
ATOM     10  C   UNL     1       3.213  -1.937  -1.956  1.00  0.00     0.096 C 
ATOM     11  C   UNL     1       2.271  -4.199  -1.980  1.00  0.00     0.037 C 
ATOM     12  C   UNL     1       3.406  -0.728  -2.856  1.00  0.00     0.032 C 
BRANCH   8  13
ATOM     13  C   UNL     1       1.944  -1.174  -0.000  1.00  0.00     0.318 C 
ATOM     14  N   UNL     1       0.978  -0.248   0.175  1.00  0.00    -0.331 N 
ATOM     15  H   UNL     1       0.752  -0.136   1.126  1.00  0.00     0.165 HD
ATOM     16  O   UNL     1       2.685  -1.402   0.959  1.00  0.00    -0.249 OA
BRANCH  14  17
ATOM     17  C   UNL     1       0.179   0.632  -0.673  1.00  0.00     0.111 C 
ATOM     18  C   UNL     1       0.636   0.819  -2.104  1.00  0.00     0.036 C 
BRANCH  17  19
ATOM     19  C   UNL     1      -1.321   0.406  -0.634  1.00  0.00    -0.026 A 
ATOM     20  C   UNL     1      -2.169   1.532  -0.712  1.00  0.00     0.007 A 
ATOM     21  C   UNL     1      -1.898  -0.868  -0.663  1.00  0.00     0.007 A 
ATOM     22  C   UNL     1      -3.551   1.389  -0.834  1.00  0.00     0.021 A 
ATOM     23  C   UNL     1      -3.287  -1.012  -0.781  1.00  0.00     0.021 A 
ATOM     24  C   UNL     1      -4.105   0.115  -0.873  1.00  0.00     0.041 A 
ATOM     25  Cl  UNL     1      -5.806  -0.065  -1.053  1.00  0.00    -0.084 Cl
ENDBRANCH  17  19
ENDBRANCH  14  17
ENDBRANCH   8  13
ENDBRANCH   4   7
ENDBRANCH   2   3
ENDBRANCH   1   2
BRANCH   1  26
ATOM     26  C   UNL     1      -0.086  -1.419  -6.508  1.00  0.00     0.023 C 
BRANCH  26  27
ATOM     27  C   UNL     1      -1.045  -2.468  -7.046  1.00  0.00     0.116 C 
BRANCH  27  28
ATOM     28  N   UNL     1      -2.341  -2.471  -6.383  1.00  0.00    -0.352 N 
ATOM     29  C   UNL     1      -3.607  -2.477  -6.931  1.00  0.00     0.251 C 
ATOM     30  H   UNL     1      -2.309  -2.469  -5.399  1.00  0.00     0.163 HD
ATOM     31  O   UNL     1      -4.586  -2.388  -6.211  1.00  0.00    -0.269 OA
BRANCH  29  32
ATOM     32  C   UNL     1      -3.759  -2.554  -8.402  1.00  0.00     0.039 A 
ATOM     33  C   UNL     1      -4.639  -1.675  -9.036  1.00  0.00     0.014 A 
ATOM     34  C   UNL     1      -2.996  -3.450  -9.152  1.00  0.00     0.014 A 
ATOM     35  C   UNL     1      -4.686  -1.636 -10.432  1.00  0.00     0.010 A 
ATOM     36  C   UNL     1      -2.967  -3.337 -10.537  1.00  0.00     0.010 A 
ATOM     37  C   UNL     1      -3.815  -2.434 -11.194  1.00  0.00    -0.014 A 
BRANCH  37  38
ATOM     38  C   UNL     1      -3.762  -2.323 -12.674  1.00  0.00     0.031 A 
ATOM     39  C   UNL     1      -4.057  -3.519 -13.538  1.00  0.00     0.074 A 
ATOM     40  C   UNL     1      -3.344  -1.171 -13.238  1.00  0.00     0.049 A 
ATOM     41  N   UNL     1      -4.027  -3.620 -14.842  1.00  0.00    -0.248 NA
ATOM     42  C   UNL     1      -4.390  -4.777 -12.850  1.00  0.00     0.031 C 
ATOM     43  C   UNL     1      -2.909   0.021 -12.507  1.00  0.00     0.029 A 
ATOM     44  N   UNL     1      -3.189  -0.824 -14.557  1.00  0.00    -0.354 N 
ATOM     45  C   UNL     1      -4.289  -4.955 -15.125  1.00  0.00     0.074 A 
ATOM     46  C   UNL     1      -4.434  -5.636 -13.858  1.00  0.00     0.031 C 
ATOM     47  C   UNL     1      -2.548   0.971 -13.385  1.00  0.00     0.029 A 
ATOM     48  C   UNL     1      -2.704   0.451 -14.739  1.00  0.00     0.049 A 
ATOM     49  H   UNL     1      -3.404  -1.429 -15.302  1.00  0.00     0.167 HD
ATOM     50  C   UNL     1      -4.433  -5.556 -16.330  1.00  0.00     0.034 A 
ATOM     51  C   UNL     1      -2.420   1.127 -15.870  1.00  0.00     0.034 A 
ATOM     52  C   UNL     1      -4.353  -4.861 -17.586  1.00  0.00     0.049 A 
ATOM     53  C   UNL     1      -2.685   0.469 -17.196  1.00  0.00     0.074 A 
ATOM     54  C   UNL     1      -4.613  -5.344 -18.855  1.00  0.00     0.029 A 
ATOM     55  N   UNL     1      -3.976  -3.535 -17.731  1.00  0.00    -0.354 N 
ATOM     56  N   UNL     1      -3.132  -0.739 -17.442  1.00  0.00    -0.248 NA
ATOM     57  C   UNL     1      -2.449   1.279 -18.399  1.00  0.00     0.031 C 
ATOM     58  C   UNL     1      -4.374  -4.314 -19.771  1.00  0.00     0.029 A 
ATOM     59  C   UNL     1      -3.984  -3.184 -19.070  1.00  0.00     0.049 A 
ATOM     60  H   UNL     1      -3.738  -2.932 -16.991  1.00  0.00     0.167 HD
ATOM     61  C   UNL     1      -3.253  -0.827 -18.824  1.00  0.00     0.074 A 
ATOM     62  C   UNL     1      -2.864   0.462 -19.359  1.00  0.00     0.031 C 
ATOM     63  C   UNL     1      -3.632  -1.885 -19.584  1.00  0.00     0.034 A 
BRANCH  50  64
ATOM     64  C   UNL     1      -4.758  -7.027 -16.342  1.00  0.00     0.023 A 
ATOM     65  C   UNL     1      -6.029  -7.464 -15.913  1.00  0.00     0.012 A 
ATOM     66  C   UNL     1      -3.827  -7.973 -16.812  1.00  0.00     0.148 A 
ATOM     67  C   UNL     1      -6.354  -8.819 -15.912  1.00  0.00     0.002 A 
ATOM     68  C   UNL     1      -4.175  -9.319 -16.853  1.00  0.00     0.091 A 
ATOM     69  F   UNL     1      -2.615  -7.545 -17.193  1.00  0.00    -0.205 F 
ATOM     70  C   UNL     1      -5.431  -9.745 -16.392  1.00  0.00     0.022 A 
BRANCH  68  71
ATOM     71  S   UNL     1      -3.086 -10.579 -17.527  1.00  0.00     0.127 S 
ATOM     72  O   UNL     1      -2.649 -11.270 -16.315  1.00  0.00    -0.237 OA
ATOM     73  O   UNL     1      -3.996 -11.352 -18.373  1.00  0.00    -0.237 OA
ATOM     74  O   UNL     1      -2.046  -9.863 -18.252  1.00  0.00    -0.744 OA
ENDBRANCH  68  71
ENDBRANCH  50  64
BRANCH  51  75
ATOM     75  C   UNL     1      -1.933   2.533 -15.789  1.00  0.00     0.023 A 
ATOM     76  C   UNL     1      -2.789   3.585 -16.168  1.00  0.00     0.012 A 
ATOM     77  C   UNL     1      -0.650   2.837 -15.293  1.00  0.00     0.148 A 
ATOM     78  C   UNL     1      -2.368   4.912 -16.083  1.00  0.00     0.002 A 
ATOM     79  C   UNL     1      -0.257   4.164 -15.158  1.00  0.00     0.091 A 
ATOM     80  F   UNL     1       0.154   1.822 -14.947  1.00  0.00    -0.205 F 
ATOM     81  C   UNL     1      -1.108   5.202 -15.567  1.00  0.00     0.022 A 
BRANCH  79  82
ATOM     82  S   UNL     1       1.290   4.634 -14.374  1.00  0.00     0.127 S 
ATOM     83  O   UNL     1       2.067   5.117 -15.512  1.00  0.00    -0.237 OA
ATOM     84  O   UNL     1       0.852   5.673 -13.440  1.00  0.00    -0.237 OA
ATOM     85  O   UNL     1       1.787   3.425 -13.732  1.00  0.00    -0.744 OA
ENDBRANCH  79  82
ENDBRANCH  51  75
BRANCH  63  86
ATOM     86  C   UNL     1      -3.654  -1.693 -21.078  1.00  0.00     0.023 A 
ATOM     87  C   UNL     1      -2.440  -1.601 -21.786  1.00  0.00     0.012 A 
ATOM     88  C   UNL     1      -4.872  -1.667 -21.786  1.00  0.00     0.148 A 
ATOM     89  C   UNL     1      -2.437  -1.449 -23.172  1.00  0.00     0.002 A 
ATOM     90  C   UNL     1      -4.859  -1.565 -23.172  1.00  0.00     0.091 A 
ATOM     91  F   UNL     1      -6.018  -1.736 -21.093  1.00  0.00    -0.205 F 
ATOM     92  C   UNL     1      -3.644  -1.442 -23.865  1.00  0.00     0.022 A 
BRANCH  90  93
ATOM     93  S   UNL     1      -6.364  -1.645 -24.150  1.00  0.00     0.127 S 
ATOM     94  O   UNL     1      -6.565  -0.242 -24.506  1.00  0.00    -0.237 OA
ATOM     95  O   UNL     1      -5.967  -2.506 -25.265  1.00  0.00    -0.237 OA
ATOM     96  O   UNL     1      -7.375  -2.224 -23.276  1.00  0.00    -0.744 OA
ENDBRANCH  90  93
ENDBRANCH  63  86
ENDBRANCH  37  38
ENDBRANCH  29  32
ENDBRANCH  27  28
ENDBRANCH  26  27
ENDBRANCH   1  26
TORSDOF 17
