REMARK SMILES O=C1C[C@H](c2cn[nH]c2C(=O)NCCCCNC(=O)c2ccc(-c3c4nc(c(-c5cccc(S(=O)(=O)[O-])c5F)c5ccc([nH]5)c(-c5cccc(S(=O)(=O)[O-])c5F)c5nc(c(-c6cccc(S(=O)(=O)[O-])c6F)c6ccc3[nH]6)C=C5)C=C4)cc2)c2c(-c3cccs3)n[nH]c2N1
REMARK SMILES IDX 15 1 14 2 13 3 12 4 10 5 11 6 9 8 5 9 6 10 7 11 8 12 4 14
REMARK SMILES IDX 1 15 2 16 3 17 93 18 92 19 83 21 91 22 84 23 90 24 85 26
REMARK SMILES IDX 86 27 89 28 87 29 88 30 16 31 17 32 18 33 19 35 20 36 21 37
REMARK SMILES IDX 82 38 22 39 81 40 23 41 24 42 25 43 75 44 26 45 80 46 74 47
REMARK SMILES IDX 76 48 27 49 79 50 73 51 72 52 28 54 60 55 40 56 59 57 41 58
REMARK SMILES IDX 44 59 58 60 77 61 42 62 43 63 57 65 78 66 45 67 29 68 30 69
REMARK SMILES IDX 38 70 31 71 33 72 39 73 32 74 34 75 35 76 36 77 37 78 61 79
REMARK SMILES IDX 62 80 70 81 63 82 65 83 71 84 64 85 66 86 67 87 68 88 69 89
REMARK SMILES IDX 46 90 47 91 55 92 48 93 50 94 56 95 49 96 51 97 52 98 53 99
REMARK SMILES IDX 54 100
REMARK H PARENT 12 7 8 13 93 20 91 25 17 34 76 53 44 64
REMARK Flexibility Score: inf
ROOT
ATOM      1  C   UNL     1       4.102  -3.598   1.337  1.00  0.00     0.023 C 
ENDROOT
BRANCH   1   2
ATOM      2  C   UNL     1       3.708  -2.183   0.903  1.00  0.00     0.023 C 
BRANCH   2   3
ATOM      3  C   UNL     1       5.011  -1.070   0.441  1.00  0.00     0.116 C 
BRANCH   3   4
ATOM      4  N   UNL     1       5.567  -0.454  -1.577  1.00  0.00    -0.351 N 
ATOM      5  C   UNL     1       5.619   0.370  -2.723  1.00  0.00     0.269 C 
ATOM      6  O   UNL     1       6.211  -0.101  -3.698  1.00  0.00    -0.268 OA
ATOM      7  H   UNL     1       6.122  -1.215  -1.863  1.00  0.00     0.163 HD
BRANCH   5   8
ATOM      8  C   UNL     1       5.063   1.701  -2.793  1.00  0.00     0.126 A 
ATOM      9  C   UNL     1       4.400   2.481  -1.860  1.00  0.00     0.011 A 
ATOM     10  C   UNL     1       4.185   3.712  -2.507  1.00  0.00     0.140 A 
ATOM     11  N   UNL     1       4.627   3.711  -3.766  1.00  0.00    -0.183 NA
ATOM     12  N   UNL     1       5.194   2.495  -3.898  1.00  0.00    -0.273 N 
ATOM     13  H   UNL     1       5.661   2.205  -4.715  1.00  0.00     0.190 HD
BRANCH   9  14
ATOM     14  C   UNL     1       4.063   2.046  -0.480  1.00  0.00     0.069 C 
ATOM     15  O   UNL     1       0.550   0.554  -0.612  1.00  0.00    -0.275 OA
ATOM     16  C   UNL     1       1.778   0.612  -0.757  1.00  0.00     0.226 C 
ATOM     17  C   UNL     1       2.539   1.880  -0.270  1.00  0.00     0.114 C 
ATOM     18  N   UNL     1       2.416  -0.496  -1.260  1.00  0.00    -0.311 N 
ATOM     19  C   UNL     1       3.751  -0.612  -1.020  1.00  0.00     0.132 A 
ATOM     20  H   UNL     1       1.927  -1.179  -1.774  1.00  0.00     0.171 HD
ATOM     21  C   UNL     1       4.676   0.725  -0.339  1.00  0.00     0.031 A 
ATOM     22  N   UNL     1       4.884  -2.075  -1.170  1.00  0.00    -0.262 N 
ATOM     23  C   UNL     1       6.500   0.102  -0.053  1.00  0.00     0.108 A 
ATOM     24  N   UNL     1       6.603  -1.590  -0.555  1.00  0.00    -0.173 NA
ATOM     25  H   UNL     1       4.630  -2.961  -1.515  1.00  0.00     0.192 HD
BRANCH  23  26
ATOM     26  C   UNL     1       7.623   1.067   0.094  1.00  0.00     0.055 A 
ATOM     27  C   UNL     1       8.723   1.087  -0.728  1.00  0.00     0.022 A 
ATOM     28  S   UNL     1       7.587   2.380   1.180  1.00  0.00    -0.142 S 
ATOM     29  C   UNL     1       9.511   2.253  -0.501  1.00  0.00     0.012 A 
ATOM     30  C   UNL     1       9.062   2.994   0.569  1.00  0.00     0.065 A 
ENDBRANCH  23  26
ENDBRANCH   9  14
ENDBRANCH   5   8
ENDBRANCH   3   4
ENDBRANCH   2   3
ENDBRANCH   1   2
BRANCH   1  31
ATOM     31  C   UNL     1       5.178  -3.651   2.392  1.00  0.00     0.116 C 
BRANCH  31  32
ATOM     32  N   UNL     1       4.763  -2.941   3.598  1.00  0.00    -0.352 N 
ATOM     33  C   UNL     1       5.404  -3.009   4.814  1.00  0.00     0.251 C 
ATOM     34  H   UNL     1       3.964  -2.370   3.537  1.00  0.00     0.163 HD
ATOM     35  O   UNL     1       4.804  -2.845   5.867  1.00  0.00    -0.269 OA
BRANCH  33  36
ATOM     36  C   UNL     1       6.864  -3.179   4.765  1.00  0.00     0.039 A 
ATOM     37  C   UNL     1       7.550  -4.078   5.578  1.00  0.00     0.014 A 
ATOM     38  C   UNL     1       7.527  -2.426   3.792  1.00  0.00     0.014 A 
ATOM     39  C   UNL     1       8.934  -4.171   5.424  1.00  0.00     0.010 A 
ATOM     40  C   UNL     1       8.844  -2.667   3.520  1.00  0.00     0.010 A 
ATOM     41  C   UNL     1       9.579  -3.432   4.407  1.00  0.00    -0.014 A 
BRANCH  41  42
ATOM     42  C   UNL     1      10.963  -3.675   4.005  1.00  0.00     0.031 A 
ATOM     43  C   UNL     1      11.079  -5.092   3.554  1.00  0.00     0.074 A 
ATOM     44  C   UNL     1      11.908  -2.700   3.896  1.00  0.00     0.049 A 
ATOM     45  N   UNL     1      11.491  -6.062   4.303  1.00  0.00    -0.248 NA
ATOM     46  C   UNL     1      10.366  -5.576   2.351  1.00  0.00     0.031 C 
ATOM     47  C   UNL     1      11.788  -1.258   4.160  1.00  0.00     0.029 A 
ATOM     48  N   UNL     1      13.209  -2.778   3.469  1.00  0.00    -0.354 N 
ATOM     49  C   UNL     1      11.483  -7.181   3.482  1.00  0.00     0.074 A 
ATOM     50  C   UNL     1      10.514  -6.902   2.465  1.00  0.00     0.031 C 
ATOM     51  C   UNL     1      12.867  -0.595   3.669  1.00  0.00     0.029 A 
ATOM     52  C   UNL     1      13.834  -1.551   3.162  1.00  0.00     0.049 A 
ATOM     53  H   UNL     1      13.679  -3.639   3.382  1.00  0.00     0.167 HD
ATOM     54  C   UNL     1      12.558  -8.018   3.508  1.00  0.00     0.034 A 
ATOM     55  C   UNL     1      15.049  -1.350   2.551  1.00  0.00     0.034 A 
ATOM     56  C   UNL     1      13.384  -7.700   4.656  1.00  0.00     0.049 A 
ATOM     57  C   UNL     1      15.833  -2.594   2.726  1.00  0.00     0.074 A 
ATOM     58  C   UNL     1      13.175  -7.627   6.019  1.00  0.00     0.029 A 
ATOM     59  N   UNL     1      14.474  -6.910   4.380  1.00  0.00    -0.354 N 
ATOM     60  N   UNL     1      16.268  -2.967   3.896  1.00  0.00    -0.248 NA
ATOM     61  C   UNL     1      15.605  -3.650   1.754  1.00  0.00     0.031 C 
ATOM     62  C   UNL     1      13.872  -6.456   6.435  1.00  0.00     0.029 A 
ATOM     63  C   UNL     1      14.618  -5.971   5.361  1.00  0.00     0.049 A 
ATOM     64  H   UNL     1      15.060  -7.005   3.595  1.00  0.00     0.167 HD
ATOM     65  C   UNL     1      15.825  -4.276   3.990  1.00  0.00     0.074 A 
ATOM     66  C   UNL     1      15.476  -4.666   2.615  1.00  0.00     0.031 C 
ATOM     67  C   UNL     1      15.419  -4.784   5.190  1.00  0.00     0.034 A 
BRANCH  54  68
ATOM     68  C   UNL     1      13.160  -8.738   2.314  1.00  0.00     0.023 A 
ATOM     69  C   UNL     1      14.292  -9.543   2.588  1.00  0.00     0.012 A 
ATOM     70  C   UNL     1      12.893  -8.464   0.952  1.00  0.00     0.148 A 
ATOM     71  C   UNL     1      15.157  -9.976   1.580  1.00  0.00     0.002 A 
ATOM     72  C   UNL     1      13.725  -8.945  -0.055  1.00  0.00     0.091 A 
ATOM     73  F   UNL     1      11.888  -7.658   0.610  1.00  0.00    -0.205 F 
ATOM     74  C   UNL     1      14.874  -9.675   0.256  1.00  0.00     0.022 A 
BRANCH  72  75
ATOM     75  S   UNL     1      13.411  -8.625  -1.799  1.00  0.00     0.127 S 
ATOM     76  O   UNL     1      14.595  -7.859  -2.178  1.00  0.00    -0.237 OA
ATOM     77  O   UNL     1      13.351  -9.983  -2.338  1.00  0.00    -0.237 OA
ATOM     78  O   UNL     1      12.149  -7.897  -1.855  1.00  0.00    -0.744 OA
ENDBRANCH  72  75
ENDBRANCH  54  68
BRANCH  55  79
ATOM     79  C   UNL     1      15.527  -0.313   1.575  1.00  0.00     0.023 A 
ATOM     80  C   UNL     1      16.894  -0.194   1.206  1.00  0.00     0.012 A 
ATOM     81  C   UNL     1      14.591   0.339   0.754  1.00  0.00     0.148 A 
ATOM     82  C   UNL     1      17.293   0.521   0.056  1.00  0.00     0.002 A 
ATOM     83  C   UNL     1      14.989   1.034  -0.391  1.00  0.00     0.091 A 
ATOM     84  F   UNL     1      13.292   0.195   1.041  1.00  0.00    -0.205 F 
ATOM     85  C   UNL     1      16.337   1.125  -0.751  1.00  0.00     0.022 A 
BRANCH  83  86
ATOM     86  S   UNL     1      13.789   1.778  -1.494  1.00  0.00     0.127 S 
ATOM     87  O   UNL     1      14.300   3.141  -1.638  1.00  0.00    -0.237 OA
ATOM     88  O   UNL     1      13.903   0.946  -2.687  1.00  0.00    -0.237 OA
ATOM     89  O   UNL     1      12.522   1.689  -0.787  1.00  0.00    -0.744 OA
ENDBRANCH  83  86
ENDBRANCH  55  79
BRANCH  67  90
ATOM     90  C   UNL     1      15.714  -3.999   6.441  1.00  0.00     0.023 A 
ATOM     91  C   UNL     1      15.163  -2.735   6.747  1.00  0.00     0.012 A 
ATOM     92  C   UNL     1      16.465  -4.667   7.419  1.00  0.00     0.148 A 
ATOM     93  C   UNL     1      15.392  -2.145   7.998  1.00  0.00     0.002 A 
ATOM     94  C   UNL     1      16.651  -4.101   8.668  1.00  0.00     0.091 A 
ATOM     95  F   UNL     1      16.959  -5.876   7.113  1.00  0.00    -0.205 F 
ATOM     96  C   UNL     1      16.130  -2.833   8.961  1.00  0.00     0.022 A 
BRANCH  94  97
ATOM     97  S   UNL     1      17.493  -5.006   9.963  1.00  0.00     0.127 S 
ATOM     98  O   UNL     1      18.788  -4.332  10.005  1.00  0.00    -0.237 OA
ATOM     99  O   UNL     1      16.634  -4.764  11.123  1.00  0.00    -0.237 OA
ATOM    100  O   UNL     1      17.524  -6.397   9.528  1.00  0.00    -0.744 OA
ENDBRANCH  94  97
ENDBRANCH  67  90
ENDBRANCH  41  42
ENDBRANCH  33  36
ENDBRANCH  31  32
ENDBRANCH   1  31
TORSDOF 16
