REMARK SMILES O=C(C[C@H]([NH2+]Cc1ccccc1C1CC1)c1cccs1)NCCCCNC(=O)c1ccc(-c2c3nc(c(-c4cccc(S(=O)(=O)[O-])c4F)c4ccc([nH]4)c(-c4cccc(S(=O)(=O)[O-])c4F)c4nc(c(-c5cccc(S(=O)(=O)[O-])c5F)c5ccc2[nH]5)C=C4)C=C3)cc1
REMARK SMILES IDX 22 1 21 2 1 3 2 4 3 6 4 7 16 8 17 9 20 10 18 11 19 12 5 13
REMARK SMILES IDX 6 16 7 17 8 18 12 19 9 20 11 21 10 22 13 23 14 24 15 25
REMARK SMILES IDX 23 26 24 27 25 28 26 29 27 30 28 32 29 33 30 34 91 35 31 36
REMARK SMILES IDX 90 37 32 38 33 39 34 40 84 41 35 42 89 43 83 44 85 45 36 46
REMARK SMILES IDX 88 47 82 48 81 49 37 51 69 52 49 53 68 54 50 55 53 56 67 57
REMARK SMILES IDX 86 58 51 59 52 60 66 62 87 63 54 64 38 65 39 66 47 67 40 68
REMARK SMILES IDX 42 69 48 70 41 71 43 72 44 73 45 74 46 75 70 76 71 77 79 78
REMARK SMILES IDX 72 79 74 80 80 81 73 82 75 83 76 84 77 85 78 86 55 87 56 88
REMARK SMILES IDX 64 89 57 90 59 91 65 92 58 93 60 94 61 95 62 96 63 97
REMARK H PARENT 21 5 5 14 5 15 26 31 85 50 53 61
REMARK Flexibility Score: inf
ROOT
ATOM      1  C   UNL     1       2.598   0.720   2.778  1.00  0.00     0.116 C 
ENDROOT
BRANCH   1   2
ATOM      2  N   UNL     1       3.177   1.336   1.599  1.00  0.00    -0.356 N 
ATOM      3  O   UNL     1       5.297   0.560   1.962  1.00  0.00    -0.275 OA
ATOM      4  C   UNL     1       4.487   1.123   1.229  1.00  0.00     0.226 C 
ATOM      5  H   UNL     1       2.615   1.925   1.045  1.00  0.00     0.163 HD
BRANCH   4   6
ATOM      6  C   UNL     1       4.880   1.622  -0.154  1.00  0.00     0.171 C 
BRANCH   6   7
ATOM      7  C   UNL     1       3.796   1.525  -1.260  1.00  0.00     0.233 C 
BRANCH   7   8
ATOM      8  C   UNL     1       4.474   1.684  -2.619  1.00  0.00     0.062 A 
ATOM      9  C   UNL     1       4.755   2.867  -3.285  1.00  0.00     0.021 A 
ATOM     10  S   UNL     1       5.105   0.344  -3.496  1.00  0.00    -0.143 S 
ATOM     11  C   UNL     1       5.473   2.664  -4.502  1.00  0.00     0.012 A 
ATOM     12  C   UNL     1       5.712   1.332  -4.743  1.00  0.00     0.065 A 
ENDBRANCH   7   8
BRANCH   7  13
ATOM     13  N   UNL     1       3.018   0.289  -1.117  1.00  0.00    -0.335 N 
ATOM     14  H   UNL     1       2.789   0.181  -0.130  1.00  0.00     0.347 HD
ATOM     15  H   UNL     1       3.612  -0.445  -1.502  1.00  0.00     0.347 HD
BRANCH  13  16
ATOM     16  C   UNL     1       1.782   0.206  -1.865  1.00  0.00     0.298 C 
BRANCH  16  17
ATOM     17  C   UNL     1       0.898  -0.994  -1.507  1.00  0.00     0.010 A 
ATOM     18  C   UNL     1      -0.490  -0.728  -1.711  1.00  0.00     0.010 A 
ATOM     19  C   UNL     1       1.284  -2.299  -1.082  1.00  0.00    -0.036 A 
ATOM     20  C   UNL     1      -1.487  -1.674  -1.481  1.00  0.00     0.001 A 
ATOM     21  C   UNL     1       0.217  -3.211  -0.820  1.00  0.00     0.004 A 
ATOM     22  C   UNL     1      -1.131  -2.922  -1.018  1.00  0.00     0.000 A 
BRANCH  19  23
ATOM     23  C   UNL     1       2.658  -2.959  -0.897  1.00  0.00     0.020 C 
ATOM     24  C   UNL     1       4.036  -2.432  -1.258  1.00  0.00     0.009 C 
ATOM     25  C   UNL     1       3.548  -2.573   0.191  1.00  0.00     0.009 C 
ENDBRANCH  19  23
ENDBRANCH  16  17
ENDBRANCH  13  16
ENDBRANCH   7  13
ENDBRANCH   6   7
ENDBRANCH   4   6
ENDBRANCH   1   2
BRANCH   1  26
ATOM     26  C   UNL     1       2.536   1.670   3.968  1.00  0.00     0.023 C 
BRANCH  26  27
ATOM     27  C   UNL     1       1.758   2.963   3.713  1.00  0.00     0.023 C 
BRANCH  27  28
ATOM     28  C   UNL     1       0.308   2.781   3.272  1.00  0.00     0.116 C 
BRANCH  28  29
ATOM     29  N   UNL     1      -0.527   2.183   4.301  1.00  0.00    -0.352 N 
ATOM     30  C   UNL     1      -1.720   2.628   4.822  1.00  0.00     0.251 C 
ATOM     31  H   UNL     1      -0.191   1.338   4.679  1.00  0.00     0.163 HD
ATOM     32  O   UNL     1      -2.209   2.060   5.797  1.00  0.00    -0.269 OA
BRANCH  30  33
ATOM     33  C   UNL     1      -2.402   3.804   4.234  1.00  0.00     0.039 A 
ATOM     34  C   UNL     1      -2.915   4.784   5.088  1.00  0.00     0.014 A 
ATOM     35  C   UNL     1      -2.536   3.946   2.850  1.00  0.00     0.014 A 
ATOM     36  C   UNL     1      -3.497   5.938   4.554  1.00  0.00     0.010 A 
ATOM     37  C   UNL     1      -3.047   5.130   2.320  1.00  0.00     0.010 A 
ATOM     38  C   UNL     1      -3.534   6.140   3.164  1.00  0.00    -0.014 A 
BRANCH  38  39
ATOM     39  C   UNL     1      -4.054   7.407   2.581  1.00  0.00     0.031 A 
ATOM     40  C   UNL     1      -5.249   7.394   1.665  1.00  0.00     0.074 A 
ATOM     41  C   UNL     1      -3.398   8.563   2.806  1.00  0.00     0.049 A 
ATOM     42  N   UNL     1      -5.803   8.387   1.017  1.00  0.00    -0.248 NA
ATOM     43  C   UNL     1      -5.891   6.091   1.424  1.00  0.00     0.031 C 
ATOM     44  C   UNL     1      -2.183   8.704   3.611  1.00  0.00     0.029 A 
ATOM     45  N   UNL     1      -3.644   9.838   2.355  1.00  0.00    -0.354 N 
ATOM     46  C   UNL     1      -6.833   7.829   0.270  1.00  0.00     0.074 A 
ATOM     47  C   UNL     1      -6.805   6.403   0.516  1.00  0.00     0.031 C 
ATOM     48  C   UNL     1      -1.792   9.988   3.599  1.00  0.00     0.029 A 
ATOM     49  C   UNL     1      -2.704  10.758   2.759  1.00  0.00     0.049 A 
ATOM     50  H   UNL     1      -4.420  10.071   1.796  1.00  0.00     0.167 HD
ATOM     51  C   UNL     1      -7.739   8.446  -0.526  1.00  0.00     0.034 A 
ATOM     52  C   UNL     1      -2.579  12.069   2.476  1.00  0.00     0.034 A 
ATOM     53  C   UNL     1      -7.788   9.867  -0.744  1.00  0.00     0.049 A 
ATOM     54  C   UNL     1      -3.614  12.737   1.610  1.00  0.00     0.074 A 
ATOM     55  C   UNL     1      -8.718  10.594  -1.467  1.00  0.00     0.029 A 
ATOM     56  N   UNL     1      -6.866  10.778  -0.252  1.00  0.00    -0.354 N 
ATOM     57  N   UNL     1      -4.670  12.214   1.036  1.00  0.00    -0.248 NA
ATOM     58  C   UNL     1      -3.460  14.181   1.383  1.00  0.00     0.031 C 
ATOM     59  C   UNL     1      -8.340  11.941  -1.439  1.00  0.00     0.029 A 
ATOM     60  C   UNL     1      -7.196  12.058  -0.666  1.00  0.00     0.049 A 
ATOM     61  H   UNL     1      -6.091  10.549   0.309  1.00  0.00     0.167 HD
ATOM     62  C   UNL     1      -5.326  13.270   0.412  1.00  0.00     0.074 A 
ATOM     63  C   UNL     1      -4.559  14.465   0.697  1.00  0.00     0.031 C 
ATOM     64  C   UNL     1      -6.455  13.248  -0.338  1.00  0.00     0.034 A 
BRANCH  51  65
ATOM     65  C   UNL     1      -8.787   7.589  -1.190  1.00  0.00     0.023 A 
ATOM     66  C   UNL     1      -9.803   6.999  -0.410  1.00  0.00     0.012 A 
ATOM     67  C   UNL     1      -8.803   7.415  -2.588  1.00  0.00     0.148 A 
ATOM     68  C   UNL     1     -10.793   6.218  -1.003  1.00  0.00     0.002 A 
ATOM     69  C   UNL     1      -9.821   6.675  -3.178  1.00  0.00     0.091 A 
ATOM     70  F   UNL     1      -7.819   7.967  -3.313  1.00  0.00    -0.205 F 
ATOM     71  C   UNL     1     -10.809   6.065  -2.387  1.00  0.00     0.022 A 
BRANCH  69  72
ATOM     72  S   UNL     1      -9.976   6.484  -4.957  1.00  0.00     0.127 S 
ATOM     73  O   UNL     1      -9.643   5.072  -5.132  1.00  0.00    -0.237 OA
ATOM     74  O   UNL     1     -11.386   6.810  -5.179  1.00  0.00    -0.237 OA
ATOM     75  O   UNL     1      -9.035   7.426  -5.546  1.00  0.00    -0.744 OA
ENDBRANCH  69  72
ENDBRANCH  51  65
BRANCH  52  76
ATOM     76  C   UNL     1      -1.453  12.853   3.059  1.00  0.00     0.023 A 
ATOM     77  C   UNL     1      -1.717  13.822   4.046  1.00  0.00     0.012 A 
ATOM     78  C   UNL     1      -0.122  12.627   2.658  1.00  0.00     0.148 A 
ATOM     79  C   UNL     1      -0.680  14.576   4.598  1.00  0.00     0.002 A 
ATOM     80  C   UNL     1       0.911  13.340   3.253  1.00  0.00     0.091 A 
ATOM     81  F   UNL     1       0.107  11.707   1.709  1.00  0.00    -0.205 F 
ATOM     82  C   UNL     1       0.633  14.329   4.209  1.00  0.00     0.022 A 
BRANCH  80  83
ATOM     83  S   UNL     1       2.641  12.995   2.911  1.00  0.00     0.127 S 
ATOM     84  O   UNL     1       3.047  14.195   2.184  1.00  0.00    -0.237 OA
ATOM     85  O   UNL     1       3.195  12.871   4.259  1.00  0.00    -0.237 OA
ATOM     86  O   UNL     1       2.651  11.757   2.142  1.00  0.00    -0.744 OA
ENDBRANCH  80  83
ENDBRANCH  52  76
BRANCH  64  87
ATOM     87  C   UNL     1      -6.964  14.561  -0.877  1.00  0.00     0.023 A 
ATOM     88  C   UNL     1      -6.273  15.213  -1.917  1.00  0.00     0.012 A 
ATOM     89  C   UNL     1      -8.170  15.111  -0.397  1.00  0.00     0.148 A 
ATOM     90  C   UNL     1      -6.756  16.409  -2.448  1.00  0.00     0.002 A 
ATOM     91  C   UNL     1      -8.672  16.275  -0.966  1.00  0.00     0.091 A 
ATOM     92  F   UNL     1      -8.804  14.486   0.606  1.00  0.00    -0.205 F 
ATOM     93  C   UNL     1      -7.959  16.933  -1.982  1.00  0.00     0.022 A 
BRANCH  91  94
ATOM     94  S   UNL     1     -10.261  16.970  -0.499  1.00  0.00     0.127 S 
ATOM     95  O   UNL     1      -9.859  18.178   0.218  1.00  0.00    -0.237 OA
ATOM     96  O   UNL     1     -10.886  17.212  -1.800  1.00  0.00    -0.237 OA
ATOM     97  O   UNL     1     -10.922  15.954   0.310  1.00  0.00    -0.744 OA
ENDBRANCH  91  94
ENDBRANCH  64  87
ENDBRANCH  38  39
ENDBRANCH  30  33
ENDBRANCH  28  29
ENDBRANCH  27  28
ENDBRANCH  26  27
ENDBRANCH   1  26
TORSDOF 20
