REMARK SMILES Cc1ccc(C)c([C@H]2[NH2+][C@@H](C(=O)NCCCCNC(=O)c3ccc(-c4c5nc(c(-c6cccc(S(=O)(=O)[O-])c6F)c6ccc([nH]6)c(-c6cccc(S(=O)(=O)[O-])c6F)c6nc(c(-c7cccc(S(=O)(=O)[O-])c7F)c7ccc4[nH]7)C=C6)C=C5)cc3)Cc3c2[nH]c2ccccc32)c1
REMARK SMILES IDX 16 1 15 2 14 3 13 4 11 5 12 6 10 8 8 9 9 10 86 11 85 14
REMARK SMILES IDX 87 15 84 16 93 17 88 18 92 20 89 21 91 22 90 23 7 24 1 25
REMARK SMILES IDX 2 26 3 27 94 28 4 29 5 30 6 31 17 32 18 33 19 34 20 36 21 37
REMARK SMILES IDX 22 38 83 39 23 40 82 41 24 42 25 43 26 44 76 45 27 46 81 47
REMARK SMILES IDX 75 48 77 49 28 50 80 51 74 52 73 53 29 55 61 56 41 57 60 58
REMARK SMILES IDX 42 59 45 60 59 61 78 62 43 63 44 64 58 66 79 67 46 68 30 69
REMARK SMILES IDX 31 70 39 71 32 72 34 73 40 74 33 75 35 76 36 77 37 78 38 79
REMARK SMILES IDX 62 80 63 81 71 82 64 83 66 84 72 85 65 86 67 87 68 88 69 89
REMARK SMILES IDX 70 90 47 91 48 92 56 93 49 94 51 95 57 96 50 97 52 98 53 99
REMARK SMILES IDX 54 100 55 101
REMARK H PARENT 13 7 9 12 9 13 87 19 18 35 77 54 45 65
REMARK Flexibility Score: inf
ROOT
ATOM      1  C   UNL     1      -2.556  10.262   0.135  1.00  0.00     0.023 C 
ENDROOT
BRANCH   1   2
ATOM      2  C   UNL     1      -2.548   8.817   0.672  1.00  0.00     0.023 C 
BRANCH   2   3
ATOM      3  C   UNL     1      -3.011   7.751  -0.337  1.00  0.00     0.116 C 
BRANCH   3   4
ATOM      4  N   UNL     1      -1.954   7.319  -1.213  1.00  0.00    -0.351 N 
ATOM      5  C   UNL     1      -1.042   6.322  -1.163  1.00  0.00     0.278 C 
ATOM      6  O   UNL     1      -0.166   6.364  -2.039  1.00  0.00    -0.268 OA
ATOM      7  H   UNL     1      -1.880   7.869  -2.026  1.00  0.00     0.163 HD
BRANCH   5   8
ATOM      8  C   UNL     1      -1.023   5.171  -0.145  1.00  0.00     0.277 C 
ATOM      9  C   UNL     1      -1.379   2.739  -0.000  1.00  0.00     0.262 C 
ATOM     10  N   UNL     1      -1.753   4.001  -0.685  1.00  0.00    -0.325 N 
ATOM     11  C   UNL     1      -1.412   2.980   1.503  1.00  0.00     0.083 A 
ATOM     12  H   UNL     1      -2.754   4.154  -0.566  1.00  0.00     0.347 HD
ATOM     13  H   UNL     1      -1.505   3.906  -1.671  1.00  0.00     0.347 HD
ATOM     14  C   UNL     1      -1.429   4.229   2.097  1.00  0.00    -0.006 A 
ATOM     15  N   UNL     1      -1.362   2.056   2.518  1.00  0.00    -0.353 N 
ATOM     16  C   UNL     1      -1.513   5.467   1.276  1.00  0.00     0.114 C 
ATOM     17  C   UNL     1      -1.453   4.074   3.496  1.00  0.00     0.003 A 
ATOM     18  C   UNL     1      -1.414   2.701   3.747  1.00  0.00     0.046 A 
ATOM     19  H   UNL     1      -1.299   1.081   2.392  1.00  0.00     0.166 HD
ATOM     20  C   UNL     1      -1.531   4.981   4.568  1.00  0.00     0.010 A 
ATOM     21  C   UNL     1      -1.446   2.198   5.056  1.00  0.00     0.026 A 
ATOM     22  C   UNL     1      -1.573   4.493   5.873  1.00  0.00     0.001 A 
ATOM     23  C   UNL     1      -1.530   3.121   6.111  1.00  0.00     0.002 A 
BRANCH   9  24
ATOM     24  C   UNL     1      -2.278   1.633  -0.553  1.00  0.00     0.019 A 
ATOM     25  C   UNL     1      -5.824   0.304   0.017  1.00  0.00     0.044 C 
ATOM     26  C   UNL     1      -4.470   0.522  -0.589  1.00  0.00    -0.051 A 
ATOM     27  C   UNL     1      -4.175  -0.014  -1.842  1.00  0.00     0.004 A 
ATOM     28  C   UNL     1      -3.533   1.360   0.033  1.00  0.00     0.014 A 
ATOM     29  C   UNL     1      -2.936   0.223  -2.431  1.00  0.00     0.004 A 
ATOM     30  C   UNL     1      -1.970   1.019  -1.795  1.00  0.00    -0.042 A 
ATOM     31  C   UNL     1      -0.682   1.279  -2.536  1.00  0.00     0.045 C 
ENDBRANCH   9  24
ENDBRANCH   5   8
ENDBRANCH   3   4
ENDBRANCH   2   3
ENDBRANCH   1   2
BRANCH   1  32
ATOM     32  C   UNL     1      -3.926  10.922  -0.109  1.00  0.00     0.116 C 
BRANCH  32  33
ATOM     33  N   UNL     1      -4.755  11.084   1.105  1.00  0.00    -0.352 N 
ATOM     34  C   UNL     1      -6.125  10.925   1.289  1.00  0.00     0.251 C 
ATOM     35  H   UNL     1      -4.257  11.347   1.913  1.00  0.00     0.163 HD
ATOM     36  O   UNL     1      -6.692  11.491   2.229  1.00  0.00    -0.269 OA
BRANCH  34  37
ATOM     37  C   UNL     1      -6.893  10.032   0.397  1.00  0.00     0.039 A 
ATOM     38  C   UNL     1      -8.260  10.113   0.126  1.00  0.00     0.014 A 
ATOM     39  C   UNL     1      -6.160   9.017  -0.179  1.00  0.00     0.014 A 
ATOM     40  C   UNL     1      -8.825   9.174  -0.750  1.00  0.00     0.010 A 
ATOM     41  C   UNL     1      -6.622   8.340  -1.263  1.00  0.00     0.010 A 
ATOM     42  C   UNL     1      -7.984   8.282  -1.434  1.00  0.00    -0.014 A 
BRANCH  42  43
ATOM     43  C   UNL     1      -8.434   7.293  -2.401  1.00  0.00     0.031 A 
ATOM     44  C   UNL     1      -9.030   7.888  -3.614  1.00  0.00     0.074 A 
ATOM     45  C   UNL     1      -8.037   5.998  -2.374  1.00  0.00     0.049 A 
ATOM     46  N   UNL     1     -10.281   7.947  -3.924  1.00  0.00    -0.248 NA
ATOM     47  C   UNL     1      -8.153   8.678  -4.491  1.00  0.00     0.031 C 
ATOM     48  C   UNL     1      -7.062   5.357  -1.473  1.00  0.00     0.029 A 
ATOM     49  N   UNL     1      -8.301   5.007  -3.269  1.00  0.00    -0.354 N 
ATOM     50  C   UNL     1     -10.305   8.535  -5.184  1.00  0.00     0.074 A 
ATOM     51  C   UNL     1      -9.045   9.212  -5.328  1.00  0.00     0.031 C 
ATOM     52  C   UNL     1      -6.640   4.193  -2.017  1.00  0.00     0.029 A 
ATOM     53  C   UNL     1      -7.431   3.922  -3.201  1.00  0.00     0.049 A 
ATOM     54  H   UNL     1      -9.046   5.054  -3.911  1.00  0.00     0.167 HD
ATOM     55  C   UNL     1     -11.209   8.142  -6.124  1.00  0.00     0.034 A 
ATOM     56  C   UNL     1      -7.332   2.911  -4.100  1.00  0.00     0.034 A 
ATOM     57  C   UNL     1     -12.238   7.309  -5.540  1.00  0.00     0.049 A 
ATOM     58  C   UNL     1      -8.575   2.906  -4.904  1.00  0.00     0.074 A 
ATOM     59  C   UNL     1     -13.108   7.430  -4.472  1.00  0.00     0.029 A 
ATOM     60  N   UNL     1     -12.184   5.963  -5.822  1.00  0.00    -0.354 N 
ATOM     61  N   UNL     1      -9.749   2.622  -4.415  1.00  0.00    -0.248 NA
ATOM     62  C   UNL     1      -8.576   3.654  -6.150  1.00  0.00     0.031 C 
ATOM     63  C   UNL     1     -13.124   6.138  -3.866  1.00  0.00     0.029 A 
ATOM     64  C   UNL     1     -12.334   5.287  -4.641  1.00  0.00     0.049 A 
ATOM     65  H   UNL     1     -12.059   5.560  -6.712  1.00  0.00     0.167 HD
ATOM     66  C   UNL     1     -10.597   3.546  -5.012  1.00  0.00     0.074 A 
ATOM     67  C   UNL     1      -9.845   4.072  -6.150  1.00  0.00     0.031 C 
ATOM     68  C   UNL     1     -11.696   4.021  -4.354  1.00  0.00     0.034 A 
BRANCH  55  69
ATOM     69  C   UNL     1     -10.977   8.161  -7.621  1.00  0.00     0.023 A 
ATOM     70  C   UNL     1     -12.088   7.848  -8.437  1.00  0.00     0.012 A 
ATOM     71  C   UNL     1      -9.716   8.207  -8.261  1.00  0.00     0.148 A 
ATOM     72  C   UNL     1     -11.945   7.530  -9.791  1.00  0.00     0.002 A 
ATOM     73  C   UNL     1      -9.590   7.982  -9.627  1.00  0.00     0.091 A 
ATOM     74  F   UNL     1      -8.596   8.332  -7.547  1.00  0.00    -0.205 F 
ATOM     75  C   UNL     1     -10.695   7.604 -10.389  1.00  0.00     0.022 A 
BRANCH  73  76
ATOM     76  S   UNL     1      -8.006   8.134 -10.464  1.00  0.00     0.127 S 
ATOM     77  O   UNL     1      -7.667   6.734 -10.700  1.00  0.00    -0.237 OA
ATOM     78  O   UNL     1      -8.373   8.894 -11.659  1.00  0.00    -0.237 OA
ATOM     79  O   UNL     1      -7.145   8.861  -9.539  1.00  0.00    -0.744 OA
ENDBRANCH  73  76
ENDBRANCH  55  69
BRANCH  56  80
ATOM     80  C   UNL     1      -6.139   2.151  -4.532  1.00  0.00     0.023 A 
ATOM     81  C   UNL     1      -6.284   0.874  -5.110  1.00  0.00     0.012 A 
ATOM     82  C   UNL     1      -4.896   2.805  -4.662  1.00  0.00     0.148 A 
ATOM     83  C   UNL     1      -5.232   0.280  -5.819  1.00  0.00     0.002 A 
ATOM     84  C   UNL     1      -3.854   2.208  -5.365  1.00  0.00     0.091 A 
ATOM     85  F   UNL     1      -4.768   4.058  -4.204  1.00  0.00    -0.205 F 
ATOM     86  C   UNL     1      -4.019   0.950  -5.956  1.00  0.00     0.022 A 
BRANCH  84  87
ATOM     87  S   UNL     1      -2.287   3.061  -5.556  1.00  0.00     0.127 S 
ATOM     88  O   UNL     1      -1.341   1.956  -5.726  1.00  0.00    -0.237 OA
ATOM     89  O   UNL     1      -2.514   3.859  -6.755  1.00  0.00    -0.237 OA
ATOM     90  O   UNL     1      -2.116   3.797  -4.308  1.00  0.00    -0.744 OA
ENDBRANCH  84  87
ENDBRANCH  56  80
BRANCH  68  91
ATOM     91  C   UNL     1     -12.120   3.334  -3.079  1.00  0.00     0.023 A 
ATOM     92  C   UNL     1     -11.300   3.289  -1.931  1.00  0.00     0.012 A 
ATOM     93  C   UNL     1     -13.446   2.881  -2.979  1.00  0.00     0.148 A 
ATOM     94  C   UNL     1     -11.785   2.786  -0.720  1.00  0.00     0.002 A 
ATOM     95  C   UNL     1     -13.940   2.426  -1.763  1.00  0.00     0.091 A 
ATOM     96  F   UNL     1     -14.216   2.931  -4.077  1.00  0.00    -0.205 F 
ATOM     97  C   UNL     1     -13.110   2.368  -0.632  1.00  0.00     0.022 A 
BRANCH  95  98
ATOM     98  S   UNL     1     -15.668   1.992  -1.557  1.00  0.00     0.127 S 
ATOM     99  O   UNL     1     -15.614   0.533  -1.516  1.00  0.00    -0.237 OA
ATOM    100  O   UNL     1     -16.002   2.628  -0.281  1.00  0.00    -0.237 OA
ATOM    101  O   UNL     1     -16.364   2.563  -2.704  1.00  0.00    -0.744 OA
ENDBRANCH  95  98
ENDBRANCH  68  91
ENDBRANCH  42  43
ENDBRANCH  34  37
ENDBRANCH  32  33
ENDBRANCH   1  32
TORSDOF 15
