REMARK SMILES Cc1nn(-c2ccc(C(=O)NCCCCNC(=O)c3ccc(-c4c5nc(c(-c6cccc(S(=O)(=O)[O-])c6F)c6ccc([nH]6)c(-c6cccc(S(=O)(=O)[O-])c6F)c6nc(c(-c7cccc(S(=O)(=O)[O-])c7F)c7ccc4[nH]7)C=C6)C=C5)cc3)cc2)c2c1[C@@H](c1ccc[nH]c1=O)SCC(O)=N2
REMARK SMILES IDX 13 1 12 2 11 3 9 4 10 5 8 7 5 8 6 9 83 10 7 11 82 12 4 13
REMARK SMILES IDX 1 14 2 15 3 16 85 17 84 18 86 19 87 20 88 21 92 22 89 23
REMARK SMILES IDX 91 24 93 25 90 26 94 28 95 29 98 31 96 32 97 34 14 36 15 37
REMARK SMILES IDX 16 38 17 39 18 41 19 42 20 43 81 44 21 45 80 46 22 47 23 48
REMARK SMILES IDX 24 49 74 50 25 51 79 52 73 53 75 54 26 55 78 56 72 57 71 58
REMARK SMILES IDX 27 60 59 61 39 62 58 63 40 64 43 65 57 66 76 67 41 68 42 69
REMARK SMILES IDX 56 71 77 72 44 73 28 74 29 75 37 76 30 77 32 78 38 79 31 80
REMARK SMILES IDX 33 81 34 82 35 83 36 84 60 85 61 86 69 87 62 88 64 89 70 90
REMARK SMILES IDX 63 91 65 92 66 93 67 94 68 95 45 96 46 97 54 98 47 99 49 100
REMARK SMILES IDX 55 101 48 102 50 103 51 104 52 105 53 106
REMARK H PARENT 11 6 91 27 97 35 16 40 75 59 43 70
REMARK Flexibility Score: 90.00
ROOT
ATOM      1  C   UNL     1      -2.533   4.044   8.909  1.00  0.00     0.023 C 
ENDROOT
BRANCH   1   2
ATOM      2  C   UNL     1      -3.785   4.020   8.018  1.00  0.00     0.116 C 
BRANCH   2   3
ATOM      3  N   UNL     1      -3.942   5.279   7.323  1.00  0.00    -0.352 N 
ATOM      4  C   UNL     1      -3.497   5.731   6.110  1.00  0.00     0.251 C 
ATOM      5  O   UNL     1      -3.697   6.917   5.838  1.00  0.00    -0.269 OA
ATOM      6  H   UNL     1      -4.474   5.941   7.821  1.00  0.00     0.163 HD
BRANCH   4   7
ATOM      7  C   UNL     1      -2.789   4.879   5.111  1.00  0.00     0.039 A 
ATOM      8  C   UNL     1      -1.360   3.518   3.130  1.00  0.00     0.067 A 
ATOM      9  C   UNL     1      -2.061   4.682   2.798  1.00  0.00     0.029 A 
ATOM     10  C   UNL     1      -1.407   2.996   4.418  1.00  0.00     0.029 A 
ATOM     11  C   UNL     1      -2.796   5.339   3.783  1.00  0.00     0.016 A 
ATOM     12  C   UNL     1      -2.069   3.716   5.411  1.00  0.00     0.016 A 
BRANCH   8  13
ATOM     13  N   UNL     1      -0.427   2.965   2.229  1.00  0.00    -0.215 N 
ATOM     14  C   UNL     1       1.031   0.105   0.767  1.00  0.00     0.069 C 
ATOM     15  C   UNL     1       0.685   1.488   1.194  1.00  0.00     0.067 A 
ATOM     16  N   UNL     1      -0.309   1.633   2.071  1.00  0.00    -0.171 NA
ATOM     17  C   UNL     1       1.275   2.747   0.815  1.00  0.00     0.038 A 
ATOM     18  C   UNL     1       0.597   3.671   1.603  1.00  0.00     0.164 A 
BRANCH  17  19
ATOM     19  C   UNL     1       2.453   2.926  -0.124  1.00  0.00     0.118 C 
BRANCH  19  20
ATOM     20  C   UNL     1       2.284   2.223  -1.459  1.00  0.00     0.035 A 
ATOM     21  C   UNL     1       1.119   1.878  -2.045  1.00  0.00     0.012 A 
ATOM     22  C   UNL     1       3.557   1.807  -2.144  1.00  0.00     0.252 A 
ATOM     23  C   UNL     1       1.076   1.085  -3.249  1.00  0.00     0.018 A 
ATOM     24  N   UNL     1       3.416   1.106  -3.318  1.00  0.00    -0.329 N 
ATOM     25  O   UNL     1       4.669   2.053  -1.690  1.00  0.00    -0.269 OA
ATOM     26  C   UNL     1       2.214   0.730  -3.852  1.00  0.00     0.086 A 
ATOM     27  H   UNL     1       4.234   0.859  -3.808  1.00  0.00     0.169 HD
ENDBRANCH  19  20
BRANCH  19  28
ATOM     28  S   UNL     1       2.995   4.655  -0.493  1.00  0.00    -0.139 SA
BRANCH  28  29
ATOM     29  C   UNL     1       1.432   5.552  -0.379  1.00  0.00     0.167 CG0
ATOM     30  G   UNL     1       1.181   5.824   1.073  1.00  0.00     0.000 G0
ENDBRANCH  28  29
ENDBRANCH  19  28
ENDBRANCH  17  19
BRANCH  18  31
ATOM     31  N   UNL     1       0.809   4.967   1.954  1.00  0.00    -0.197 NA
ATOM     32  C   UNL     1       1.181   5.824   1.073  1.00  0.00     0.197 CG0
ATOM     33  G   UNL     1       1.432   5.552  -0.379  1.00  0.00     0.000 G0
BRANCH  32  34
ATOM     34  O   UNL     1       1.408   7.084   1.490  1.00  0.00    -0.496 OA
ATOM     35  H   UNL     1       1.681   7.738   0.878  1.00  0.00     0.295 HD
ENDBRANCH  32  34
ENDBRANCH  18  31
ENDBRANCH   8  13
ENDBRANCH   4   7
ENDBRANCH   2   3
ENDBRANCH   1   2
BRANCH   1  36
ATOM     36  C   UNL     1      -2.694   4.813  10.229  1.00  0.00     0.023 C 
BRANCH  36  37
ATOM     37  C   UNL     1      -3.635   4.156  11.232  1.00  0.00     0.116 C 
BRANCH  37  38
ATOM     38  N   UNL     1      -3.191   2.813  11.634  1.00  0.00    -0.352 N 
ATOM     39  C   UNL     1      -3.912   1.812  12.270  1.00  0.00     0.251 C 
ATOM     40  H   UNL     1      -2.255   2.595  11.424  1.00  0.00     0.163 HD
ATOM     41  O   UNL     1      -3.353   0.917  12.878  1.00  0.00    -0.269 OA
BRANCH  39  42
ATOM     42  C   UNL     1      -5.381   1.841  12.155  1.00  0.00     0.039 A 
ATOM     43  C   UNL     1      -6.239   1.518  13.211  1.00  0.00     0.014 A 
ATOM     44  C   UNL     1      -5.883   2.252  10.929  1.00  0.00     0.014 A 
ATOM     45  C   UNL     1      -7.611   1.676  13.022  1.00  0.00     0.010 A 
ATOM     46  C   UNL     1      -7.180   2.649  10.837  1.00  0.00     0.010 A 
ATOM     47  C   UNL     1      -8.064   2.248  11.826  1.00  0.00    -0.014 A 
BRANCH  47  48
ATOM     48  C   UNL     1      -9.466   2.495  11.542  1.00  0.00     0.031 A 
ATOM     49  C   UNL     1     -10.107   3.503  12.421  1.00  0.00     0.074 A 
ATOM     50  C   UNL     1     -10.014   2.064  10.382  1.00  0.00     0.049 A 
ATOM     51  N   UNL     1     -11.041   3.307  13.291  1.00  0.00    -0.248 NA
ATOM     52  C   UNL     1      -9.540   4.860  12.454  1.00  0.00     0.031 C 
ATOM     53  C   UNL     1      -9.350   1.374   9.262  1.00  0.00     0.029 A 
ATOM     54  N   UNL     1     -11.248   2.313   9.878  1.00  0.00    -0.354 N 
ATOM     55  C   UNL     1     -11.343   4.566  13.806  1.00  0.00     0.074 A 
ATOM     56  C   UNL     1     -10.245   5.419  13.441  1.00  0.00     0.031 C 
ATOM     57  C   UNL     1     -10.096   1.506   8.144  1.00  0.00     0.029 A 
ATOM     58  C   UNL     1     -11.356   2.126   8.502  1.00  0.00     0.049 A 
ATOM     59  H   UNL     1     -12.005   2.602  10.438  1.00  0.00     0.167 HD
ATOM     60  C   UNL     1     -12.594   4.862  14.261  1.00  0.00     0.034 A 
ATOM     61  C   UNL     1     -12.387   2.518   7.715  1.00  0.00     0.034 A 
ATOM     62  C   UNL     1     -13.392   3.665  14.382  1.00  0.00     0.049 A 
ATOM     63  C   UNL     1     -13.550   2.732   8.610  1.00  0.00     0.074 A 
ATOM     64  C   UNL     1     -13.290   2.492  15.103  1.00  0.00     0.029 A 
ATOM     65  N   UNL     1     -14.269   3.405  13.355  1.00  0.00    -0.354 N 
ATOM     66  N   UNL     1     -14.114   1.774   9.290  1.00  0.00    -0.248 NA
ATOM     67  C   UNL     1     -13.774   4.077   9.114  1.00  0.00     0.031 C 
ATOM     68  C   UNL     1     -13.720   1.473  14.201  1.00  0.00     0.029 A 
ATOM     69  C   UNL     1     -14.134   2.084  13.015  1.00  0.00     0.049 A 
ATOM     70  H   UNL     1     -14.884   4.051  12.939  1.00  0.00     0.167 HD
ATOM     71  C   UNL     1     -14.352   2.334  10.539  1.00  0.00     0.074 A 
ATOM     72  C   UNL     1     -14.226   3.778  10.336  1.00  0.00     0.031 C 
ATOM     73  C   UNL     1     -14.322   1.572  11.673  1.00  0.00     0.034 A 
BRANCH  60  74
ATOM     74  C   UNL     1     -13.244   6.229  14.258  1.00  0.00     0.023 A 
ATOM     75  C   UNL     1     -14.503   6.337  14.894  1.00  0.00     0.012 A 
ATOM     76  C   UNL     1     -12.837   7.327  13.466  1.00  0.00     0.148 A 
ATOM     77  C   UNL     1     -15.338   7.442  14.700  1.00  0.00     0.002 A 
ATOM     78  C   UNL     1     -13.638   8.458  13.336  1.00  0.00     0.091 A 
ATOM     79  F   UNL     1     -11.733   7.248  12.721  1.00  0.00    -0.205 F 
ATOM     80  C   UNL     1     -14.903   8.507  13.922  1.00  0.00     0.022 A 
BRANCH  78  81
ATOM     81  S   UNL     1     -13.108   9.885  12.378  1.00  0.00     0.127 S 
ATOM     82  O   UNL     1     -13.954   9.773  11.194  1.00  0.00    -0.237 OA
ATOM     83  O   UNL     1     -13.444  10.989  13.278  1.00  0.00    -0.237 OA
ATOM     84  O   UNL     1     -11.678   9.705  12.164  1.00  0.00    -0.744 OA
ENDBRANCH  78  81
ENDBRANCH  60  74
BRANCH  61  85
ATOM     85  C   UNL     1     -12.364   3.009   6.316  1.00  0.00     0.023 A 
ATOM     86  C   UNL     1     -13.547   3.007   5.550  1.00  0.00     0.012 A 
ATOM     87  C   UNL     1     -11.258   3.740   5.829  1.00  0.00     0.148 A 
ATOM     88  C   UNL     1     -13.634   3.736   4.355  1.00  0.00     0.002 A 
ATOM     89  C   UNL     1     -11.348   4.457   4.639  1.00  0.00     0.091 A 
ATOM     90  F   UNL     1     -10.152   3.813   6.581  1.00  0.00    -0.205 F 
ATOM     91  C   UNL     1     -12.539   4.467   3.904  1.00  0.00     0.022 A 
BRANCH  89  92
ATOM     92  S   UNL     1      -9.982   5.449   4.018  1.00  0.00     0.127 S 
ATOM     93  O   UNL     1      -9.923   5.037   2.614  1.00  0.00    -0.237 OA
ATOM     94  O   UNL     1     -10.473   6.806   4.239  1.00  0.00    -0.237 OA
ATOM     95  O   UNL     1      -8.821   5.056   4.807  1.00  0.00    -0.744 OA
ENDBRANCH  89  92
ENDBRANCH  61  85
BRANCH  73  96
ATOM     96  C   UNL     1     -14.226   0.070  11.518  1.00  0.00     0.023 A 
ATOM     97  C   UNL     1     -13.098  -0.564  10.953  1.00  0.00     0.012 A 
ATOM     98  C   UNL     1     -15.207  -0.724  12.131  1.00  0.00     0.148 A 
ATOM     99  C   UNL     1     -12.960  -1.955  10.983  1.00  0.00     0.002 A 
ATOM    100  C   UNL     1     -15.045  -2.103  12.202  1.00  0.00     0.091 A 
ATOM    101  F   UNL     1     -16.271  -0.110  12.670  1.00  0.00    -0.205 F 
ATOM    102  C   UNL     1     -13.928  -2.724  11.621  1.00  0.00     0.022 A 
BRANCH 100 103
ATOM    103  S   UNL     1     -16.188  -3.132  13.124  1.00  0.00     0.127 S 
ATOM    104  O   UNL     1     -16.936  -3.790  12.055  1.00  0.00    -0.237 OA
ATOM    105  O   UNL     1     -15.287  -4.011  13.872  1.00  0.00    -0.237 OA
ATOM    106  O   UNL     1     -16.960  -2.222  13.962  1.00  0.00    -0.744 OA
ENDBRANCH 100 103
ENDBRANCH  73  96
ENDBRANCH  47  48
ENDBRANCH  39  42
ENDBRANCH  37  38
ENDBRANCH  36  37
ENDBRANCH   1  36
TORSDOF 17
