REMARK SMILES CC(C)C[C@H](NC(=O)[C@](C)([NH3+])C(F)(F)F)C(=O)NCCCCNC(=O)c1ccc(-c2c3nc(c(-c4cccc(S(=O)(=O)[O-])c4F)c4ccc([nH]4)c(-c4cccc(S(=O)(=O)[O-])c4F)c4nc(c(-c5cccc(S(=O)(=O)[O-])c5F)c5ccc2[nH]5)C=C4)C=C3)cc1
REMARK SMILES IDX 20 1 19 2 18 3 16 4 17 5 5 7 4 8 2 9 1 10 3 11 6 12 7 13
REMARK SMILES IDX 8 15 9 16 10 17 11 18 12 22 13 23 14 24 15 25 21 26 22 27
REMARK SMILES IDX 23 28 24 29 25 31 26 32 27 33 88 34 28 35 87 36 29 37 30 38
REMARK SMILES IDX 31 39 81 40 32 41 86 42 80 43 82 44 33 45 85 46 79 47 78 48
REMARK SMILES IDX 34 50 66 51 46 52 65 53 47 54 50 55 64 56 83 57 48 58 49 59
REMARK SMILES IDX 63 61 84 62 51 63 35 64 36 65 44 66 37 67 39 68 45 69 38 70
REMARK SMILES IDX 40 71 41 72 42 73 43 74 67 75 68 76 76 77 69 78 71 79 77 80
REMARK SMILES IDX 70 81 72 82 73 83 74 84 75 85 52 86 53 87 61 88 54 89 56 90
REMARK SMILES IDX 62 91 55 92 57 93 58 94 59 95 60 96
REMARK H PARENT 18 6 6 14 11 19 11 20 11 21 23 30 82 49 50 60
REMARK Flexibility Score: inf
ROOT
ATOM      1  C   UNL     1       0.036   1.525   1.626  1.00  0.00     0.023 C 
ENDROOT
BRANCH   1   2
ATOM      2  C   UNL     1      -1.464   1.689   1.428  1.00  0.00     0.116 C 
BRANCH   2   3
ATOM      3  N   UNL     1      -2.104   2.583   2.369  1.00  0.00    -0.354 N 
ATOM      4  C   UNL     1      -2.532   3.869   2.192  1.00  0.00     0.242 C 
ATOM      5  O   UNL     1      -3.259   4.377   3.048  1.00  0.00    -0.273 OA
ATOM      6  H   UNL     1      -2.254   2.210   3.268  1.00  0.00     0.163 HD
BRANCH   4   7
ATOM      7  C   UNL     1      -2.234   4.620   0.877  1.00  0.00     0.171 C 
BRANCH   7   8
ATOM      8  C   UNL     1      -3.205   4.004  -0.187  1.00  0.00     0.038 C 
BRANCH   8   9
ATOM      9  C   UNL     1      -2.857   3.836  -1.688  1.00  0.00    -0.015 C 
ATOM     10  C   UNL     1      -1.752   2.834  -2.050  1.00  0.00     0.007 C 
ATOM     11  C   UNL     1      -4.129   3.321  -2.396  1.00  0.00     0.007 C 
ENDBRANCH   8   9
ENDBRANCH   7   8
BRANCH   7  12
ATOM     12  N   UNL     1      -0.812   4.619   0.542  1.00  0.00    -0.339 N 
ATOM     13  C   UNL     1       0.306   5.167   1.078  1.00  0.00     0.291 C 
ATOM     14  H   UNL     1      -0.619   4.093  -0.268  1.00  0.00     0.164 HD
ATOM     15  O   UNL     1       1.290   5.089   0.320  1.00  0.00    -0.267 OA
BRANCH  13  16
ATOM     16  C   UNL     1       0.480   5.864   2.458  1.00  0.00     0.267 C 
ATOM     17  C   UNL     1      -0.641   6.832   2.815  1.00  0.00     0.100 C 
BRANCH  16  18
ATOM     18  N   UNL     1       1.718   6.752   2.320  1.00  0.00    -0.337 N 
ATOM     19  H   UNL     1       1.886   7.240   3.200  1.00  0.00     0.345 HD
ATOM     20  H   UNL     1       1.566   7.433   1.576  1.00  0.00     0.345 HD
ATOM     21  H   UNL     1       2.526   6.174   2.092  1.00  0.00     0.345 HD
ENDBRANCH  16  18
BRANCH  16  22
ATOM     22  C   UNL     1       0.678   4.797   3.559  1.00  0.00     0.453 C 
ATOM     23  F   UNL     1       1.037   5.367   4.735  1.00  0.00    -0.164 F 
ATOM     24  F   UNL     1      -0.432   4.081   3.805  1.00  0.00    -0.164 F 
ATOM     25  F   UNL     1       1.661   3.926   3.228  1.00  0.00    -0.164 F 
ENDBRANCH  16  22
ENDBRANCH  13  16
ENDBRANCH   7  12
ENDBRANCH   4   7
ENDBRANCH   2   3
ENDBRANCH   1   2
BRANCH   1  26
ATOM     26  C   UNL     1       0.445   0.935   2.970  1.00  0.00     0.023 C 
BRANCH  26  27
ATOM     27  C   UNL     1      -0.300  -0.330   3.364  1.00  0.00     0.116 C 
BRANCH  27  28
ATOM     28  N   UNL     1      -0.216  -1.382   2.360  1.00  0.00    -0.352 N 
ATOM     29  C   UNL     1      -0.013  -2.727   2.550  1.00  0.00     0.251 C 
ATOM     30  H   UNL     1      -0.318  -1.092   1.425  1.00  0.00     0.163 HD
ATOM     31  O   UNL     1       0.135  -3.473   1.586  1.00  0.00    -0.269 OA
BRANCH  29  32
ATOM     32  C   UNL     1       0.063  -3.253   3.927  1.00  0.00     0.039 A 
ATOM     33  C   UNL     1       1.137  -4.074   4.277  1.00  0.00     0.014 A 
ATOM     34  C   UNL     1      -0.888  -2.883   4.882  1.00  0.00     0.014 A 
ATOM     35  C   UNL     1       1.293  -4.471   5.605  1.00  0.00     0.010 A 
ATOM     36  C   UNL     1      -0.681  -3.205   6.217  1.00  0.00     0.010 A 
ATOM     37  C   UNL     1       0.405  -4.010   6.592  1.00  0.00    -0.014 A 
BRANCH  37  38
ATOM     38  C   UNL     1       0.595  -4.356   8.023  1.00  0.00     0.031 A 
ATOM     39  C   UNL     1      -0.460  -5.143   8.752  1.00  0.00     0.074 A 
ATOM     40  C   UNL     1       1.669  -3.885   8.687  1.00  0.00     0.049 A 
ATOM     41  N   UNL     1      -0.503  -5.495  10.010  1.00  0.00    -0.248 NA
ATOM     42  C   UNL     1      -1.638  -5.564   7.973  1.00  0.00     0.031 C 
ATOM     43  C   UNL     1       2.717  -3.038   8.113  1.00  0.00     0.029 A 
ATOM     44  N   UNL     1       2.043  -4.030  10.000  1.00  0.00    -0.354 N 
ATOM     45  C   UNL     1      -1.723  -6.137  10.184  1.00  0.00     0.074 A 
ATOM     46  C   UNL     1      -2.408  -6.096   8.911  1.00  0.00     0.031 C 
ATOM     47  C   UNL     1       3.620  -2.749   9.063  1.00  0.00     0.029 A 
ATOM     48  C   UNL     1       3.203  -3.362  10.320  1.00  0.00     0.049 A 
ATOM     49  H   UNL     1       1.531  -4.561  10.650  1.00  0.00     0.167 HD
ATOM     50  C   UNL     1      -2.217  -6.735  11.293  1.00  0.00     0.034 A 
ATOM     51  C   UNL     1       3.854  -3.255  11.495  1.00  0.00     0.034 A 
ATOM     52  C   UNL     1      -1.508  -6.822  12.540  1.00  0.00     0.049 A 
ATOM     53  C   UNL     1       3.308  -3.973  12.700  1.00  0.00     0.074 A 
ATOM     54  C   UNL     1      -1.873  -7.497  13.691  1.00  0.00     0.029 A 
ATOM     55  N   UNL     1      -0.292  -6.210  12.803  1.00  0.00    -0.354 N 
ATOM     56  N   UNL     1       2.236  -4.722  12.799  1.00  0.00    -0.248 NA
ATOM     57  C   UNL     1       4.080  -3.862  13.946  1.00  0.00     0.031 C 
ATOM     58  C   UNL     1      -0.889  -7.272  14.659  1.00  0.00     0.029 A 
ATOM     59  C   UNL     1       0.102  -6.480  14.101  1.00  0.00     0.049 A 
ATOM     60  H   UNL     1       0.215  -5.663  12.161  1.00  0.00     0.167 HD
ATOM     61  C   UNL     1       2.225  -5.201  14.104  1.00  0.00     0.074 A 
ATOM     62  C   UNL     1       3.409  -4.674  14.752  1.00  0.00     0.031 C 
ATOM     63  C   UNL     1       1.312  -5.995  14.715  1.00  0.00     0.034 A 
BRANCH  50  64
ATOM     64  C   UNL     1      -3.568  -7.393  11.191  1.00  0.00     0.023 A 
ATOM     65  C   UNL     1      -3.711  -8.580  10.443  1.00  0.00     0.012 A 
ATOM     66  C   UNL     1      -4.681  -6.872  11.879  1.00  0.00     0.148 A 
ATOM     67  C   UNL     1      -4.947  -9.217  10.349  1.00  0.00     0.002 A 
ATOM     68  C   UNL     1      -5.900  -7.539  11.819  1.00  0.00     0.091 A 
ATOM     69  F   UNL     1      -4.533  -5.732  12.567  1.00  0.00    -0.205 F 
ATOM     70  C   UNL     1      -6.037  -8.704  11.045  1.00  0.00     0.022 A 
BRANCH  68  71
ATOM     71  S   UNL     1      -7.343  -7.004  12.744  1.00  0.00     0.127 S 
ATOM     72  O   UNL     1      -8.205  -6.496  11.678  1.00  0.00    -0.237 OA
ATOM     73  O   UNL     1      -7.800  -8.255  13.353  1.00  0.00    -0.237 OA
ATOM     74  O   UNL     1      -6.866  -6.007  13.692  1.00  0.00    -0.744 OA
ENDBRANCH  68  71
ENDBRANCH  50  64
BRANCH  51  75
ATOM     75  C   UNL     1       5.137  -2.500  11.572  1.00  0.00     0.023 A 
ATOM     76  C   UNL     1       6.340  -3.207  11.762  1.00  0.00     0.012 A 
ATOM     77  C   UNL     1       5.178  -1.099  11.435  1.00  0.00     0.148 A 
ATOM     78  C   UNL     1       7.558  -2.531  11.848  1.00  0.00     0.002 A 
ATOM     79  C   UNL     1       6.400  -0.437  11.469  1.00  0.00     0.091 A 
ATOM     80  F   UNL     1       4.021  -0.444  11.266  1.00  0.00    -0.205 F 
ATOM     81  C   UNL     1       7.589  -1.148  11.692  1.00  0.00     0.022 A 
BRANCH  79  82
ATOM     82  S   UNL     1       6.551   1.325  11.152  1.00  0.00     0.127 S 
ATOM     83  O   UNL     1       6.896   1.838  12.475  1.00  0.00    -0.237 OA
ATOM     84  O   UNL     1       7.638   1.363  10.173  1.00  0.00    -0.237 OA
ATOM     85  O   UNL     1       5.257   1.741  10.629  1.00  0.00    -0.744 OA
ENDBRANCH  79  82
ENDBRANCH  51  75
BRANCH  63  86
ATOM     86  C   UNL     1       1.566  -6.380  16.149  1.00  0.00     0.023 A 
ATOM     87  C   UNL     1       1.410  -5.423  17.171  1.00  0.00     0.012 A 
ATOM     88  C   UNL     1       1.881  -7.710  16.488  1.00  0.00     0.148 A 
ATOM     89  C   UNL     1       1.596  -5.777  18.506  1.00  0.00     0.002 A 
ATOM     90  C   UNL     1       2.014  -8.067  17.825  1.00  0.00     0.091 A 
ATOM     91  F   UNL     1       2.043  -8.602  15.500  1.00  0.00    -0.205 F 
ATOM     92  C   UNL     1       1.885  -7.099  18.834  1.00  0.00     0.022 A 
BRANCH  90  93
ATOM     93  S   UNL     1       2.287  -9.765  18.344  1.00  0.00     0.127 S 
ATOM     94  O   UNL     1       3.686  -9.726  18.768  1.00  0.00    -0.237 OA
ATOM     95  O   UNL     1       1.323  -9.915  19.435  1.00  0.00    -0.237 OA
ATOM     96  O   UNL     1       2.010 -10.591  17.177  1.00  0.00    -0.744 OA
ENDBRANCH  90  93
ENDBRANCH  63  86
ENDBRANCH  37  38
ENDBRANCH  29  32
ENDBRANCH  27  28
ENDBRANCH  26  27
ENDBRANCH   1  26
TORSDOF 20
