REMARK SMILES C[C@H](C[C@@H]1CCCC[NH2+]1)Nc1cc(C(=O)NCCCCNC(=O)c2ccc(-c3c4nc(c(-c5cccc(S(=O)(=O)[O-])c5F)c5ccc([nH]5)c(-c5cccc(S(=O)(=O)[O-])c5F)c5nc(c(-c6cccc(S(=O)(=O)[O-])c6F)c6ccc3[nH]6)C=C5)C=C4)cc2)ccc1F
REMARK SMILES IDX 18 1 17 2 16 3 14 4 15 5 13 7 11 8 12 9 89 10 88 11 90 12
REMARK SMILES IDX 87 13 10 14 2 16 1 17 3 18 4 19 5 20 9 21 6 22 8 23 7 26
REMARK SMILES IDX 19 27 20 28 21 29 22 30 23 32 24 33 25 34 86 35 26 36 85 37
REMARK SMILES IDX 27 38 28 39 29 40 79 41 30 42 84 43 78 44 80 45 31 46 83 47
REMARK SMILES IDX 77 48 76 49 32 51 64 52 44 53 63 54 45 55 48 56 62 57 81 58
REMARK SMILES IDX 46 59 47 60 61 62 82 63 49 64 33 65 34 66 42 67 35 68 37 69
REMARK SMILES IDX 43 70 36 71 38 72 39 73 40 74 41 75 65 76 66 77 74 78 67 79
REMARK SMILES IDX 69 80 75 81 68 82 70 83 71 84 72 85 73 86 50 87 51 88 59 89
REMARK SMILES IDX 52 90 54 91 60 92 53 93 55 94 56 95 57 96 58 97
REMARK H PARENT 16 6 10 15 9 24 9 25 21 31 80 50 48 61
REMARK Flexibility Score: inf
ROOT
ATOM      1  C   UNL     1      -5.898   4.223  -5.149  1.00  0.00     0.023 C 
ENDROOT
BRANCH   1   2
ATOM      2  C   UNL     1      -5.094   4.774  -3.971  1.00  0.00     0.116 C 
BRANCH   2   3
ATOM      3  N   UNL     1      -5.264   3.931  -2.810  1.00  0.00    -0.352 N 
ATOM      4  C   UNL     1      -4.611   2.812  -2.369  1.00  0.00     0.251 C 
ATOM      5  O   UNL     1      -5.045   2.293  -1.338  1.00  0.00    -0.269 OA
ATOM      6  H   UNL     1      -5.996   4.218  -2.218  1.00  0.00     0.163 HD
BRANCH   4   7
ATOM      7  C   UNL     1      -3.397   2.217  -3.016  1.00  0.00     0.042 A 
ATOM      8  C   UNL     1      -1.492   0.689  -2.652  1.00  0.00     0.071 A 
ATOM      9  C   UNL     1      -2.683   1.296  -2.227  1.00  0.00     0.042 A 
ATOM     10  C   UNL     1      -0.997   1.056  -3.904  1.00  0.00     0.146 A 
ATOM     11  C   UNL     1      -1.712   1.913  -4.736  1.00  0.00     0.042 A 
ATOM     12  F   UNL     1       0.148   0.529  -4.366  1.00  0.00    -0.205 F 
ATOM     13  C   UNL     1      -2.920   2.473  -4.302  1.00  0.00     0.017 A 
BRANCH   8  14
ATOM     14  N   UNL     1      -0.880  -0.206  -1.797  1.00  0.00    -0.380 N 
ATOM     15  H   UNL     1      -1.447  -0.874  -1.350  1.00  0.00     0.160 HD
BRANCH  14  16
ATOM     16  C   UNL     1       0.541  -0.229  -1.513  1.00  0.00     0.082 C 
ATOM     17  C   UNL     1       1.114  -1.569  -1.970  1.00  0.00     0.031 C 
BRANCH  16  18
ATOM     18  C   UNL     1       0.817   0.039  -0.010  1.00  0.00     0.089 C 
BRANCH  18  19
ATOM     19  C   UNL     1      -0.043  -0.746   1.015  1.00  0.00     0.184 C 
ATOM     20  C   UNL     1      -1.373  -0.026   1.320  1.00  0.00     0.065 C 
ATOM     21  N   UNL     1       0.711  -0.880   2.280  1.00  0.00    -0.344 N 
ATOM     22  C   UNL     1      -2.199  -0.777   2.358  1.00  0.00     0.012 C 
ATOM     23  C   UNL     1      -0.035  -1.641   3.286  1.00  0.00     0.260 C 
ATOM     24  H   UNL     1       0.904   0.052   2.648  1.00  0.00     0.346 HD
ATOM     25  H   UNL     1       1.575  -1.384   2.080  1.00  0.00     0.346 HD
ATOM     26  C   UNL     1      -1.377  -0.995   3.618  1.00  0.00     0.062 C 
ENDBRANCH  18  19
ENDBRANCH  16  18
ENDBRANCH  14  16
ENDBRANCH   8  14
ENDBRANCH   4   7
ENDBRANCH   2   3
ENDBRANCH   1   2
BRANCH   1  27
ATOM     27  C   UNL     1      -7.364   4.667  -5.163  1.00  0.00     0.023 C 
BRANCH  27  28
ATOM     28  C   UNL     1      -7.580   6.170  -5.319  1.00  0.00     0.116 C 
BRANCH  28  29
ATOM     29  N   UNL     1      -6.914   6.728  -6.487  1.00  0.00    -0.352 N 
ATOM     30  C   UNL     1      -7.268   7.831  -7.229  1.00  0.00     0.251 C 
ATOM     31  H   UNL     1      -6.104   6.255  -6.785  1.00  0.00     0.163 HD
ATOM     32  O   UNL     1      -6.652   8.113  -8.246  1.00  0.00    -0.269 OA
BRANCH  30  33
ATOM     33  C   UNL     1      -8.429   8.639  -6.803  1.00  0.00     0.039 A 
ATOM     34  C   UNL     1      -9.427   8.919  -7.739  1.00  0.00     0.014 A 
ATOM     35  C   UNL     1      -8.549   9.079  -5.483  1.00  0.00     0.014 A 
ATOM     36  C   UNL     1     -10.583   9.586  -7.331  1.00  0.00     0.010 A 
ATOM     37  C   UNL     1      -9.728   9.687  -5.065  1.00  0.00     0.010 A 
ATOM     38  C   UNL     1     -10.758   9.942  -5.984  1.00  0.00    -0.014 A 
BRANCH  38  39
ATOM     39  C   UNL     1     -12.024  10.554  -5.511  1.00  0.00     0.031 A 
ATOM     40  C   UNL     1     -12.032  11.953  -4.963  1.00  0.00     0.074 A 
ATOM     41  C   UNL     1     -13.151   9.815  -5.504  1.00  0.00     0.049 A 
ATOM     42  N   UNL     1     -13.031  12.635  -4.468  1.00  0.00    -0.248 NA
ATOM     43  C   UNL     1     -10.748  12.674  -4.946  1.00  0.00     0.031 C 
ATOM     44  C   UNL     1     -13.249   8.421  -5.939  1.00  0.00     0.029 A 
ATOM     45  N   UNL     1     -14.425  10.126  -5.100  1.00  0.00    -0.354 N 
ATOM     46  C   UNL     1     -12.497  13.849  -4.058  1.00  0.00     0.074 A 
ATOM     47  C   UNL     1     -11.077  13.800  -4.328  1.00  0.00     0.031 C 
ATOM     48  C   UNL     1     -14.516   8.002  -5.796  1.00  0.00     0.029 A 
ATOM     49  C   UNL     1     -15.316   9.087  -5.235  1.00  0.00     0.049 A 
ATOM     50  H   UNL     1     -14.678  11.010  -4.747  1.00  0.00     0.167 HD
ATOM     51  C   UNL     1     -13.137  14.922  -3.538  1.00  0.00     0.034 A 
ATOM     52  C   UNL     1     -16.631   9.017  -4.945  1.00  0.00     0.034 A 
ATOM     53  C   UNL     1     -14.556  14.984  -3.321  1.00  0.00     0.049 A 
ATOM     54  C   UNL     1     -17.326  10.239  -4.409  1.00  0.00     0.074 A 
ATOM     55  C   UNL     1     -15.308  16.053  -2.869  1.00  0.00     0.029 A 
ATOM     56  N   UNL     1     -15.438  13.938  -3.544  1.00  0.00    -0.354 N 
ATOM     57  N   UNL     1     -16.828  11.426  -4.162  1.00  0.00    -0.248 NA
ATOM     58  C   UNL     1     -18.768  10.126  -4.143  1.00  0.00     0.031 C 
ATOM     59  C   UNL     1     -16.645  15.651  -2.810  1.00  0.00     0.029 A 
ATOM     60  C   UNL     1     -16.728  14.337  -3.240  1.00  0.00     0.049 A 
ATOM     61  H   UNL     1     -15.185  13.045  -3.871  1.00  0.00     0.167 HD
ATOM     62  C   UNL     1     -17.898  12.210  -3.746  1.00  0.00     0.074 A 
ATOM     63  C   UNL     1     -19.075  11.367  -3.789  1.00  0.00     0.031 C 
ATOM     64  C   UNL     1     -17.900  13.506  -3.349  1.00  0.00     0.034 A 
BRANCH  51  65
ATOM     65  C   UNL     1     -12.323  16.153  -3.240  1.00  0.00     0.023 A 
ATOM     66  C   UNL     1     -11.861  16.945  -4.311  1.00  0.00     0.012 A 
ATOM     67  C   UNL     1     -12.096  16.578  -1.917  1.00  0.00     0.148 A 
ATOM     68  C   UNL     1     -11.167  18.129  -4.072  1.00  0.00     0.002 A 
ATOM     69  C   UNL     1     -11.439  17.781  -1.686  1.00  0.00     0.091 A 
ATOM     70  F   UNL     1     -12.526  15.800  -0.913  1.00  0.00    -0.205 F 
ATOM     71  C   UNL     1     -10.967  18.553  -2.761  1.00  0.00     0.022 A 
BRANCH  69  72
ATOM     72  S   UNL     1     -11.200  18.457  -0.038  1.00  0.00     0.127 S 
ATOM     73  O   UNL     1      -9.754  18.322   0.129  1.00  0.00    -0.237 OA
ATOM     74  O   UNL     1     -11.669  19.834  -0.200  1.00  0.00    -0.237 OA
ATOM     75  O   UNL     1     -12.010  17.639   0.853  1.00  0.00    -0.744 OA
ENDBRANCH  69  72
ENDBRANCH  51  65
BRANCH  52  76
ATOM     76  C   UNL     1     -17.389   7.772  -5.258  1.00  0.00     0.023 A 
ATOM     77  C   UNL     1     -18.298   7.777  -6.334  1.00  0.00     0.012 A 
ATOM     78  C   UNL     1     -17.173   6.576  -4.547  1.00  0.00     0.148 A 
ATOM     79  C   UNL     1     -18.992   6.619  -6.685  1.00  0.00     0.002 A 
ATOM     80  C   UNL     1     -17.828   5.412  -4.936  1.00  0.00     0.091 A 
ATOM     81  F   UNL     1     -16.314   6.594  -3.518  1.00  0.00    -0.205 F 
ATOM     82  C   UNL     1     -18.749   5.435  -5.995  1.00  0.00     0.022 A 
BRANCH  80  83
ATOM     83  S   UNL     1     -17.472   3.813  -4.197  1.00  0.00     0.127 S 
ATOM     84  O   UNL     1     -18.689   3.561  -3.430  1.00  0.00    -0.237 OA
ATOM     85  O   UNL     1     -17.300   2.966  -5.377  1.00  0.00    -0.237 OA
ATOM     86  O   UNL     1     -16.258   4.005  -3.415  1.00  0.00    -0.744 OA
ENDBRANCH  80  83
ENDBRANCH  52  76
BRANCH  64  87
ATOM     87  C   UNL     1     -19.213  14.124  -2.948  1.00  0.00     0.023 A 
ATOM     88  C   UNL     1     -19.779  13.800  -1.700  1.00  0.00     0.012 A 
ATOM     89  C   UNL     1     -19.811  15.119  -3.745  1.00  0.00     0.148 A 
ATOM     90  C   UNL     1     -20.930  14.450  -1.256  1.00  0.00     0.002 A 
ATOM     91  C   UNL     1     -20.932  15.794  -3.277  1.00  0.00     0.091 A 
ATOM     92  F   UNL     1     -19.263  15.399  -4.937  1.00  0.00    -0.205 F 
ATOM     93  C   UNL     1     -21.497  15.456  -2.037  1.00  0.00     0.022 A 
BRANCH  91  94
ATOM     94  S   UNL     1     -21.669  17.172  -4.164  1.00  0.00     0.127 S 
ATOM     95  O   UNL     1     -22.921  16.584  -4.640  1.00  0.00    -0.237 OA
ATOM     96  O   UNL     1     -21.828  18.172  -3.108  1.00  0.00    -0.237 OA
ATOM     97  O   UNL     1     -20.716  17.536  -5.204  1.00  0.00    -0.744 OA
ENDBRANCH  91  94
ENDBRANCH  64  87
ENDBRANCH  38  39
ENDBRANCH  30  33
ENDBRANCH  28  29
ENDBRANCH  27  28
ENDBRANCH   1  27
TORSDOF 18
