REMARK SMILES C[C@H](NC(N)=O)C(=O)N[C@@H](CO)C(=O)NCCCCNC(=O)c1ccc(-c2c3nc(c(-c4cccc(S(=O)(=O)[O-])c4F)c4ccc([nH]4)c(-c4cccc(S(=O)(=O)[O-])c4F)c4nc(c(-c5cccc(S(=O)(=O)[O-])c5F)c5ccc2[nH]5)C=C4)C=C3)cc1
REMARK SMILES IDX 17 1 16 2 15 3 13 4 14 5 10 7 9 8 7 9 8 10 2 12 1 13 3 14
REMARK SMILES IDX 4 15 5 17 6 18 11 21 12 22 18 24 19 25 20 26 21 27 22 29
REMARK SMILES IDX 23 30 24 31 85 32 25 33 84 34 26 35 27 36 28 37 78 38 29 39
REMARK SMILES IDX 83 40 77 41 79 42 30 43 82 44 76 45 75 46 31 48 63 49 43 50
REMARK SMILES IDX 62 51 44 52 47 53 61 54 80 55 45 56 46 57 60 59 81 60 48 61
REMARK SMILES IDX 32 62 33 63 41 64 34 65 36 66 42 67 35 68 37 69 38 70 39 71
REMARK SMILES IDX 40 72 64 73 65 74 73 75 66 76 68 77 74 78 67 79 69 80 70 81
REMARK SMILES IDX 71 82 72 83 49 84 50 85 58 86 51 87 53 88 59 89 52 90 54 91
REMARK SMILES IDX 55 92 56 93 57 94
REMARK H PARENT 15 6 9 11 3 16 5 19 5 20 12 23 20 28 79 47 47 58
REMARK Flexibility Score: inf
ROOT
ATOM      1  C   UNL     1      -4.823  -1.559   2.532  1.00  0.00     0.023 C 
ENDROOT
BRANCH   1   2
ATOM      2  C   UNL     1      -3.866  -0.443   2.937  1.00  0.00     0.116 C 
BRANCH   2   3
ATOM      3  N   UNL     1      -2.666  -0.949   3.574  1.00  0.00    -0.354 N 
ATOM      4  C   UNL     1      -1.349  -0.723   3.317  1.00  0.00     0.244 C 
ATOM      5  O   UNL     1      -0.537  -1.092   4.173  1.00  0.00    -0.273 OA
ATOM      6  H   UNL     1      -2.833  -1.563   4.325  1.00  0.00     0.163 HD
BRANCH   4   7
ATOM      7  C   UNL     1      -0.846   0.058   2.085  1.00  0.00     0.197 C 
BRANCH   7   8
ATOM      8  N   UNL     1      -1.394  -0.422   0.811  1.00  0.00    -0.340 N 
ATOM      9  C   UNL     1      -0.865  -1.258  -0.125  1.00  0.00     0.243 C 
ATOM     10  O   UNL     1      -1.657  -1.745  -0.938  1.00  0.00    -0.273 OA
ATOM     11  H   UNL     1      -2.293  -0.083   0.598  1.00  0.00     0.164 HD
BRANCH   9  12
ATOM     12  C   UNL     1       0.629  -1.625  -0.161  1.00  0.00     0.170 C 
ATOM     13  C   UNL     1       0.999  -2.622   0.932  1.00  0.00     0.041 C 
BRANCH  12  14
ATOM     14  N   UNL     1       1.466  -0.428  -0.135  1.00  0.00    -0.327 N 
ATOM     15  C   UNL     1       2.729  -0.437  -0.634  1.00  0.00     0.312 C 
ATOM     16  H   UNL     1       1.107   0.402   0.253  1.00  0.00     0.166 HD
ATOM     17  N   UNL     1       3.353   0.756  -0.528  1.00  0.00    -0.352 N 
ATOM     18  O   UNL     1       3.285  -1.403  -1.143  1.00  0.00    -0.249 OA
ATOM     19  H   UNL     1       2.888   1.520  -0.116  1.00  0.00     0.161 HD
ATOM     20  H   UNL     1       4.273   0.862  -0.862  1.00  0.00     0.161 HD
ENDBRANCH  12  14
ENDBRANCH   9  12
ENDBRANCH   7   8
BRANCH   7  21
ATOM     21  C   UNL     1      -1.009   1.574   2.275  1.00  0.00     0.191 C 
BRANCH  21  22
ATOM     22  O   UNL     1      -2.304   2.057   1.929  1.00  0.00    -0.394 OA
ATOM     23  H   UNL     1      -2.471   1.891   0.988  1.00  0.00     0.210 HD
ENDBRANCH  21  22
ENDBRANCH   7  21
ENDBRANCH   4   7
ENDBRANCH   2   3
ENDBRANCH   1   2
BRANCH   1  24
ATOM     24  C   UNL     1      -5.499  -2.286   3.696  1.00  0.00     0.023 C 
BRANCH  24  25
ATOM     25  C   UNL     1      -6.219  -1.393   4.702  1.00  0.00     0.116 C 
BRANCH  25  26
ATOM     26  N   UNL     1      -7.200  -0.510   4.089  1.00  0.00    -0.352 N 
ATOM     27  C   UNL     1      -8.476  -0.209   4.500  1.00  0.00     0.251 C 
ATOM     28  H   UNL     1      -6.908  -0.065   3.261  1.00  0.00     0.163 HD
ATOM     29  O   UNL     1      -9.198   0.478   3.782  1.00  0.00    -0.269 OA
BRANCH  27  30
ATOM     30  C   UNL     1      -8.987  -0.729   5.787  1.00  0.00     0.039 A 
ATOM     31  C   UNL     1     -10.283  -1.248   5.836  1.00  0.00     0.014 A 
ATOM     32  C   UNL     1      -8.200  -0.704   6.941  1.00  0.00     0.014 A 
ATOM     33  C   UNL     1     -10.771  -1.784   7.030  1.00  0.00     0.010 A 
ATOM     34  C   UNL     1      -8.656  -1.314   8.107  1.00  0.00     0.010 A 
ATOM     35  C   UNL     1      -9.953  -1.843   8.171  1.00  0.00    -0.014 A 
BRANCH  35  36
ATOM     36  C   UNL     1     -10.450  -2.435   9.439  1.00  0.00     0.031 A 
ATOM     37  C   UNL     1     -10.569  -1.588  10.678  1.00  0.00     0.074 A 
ATOM     38  C   UNL     1     -10.730  -3.752   9.496  1.00  0.00     0.049 A 
ATOM     39  N   UNL     1     -10.973  -1.929  11.874  1.00  0.00    -0.248 NA
ATOM     40  C   UNL     1     -10.150  -0.181  10.568  1.00  0.00     0.031 C 
ATOM     41  C   UNL     1     -10.557  -4.702   8.396  1.00  0.00     0.029 A 
ATOM     42  N   UNL     1     -11.198  -4.523  10.530  1.00  0.00    -0.354 N 
ATOM     43  C   UNL     1     -10.830  -0.793  12.662  1.00  0.00     0.074 A 
ATOM     44  C   UNL     1     -10.252   0.232  11.822  1.00  0.00     0.031 C 
ATOM     45  C   UNL     1     -10.917  -5.927   8.812  1.00  0.00     0.029 A 
ATOM     46  C   UNL     1     -11.332  -5.854  10.210  1.00  0.00     0.049 A 
ATOM     47  H   UNL     1     -11.417  -4.158  11.418  1.00  0.00     0.167 HD
ATOM     48  C   UNL     1     -11.185  -0.603  13.956  1.00  0.00     0.034 A 
ATOM     49  C   UNL     1     -11.747  -6.896  10.956  1.00  0.00     0.034 A 
ATOM     50  C   UNL     1     -11.799  -1.611  14.777  1.00  0.00     0.049 A 
ATOM     51  C   UNL     1     -12.210  -6.647  12.365  1.00  0.00     0.074 A 
ATOM     52  C   UNL     1     -12.268  -1.500  16.073  1.00  0.00     0.029 A 
ATOM     53  N   UNL     1     -12.030  -2.919  14.380  1.00  0.00    -0.354 N 
ATOM     54  N   UNL     1     -12.223  -5.524  13.043  1.00  0.00    -0.248 NA
ATOM     55  C   UNL     1     -12.762  -7.795  13.097  1.00  0.00     0.031 C 
ATOM     56  C   UNL     1     -12.772  -2.745  16.464  1.00  0.00     0.029 A 
ATOM     57  C   UNL     1     -12.638  -3.626  15.403  1.00  0.00     0.049 A 
ATOM     58  H   UNL     1     -11.795  -3.291  13.499  1.00  0.00     0.167 HD
ATOM     59  C   UNL     1     -12.814  -5.822  14.265  1.00  0.00     0.074 A 
ATOM     60  C   UNL     1     -13.168  -7.226  14.224  1.00  0.00     0.031 C 
ATOM     61  C   UNL     1     -13.031  -5.010  15.330  1.00  0.00     0.034 A 
BRANCH  48  62
ATOM     62  C   UNL     1     -10.976   0.774  14.535  1.00  0.00     0.023 A 
ATOM     63  C   UNL     1     -11.779   1.843  14.082  1.00  0.00     0.012 A 
ATOM     64  C   UNL     1     -10.018   1.010  15.540  1.00  0.00     0.148 A 
ATOM     65  C   UNL     1     -11.599   3.131  14.583  1.00  0.00     0.002 A 
ATOM     66  C   UNL     1      -9.878   2.289  16.069  1.00  0.00     0.091 A 
ATOM     67  F   UNL     1      -9.249  -0.010  15.944  1.00  0.00    -0.205 F 
ATOM     68  C   UNL     1     -10.656   3.352  15.582  1.00  0.00     0.022 A 
BRANCH  66  69
ATOM     69  S   UNL     1      -8.747   2.659  17.414  1.00  0.00     0.127 S 
ATOM     70  O   UNL     1      -7.686   3.384  16.717  1.00  0.00    -0.237 OA
ATOM     71  O   UNL     1      -9.573   3.487  18.294  1.00  0.00    -0.237 OA
ATOM     72  O   UNL     1      -8.363   1.373  17.979  1.00  0.00    -0.744 OA
ENDBRANCH  66  69
ENDBRANCH  48  62
BRANCH  49  73
ATOM     73  C   UNL     1     -11.822  -8.255  10.347  1.00  0.00     0.023 A 
ATOM     74  C   UNL     1     -13.080  -8.818  10.057  1.00  0.00     0.012 A 
ATOM     75  C   UNL     1     -10.655  -8.968  10.011  1.00  0.00     0.148 A 
ATOM     76  C   UNL     1     -13.176 -10.080   9.471  1.00  0.00     0.002 A 
ATOM     77  C   UNL     1     -10.757 -10.200   9.377  1.00  0.00     0.091 A 
ATOM     78  F   UNL     1      -9.469  -8.418  10.303  1.00  0.00    -0.205 F 
ATOM     79  C   UNL     1     -12.016 -10.766   9.121  1.00  0.00     0.022 A 
BRANCH  77  80
ATOM     80  S   UNL     1      -9.321 -11.091   8.767  1.00  0.00     0.127 S 
ATOM     81  O   UNL     1      -9.262 -12.226   9.683  1.00  0.00    -0.237 OA
ATOM     82  O   UNL     1      -9.729 -11.421   7.401  1.00  0.00    -0.237 OA
ATOM     83  O   UNL     1      -8.211 -10.151   8.850  1.00  0.00    -0.744 OA
ENDBRANCH  77  80
ENDBRANCH  49  73
BRANCH  61  84
ATOM     84  C   UNL     1     -13.714  -5.608  16.533  1.00  0.00     0.023 A 
ATOM     85  C   UNL     1     -13.019  -6.517  17.355  1.00  0.00     0.012 A 
ATOM     86  C   UNL     1     -15.022  -5.220  16.882  1.00  0.00     0.148 A 
ATOM     87  C   UNL     1     -13.630  -7.059  18.485  1.00  0.00     0.002 A 
ATOM     88  C   UNL     1     -15.606  -5.728  18.037  1.00  0.00     0.091 A 
ATOM     89  F   UNL     1     -15.677  -4.371  16.077  1.00  0.00    -0.205 F 
ATOM     90  C   UNL     1     -14.917  -6.657  18.832  1.00  0.00     0.022 A 
BRANCH  88  91
ATOM     91  S   UNL     1     -17.222  -5.189  18.608  1.00  0.00     0.127 S 
ATOM     92  O   UNL     1     -18.067  -6.319  18.224  1.00  0.00    -0.237 OA
ATOM     93  O   UNL     1     -17.014  -5.045  20.049  1.00  0.00    -0.237 OA
ATOM     94  O   UNL     1     -17.491  -3.937  17.912  1.00  0.00    -0.744 OA
ENDBRANCH  88  91
ENDBRANCH  61  84
ENDBRANCH  35  36
ENDBRANCH  27  30
ENDBRANCH  25  26
ENDBRANCH  24  25
ENDBRANCH   1  24
TORSDOF 19
