REMARK SMILES O=C(NCCCCNC(=O)c1cc(S(=O)(=O)NNC(=O)[C@H]2C=C(c3ccccc3)N=N2)ccc1F)c1ccc(-c2c3nc(c(-c4cccc(S(=O)(=O)[O-])c4F)c4ccc([nH]4)c(-c4cccc(S(=O)(=O)[O-])c4F)c4nc(c(-c5cccc(S(=O)(=O)[O-])c5F)c5ccc2[nH]5)C=C4)C=C3)cc1
REMARK SMILES IDX 6 1 5 2 4 3 3 4 1 5 2 6 36 8 37 9 98 10 38 11 97 12 39 13
REMARK SMILES IDX 40 14 41 15 91 16 42 17 96 18 90 19 92 20 43 21 95 22 89 23
REMARK SMILES IDX 88 24 44 26 76 27 56 28 75 29 57 30 60 31 74 32 93 33 58 34
REMARK SMILES IDX 59 35 73 37 94 38 61 39 45 40 46 41 54 42 47 43 49 44 55 45
REMARK SMILES IDX 48 46 50 47 51 48 52 49 53 50 77 51 78 52 86 53 79 54 81 55
REMARK SMILES IDX 87 56 80 57 82 58 83 59 84 60 85 61 62 62 63 63 71 64 64 65
REMARK SMILES IDX 66 66 72 67 65 68 67 69 68 70 69 71 70 72 7 73 8 74 9 75
REMARK SMILES IDX 10 77 11 78 12 79 34 80 13 81 33 82 35 83 32 84 14 85 15 86
REMARK SMILES IDX 16 87 17 88 18 90 19 91 20 93 21 94 22 95 31 96 23 97 30 98
REMARK SMILES IDX 24 99 25 100 29 101 26 102 28 103 27 104
REMARK H PARENT 3 7 92 25 60 36 8 76 17 89 18 92
REMARK Flexibility Score: inf
ROOT
ATOM      1  C   UNL     1       1.529   8.520  -0.304  1.00  0.00     0.023 C 
ENDROOT
BRANCH   1   2
ATOM      2  C   UNL     1       1.192   8.857  -1.757  1.00  0.00     0.023 C 
BRANCH   2   3
ATOM      3  C   UNL     1       2.029   8.117  -2.799  1.00  0.00     0.116 C 
BRANCH   3   4
ATOM      4  N   UNL     1       1.916   6.674  -2.744  1.00  0.00    -0.352 N 
ATOM      5  O   UNL     1       1.351   4.577  -3.128  1.00  0.00    -0.269 OA
ATOM      6  C   UNL     1       1.033   5.762  -3.256  1.00  0.00     0.251 C 
ATOM      7  H   UNL     1       2.636   6.255  -2.220  1.00  0.00     0.163 HD
BRANCH   6   8
ATOM      8  C   UNL     1      -0.283   6.097  -3.864  1.00  0.00     0.039 A 
ATOM      9  C   UNL     1      -0.665   7.352  -4.342  1.00  0.00     0.014 A 
ATOM     10  C   UNL     1      -1.209   5.039  -3.938  1.00  0.00     0.014 A 
ATOM     11  C   UNL     1      -1.965   7.569  -4.790  1.00  0.00     0.010 A 
ATOM     12  C   UNL     1      -2.504   5.246  -4.398  1.00  0.00     0.010 A 
ATOM     13  C   UNL     1      -2.891   6.522  -4.792  1.00  0.00    -0.014 A 
BRANCH  13  14
ATOM     14  C   UNL     1      -4.196   6.755  -5.405  1.00  0.00     0.031 A 
ATOM     15  C   UNL     1      -4.131   7.014  -6.874  1.00  0.00     0.074 A 
ATOM     16  C   UNL     1      -5.367   6.605  -4.752  1.00  0.00     0.049 A 
ATOM     17  N   UNL     1      -4.480   8.084  -7.511  1.00  0.00    -0.248 NA
ATOM     18  C   UNL     1      -3.458   6.013  -7.718  1.00  0.00     0.031 C 
ATOM     19  C   UNL     1      -5.575   6.070  -3.404  1.00  0.00     0.029 A 
ATOM     20  N   UNL     1      -6.642   6.773  -5.213  1.00  0.00    -0.354 N 
ATOM     21  C   UNL     1      -4.280   7.803  -8.864  1.00  0.00     0.074 A 
ATOM     22  C   UNL     1      -3.486   6.606  -8.912  1.00  0.00     0.031 C 
ATOM     23  C   UNL     1      -6.874   5.719  -3.260  1.00  0.00     0.029 A 
ATOM     24  C   UNL     1      -7.609   6.125  -4.444  1.00  0.00     0.049 A 
ATOM     25  H   UNL     1      -6.858   7.302  -6.014  1.00  0.00     0.167 HD
ATOM     26  C   UNL     1      -4.985   8.446  -9.836  1.00  0.00     0.034 A 
ATOM     27  C   UNL     1      -8.895   5.870  -4.801  1.00  0.00     0.034 A 
ATOM     28  C   UNL     1      -5.588   9.651  -9.328  1.00  0.00     0.049 A 
ATOM     29  C   UNL     1      -9.240   6.800  -5.897  1.00  0.00     0.074 A 
ATOM     30  C   UNL     1      -5.128  10.825  -8.768  1.00  0.00     0.029 A 
ATOM     31  N   UNL     1      -6.929   9.594  -9.040  1.00  0.00    -0.354 N 
ATOM     32  N   UNL     1      -9.338   8.089  -5.746  1.00  0.00    -0.248 NA
ATOM     33  C   UNL     1      -9.069   6.333  -7.262  1.00  0.00     0.031 C 
ATOM     34  C   UNL     1      -6.098  11.162  -7.780  1.00  0.00     0.029 A 
ATOM     35  C   UNL     1      -7.119  10.212  -7.838  1.00  0.00     0.049 A 
ATOM     36  H   UNL     1      -7.626   9.182  -9.600  1.00  0.00     0.167 HD
ATOM     37  C   UNL     1      -8.774   8.607  -6.903  1.00  0.00     0.074 A 
ATOM     38  C   UNL     1      -8.728   7.486  -7.841  1.00  0.00     0.031 C 
ATOM     39  C   UNL     1      -8.130   9.809  -6.888  1.00  0.00     0.034 A 
BRANCH  26  40
ATOM     40  C   UNL     1      -5.481   7.818 -11.128  1.00  0.00     0.023 A 
ATOM     41  C   UNL     1      -6.201   8.661 -12.010  1.00  0.00     0.012 A 
ATOM     42  C   UNL     1      -5.553   6.429 -11.383  1.00  0.00     0.148 A 
ATOM     43  C   UNL     1      -7.026   8.149 -13.017  1.00  0.00     0.002 A 
ATOM     44  C   UNL     1      -6.319   5.928 -12.431  1.00  0.00     0.091 A 
ATOM     45  F   UNL     1      -4.982   5.560 -10.548  1.00  0.00    -0.205 F 
ATOM     46  C   UNL     1      -7.088   6.780 -13.226  1.00  0.00     0.022 A 
BRANCH  44  47
ATOM     47  S   UNL     1      -6.403   4.166 -12.785  1.00  0.00     0.127 S 
ATOM     48  O   UNL     1      -7.760   3.847 -12.354  1.00  0.00    -0.237 OA
ATOM     49  O   UNL     1      -6.191   4.145 -14.233  1.00  0.00    -0.237 OA
ATOM     50  O   UNL     1      -5.326   3.558 -12.016  1.00  0.00    -0.744 OA
ENDBRANCH  44  47
ENDBRANCH  26  40
BRANCH  27  51
ATOM     51  C   UNL     1      -9.755   4.694  -4.508  1.00  0.00     0.023 A 
ATOM     52  C   UNL     1     -11.148   4.778  -4.726  1.00  0.00     0.012 A 
ATOM     53  C   UNL     1      -9.188   3.412  -4.339  1.00  0.00     0.148 A 
ATOM     54  C   UNL     1     -11.938   3.625  -4.820  1.00  0.00     0.002 A 
ATOM     55  C   UNL     1      -9.977   2.269  -4.436  1.00  0.00     0.091 A 
ATOM     56  F   UNL     1      -7.862   3.310  -4.183  1.00  0.00    -0.205 F 
ATOM     57  C   UNL     1     -11.350   2.371  -4.690  1.00  0.00     0.022 A 
BRANCH  55  58
ATOM     58  S   UNL     1      -9.280   0.614  -4.332  1.00  0.00     0.127 S 
ATOM     59  O   UNL     1     -10.155  -0.018  -3.343  1.00  0.00    -0.237 OA
ATOM     60  O   UNL     1      -9.450   0.130  -5.699  1.00  0.00    -0.237 OA
ATOM     61  O   UNL     1      -7.903   0.788  -3.890  1.00  0.00    -0.744 OA
ENDBRANCH  55  58
ENDBRANCH  27  51
BRANCH  39  62
ATOM     62  C   UNL     1      -8.274  10.686  -5.672  1.00  0.00     0.023 A 
ATOM     63  C   UNL     1      -7.775  10.317  -4.405  1.00  0.00     0.012 A 
ATOM     64  C   UNL     1      -8.732  11.998  -5.870  1.00  0.00     0.148 A 
ATOM     65  C   UNL     1      -7.741  11.241  -3.357  1.00  0.00     0.002 A 
ATOM     66  C   UNL     1      -8.643  12.928  -4.844  1.00  0.00     0.091 A 
ATOM     67  F   UNL     1      -9.207  12.325  -7.082  1.00  0.00    -0.205 F 
ATOM     68  C   UNL     1      -8.157  12.552  -3.582  1.00  0.00     0.022 A 
BRANCH  66  69
ATOM     69  S   UNL     1      -9.016  14.660  -5.121  1.00  0.00     0.127 S 
ATOM     70  O   UNL     1     -10.280  14.818  -4.404  1.00  0.00    -0.237 OA
ATOM     71  O   UNL     1      -7.872  15.328  -4.500  1.00  0.00    -0.237 OA
ATOM     72  O   UNL     1      -9.091  14.830  -6.567  1.00  0.00    -0.744 OA
ENDBRANCH  66  69
ENDBRANCH  39  62
ENDBRANCH  13  14
ENDBRANCH   6   8
ENDBRANCH   3   4
ENDBRANCH   2   3
ENDBRANCH   1   2
BRANCH   1  73
ATOM     73  C   UNL     1       3.003   8.622   0.066  1.00  0.00     0.116 C 
BRANCH  73  74
ATOM     74  N   UNL     1       3.541   9.970  -0.056  1.00  0.00    -0.352 N 
ATOM     75  C   UNL     1       4.303  10.664   0.851  1.00  0.00     0.254 C 
ATOM     76  H   UNL     1       3.331  10.443  -0.894  1.00  0.00     0.163 HD
ATOM     77  O   UNL     1       4.661  11.818   0.643  1.00  0.00    -0.269 OA
BRANCH  75  78
ATOM     78  C   UNL     1       4.623  10.030   2.137  1.00  0.00     0.076 A 
ATOM     79  C   UNL     1       4.175  10.640   3.308  1.00  0.00     0.038 A 
ATOM     80  C   UNL     1       5.300   8.813   2.191  1.00  0.00     0.136 A 
ATOM     81  C   UNL     1       4.333   9.964   4.520  1.00  0.00     0.085 A 
ATOM     82  C   UNL     1       5.419   8.126   3.395  1.00  0.00     0.041 A 
ATOM     83  F   UNL     1       5.795   8.250   1.081  1.00  0.00    -0.206 F 
ATOM     84  C   UNL     1       4.908   8.689   4.564  1.00  0.00     0.025 A 
BRANCH  81  85
ATOM     85  S   UNL     1       3.885  10.839   5.987  1.00  0.00     0.257 S 
ATOM     86  O   UNL     1       4.747  11.994   6.069  1.00  0.00    -0.205 OA
ATOM     87  O   UNL     1       2.441  10.934   6.015  1.00  0.00    -0.205 OA
BRANCH  85  88
ATOM     88  N   UNL     1       4.313   9.792   7.266  1.00  0.00    -0.123 NA
ATOM     89  H   UNL     1       4.012   8.853   7.005  1.00  0.00     0.167 HD
BRANCH  88  90
ATOM     90  N   UNL     1       5.720   9.712   7.632  1.00  0.00    -0.275 N 
ATOM     91  C   UNL     1       6.202   9.859   8.912  1.00  0.00     0.265 C 
ATOM     92  H   UNL     1       6.372   9.541   6.913  1.00  0.00     0.186 HD
ATOM     93  O   UNL     1       7.391   9.611   9.135  1.00  0.00    -0.271 OA
BRANCH  91  94
ATOM     94  C   UNL     1       5.223  10.275  10.016  1.00  0.00     0.244 C 
ATOM     95  C   UNL     1       5.879  10.986  11.144  1.00  0.00     0.042 C 
ATOM     96  N   UNL     1       4.310  11.323   9.484  1.00  0.00    -0.171 NA
ATOM     97  C   UNL     1       5.385  12.227  11.127  1.00  0.00     0.091 C 
ATOM     98  N   UNL     1       4.470  12.398  10.117  1.00  0.00    -0.155 NA
BRANCH  97  99
ATOM     99  C   UNL     1       5.651  13.306  12.089  1.00  0.00     0.002 A 
ATOM    100  C   UNL     1       4.686  14.313  12.263  1.00  0.00     0.010 A 
ATOM    101  C   UNL     1       6.833  13.382  12.840  1.00  0.00     0.010 A 
ATOM    102  C   UNL     1       4.882  15.352  13.173  1.00  0.00     0.001 A 
ATOM    103  C   UNL     1       7.030  14.425  13.751  1.00  0.00     0.001 A 
ATOM    104  C   UNL     1       6.054  15.406  13.920  1.00  0.00     0.000 A 
ENDBRANCH  97  99
ENDBRANCH  91  94
ENDBRANCH  88  90
ENDBRANCH  85  88
ENDBRANCH  81  85
ENDBRANCH  75  78
ENDBRANCH  73  74
ENDBRANCH   1  73
TORSDOF 19
