REMARK SMILES C#CC[N@H+](CC(=O)NCCCCNC(=O)c1ccc(-c2c3nc(c(-c4cccc(S(=O)(=O)[O-])c4F)c4ccc([nH]4)c(-c4cccc(S(=O)(=O)[O-])c4F)c4nc(c(-c5cccc(S(=O)(=O)[O-])c5F)c5ccc2[nH]5)C=C4)C=C3)cc1)[C@H](C)C(=O)NCCC
REMARK SMILES IDX 9 1 8 2 6 3 7 4 5 6 4 7 3 9 2 10 1 11 79 12 80 13 81 14
REMARK SMILES IDX 82 15 83 16 84 18 85 19 86 20 10 21 11 22 12 23 13 24 14 25
REMARK SMILES IDX 15 27 16 28 17 29 78 30 18 31 77 32 19 33 20 34 21 35 71 36
REMARK SMILES IDX 22 37 76 38 70 39 72 40 23 41 75 42 69 43 68 44 24 46 56 47
REMARK SMILES IDX 36 48 55 49 37 50 40 51 54 52 73 53 38 54 39 55 53 57 74 58
REMARK SMILES IDX 41 59 25 60 26 61 34 62 27 63 29 64 35 65 28 66 30 67 31 68
REMARK SMILES IDX 32 69 33 70 57 71 58 72 66 73 59 74 61 75 67 76 60 77 62 78
REMARK SMILES IDX 63 79 64 80 65 81 42 82 43 83 51 84 44 85 46 86 52 87 45 88
REMARK SMILES IDX 47 89 48 90 49 91 50 92
REMARK H PARENT 8 5 4 8 83 17 13 26 72 45 40 56
REMARK Flexibility Score: inf
ROOT
ATOM      1  C   UNL     1      -3.528  -2.124  -2.743  1.00  0.00     0.116 C 
ENDROOT
BRANCH   1   2
ATOM      2  N   UNL     1      -4.136  -3.330  -2.200  1.00  0.00    -0.351 N 
ATOM      3  C   UNL     1      -4.244  -3.774  -0.902  1.00  0.00     0.275 C 
ATOM      4  O   UNL     1      -4.782  -4.864  -0.705  1.00  0.00    -0.269 OA
ATOM      5  H   UNL     1      -4.535  -3.927  -2.873  1.00  0.00     0.163 HD
BRANCH   3   6
ATOM      6  C   UNL     1      -3.741  -2.898   0.265  1.00  0.00     0.364 C 
BRANCH   6   7
ATOM      7  N   UNL     1      -2.288  -3.007   0.620  1.00  0.00    -0.307 N 
ATOM      8  H   UNL     1      -2.146  -3.814   1.227  1.00  0.00     0.350 HD
BRANCH   7   9
ATOM      9  C   UNL     1      -1.472  -3.341  -0.537  1.00  0.00     0.355 C 
BRANCH   9  10
ATOM     10  C   UNL     1      -0.050  -3.680  -0.415  1.00  0.00    -0.047 C 
ATOM     11  C   UNL     1       1.126  -3.852  -0.563  1.00  0.00     0.010 C 
ENDBRANCH   9  10
ENDBRANCH   7   9
BRANCH   7  12
ATOM     12  C   UNL     1      -1.832  -1.877   1.496  1.00  0.00     0.272 C 
ATOM     13  C   UNL     1      -2.613  -0.547   1.528  1.00  0.00     0.086 C 
BRANCH  12  14
ATOM     14  C   UNL     1      -0.315  -1.579   1.498  1.00  0.00     0.278 C 
ATOM     15  O   UNL     1       0.416  -2.013   2.396  1.00  0.00    -0.268 OA
ATOM     16  N   UNL     1       0.272  -0.783   0.551  1.00  0.00    -0.351 N 
ATOM     17  H   UNL     1       1.201  -0.527   0.753  1.00  0.00     0.163 HD
BRANCH  16  18
ATOM     18  C   UNL     1      -0.240  -0.251  -0.700  1.00  0.00     0.116 C 
BRANCH  18  19
ATOM     19  C   UNL     1       0.332   1.122  -1.031  1.00  0.00     0.018 C 
ATOM     20  C   UNL     1       1.796   1.051  -1.444  1.00  0.00     0.006 C 
ENDBRANCH  18  19
ENDBRANCH  16  18
ENDBRANCH  12  14
ENDBRANCH   7  12
ENDBRANCH   6   7
ENDBRANCH   3   6
ENDBRANCH   1   2
BRANCH   1  21
ATOM     21  C   UNL     1      -2.224  -2.415  -3.505  1.00  0.00     0.023 C 
BRANCH  21  22
ATOM     22  C   UNL     1      -2.386  -3.049  -4.869  1.00  0.00     0.023 C 
BRANCH  22  23
ATOM     23  C   UNL     1      -3.048  -2.140  -5.874  1.00  0.00     0.116 C 
BRANCH  23  24
ATOM     24  N   UNL     1      -2.280  -0.921  -6.125  1.00  0.00    -0.352 N 
ATOM     25  C   UNL     1      -1.901  -0.406  -7.344  1.00  0.00     0.251 C 
ATOM     26  H   UNL     1      -2.002  -0.410  -5.331  1.00  0.00     0.163 HD
ATOM     27  O   UNL     1      -1.131   0.544  -7.420  1.00  0.00    -0.269 OA
BRANCH  25  28
ATOM     28  C   UNL     1      -2.431  -1.064  -8.551  1.00  0.00     0.039 A 
ATOM     29  C   UNL     1      -1.550  -1.544  -9.520  1.00  0.00     0.014 A 
ATOM     30  C   UNL     1      -3.796  -1.354  -8.610  1.00  0.00     0.014 A 
ATOM     31  C   UNL     1      -2.034  -2.394 -10.514  1.00  0.00     0.010 A 
ATOM     32  C   UNL     1      -4.242  -2.301  -9.514  1.00  0.00     0.010 A 
ATOM     33  C   UNL     1      -3.373  -2.817 -10.488  1.00  0.00    -0.014 A 
BRANCH  33  34
ATOM     34  C   UNL     1      -3.931  -3.763 -11.483  1.00  0.00     0.031 A 
ATOM     35  C   UNL     1      -5.102  -3.321 -12.318  1.00  0.00     0.074 A 
ATOM     36  C   UNL     1      -3.480  -5.031 -11.555  1.00  0.00     0.049 A 
ATOM     37  N   UNL     1      -5.864  -4.024 -13.110  1.00  0.00    -0.248 NA
ATOM     38  C   UNL     1      -5.496  -1.903 -12.210  1.00  0.00     0.031 C 
ATOM     39  C   UNL     1      -2.382  -5.593 -10.764  1.00  0.00     0.029 A 
ATOM     40  N   UNL     1      -3.919  -6.091 -12.310  1.00  0.00    -0.354 N 
ATOM     41  C   UNL     1      -6.849  -3.150 -13.555  1.00  0.00     0.074 A 
ATOM     42  C   UNL     1      -6.620  -1.880 -12.906  1.00  0.00     0.031 C 
ATOM     43  C   UNL     1      -2.232  -6.890 -11.079  1.00  0.00     0.029 A 
ATOM     44  C   UNL     1      -3.254  -7.268 -12.049  1.00  0.00     0.049 A 
ATOM     45  H   UNL     1      -4.641  -6.016 -12.975  1.00  0.00     0.167 HD
ATOM     46  C   UNL     1      -7.838  -3.374 -14.448  1.00  0.00     0.034 A 
ATOM     47  C   UNL     1      -3.466  -8.514 -12.519  1.00  0.00     0.034 A 
ATOM     48  C   UNL     1      -8.039  -4.629 -15.113  1.00  0.00     0.049 A 
ATOM     49  C   UNL     1      -4.585  -8.742 -13.502  1.00  0.00     0.074 A 
ATOM     50  C   UNL     1      -8.971  -4.946 -16.084  1.00  0.00     0.029 A 
ATOM     51  N   UNL     1      -7.303  -5.778 -14.869  1.00  0.00    -0.354 N 
ATOM     52  N   UNL     1      -5.440  -7.878 -13.993  1.00  0.00    -0.248 NA
ATOM     53  C   UNL     1      -4.753 -10.109 -14.018  1.00  0.00     0.031 C 
ATOM     54  C   UNL     1      -8.830  -6.300 -16.393  1.00  0.00     0.029 A 
ATOM     55  C   UNL     1      -7.767  -6.809 -15.663  1.00  0.00     0.049 A 
ATOM     56  H   UNL     1      -6.561  -5.848 -14.226  1.00  0.00     0.167 HD
ATOM     57  C   UNL     1      -6.205  -8.582 -14.916  1.00  0.00     0.074 A 
ATOM     58  C   UNL     1      -5.715  -9.944 -14.915  1.00  0.00     0.031 C 
ATOM     59  C   UNL     1      -7.222  -8.141 -15.695  1.00  0.00     0.034 A 
BRANCH  46  60
ATOM     60  C   UNL     1      -8.759  -2.229 -14.775  1.00  0.00     0.023 A 
ATOM     61  C   UNL     1      -8.268  -1.111 -15.480  1.00  0.00     0.012 A 
ATOM     62  C   UNL     1     -10.121  -2.280 -14.422  1.00  0.00     0.148 A 
ATOM     63  C   UNL     1      -9.107  -0.043 -15.791  1.00  0.00     0.002 A 
ATOM     64  C   UNL     1     -10.963  -1.238 -14.784  1.00  0.00     0.091 A 
ATOM     65  F   UNL     1     -10.563  -3.342 -13.734  1.00  0.00    -0.205 F 
ATOM     66  C   UNL     1     -10.456  -0.112 -15.454  1.00  0.00     0.022 A 
BRANCH  64  67
ATOM     67  S   UNL     1     -12.730  -1.268 -14.470  1.00  0.00     0.127 S 
ATOM     68  O   UNL     1     -12.874  -0.184 -13.499  1.00  0.00    -0.237 OA
ATOM     69  O   UNL     1     -13.279  -0.978 -15.795  1.00  0.00    -0.237 OA
ATOM     70  O   UNL     1     -13.029  -2.599 -13.963  1.00  0.00    -0.744 OA
ENDBRANCH  64  67
ENDBRANCH  46  60
BRANCH  47  71
ATOM     71  C   UNL     1      -2.586  -9.641 -12.097  1.00  0.00     0.023 A 
ATOM     72  C   UNL     1      -1.733 -10.246 -13.042  1.00  0.00     0.012 A 
ATOM     73  C   UNL     1      -2.595 -10.124 -10.775  1.00  0.00     0.148 A 
ATOM     74  C   UNL     1      -0.941 -11.341 -12.690  1.00  0.00     0.002 A 
ATOM     75  C   UNL     1      -1.762 -11.177 -10.416  1.00  0.00     0.091 A 
ATOM     76  F   UNL     1      -3.415  -9.537  -9.892  1.00  0.00    -0.205 F 
ATOM     77  C   UNL     1      -0.951 -11.801 -11.376  1.00  0.00     0.022 A 
BRANCH  75  78
ATOM     78  S   UNL     1      -1.617 -11.761  -8.724  1.00  0.00     0.127 S 
ATOM     79  O   UNL     1      -2.180 -13.105  -8.823  1.00  0.00    -0.237 OA
ATOM     80  O   UNL     1      -0.170 -11.711  -8.514  1.00  0.00    -0.237 OA
ATOM     81  O   UNL     1      -2.377 -10.818  -7.915  1.00  0.00    -0.744 OA
ENDBRANCH  75  78
ENDBRANCH  47  71
BRANCH  59  82
ATOM     82  C   UNL     1      -7.824  -9.096 -16.690  1.00  0.00     0.023 A 
ATOM     83  C   UNL     1      -8.667 -10.139 -16.265  1.00  0.00     0.012 A 
ATOM     84  C   UNL     1      -7.644  -8.865 -18.070  1.00  0.00     0.148 A 
ATOM     85  C   UNL     1      -9.309 -10.950 -17.200  1.00  0.00     0.002 A 
ATOM     86  C   UNL     1      -8.331  -9.639 -18.993  1.00  0.00     0.091 A 
ATOM     87  F   UNL     1      -6.823  -7.874 -18.448  1.00  0.00    -0.205 F 
ATOM     88  C   UNL     1      -9.155 -10.690 -18.561  1.00  0.00     0.022 A 
BRANCH  86  89
ATOM     89  S   UNL     1      -8.279  -9.307 -20.757  1.00  0.00     0.127 S 
ATOM     90  O   UNL     1      -7.614 -10.506 -21.265  1.00  0.00    -0.237 OA
ATOM     91  O   UNL     1      -9.700  -9.208 -21.091  1.00  0.00    -0.237 OA
ATOM     92  O   UNL     1      -7.527  -8.070 -20.917  1.00  0.00    -0.744 OA
ENDBRANCH  86  89
ENDBRANCH  59  82
ENDBRANCH  33  34
ENDBRANCH  25  28
ENDBRANCH  23  24
ENDBRANCH  22  23
ENDBRANCH  21  22
ENDBRANCH   1  21
TORSDOF 21
