REMARK SMILES O=C(NCCCCNC(=O)[C@H]1[C@@H](C(=O)Nc2ccccc2-c2ccccc2)[C@@H]2C=C[C@H]1O2)c1ccc(-c2c3nc(c(-c4cccc(S(=O)(=O)[O-])c4F)c4ccc([nH]4)c(-c4cccc(S(=O)(=O)[O-])c4F)c4nc(c(-c5cccc(S(=O)(=O)[O-])c5F)c5ccc2[nH]5)C=C4)C=C3)cc1
REMARK SMILES IDX 5 1 4 2 3 3 1 4 2 5 33 7 34 8 95 9 35 10 94 11 36 12 37 13
REMARK SMILES IDX 38 14 88 15 39 16 93 17 87 18 89 19 40 20 92 21 86 22 85 23
REMARK SMILES IDX 41 25 73 26 53 27 72 28 54 29 57 30 71 31 90 32 55 33 56 34
REMARK SMILES IDX 70 36 91 37 58 38 42 39 43 40 51 41 44 42 46 43 52 44 45 45
REMARK SMILES IDX 47 46 48 47 49 48 50 49 74 50 75 51 83 52 76 53 78 54 84 55
REMARK SMILES IDX 77 56 79 57 80 58 81 59 82 60 59 61 60 62 68 63 61 64 63 65
REMARK SMILES IDX 69 66 62 67 64 68 65 69 66 70 67 71 6 72 7 73 8 74 9 75
REMARK SMILES IDX 10 77 11 78 12 79 31 80 28 81 30 82 32 83 29 84 13 85 14 86
REMARK SMILES IDX 15 87 16 89 17 90 21 91 18 92 20 93 19 94 22 95 23 96 27 97
REMARK SMILES IDX 24 98 26 99 25 100
REMARK H PARENT 3 6 89 24 57 35 8 76 15 88
REMARK Flexibility Score: inf
ROOT
ATOM      1  C   UNL     1       5.114  -3.117  -1.141  1.00  0.00     0.023 C 
ENDROOT
BRANCH   1   2
ATOM      2  C   UNL     1       5.092  -4.446  -0.400  1.00  0.00     0.116 C 
BRANCH   2   3
ATOM      3  N   UNL     1       6.350  -4.895   0.162  1.00  0.00    -0.352 N 
ATOM      4  O   UNL     1       7.583  -6.229   1.529  1.00  0.00    -0.269 OA
ATOM      5  C   UNL     1       6.495  -5.954   1.039  1.00  0.00     0.251 C 
ATOM      6  H   UNL     1       7.164  -4.408  -0.101  1.00  0.00     0.163 HD
BRANCH   5   7
ATOM      7  C   UNL     1       5.278  -6.720   1.403  1.00  0.00     0.039 A 
ATOM      8  C   UNL     1       4.558  -7.389   0.410  1.00  0.00     0.014 A 
ATOM      9  C   UNL     1       4.805  -6.680   2.716  1.00  0.00     0.014 A 
ATOM     10  C   UNL     1       3.302  -7.915   0.707  1.00  0.00     0.010 A 
ATOM     11  C   UNL     1       3.573  -7.269   3.024  1.00  0.00     0.010 A 
ATOM     12  C   UNL     1       2.795  -7.865   2.017  1.00  0.00    -0.014 A 
BRANCH  12  13
ATOM     13  C   UNL     1       1.488  -8.505   2.330  1.00  0.00     0.031 A 
ATOM     14  C   UNL     1       0.306  -7.699   2.804  1.00  0.00     0.074 A 
ATOM     15  C   UNL     1       1.378  -9.842   2.202  1.00  0.00     0.049 A 
ATOM     16  N   UNL     1      -0.896  -8.110   3.123  1.00  0.00    -0.248 NA
ATOM     17  C   UNL     1       0.497  -6.248   2.947  1.00  0.00     0.031 C 
ATOM     18  C   UNL     1       2.462 -10.736   1.789  1.00  0.00     0.029 A 
ATOM     19  N   UNL     1       0.316 -10.684   2.413  1.00  0.00    -0.354 N 
ATOM     20  C   UNL     1      -1.592  -6.981   3.543  1.00  0.00     0.074 A 
ATOM     21  C   UNL     1      -0.674  -5.866   3.441  1.00  0.00     0.031 C 
ATOM     22  C   UNL     1       2.007 -11.997   1.760  1.00  0.00     0.029 A 
ATOM     23  C   UNL     1       0.618 -12.010   2.204  1.00  0.00     0.049 A 
ATOM     24  H   UNL     1      -0.575 -10.371   2.689  1.00  0.00     0.167 HD
ATOM     25  C   UNL     1      -2.877  -6.883   3.966  1.00  0.00     0.034 A 
ATOM     26  C   UNL     1      -0.128 -13.118   2.369  1.00  0.00     0.034 A 
ATOM     27  C   UNL     1      -3.792  -7.994   4.045  1.00  0.00     0.049 A 
ATOM     28  C   UNL     1      -1.550 -12.976   2.832  1.00  0.00     0.074 A 
ATOM     29  C   UNL     1      -5.131  -7.985   4.397  1.00  0.00     0.029 A 
ATOM     30  N   UNL     1      -3.461  -9.316   3.784  1.00  0.00    -0.354 N 
ATOM     31  N   UNL     1      -2.225 -11.886   3.101  1.00  0.00    -0.248 NA
ATOM     32  C   UNL     1      -2.322 -14.217   2.985  1.00  0.00     0.031 C 
ATOM     33  C   UNL     1      -5.600  -9.303   4.380  1.00  0.00     0.029 A 
ATOM     34  C   UNL     1      -4.564 -10.132   3.981  1.00  0.00     0.049 A 
ATOM     35  H   UNL     1      -2.572  -9.629   3.500  1.00  0.00     0.167 HD
ATOM     36  C   UNL     1      -3.510 -12.304   3.423  1.00  0.00     0.074 A 
ATOM     37  C   UNL     1      -3.523 -13.747   3.291  1.00  0.00     0.031 C 
ATOM     38  C   UNL     1      -4.579 -11.562   3.805  1.00  0.00     0.034 A 
BRANCH  25  39
ATOM     39  C   UNL     1      -3.390  -5.518   4.361  1.00  0.00     0.023 A 
ATOM     40  C   UNL     1      -3.624  -4.543   3.369  1.00  0.00     0.012 A 
ATOM     41  C   UNL     1      -3.705  -5.221   5.703  1.00  0.00     0.148 A 
ATOM     42  C   UNL     1      -4.127  -3.287   3.709  1.00  0.00     0.002 A 
ATOM     43  C   UNL     1      -4.247  -3.982   6.028  1.00  0.00     0.091 A 
ATOM     44  F   UNL     1      -3.464  -6.152   6.637  1.00  0.00    -0.205 F 
ATOM     45  C   UNL     1      -4.446  -3.010   5.035  1.00  0.00     0.022 A 
BRANCH  43  46
ATOM     46  S   UNL     1      -4.766  -3.557   7.696  1.00  0.00     0.127 S 
ATOM     47  O   UNL     1      -3.730  -2.603   8.092  1.00  0.00    -0.237 OA
ATOM     48  O   UNL     1      -6.083  -2.963   7.468  1.00  0.00    -0.237 OA
ATOM     49  O   UNL     1      -4.784  -4.807   8.441  1.00  0.00    -0.744 OA
ENDBRANCH  43  46
ENDBRANCH  25  39
BRANCH  26  50
ATOM     50  C   UNL     1       0.449 -14.454   2.049  1.00  0.00     0.023 A 
ATOM     51  C   UNL     1      -0.031 -15.165   0.933  1.00  0.00     0.012 A 
ATOM     52  C   UNL     1       1.496 -15.001   2.816  1.00  0.00     0.148 A 
ATOM     53  C   UNL     1       0.503 -16.411   0.602  1.00  0.00     0.002 A 
ATOM     54  C   UNL     1       2.064 -16.213   2.445  1.00  0.00     0.091 A 
ATOM     55  F   UNL     1       1.929 -14.313   3.882  1.00  0.00    -0.205 F 
ATOM     56  C   UNL     1       1.558 -16.928   1.349  1.00  0.00     0.022 A 
BRANCH  54  57
ATOM     57  S   UNL     1       3.515 -16.885   3.264  1.00  0.00     0.127 S 
ATOM     58  O   UNL     1       2.954 -18.035   3.968  1.00  0.00    -0.237 OA
ATOM     59  O   UNL     1       4.375 -17.216   2.127  1.00  0.00    -0.237 OA
ATOM     60  O   UNL     1       4.023 -15.812   4.107  1.00  0.00    -0.744 OA
ENDBRANCH  54  57
ENDBRANCH  26  50
BRANCH  38  61
ATOM     61  C   UNL     1      -5.870 -12.293   4.069  1.00  0.00     0.023 A 
ATOM     62  C   UNL     1      -5.999 -13.106   5.213  1.00  0.00     0.012 A 
ATOM     63  C   UNL     1      -6.971 -12.136   3.206  1.00  0.00     0.148 A 
ATOM     64  C   UNL     1      -7.191 -13.783   5.471  1.00  0.00     0.002 A 
ATOM     65  C   UNL     1      -8.172 -12.772   3.497  1.00  0.00     0.091 A 
ATOM     66  F   UNL     1      -6.823 -11.376   2.111  1.00  0.00    -0.205 F 
ATOM     67  C   UNL     1      -8.280 -13.607   4.620  1.00  0.00     0.022 A 
BRANCH  65  68
ATOM     68  S   UNL     1      -9.654 -12.525   2.512  1.00  0.00     0.127 S 
ATOM     69  O   UNL     1      -9.763 -13.804   1.812  1.00  0.00    -0.237 OA
ATOM     70  O   UNL     1     -10.675 -12.302   3.537  1.00  0.00    -0.237 OA
ATOM     71  O   UNL     1      -9.386 -11.370   1.667  1.00  0.00    -0.744 OA
ENDBRANCH  65  68
ENDBRANCH  38  61
ENDBRANCH  12  13
ENDBRANCH   5   7
ENDBRANCH   2   3
ENDBRANCH   1   2
BRANCH   1  72
ATOM     72  C   UNL     1       6.131  -2.906  -2.282  1.00  0.00     0.023 C 
BRANCH  72  73
ATOM     73  C   UNL     1       6.447  -4.150  -3.468  1.00  0.00     0.116 C 
BRANCH  73  74
ATOM     74  N   UNL     1       5.681  -4.552  -5.366  1.00  0.00    -0.356 N 
ATOM     75  C   UNL     1       5.690  -4.178  -6.876  1.00  0.00     0.227 C 
ATOM     76  H   UNL     1       5.043  -5.295  -5.262  1.00  0.00     0.163 HD
ATOM     77  O   UNL     1       4.973  -4.905  -7.580  1.00  0.00    -0.275 OA
BRANCH  75  78
ATOM     78  C   UNL     1       6.492  -2.865  -7.629  1.00  0.00     0.127 C 
ATOM     79  C   UNL     1       7.934  -2.936  -8.114  1.00  0.00     0.127 C 
ATOM     80  C   UNL     1       5.852  -2.235  -8.882  1.00  0.00     0.155 C 
ATOM     81  C   UNL     1       7.854  -2.662  -9.607  1.00  0.00     0.155 C 
ATOM     82  C   UNL     1       6.510  -0.883  -9.183  1.00  0.00     0.004 C 
ATOM     83  O   UNL     1       6.490  -3.021  -9.920  1.00  0.00    -0.365 OA
ATOM     84  C   UNL     1       7.726  -1.155  -9.687  1.00  0.00     0.004 C 
BRANCH  79  85
ATOM     85  C   UNL     1       8.578  -4.073  -7.489  1.00  0.00     0.231 C 
ATOM     86  O   UNL     1       9.160  -4.973  -8.076  1.00  0.00    -0.274 OA
ATOM     87  N   UNL     1       8.656  -3.843  -6.112  1.00  0.00    -0.325 N 
ATOM     88  H   UNL     1       9.543  -3.706  -5.706  1.00  0.00     0.169 HD
BRANCH  87  89
ATOM     89  C   UNL     1       7.489  -3.799  -5.257  1.00  0.00     0.049 A 
ATOM     90  C   UNL     1       7.358  -5.565  -4.778  1.00  0.00     0.027 A 
ATOM     91  C   UNL     1       6.020  -2.678  -4.888  1.00  0.00     0.005 A 
ATOM     92  C   UNL     1       5.894  -6.227  -4.023  1.00  0.00     0.002 A 
ATOM     93  C   UNL     1       4.557  -3.456  -4.087  1.00  0.00     0.011 A 
ATOM     94  C   UNL     1       4.523  -5.170  -3.656  1.00  0.00     0.001 A 
BRANCH  91  95
ATOM     95  C   UNL     1       5.357  -1.429  -5.507  1.00  0.00    -0.016 A 
ATOM     96  C   UNL     1       5.807  -0.118  -5.481  1.00  0.00     0.009 A 
ATOM     97  C   UNL     1       4.104  -1.653  -6.192  1.00  0.00     0.009 A 
ATOM     98  C   UNL     1       5.055   0.892  -6.127  1.00  0.00     0.001 A 
ATOM     99  C   UNL     1       3.370  -0.666  -6.838  1.00  0.00     0.001 A 
ATOM    100  C   UNL     1       3.856   0.621  -6.806  1.00  0.00     0.000 A 
ENDBRANCH  91  95
ENDBRANCH  87  89
ENDBRANCH  79  85
ENDBRANCH  75  78
ENDBRANCH  73  74
ENDBRANCH  72  73
ENDBRANCH   1  72
TORSDOF 17
