REMARK SMILES O=C(NCCCCNC(=O)c1cc(OCc2ccc(Br)cc2F)cs1)c1ccc(-c2c3nc(c(-c4cccc(S(=O)(=O)[O-])c4F)c4ccc([nH]4)c(-c4cccc(S(=O)(=O)[O-])c4F)c4nc(c(-c5cccc(S(=O)(=O)[O-])c5F)c5ccc2[nH]5)C=C4)C=C3)cc1
REMARK SMILES IDX 5 1 4 2 3 3 1 4 2 5 26 7 27 8 88 9 28 10 87 11 29 12 30 13
REMARK SMILES IDX 31 14 81 15 32 16 86 17 80 18 82 19 33 20 85 21 79 22 78 23
REMARK SMILES IDX 34 25 66 26 46 27 65 28 47 29 50 30 64 31 83 32 48 33 49 34
REMARK SMILES IDX 63 36 84 37 51 38 35 39 36 40 44 41 37 42 39 43 45 44 38 45
REMARK SMILES IDX 40 46 41 47 42 48 43 49 67 50 68 51 76 52 69 53 71 54 77 55
REMARK SMILES IDX 70 56 72 57 73 58 74 59 75 60 52 61 53 62 61 63 54 64 56 65
REMARK SMILES IDX 62 66 55 67 57 68 58 69 59 70 60 71 6 72 7 73 8 74 9 75
REMARK SMILES IDX 10 77 11 78 12 79 25 80 13 81 24 82 14 83 15 84 16 85 17 86
REMARK SMILES IDX 22 87 18 88 21 89 23 90 19 91 20 92
REMARK H PARENT 3 6 82 24 50 35 8 76
REMARK Flexibility Score: inf
ROOT
ATOM      1  C   UNL     1       4.942  -2.475   0.503  1.00  0.00     0.023 C 
ENDROOT
BRANCH   1   2
ATOM      2  C   UNL     1       4.633  -1.190  -0.255  1.00  0.00     0.116 C 
BRANCH   2   3
ATOM      3  N   UNL     1       3.211  -0.969  -0.475  1.00  0.00    -0.352 N 
ATOM      4  O   UNL     1       1.238   0.127  -0.394  1.00  0.00    -0.269 OA
ATOM      5  C   UNL     1       2.447   0.141  -0.190  1.00  0.00     0.251 C 
ATOM      6  H   UNL     1       2.726  -1.720  -0.886  1.00  0.00     0.163 HD
BRANCH   5   7
ATOM      7  C   UNL     1       3.079   1.335   0.404  1.00  0.00     0.039 A 
ATOM      8  C   UNL     1       4.260   1.855  -0.128  1.00  0.00     0.014 A 
ATOM      9  C   UNL     1       2.494   1.919   1.532  1.00  0.00     0.014 A 
ATOM     10  C   UNL     1       4.948   2.839   0.570  1.00  0.00     0.010 A 
ATOM     11  C   UNL     1       3.143   2.972   2.179  1.00  0.00     0.010 A 
ATOM     12  C   UNL     1       4.401   3.405   1.734  1.00  0.00    -0.014 A 
BRANCH  12  13
ATOM     13  C   UNL     1       5.152   4.470   2.442  1.00  0.00     0.031 A 
ATOM     14  C   UNL     1       5.678   4.258   3.835  1.00  0.00     0.074 A 
ATOM     15  C   UNL     1       5.378   5.631   1.798  1.00  0.00     0.049 A 
ATOM     16  N   UNL     1       6.424   5.052   4.559  1.00  0.00    -0.248 NA
ATOM     17  C   UNL     1       5.316   3.001   4.510  1.00  0.00     0.031 C 
ATOM     18  C   UNL     1       4.871   5.963   0.464  1.00  0.00     0.029 A 
ATOM     19  N   UNL     1       6.097   6.739   2.165  1.00  0.00    -0.354 N 
ATOM     20  C   UNL     1       6.582   4.418   5.786  1.00  0.00     0.074 A 
ATOM     21  C   UNL     1       5.849   3.172   5.712  1.00  0.00     0.031 C 
ATOM     22  C   UNL     1       5.331   7.170   0.106  1.00  0.00     0.029 A 
ATOM     23  C   UNL     1       6.128   7.716   1.198  1.00  0.00     0.049 A 
ATOM     24  H   UNL     1       6.547   6.826   3.036  1.00  0.00     0.167 HD
ATOM     25  C   UNL     1       7.286   4.829   6.868  1.00  0.00     0.034 A 
ATOM     26  C   UNL     1       6.737   8.916   1.188  1.00  0.00     0.034 A 
ATOM     27  C   UNL     1       8.052   6.046   6.913  1.00  0.00     0.049 A 
ATOM     28  C   UNL     1       7.562   9.317   2.377  1.00  0.00     0.074 A 
ATOM     29  C   UNL     1       8.859   6.520   7.933  1.00  0.00     0.029 A 
ATOM     30  N   UNL     1       8.104   6.986   5.894  1.00  0.00    -0.354 N 
ATOM     31  N   UNL     1       7.811   8.640   3.472  1.00  0.00    -0.248 NA
ATOM     32  C   UNL     1       8.215  10.631   2.318  1.00  0.00     0.031 C 
ATOM     33  C   UNL     1       9.389   7.753   7.534  1.00  0.00     0.029 A 
ATOM     34  C   UNL     1       8.924   8.040   6.260  1.00  0.00     0.049 A 
ATOM     35  H   UNL     1       7.627   6.914   5.036  1.00  0.00     0.167 HD
ATOM     36  C   UNL     1       8.675   9.430   4.220  1.00  0.00     0.074 A 
ATOM     37  C   UNL     1       8.922  10.628   3.440  1.00  0.00     0.031 C 
ATOM     38  C   UNL     1       9.201   9.196   5.447  1.00  0.00     0.034 A 
BRANCH  25  39
ATOM     39  C   UNL     1       7.295   3.936   8.083  1.00  0.00     0.023 A 
ATOM     40  C   UNL     1       8.048   2.744   8.067  1.00  0.00     0.012 A 
ATOM     41  C   UNL     1       6.606   4.299   9.257  1.00  0.00     0.148 A 
ATOM     42  C   UNL     1       8.090   1.913   9.187  1.00  0.00     0.002 A 
ATOM     43  C   UNL     1       6.683   3.485  10.382  1.00  0.00     0.091 A 
ATOM     44  F   UNL     1       5.874   5.422   9.248  1.00  0.00    -0.205 F 
ATOM     45  C   UNL     1       7.416   2.288  10.346  1.00  0.00     0.022 A 
BRANCH  43  46
ATOM     46  S   UNL     1       5.906   3.927  11.942  1.00  0.00     0.127 S 
ATOM     47  O   UNL     1       4.720   3.073  11.933  1.00  0.00    -0.237 OA
ATOM     48  O   UNL     1       6.926   3.542  12.919  1.00  0.00    -0.237 OA
ATOM     49  O   UNL     1       5.656   5.359  11.867  1.00  0.00    -0.744 OA
ENDBRANCH  43  46
ENDBRANCH  25  39
BRANCH  26  50
ATOM     50  C   UNL     1       6.655   9.772  -0.028  1.00  0.00     0.023 A 
ATOM     51  C   UNL     1       7.801   9.942  -0.828  1.00  0.00     0.012 A 
ATOM     52  C   UNL     1       5.440  10.356  -0.434  1.00  0.00     0.148 A 
ATOM     53  C   UNL     1       7.743  10.694  -2.002  1.00  0.00     0.002 A 
ATOM     54  C   UNL     1       5.375  11.055  -1.633  1.00  0.00     0.091 A 
ATOM     55  F   UNL     1       4.364  10.194   0.349  1.00  0.00    -0.205 F 
ATOM     56  C   UNL     1       6.529  11.239  -2.411  1.00  0.00     0.022 A 
BRANCH  54  57
ATOM     57  S   UNL     1       3.823  11.661  -2.305  1.00  0.00     0.127 S 
ATOM     58  O   UNL     1       3.934  13.097  -2.067  1.00  0.00    -0.237 OA
ATOM     59  O   UNL     1       3.921  11.259  -3.709  1.00  0.00    -0.237 OA
ATOM     60  O   UNL     1       2.780  10.970  -1.559  1.00  0.00    -0.744 OA
ENDBRANCH  54  57
ENDBRANCH  26  50
BRANCH  38  61
ATOM     61  C   UNL     1      10.122  10.242   6.013  1.00  0.00     0.023 A 
ATOM     62  C   UNL     1       9.589  11.453   6.497  1.00  0.00     0.012 A 
ATOM     63  C   UNL     1      11.505  10.000   6.123  1.00  0.00     0.148 A 
ATOM     64  C   UNL     1      10.424  12.421   7.053  1.00  0.00     0.002 A 
ATOM     65  C   UNL     1      12.324  10.951   6.720  1.00  0.00     0.091 A 
ATOM     66  F   UNL     1      11.997   8.852   5.634  1.00  0.00    -0.205 F 
ATOM     67  C   UNL     1      11.788  12.166   7.176  1.00  0.00     0.022 A 
BRANCH  65  68
ATOM     68  S   UNL     1      14.074  10.656   6.997  1.00  0.00     0.127 S 
ATOM     69  O   UNL     1      14.681  11.393   5.891  1.00  0.00    -0.237 OA
ATOM     70  O   UNL     1      14.290  11.250   8.318  1.00  0.00    -0.237 OA
ATOM     71  O   UNL     1      14.240   9.209   6.960  1.00  0.00    -0.744 OA
ENDBRANCH  65  68
ENDBRANCH  38  61
ENDBRANCH  12  13
ENDBRANCH   5   7
ENDBRANCH   2   3
ENDBRANCH   1   2
BRANCH   1  72
ATOM     72  C   UNL     1       4.496  -3.763  -0.180  1.00  0.00     0.023 C 
BRANCH  72  73
ATOM     73  C   UNL     1       5.003  -3.952  -1.606  1.00  0.00     0.116 C 
BRANCH  73  74
ATOM     74  N   UNL     1       6.449  -4.093  -1.681  1.00  0.00    -0.351 N 
ATOM     75  C   UNL     1       7.184  -5.111  -2.255  1.00  0.00     0.261 C 
ATOM     76  H   UNL     1       6.971  -3.369  -1.268  1.00  0.00     0.163 HD
ATOM     77  O   UNL     1       8.401  -5.113  -2.104  1.00  0.00    -0.268 OA
BRANCH  75  78
ATOM     78  C   UNL     1       6.459  -6.117  -3.002  1.00  0.00     0.096 A 
ATOM     79  C   UNL     1       5.561  -5.935  -4.037  1.00  0.00     0.072 A 
ATOM     80  S   UNL     1       6.642  -7.768  -2.608  1.00  0.00    -0.135 S 
ATOM     81  C   UNL     1       4.852  -7.130  -4.338  1.00  0.00     0.131 A 
ATOM     82  C   UNL     1       5.372  -8.214  -3.667  1.00  0.00     0.112 A 
BRANCH  81  83
ATOM     83  O   UNL     1       3.770  -7.303  -5.140  1.00  0.00    -0.488 OA
BRANCH  83  84
ATOM     84  C   UNL     1       3.114  -6.098  -5.561  1.00  0.00     0.268 C 
BRANCH  84  85
ATOM     85  C   UNL     1       2.396  -5.357  -4.453  1.00  0.00     0.025 A 
ATOM     86  C   UNL     1       1.770  -6.033  -3.397  1.00  0.00     0.011 A 
ATOM     87  C   UNL     1       2.307  -3.960  -4.495  1.00  0.00     0.130 A 
ATOM     88  C   UNL     1       1.090  -5.321  -2.406  1.00  0.00     0.016 A 
ATOM     89  C   UNL     1       1.628  -3.240  -3.516  1.00  0.00     0.055 A 
ATOM     90  F   UNL     1       2.898  -3.289  -5.494  1.00  0.00    -0.207 F 
ATOM     91  C   UNL     1       1.015  -3.931  -2.476  1.00  0.00     0.020 A 
ATOM     92  Br  UNL     1       0.057  -2.996  -1.147  1.00  0.00    -0.051 Br
ENDBRANCH  84  85
ENDBRANCH  83  84
ENDBRANCH  81  83
ENDBRANCH  75  78
ENDBRANCH  73  74
ENDBRANCH  72  73
ENDBRANCH   1  72
TORSDOF 17
