REMARK SMILES O=C(CSc1nc(O)cc(=O)[nH]1)Nc1cccc(C(=O)NCCCCNC(=O)c2ccc(-c3c4nc(c(-c5cccc(S(=O)(=O)[O-])c5F)c5ccc([nH]5)c(-c5cccc(S(=O)(=O)[O-])c5F)c5nc(c(-c6cccc(S(=O)(=O)[O-])c6F)c6ccc3[nH]6)C=C5)C=C4)cc2)c1
REMARK SMILES IDX 22 1 21 2 19 3 20 4 18 6 14 7 15 8 92 9 16 10 17 11 13 12
REMARK SMILES IDX 1 13 2 14 3 16 4 17 5 18 6 19 12 20 7 21 10 22 9 24 11 25
REMARK SMILES IDX 8 26 23 28 24 29 25 30 26 31 27 32 28 34 29 35 30 36 91 37
REMARK SMILES IDX 31 38 90 39 32 40 33 41 34 42 84 43 35 44 89 45 83 46 85 47
REMARK SMILES IDX 36 48 88 49 82 50 81 51 37 53 69 54 49 55 68 56 50 57 53 58
REMARK SMILES IDX 67 59 86 60 51 61 52 62 66 64 87 65 54 66 38 67 39 68 47 69
REMARK SMILES IDX 40 70 42 71 48 72 41 73 43 74 44 75 45 76 46 77 70 78 71 79
REMARK SMILES IDX 79 80 72 81 74 82 80 83 73 84 75 85 76 86 77 87 78 88 55 89
REMARK SMILES IDX 56 90 64 91 57 92 59 93 65 94 58 95 60 96 61 97 62 98 63 99
REMARK H PARENT 21 5 13 15 12 23 8 27 26 33 85 52 53 63
REMARK Flexibility Score: inf
ROOT
ATOM      1  C   UNL     1       0.130  -3.419  -0.086  1.00  0.00     0.116 C 
ENDROOT
BRANCH   1   2
ATOM      2  N   UNL     1      -0.588  -3.921   1.080  1.00  0.00    -0.352 N 
ATOM      3  C   UNL     1      -0.423  -3.619   2.418  1.00  0.00     0.251 C 
ATOM      4  O   UNL     1      -1.137  -4.155   3.263  1.00  0.00    -0.269 OA
ATOM      5  H   UNL     1      -1.298  -4.574   0.884  1.00  0.00     0.163 HD
BRANCH   3   6
ATOM      6  C   UNL     1       0.669  -2.716   2.865  1.00  0.00     0.041 A 
ATOM      7  C   UNL     1       2.266  -0.998   2.316  1.00  0.00     0.041 A 
ATOM      8  C   UNL     1       3.018  -1.347   3.443  1.00  0.00     0.026 A 
ATOM      9  C   UNL     1       1.024  -1.590   2.124  1.00  0.00     0.040 A 
ATOM     10  C   UNL     1       2.572  -2.353   4.304  1.00  0.00     0.003 A 
ATOM     11  C   UNL     1       1.416  -3.068   3.993  1.00  0.00     0.014 A 
BRANCH   7  12
ATOM     12  N   UNL     1       2.862  -0.152   1.359  1.00  0.00    -0.325 N 
ATOM     13  O   UNL     1       1.329  -0.236  -0.397  1.00  0.00    -0.274 OA
ATOM     14  C   UNL     1       2.394   0.138   0.082  1.00  0.00     0.234 C 
ATOM     15  H   UNL     1       3.704   0.283   1.625  1.00  0.00     0.169 HD
BRANCH  14  16
ATOM     16  C   UNL     1       3.362   0.950  -0.766  1.00  0.00     0.178 C 
BRANCH  16  17
ATOM     17  S   UNL     1       4.433   2.029   0.226  1.00  0.00    -0.078 SA
BRANCH  17  18
ATOM     18  C   UNL     1       3.321   3.297   0.649  1.00  0.00     0.172 A 
ATOM     19  N   UNL     1       3.577   4.508   0.287  1.00  0.00    -0.189 NA
ATOM     20  N   UNL     1       2.256   2.931   1.413  1.00  0.00    -0.301 N 
ATOM     21  C   UNL     1       2.700   5.461   0.713  1.00  0.00     0.218 A 
ATOM     22  C   UNL     1       1.351   3.846   1.849  1.00  0.00     0.255 A 
ATOM     23  H   UNL     1       2.139   1.984   1.655  1.00  0.00     0.172 HD
ATOM     24  C   UNL     1       1.613   5.231   1.452  1.00  0.00     0.139 A 
ATOM     25  O   UNL     1       0.391   3.546   2.553  1.00  0.00    -0.269 OA
BRANCH  21  26
ATOM     26  O   UNL     1       3.015   6.743   0.353  1.00  0.00    -0.493 OA
ATOM     27  H   UNL     1       3.777   6.910  -0.166  1.00  0.00     0.295 HD
ENDBRANCH  21  26
ENDBRANCH  17  18
ENDBRANCH  16  17
ENDBRANCH  14  16
ENDBRANCH   7  12
ENDBRANCH   3   6
ENDBRANCH   1   2
BRANCH   1  28
ATOM     28  C   UNL     1       0.489  -4.466  -1.130  1.00  0.00     0.023 C 
BRANCH  28  29
ATOM     29  C   UNL     1      -0.676  -5.155  -1.824  1.00  0.00     0.023 C 
BRANCH  29  30
ATOM     30  C   UNL     1      -1.746  -4.240  -2.404  1.00  0.00     0.116 C 
BRANCH  30  31
ATOM     31  N   UNL     1      -1.243  -3.277  -3.376  1.00  0.00    -0.352 N 
ATOM     32  C   UNL     1      -1.673  -3.022  -4.662  1.00  0.00     0.251 C 
ATOM     33  H   UNL     1      -0.485  -2.729  -3.070  1.00  0.00     0.163 HD
ATOM     34  O   UNL     1      -1.070  -2.223  -5.365  1.00  0.00    -0.269 OA
BRANCH  32  35
ATOM     35  C   UNL     1      -2.845  -3.751  -5.201  1.00  0.00     0.039 A 
ATOM     36  C   UNL     1      -2.750  -4.345  -6.463  1.00  0.00     0.014 A 
ATOM     37  C   UNL     1      -4.013  -3.886  -4.449  1.00  0.00     0.014 A 
ATOM     38  C   UNL     1      -3.791  -5.157  -6.926  1.00  0.00     0.010 A 
ATOM     39  C   UNL     1      -5.008  -4.761  -4.873  1.00  0.00     0.010 A 
ATOM     40  C   UNL     1      -4.907  -5.412  -6.113  1.00  0.00    -0.014 A 
BRANCH  40  41
ATOM     41  C   UNL     1      -5.970  -6.369  -6.518  1.00  0.00     0.031 A 
ATOM     42  C   UNL     1      -7.390  -5.897  -6.678  1.00  0.00     0.074 A 
ATOM     43  C   UNL     1      -5.683  -7.683  -6.623  1.00  0.00     0.049 A 
ATOM     44  N   UNL     1      -8.470  -6.595  -6.918  1.00  0.00    -0.248 NA
ATOM     45  C   UNL     1      -7.635  -4.454  -6.513  1.00  0.00     0.031 C 
ATOM     46  C   UNL     1      -4.364  -8.283  -6.403  1.00  0.00     0.029 A 
ATOM     47  N   UNL     1      -6.490  -8.757  -6.906  1.00  0.00    -0.354 N 
ATOM     48  C   UNL     1      -9.523  -5.689  -6.883  1.00  0.00     0.074 A 
ATOM     49  C   UNL     1      -8.957  -4.395  -6.571  1.00  0.00     0.031 C 
ATOM     50  C   UNL     1      -4.454  -9.614  -6.559  1.00  0.00     0.029 A 
ATOM     51  C   UNL     1      -5.837  -9.967  -6.862  1.00  0.00     0.049 A 
ATOM     52  H   UNL     1      -7.447  -8.669  -7.120  1.00  0.00     0.167 HD
ATOM     53  C   UNL     1     -10.838  -5.905  -7.122  1.00  0.00     0.034 A 
ATOM     54  C   UNL     1      -6.299 -11.221  -7.040  1.00  0.00     0.034 A 
ATOM     55  C   UNL     1     -11.389  -7.179  -7.498  1.00  0.00     0.049 A 
ATOM     56  C   UNL     1      -7.753 -11.425  -7.375  1.00  0.00     0.074 A 
ATOM     57  C   UNL     1     -12.690  -7.479  -7.862  1.00  0.00     0.029 A 
ATOM     58  N   UNL     1     -10.672  -8.363  -7.561  1.00  0.00    -0.354 N 
ATOM     59  N   UNL     1      -8.702 -10.530  -7.504  1.00  0.00    -0.248 NA
ATOM     60  C   UNL     1      -8.192 -12.806  -7.627  1.00  0.00     0.031 C 
ATOM     61  C   UNL     1     -12.761  -8.848  -8.138  1.00  0.00     0.029 A 
ATOM     62  C   UNL     1     -11.501  -9.397  -7.958  1.00  0.00     0.049 A 
ATOM     63  H   UNL     1      -9.714  -8.454  -7.354  1.00  0.00     0.167 HD
ATOM     64  C   UNL     1      -9.839 -11.233  -7.888  1.00  0.00     0.074 A 
ATOM     65  C   UNL     1      -9.455 -12.626  -7.989  1.00  0.00     0.031 C 
ATOM     66  C   UNL     1     -11.091 -10.768  -8.119  1.00  0.00     0.034 A 
BRANCH  53  67
ATOM     67  C   UNL     1     -11.765  -4.720  -7.053  1.00  0.00     0.023 A 
ATOM     68  C   UNL     1     -11.718  -3.746  -8.071  1.00  0.00     0.012 A 
ATOM     69  C   UNL     1     -12.715  -4.596  -6.020  1.00  0.00     0.148 A 
ATOM     70  C   UNL     1     -12.575  -2.647  -8.044  1.00  0.00     0.002 A 
ATOM     71  C   UNL     1     -13.596  -3.520  -6.024  1.00  0.00     0.091 A 
ATOM     72  F   UNL     1     -12.730  -5.520  -5.049  1.00  0.00    -0.205 F 
ATOM     73  C   UNL     1     -13.520  -2.540  -7.028  1.00  0.00     0.022 A 
BRANCH  71  74
ATOM     74  S   UNL     1     -14.900  -3.335  -4.802  1.00  0.00     0.127 S 
ATOM     75  O   UNL     1     -14.380  -2.246  -3.978  1.00  0.00    -0.237 OA
ATOM     76  O   UNL     1     -16.052  -2.974  -5.631  1.00  0.00    -0.237 OA
ATOM     77  O   UNL     1     -15.013  -4.627  -4.140  1.00  0.00    -0.744 OA
ENDBRANCH  71  74
ENDBRANCH  53  67
BRANCH  54  78
ATOM     78  C   UNL     1      -5.358 -12.376  -6.988  1.00  0.00     0.023 A 
ATOM     79  C   UNL     1      -5.027 -13.045  -8.183  1.00  0.00     0.012 A 
ATOM     80  C   UNL     1      -4.765 -12.794  -5.781  1.00  0.00     0.148 A 
ATOM     81  C   UNL     1      -4.149 -14.129  -8.173  1.00  0.00     0.002 A 
ATOM     82  C   UNL     1      -3.850 -13.842  -5.786  1.00  0.00     0.091 A 
ATOM     83  F   UNL     1      -5.102 -12.155  -4.652  1.00  0.00    -0.205 F 
ATOM     84  C   UNL     1      -3.553 -14.521  -6.978  1.00  0.00     0.022 A 
BRANCH  82  85
ATOM     85  S   UNL     1      -2.936 -14.327  -4.317  1.00  0.00     0.127 S 
ATOM     86  O   UNL     1      -3.586 -15.585  -3.962  1.00  0.00    -0.237 OA
ATOM     87  O   UNL     1      -1.574 -14.462  -4.836  1.00  0.00    -0.237 OA
ATOM     88  O   UNL     1      -3.108 -13.232  -3.372  1.00  0.00    -0.744 OA
ENDBRANCH  82  85
ENDBRANCH  54  78
BRANCH  66  89
ATOM     89  C   UNL     1     -12.141 -11.760  -8.543  1.00  0.00     0.023 A 
ATOM     90  C   UNL     1     -12.686 -12.648  -7.595  1.00  0.00     0.012 A 
ATOM     91  C   UNL     1     -12.651 -11.751  -9.857  1.00  0.00     0.148 A 
ATOM     92  C   UNL     1     -13.705 -13.529  -7.954  1.00  0.00     0.002 A 
ATOM     93  C   UNL     1     -13.697 -12.600 -10.195  1.00  0.00     0.091 A 
ATOM     94  F   UNL     1     -12.104 -10.912 -10.750  1.00  0.00    -0.205 F 
ATOM     95  C   UNL     1     -14.219 -13.496  -9.249  1.00  0.00     0.022 A 
BRANCH  93  96
ATOM     96  S   UNL     1     -14.482 -12.558 -11.811  1.00  0.00     0.127 S 
ATOM     97  O   UNL     1     -13.943 -13.764 -12.437  1.00  0.00    -0.237 OA
ATOM     98  O   UNL     1     -15.904 -12.631 -11.471  1.00  0.00    -0.237 OA
ATOM     99  O   UNL     1     -14.075 -11.298 -12.420  1.00  0.00    -0.744 OA
ENDBRANCH  93  96
ENDBRANCH  66  89
ENDBRANCH  40  41
ENDBRANCH  32  35
ENDBRANCH  30  31
ENDBRANCH  29  30
ENDBRANCH  28  29
ENDBRANCH   1  28
TORSDOF 19
