REMARK SMILES O=C(CC(=O)c1ccccc1)Nc1cccc(C(=O)NCCCCNC(=O)c2ccc(-c3c4nc(c(-c5cccc(S(=O)(=O)[O-])c5F)c5ccc([nH]5)c(-c5cccc(S(=O)(=O)[O-])c5F)c5nc(c(-c6cccc(S(=O)(=O)[O-])c6F)c6ccc3[nH]6)C=C5)C=C4)cc2)c1
REMARK SMILES IDX 22 1 21 2 20 3 18 4 19 5 17 7 13 8 14 9 91 10 15 11 16 12
REMARK SMILES IDX 12 13 1 14 2 15 3 17 4 18 5 19 6 20 7 21 11 22 8 23 10 24
REMARK SMILES IDX 9 25 23 26 24 27 25 28 26 29 27 31 28 32 29 33 90 34 30 35
REMARK SMILES IDX 89 36 31 37 32 38 33 39 83 40 34 41 88 42 82 43 84 44 35 45
REMARK SMILES IDX 87 46 81 47 80 48 36 50 68 51 48 52 67 53 49 54 52 55 66 56
REMARK SMILES IDX 85 57 50 58 51 59 65 61 86 62 53 63 37 64 38 65 46 66 39 67
REMARK SMILES IDX 41 68 47 69 40 70 42 71 43 72 44 73 45 74 69 75 70 76 78 77
REMARK SMILES IDX 71 78 73 79 79 80 72 81 74 82 75 83 76 84 77 85 54 86 55 87
REMARK SMILES IDX 63 88 56 89 58 90 64 91 57 92 59 93 60 94 61 95 62 96
REMARK H PARENT 20 6 12 16 25 30 84 49 52 60
REMARK Flexibility Score: inf
ROOT
ATOM      1  C   UNL     1       0.690   2.181  -4.201  1.00  0.00     0.023 C 
ENDROOT
BRANCH   1   2
ATOM      2  C   UNL     1       0.263   0.994  -3.351  1.00  0.00     0.116 C 
BRANCH   2   3
ATOM      3  N   UNL     1      -0.595   0.019  -4.018  1.00  0.00    -0.352 N 
ATOM      4  C   UNL     1      -0.570  -1.363  -3.965  1.00  0.00     0.251 C 
ATOM      5  O   UNL     1      -1.389  -2.024  -4.597  1.00  0.00    -0.269 OA
ATOM      6  H   UNL     1      -1.297   0.404  -4.592  1.00  0.00     0.163 HD
BRANCH   4   7
ATOM      7  C   UNL     1       0.495  -2.068  -3.205  1.00  0.00     0.041 A 
ATOM      8  C   UNL     1       2.171  -1.965  -1.472  1.00  0.00     0.041 A 
ATOM      9  C   UNL     1       2.823  -3.058  -2.053  1.00  0.00     0.026 A 
ATOM     10  C   UNL     1       0.933  -1.582  -1.976  1.00  0.00     0.040 A 
ATOM     11  C   UNL     1       2.280  -3.688  -3.178  1.00  0.00     0.003 A 
ATOM     12  C   UNL     1       1.134  -3.167  -3.781  1.00  0.00     0.014 A 
BRANCH   8  13
ATOM     13  N   UNL     1       2.846  -1.232  -0.469  1.00  0.00    -0.326 N 
ATOM     14  O   UNL     1       1.329   0.500  -0.091  1.00  0.00    -0.274 OA
ATOM     15  C   UNL     1       2.392  -0.072   0.143  1.00  0.00     0.232 C 
ATOM     16  H   UNL     1       3.721  -1.577  -0.176  1.00  0.00     0.169 HD
BRANCH  15  17
ATOM     17  C   UNL     1       3.331   0.534   1.142  1.00  0.00     0.181 C 
BRANCH  17  18
ATOM     18  C   UNL     1       4.090  -0.384   2.053  1.00  0.00     0.172 C 
ATOM     19  O   UNL     1       5.320  -0.312   2.114  1.00  0.00    -0.294 OA
BRANCH  18  20
ATOM     20  C   UNL     1       3.398  -1.363   2.944  1.00  0.00     0.018 A 
ATOM     21  C   UNL     1       4.050  -1.702   4.138  1.00  0.00     0.012 A 
ATOM     22  C   UNL     1       2.203  -2.014   2.618  1.00  0.00     0.012 A 
ATOM     23  C   UNL     1       3.534  -2.694   4.974  1.00  0.00     0.001 A 
ATOM     24  C   UNL     1       1.705  -3.027   3.441  1.00  0.00     0.001 A 
ATOM     25  C   UNL     1       2.371  -3.369   4.615  1.00  0.00     0.000 A 
ENDBRANCH  18  20
ENDBRANCH  17  18
ENDBRANCH  15  17
ENDBRANCH   8  13
ENDBRANCH   4   7
ENDBRANCH   2   3
ENDBRANCH   1   2
BRANCH   1  26
ATOM     26  C   UNL     1      -0.416   3.125  -4.651  1.00  0.00     0.023 C 
BRANCH  26  27
ATOM     27  C   UNL     1      -1.347   3.639  -3.559  1.00  0.00     0.116 C 
BRANCH  27  28
ATOM     28  N   UNL     1      -0.670   4.351  -2.482  1.00  0.00    -0.352 N 
ATOM     29  C   UNL     1      -0.881   5.624  -1.992  1.00  0.00     0.251 C 
ATOM     30  H   UNL     1       0.049   3.846  -2.036  1.00  0.00     0.163 HD
ATOM     31  O   UNL     1      -0.154   6.077  -1.121  1.00  0.00    -0.269 OA
BRANCH  29  32
ATOM     32  C   UNL     1      -1.968   6.458  -2.558  1.00  0.00     0.039 A 
ATOM     33  C   UNL     1      -1.676   7.768  -2.951  1.00  0.00     0.014 A 
ATOM     34  C   UNL     1      -3.250   5.940  -2.746  1.00  0.00     0.014 A 
ATOM     35  C   UNL     1      -2.639   8.516  -3.637  1.00  0.00     0.010 A 
ATOM     36  C   UNL     1      -4.178   6.654  -3.499  1.00  0.00     0.010 A 
ATOM     37  C   UNL     1      -3.877   7.942  -3.970  1.00  0.00    -0.014 A 
BRANCH  37  38
ATOM     38  C   UNL     1      -4.844   8.636  -4.860  1.00  0.00     0.031 A 
ATOM     39  C   UNL     1      -6.223   8.981  -4.370  1.00  0.00     0.074 A 
ATOM     40  C   UNL     1      -4.521   8.843  -6.154  1.00  0.00     0.049 A 
ATOM     41  N   UNL     1      -7.228   9.495  -5.031  1.00  0.00    -0.248 NA
ATOM     42  C   UNL     1      -6.524   8.681  -2.961  1.00  0.00     0.031 C 
ATOM     43  C   UNL     1      -3.249   8.470  -6.779  1.00  0.00     0.029 A 
ATOM     44  N   UNL     1      -5.248   9.383  -7.186  1.00  0.00    -0.354 N 
ATOM     45  C   UNL     1      -8.289   9.543  -4.135  1.00  0.00     0.074 A 
ATOM     46  C   UNL     1      -7.814   8.979  -2.889  1.00  0.00     0.031 C 
ATOM     47  C   UNL     1      -3.286   8.792  -8.082  1.00  0.00     0.029 A 
ATOM     48  C   UNL     1      -4.590   9.365  -8.395  1.00  0.00     0.049 A 
ATOM     49  H   UNL     1      -6.155   9.750  -7.072  1.00  0.00     0.167 HD
ATOM     50  C   UNL     1      -9.535  10.040  -4.320  1.00  0.00     0.034 A 
ATOM     51  C   UNL     1      -4.993   9.756  -9.620  1.00  0.00     0.034 A 
ATOM     52  C   UNL     1      -9.988  10.650  -5.540  1.00  0.00     0.049 A 
ATOM     53  C   UNL     1      -6.366  10.348  -9.787  1.00  0.00     0.074 A 
ATOM     54  C   UNL     1     -11.194  11.282  -5.790  1.00  0.00     0.029 A 
ATOM     55  N   UNL     1      -9.259  10.703  -6.718  1.00  0.00    -0.354 N 
ATOM     56  N   UNL     1      -7.292  10.549  -8.881  1.00  0.00    -0.248 NA
ATOM     57  C   UNL     1      -6.739  10.796 -11.137  1.00  0.00     0.031 C 
ATOM     58  C   UNL     1     -11.199  11.703  -7.124  1.00  0.00     0.029 A 
ATOM     59  C   UNL     1      -9.992  11.345  -7.701  1.00  0.00     0.049 A 
ATOM     60  H   UNL     1      -8.353  10.336  -6.838  1.00  0.00     0.167 HD
ATOM     61  C   UNL     1      -8.344  11.171  -9.543  1.00  0.00     0.074 A 
ATOM     62  C   UNL     1      -7.932  11.336 -10.921  1.00  0.00     0.031 C 
ATOM     63  C   UNL     1      -9.551  11.552  -9.056  1.00  0.00     0.034 A 
BRANCH  50  64
ATOM     64  C   UNL     1     -10.481  10.007  -3.149  1.00  0.00     0.023 A 
ATOM     65  C   UNL     1     -10.275  10.894  -2.072  1.00  0.00     0.012 A 
ATOM     66  C   UNL     1     -11.600   9.152  -3.136  1.00  0.00     0.148 A 
ATOM     67  C   UNL     1     -11.149  10.909  -0.986  1.00  0.00     0.002 A 
ATOM     68  C   UNL     1     -12.489   9.200  -2.068  1.00  0.00     0.091 A 
ATOM     69  F   UNL     1     -11.767   8.300  -4.158  1.00  0.00    -0.205 F 
ATOM     70  C   UNL     1     -12.260  10.070  -0.989  1.00  0.00     0.022 A 
BRANCH  68  71
ATOM     71  S   UNL     1     -13.990   8.214  -2.014  1.00  0.00     0.127 S 
ATOM     72  O   UNL     1     -13.642   7.203  -1.016  1.00  0.00    -0.237 OA
ATOM     73  O   UNL     1     -14.986   9.189  -1.570  1.00  0.00    -0.237 OA
ATOM     74  O   UNL     1     -14.191   7.717  -3.368  1.00  0.00    -0.744 OA
ENDBRANCH  68  71
ENDBRANCH  50  64
BRANCH  51  75
ATOM     75  C   UNL     1      -4.054   9.666 -10.775  1.00  0.00     0.023 A 
ATOM     76  C   UNL     1      -3.513  10.851 -11.312  1.00  0.00     0.012 A 
ATOM     77  C   UNL     1      -3.665   8.427 -11.317  1.00  0.00     0.148 A 
ATOM     78  C   UNL     1      -2.624  10.805 -12.386  1.00  0.00     0.002 A 
ATOM     79  C   UNL     1      -2.737   8.385 -12.353  1.00  0.00     0.091 A 
ATOM     80  F   UNL     1      -4.202   7.311 -10.804  1.00  0.00    -0.205 F 
ATOM     81  C   UNL     1      -2.228   9.573 -12.899  1.00  0.00     0.022 A 
BRANCH  79  82
ATOM     82  S   UNL     1      -2.072   6.839 -12.983  1.00  0.00     0.127 S 
ATOM     83  O   UNL     1      -2.751   6.724 -14.271  1.00  0.00    -0.237 OA
ATOM     84  O   UNL     1      -0.641   7.134 -13.065  1.00  0.00    -0.237 OA
ATOM     85  O   UNL     1      -2.417   5.833 -11.988  1.00  0.00    -0.744 OA
ENDBRANCH  79  82
ENDBRANCH  51  75
BRANCH  63  86
ATOM     86  C   UNL     1     -10.516  12.204 -10.011  1.00  0.00     0.023 A 
ATOM     87  C   UNL     1     -11.184  11.415 -10.968  1.00  0.00     0.012 A 
ATOM     88  C   UNL     1     -10.822  13.575  -9.907  1.00  0.00     0.148 A 
ATOM     89  C   UNL     1     -12.126  11.985 -11.823  1.00  0.00     0.002 A 
ATOM     90  C   UNL     1     -11.794  14.127 -10.733  1.00  0.00     0.091 A 
ATOM     91  F   UNL     1     -10.161  14.312  -9.003  1.00  0.00    -0.205 F 
ATOM     92  C   UNL     1     -12.440  13.337 -11.698  1.00  0.00     0.022 A 
BRANCH  90  93
ATOM     93  S   UNL     1     -12.328  15.836 -10.582  1.00  0.00     0.127 S 
ATOM     94  O   UNL     1     -11.720  16.445 -11.764  1.00  0.00    -0.237 OA
ATOM     95  O   UNL     1     -13.785  15.714 -10.641  1.00  0.00    -0.237 OA
ATOM     96  O   UNL     1     -11.814  16.305  -9.302  1.00  0.00    -0.744 OA
ENDBRANCH  90  93
ENDBRANCH  63  86
ENDBRANCH  37  38
ENDBRANCH  29  32
ENDBRANCH  27  28
ENDBRANCH  26  27
ENDBRANCH   1  26
TORSDOF 18
