REMARK SMILES O=C(NCCCCNC(=O)[C@H]1SC=C[C@@H]1S(=O)(=O)NCCC1=c2ccccc2=NC1)c1ccc(-c2c3nc(c(-c4cccc(S(=O)(=O)[O-])c4F)c4ccc([nH]4)c(-c4cccc(S(=O)(=O)[O-])c4F)c4nc(c(-c5cccc(S(=O)(=O)[O-])c5F)c5ccc2[nH]5)C=C4)C=C3)cc1
REMARK SMILES IDX 6 1 5 2 4 3 3 4 1 5 2 6 31 8 32 9 93 10 33 11 92 12 34 13
REMARK SMILES IDX 35 14 36 15 86 16 37 17 91 18 85 19 87 20 38 21 90 22 84 23
REMARK SMILES IDX 83 24 39 26 71 27 51 28 70 29 52 30 55 31 69 32 88 33 53 34
REMARK SMILES IDX 54 35 68 37 89 38 56 39 40 40 41 41 49 42 42 43 44 44 50 45
REMARK SMILES IDX 43 46 45 47 46 48 47 49 48 50 72 51 73 52 81 53 74 54 76 55
REMARK SMILES IDX 82 56 75 57 77 58 78 59 79 60 80 61 57 62 58 63 66 64 59 65
REMARK SMILES IDX 61 66 67 67 60 68 62 69 63 70 64 71 65 72 7 73 8 74 9 75
REMARK SMILES IDX 10 77 11 78 12 79 15 80 13 81 14 82 16 83 17 84 18 85 19 86
REMARK SMILES IDX 20 88 21 89 22 90 23 91 30 92 24 93 28 94 29 95 25 96 27 97
REMARK SMILES IDX 26 98
REMARK H PARENT 3 7 87 25 55 36 8 76 19 87
REMARK Flexibility Score: inf
ROOT
ATOM      1  C   UNL     1       4.700   2.836   2.172  1.00  0.00     0.023 C 
ENDROOT
BRANCH   1   2
ATOM      2  C   UNL     1       5.113   2.121   0.891  1.00  0.00     0.023 C 
BRANCH   2   3
ATOM      3  C   UNL     1       4.667   0.667   0.807  1.00  0.00     0.116 C 
BRANCH   3   4
ATOM      4  N   UNL     1       3.221   0.525   0.896  1.00  0.00    -0.352 N 
ATOM      5  O   UNL     1       1.153   0.035   0.149  1.00  0.00    -0.269 OA
ATOM      6  C   UNL     1       2.366  -0.103   0.023  1.00  0.00     0.251 C 
ATOM      7  H   UNL     1       2.800   0.932   1.687  1.00  0.00     0.163 HD
BRANCH   6   8
ATOM      8  C   UNL     1       2.919  -0.933  -1.066  1.00  0.00     0.039 A 
ATOM      9  C   UNL     1       2.399  -0.801  -2.356  1.00  0.00     0.014 A 
ATOM     10  C   UNL     1       3.946  -1.846  -0.807  1.00  0.00     0.014 A 
ATOM     11  C   UNL     1       2.937  -1.562  -3.396  1.00  0.00     0.010 A 
ATOM     12  C   UNL     1       4.530  -2.544  -1.856  1.00  0.00     0.010 A 
ATOM     13  C   UNL     1       4.016  -2.427  -3.156  1.00  0.00    -0.014 A 
BRANCH  13  14
ATOM     14  C   UNL     1       4.594  -3.275  -4.227  1.00  0.00     0.031 A 
ATOM     15  C   UNL     1       4.498  -4.774  -4.110  1.00  0.00     0.074 A 
ATOM     16  C   UNL     1       5.256  -2.713  -5.257  1.00  0.00     0.049 A 
ATOM     17  N   UNL     1       5.054  -5.694  -4.852  1.00  0.00    -0.248 NA
ATOM     18  C   UNL     1       3.685  -5.310  -3.002  1.00  0.00     0.031 C 
ATOM     19  C   UNL     1       5.428  -1.275  -5.476  1.00  0.00     0.029 A 
ATOM     20  N   UNL     1       5.926  -3.290  -6.307  1.00  0.00    -0.354 N 
ATOM     21  C   UNL     1       4.690  -6.909  -4.285  1.00  0.00     0.074 A 
ATOM     22  C   UNL     1       3.882  -6.616  -3.124  1.00  0.00     0.031 C 
ATOM     23  C   UNL     1       6.140  -1.083  -6.598  1.00  0.00     0.029 A 
ATOM     24  C   UNL     1       6.513  -2.380  -7.154  1.00  0.00     0.049 A 
ATOM     25  H   UNL     1       5.979  -4.263  -6.441  1.00  0.00     0.167 HD
ATOM     26  C   UNL     1       4.980  -8.158  -4.712  1.00  0.00     0.034 A 
ATOM     27  C   UNL     1       7.274  -2.571  -8.250  1.00  0.00     0.034 A 
ATOM     28  C   UNL     1       5.734  -8.450  -5.898  1.00  0.00     0.049 A 
ATOM     29  C   UNL     1       7.584  -3.973  -8.695  1.00  0.00     0.074 A 
ATOM     30  C   UNL     1       6.046  -9.689  -6.428  1.00  0.00     0.029 A 
ATOM     31  N   UNL     1       6.277  -7.499  -6.744  1.00  0.00    -0.354 N 
ATOM     32  N   UNL     1       7.197  -5.108  -8.166  1.00  0.00    -0.248 NA
ATOM     33  C   UNL     1       8.414  -4.123  -9.900  1.00  0.00     0.031 C 
ATOM     34  C   UNL     1       6.786  -9.488  -7.595  1.00  0.00     0.029 A 
ATOM     35  C   UNL     1       6.910  -8.124  -7.802  1.00  0.00     0.049 A 
ATOM     36  H   UNL     1       6.221  -6.525  -6.612  1.00  0.00     0.167 HD
ATOM     37  C   UNL     1       7.693  -6.103  -8.999  1.00  0.00     0.074 A 
ATOM     38  C   UNL     1       8.413  -5.439 -10.066  1.00  0.00     0.031 C 
ATOM     39  C   UNL     1       7.563  -7.446  -8.888  1.00  0.00     0.034 A 
BRANCH  26  40
ATOM     40  C   UNL     1       4.430  -9.326  -3.944  1.00  0.00     0.023 A 
ATOM     41  C   UNL     1       3.090  -9.708  -4.148  1.00  0.00     0.012 A 
ATOM     42  C   UNL     1       5.275 -10.131  -3.157  1.00  0.00     0.148 A 
ATOM     43  C   UNL     1       2.599 -10.885  -3.586  1.00  0.00     0.002 A 
ATOM     44  C   UNL     1       4.787 -11.318  -2.625  1.00  0.00     0.091 A 
ATOM     45  F   UNL     1       6.542  -9.736  -2.973  1.00  0.00    -0.205 F 
ATOM     46  C   UNL     1       3.450 -11.697  -2.839  1.00  0.00     0.022 A 
BRANCH  44  47
ATOM     47  S   UNL     1       5.812 -12.463  -1.696  1.00  0.00     0.127 S 
ATOM     48  O   UNL     1       5.115 -12.506  -0.410  1.00  0.00    -0.237 OA
ATOM     49  O   UNL     1       5.702 -13.685  -2.491  1.00  0.00    -0.237 OA
ATOM     50  O   UNL     1       7.142 -11.871  -1.651  1.00  0.00    -0.744 OA
ENDBRANCH  44  47
ENDBRANCH  26  40
BRANCH  27  51
ATOM     51  C   UNL     1       7.733  -1.403  -9.050  1.00  0.00     0.023 A 
ATOM     52  C   UNL     1       7.123  -1.150 -10.295  1.00  0.00     0.012 A 
ATOM     53  C   UNL     1       8.739  -0.536  -8.585  1.00  0.00     0.148 A 
ATOM     54  C   UNL     1       7.521  -0.063 -11.073  1.00  0.00     0.002 A 
ATOM     55  C   UNL     1       9.106   0.566  -9.348  1.00  0.00     0.091 A 
ATOM     56  F   UNL     1       9.306  -0.802  -7.400  1.00  0.00    -0.205 F 
ATOM     57  C   UNL     1       8.506   0.799 -10.597  1.00  0.00     0.022 A 
BRANCH  55  58
ATOM     58  S   UNL     1      10.303   1.780  -8.785  1.00  0.00     0.127 S 
ATOM     59  O   UNL     1      11.387   1.599  -9.748  1.00  0.00    -0.237 OA
ATOM     60  O   UNL     1       9.553   3.028  -8.928  1.00  0.00    -0.237 OA
ATOM     61  O   UNL     1      10.618   1.418  -7.410  1.00  0.00    -0.744 OA
ENDBRANCH  55  58
ENDBRANCH  27  51
BRANCH  39  62
ATOM     62  C   UNL     1       8.144  -8.307  -9.974  1.00  0.00     0.023 A 
ATOM     63  C   UNL     1       9.529  -8.552 -10.012  1.00  0.00     0.012 A 
ATOM     64  C   UNL     1       7.291  -8.970 -10.879  1.00  0.00     0.148 A 
ATOM     65  C   UNL     1      10.060  -9.437 -10.949  1.00  0.00     0.002 A 
ATOM     66  C   UNL     1       7.823  -9.877 -11.785  1.00  0.00     0.091 A 
ATOM     67  F   UNL     1       5.977  -8.711 -10.823  1.00  0.00    -0.205 F 
ATOM     68  C   UNL     1       9.208 -10.107 -11.825  1.00  0.00     0.022 A 
BRANCH  66  69
ATOM     69  S   UNL     1       6.798 -10.841 -12.901  1.00  0.00     0.127 S 
ATOM     70  O   UNL     1       7.162 -10.276 -14.199  1.00  0.00    -0.237 OA
ATOM     71  O   UNL     1       7.284 -12.201 -12.668  1.00  0.00    -0.237 OA
ATOM     72  O   UNL     1       5.421 -10.609 -12.488  1.00  0.00    -0.744 OA
ENDBRANCH  66  69
ENDBRANCH  39  62
ENDBRANCH  13  14
ENDBRANCH   6   8
ENDBRANCH   3   4
ENDBRANCH   2   3
ENDBRANCH   1   2
BRANCH   1  73
ATOM     73  C   UNL     1       5.158   2.144   3.446  1.00  0.00     0.116 C 
BRANCH  73  74
ATOM     74  N   UNL     1       6.587   2.208   3.644  1.00  0.00    -0.355 N 
ATOM     75  C   UNL     1       7.319   2.763   4.657  1.00  0.00     0.235 C 
ATOM     76  H   UNL     1       7.121   1.784   2.934  1.00  0.00     0.163 HD
ATOM     77  O   UNL     1       8.540   2.621   4.573  1.00  0.00    -0.274 OA
BRANCH  75  78
ATOM     78  C   UNL     1       6.617   3.447   5.845  1.00  0.00     0.163 C 
ATOM     79  S   UNL     1       7.892   4.100   7.024  1.00  0.00    -0.119 SA
ATOM     80  C   UNL     1       5.806   4.670   5.427  1.00  0.00     0.170 C 
ATOM     81  C   UNL     1       7.737   5.714   6.426  1.00  0.00     0.038 C 
ATOM     82  C   UNL     1       6.663   5.895   5.654  1.00  0.00     0.002 C 
BRANCH  80  83
ATOM     83  S   UNL     1       4.289   4.877   6.416  1.00  0.00     0.219 S 
ATOM     84  O   UNL     1       4.575   4.818   7.828  1.00  0.00    -0.212 OA
ATOM     85  O   UNL     1       3.581   6.022   5.873  1.00  0.00    -0.212 OA
BRANCH  83  86
ATOM     86  N   UNL     1       3.278   3.605   6.030  1.00  0.00    -0.214 NA
ATOM     87  H   UNL     1       3.320   3.541   5.013  1.00  0.00     0.141 HD
BRANCH  86  88
ATOM     88  C   UNL     1       3.362   2.210   6.497  1.00  0.00     0.103 C 
BRANCH  88  89
ATOM     89  C   UNL     1       3.644   1.982   7.976  1.00  0.00     0.050 C 
BRANCH  89  90
ATOM     90  C   UNL     1       2.459   2.131   8.869  1.00  0.00    -0.038 C 
ATOM     91  C   UNL     1       2.128   1.322   9.871  1.00  0.00     0.001 A 
ATOM     92  C   UNL     1       1.472   3.250   8.747  1.00  0.00     0.174 C 
ATOM     93  C   UNL     1       2.698   0.148  10.447  1.00  0.00     0.010 A 
ATOM     94  C   UNL     1       0.893   1.927  10.387  1.00  0.00     0.065 A 
ATOM     95  N   UNL     1       0.458   3.002   9.805  1.00  0.00    -0.280 NA
ATOM     96  C   UNL     1       2.075  -0.422  11.491  1.00  0.00     0.001 A 
ATOM     97  C   UNL     1       0.260   1.236  11.531  1.00  0.00     0.028 A 
ATOM     98  C   UNL     1       0.842   0.131  12.028  1.00  0.00     0.002 A 
ENDBRANCH  89  90
ENDBRANCH  88  89
ENDBRANCH  86  88
ENDBRANCH  83  86
ENDBRANCH  80  83
ENDBRANCH  75  78
ENDBRANCH  73  74
ENDBRANCH   1  73
TORSDOF 19
