REMARK SMILES CC(C)(C)[C@H](CCC(=O)NCCCCNC(=O)c1ccc(-c2c3nc(c(-c4cccc(S(=O)(=O)[O-])c4F)c4ccc([nH]4)c(-c4cccc(S(=O)(=O)[O-])c4F)c4nc(c(-c5cccc(S(=O)(=O)[O-])c5F)c5ccc2[nH]5)C=C4)C=C3)cc1)CC[NH+]1CCOCC1
REMARK SMILES IDX 11 1 10 2 8 3 9 4 7 6 6 7 5 8 2 9 1 10 3 11 4 12 81 13 82 14
REMARK SMILES IDX 83 15 84 16 88 17 85 19 87 20 86 21 12 22 13 23 14 24 15 25
REMARK SMILES IDX 16 26 17 28 18 29 19 30 80 31 20 32 79 33 21 34 22 35 23 36
REMARK SMILES IDX 73 37 24 38 78 39 72 40 74 41 25 42 77 43 71 44 70 45 26 47
REMARK SMILES IDX 58 48 38 49 57 50 39 51 42 52 56 53 75 54 40 55 41 56 55 58
REMARK SMILES IDX 76 59 43 60 27 61 28 62 36 63 29 64 31 65 37 66 30 67 32 68
REMARK SMILES IDX 33 69 34 70 35 71 59 72 60 73 68 74 61 75 63 76 69 77 62 78
REMARK SMILES IDX 64 79 65 80 66 81 67 82 44 83 45 84 53 85 46 86 48 87 54 88
REMARK SMILES IDX 47 89 49 90 50 91 51 92 52 93
REMARK H PARENT 10 5 83 18 15 27 74 46 42 57
REMARK Flexibility Score: inf
ROOT
ATOM      1  C   UNL     1      -1.663   4.558  -0.034  1.00  0.00     0.116 C 
ENDROOT
BRANCH   1   2
ATOM      2  N   UNL     1      -1.311   4.101  -1.365  1.00  0.00    -0.356 N 
ATOM      3  C   UNL     1      -1.181   2.844  -1.873  1.00  0.00     0.220 C 
ATOM      4  O   UNL     1      -1.084   2.711  -3.094  1.00  0.00    -0.275 OA
ATOM      5  H   UNL     1      -1.135   4.823  -2.011  1.00  0.00     0.163 HD
BRANCH   3   6
ATOM      6  C   UNL     1      -1.152   1.628  -0.965  1.00  0.00     0.100 C 
BRANCH   6   7
ATOM      7  C   UNL     1       0.277   1.124  -0.686  1.00  0.00     0.014 C 
BRANCH   7   8
ATOM      8  C   UNL     1       1.086   1.980   0.316  1.00  0.00     0.000 C 
BRANCH   8   9
ATOM      9  C   UNL     1       0.827   1.666   1.871  1.00  0.00    -0.035 C 
ATOM     10  C   UNL     1       1.770   0.572   2.418  1.00  0.00     0.011 C 
ATOM     11  C   UNL     1      -0.609   1.208   2.201  1.00  0.00     0.011 C 
ATOM     12  C   UNL     1       1.076   2.946   2.708  1.00  0.00     0.011 C 
ENDBRANCH   8   9
BRANCH   8  13
ATOM     13  C   UNL     1       2.618   1.971  -0.003  1.00  0.00     0.065 C 
BRANCH  13  14
ATOM     14  C   UNL     1       3.206   2.216  -1.416  1.00  0.00     0.262 C 
BRANCH  14  15
ATOM     15  N   UNL     1       2.932   3.407  -2.220  1.00  0.00    -0.331 N 
ATOM     16  C   UNL     1       4.108   3.816  -3.034  1.00  0.00     0.291 C 
ATOM     17  C   UNL     1       2.452   4.607  -1.537  1.00  0.00     0.291 C 
ATOM     18  H   UNL     1       2.152   3.070  -2.785  1.00  0.00     0.348 HD
ATOM     19  C   UNL     1       5.166   4.625  -2.246  1.00  0.00     0.221 C 
ATOM     20  C   UNL     1       3.520   5.339  -0.722  1.00  0.00     0.221 C 
ATOM     21  O   UNL     1       4.601   5.748  -1.563  1.00  0.00    -0.370 OA
ENDBRANCH  14  15
ENDBRANCH  13  14
ENDBRANCH   8  13
ENDBRANCH   7   8
ENDBRANCH   6   7
ENDBRANCH   3   6
ENDBRANCH   1   2
BRANCH   1  22
ATOM     22  C   UNL     1      -0.613   5.456   0.615  1.00  0.00     0.023 C 
BRANCH  22  23
ATOM     23  C   UNL     1      -0.210   6.658  -0.226  1.00  0.00     0.023 C 
BRANCH  23  24
ATOM     24  C   UNL     1       0.394   7.769   0.616  1.00  0.00     0.116 C 
BRANCH  24  25
ATOM     25  N   UNL     1       1.476   7.398   1.526  1.00  0.00    -0.352 N 
ATOM     26  C   UNL     1       2.360   8.260   2.157  1.00  0.00     0.251 C 
ATOM     27  H   UNL     1       1.589   6.437   1.710  1.00  0.00     0.163 HD
ATOM     28  O   UNL     1       3.268   7.829   2.862  1.00  0.00    -0.269 OA
BRANCH  26  29
ATOM     29  C   UNL     1       2.207   9.714   1.916  1.00  0.00     0.039 A 
ATOM     30  C   UNL     1       3.293  10.476   1.481  1.00  0.00     0.014 A 
ATOM     31  C   UNL     1       0.935  10.276   1.966  1.00  0.00     0.014 A 
ATOM     32  C   UNL     1       3.067  11.762   0.975  1.00  0.00     0.010 A 
ATOM     33  C   UNL     1       0.695  11.469   1.308  1.00  0.00     0.010 A 
ATOM     34  C   UNL     1       1.756  12.240   0.814  1.00  0.00    -0.014 A 
BRANCH  34  35
ATOM     35  C   UNL     1       1.434  13.530   0.142  1.00  0.00     0.031 A 
ATOM     36  C   UNL     1       0.536  14.526   0.839  1.00  0.00     0.074 A 
ATOM     37  C   UNL     1       1.805  13.743  -1.138  1.00  0.00     0.049 A 
ATOM     38  N   UNL     1      -0.033  15.603   0.364  1.00  0.00    -0.248 NA
ATOM     39  C   UNL     1       0.169  14.231   2.237  1.00  0.00     0.031 C 
ATOM     40  C   UNL     1       2.568  12.812  -1.974  1.00  0.00     0.029 A 
ATOM     41  N   UNL     1       1.558  14.804  -1.975  1.00  0.00    -0.354 N 
ATOM     42  C   UNL     1      -0.878  16.059   1.370  1.00  0.00     0.074 A 
ATOM     43  C   UNL     1      -0.795  15.110   2.456  1.00  0.00     0.031 C 
ATOM     44  C   UNL     1       2.747  13.351  -3.191  1.00  0.00     0.029 A 
ATOM     45  C   UNL     1       2.084  14.649  -3.238  1.00  0.00     0.049 A 
ATOM     46  H   UNL     1       1.052  15.602  -1.698  1.00  0.00     0.167 HD
ATOM     47  C   UNL     1      -1.619  17.191   1.414  1.00  0.00     0.034 A 
ATOM     48  C   UNL     1       2.037  15.463  -4.312  1.00  0.00     0.034 A 
ATOM     49  C   UNL     1      -1.597  18.192   0.386  1.00  0.00     0.049 A 
ATOM     50  C   UNL     1       1.326  16.784  -4.189  1.00  0.00     0.074 A 
ATOM     51  C   UNL     1      -2.196  19.439   0.383  1.00  0.00     0.029 A 
ATOM     52  N   UNL     1      -0.916  18.070  -0.815  1.00  0.00    -0.354 N 
ATOM     53  N   UNL     1       0.662  17.271  -3.168  1.00  0.00    -0.248 NA
ATOM     54  C   UNL     1       1.389  17.686  -5.348  1.00  0.00     0.031 C 
ATOM     55  C   UNL     1      -1.872  20.073  -0.821  1.00  0.00     0.029 A 
ATOM     56  C   UNL     1      -1.066  19.224  -1.562  1.00  0.00     0.049 A 
ATOM     57  H   UNL     1      -0.401  17.279  -1.095  1.00  0.00     0.167 HD
ATOM     58  C   UNL     1       0.259  18.546  -3.547  1.00  0.00     0.074 A 
ATOM     59  C   UNL     1       0.773  18.765  -4.884  1.00  0.00     0.031 C 
ATOM     60  C   UNL     1      -0.487  19.446  -2.862  1.00  0.00     0.034 A 
BRANCH  47  61
ATOM     61  C   UNL     1      -2.431  17.448   2.658  1.00  0.00     0.023 A 
ATOM     62  C   UNL     1      -1.771  17.744   3.869  1.00  0.00     0.012 A 
ATOM     63  C   UNL     1      -3.839  17.430   2.629  1.00  0.00     0.148 A 
ATOM     64  C   UNL     1      -2.493  17.966   5.040  1.00  0.00     0.002 A 
ATOM     65  C   UNL     1      -4.554  17.702   3.791  1.00  0.00     0.091 A 
ATOM     66  F   UNL     1      -4.454  17.128   1.476  1.00  0.00    -0.205 F 
ATOM     67  C   UNL     1      -3.883  17.954   4.999  1.00  0.00     0.022 A 
BRANCH  65  68
ATOM     68  S   UNL     1      -6.348  17.793   3.826  1.00  0.00     0.127 S 
ATOM     69  O   UNL     1      -6.692  16.564   4.539  1.00  0.00    -0.237 OA
ATOM     70  O   UNL     1      -6.579  19.022   4.587  1.00  0.00    -0.237 OA
ATOM     71  O   UNL     1      -6.774  17.852   2.435  1.00  0.00    -0.744 OA
ENDBRANCH  65  68
ENDBRANCH  47  61
BRANCH  48  72
ATOM     72  C   UNL     1       2.773  15.100  -5.557  1.00  0.00     0.023 A 
ATOM     73  C   UNL     1       3.947  15.807  -5.887  1.00  0.00     0.012 A 
ATOM     74  C   UNL     1       2.349  14.050  -6.394  1.00  0.00     0.148 A 
ATOM     75  C   UNL     1       4.667  15.498  -7.042  1.00  0.00     0.002 A 
ATOM     76  C   UNL     1       3.099  13.714  -7.517  1.00  0.00     0.091 A 
ATOM     77  F   UNL     1       1.224  13.396  -6.072  1.00  0.00    -0.205 F 
ATOM     78  C   UNL     1       4.249  14.446  -7.851  1.00  0.00     0.022 A 
BRANCH  76  79
ATOM     79  S   UNL     1       2.706  12.294  -8.547  1.00  0.00     0.127 S 
ATOM     80  O   UNL     1       2.162  12.934  -9.742  1.00  0.00    -0.237 OA
ATOM     81  O   UNL     1       4.019  11.674  -8.724  1.00  0.00    -0.237 OA
ATOM     82  O   UNL     1       1.768  11.498  -7.768  1.00  0.00    -0.744 OA
ENDBRANCH  76  79
ENDBRANCH  48  72
BRANCH  60  83
ATOM     83  C   UNL     1      -0.765  20.770  -3.520  1.00  0.00     0.023 A 
ATOM     84  C   UNL     1      -1.707  20.844  -4.564  1.00  0.00     0.012 A 
ATOM     85  C   UNL     1      -0.165  21.950  -3.040  1.00  0.00     0.148 A 
ATOM     86  C   UNL     1      -2.030  22.072  -5.138  1.00  0.00     0.002 A 
ATOM     87  C   UNL     1      -0.526  23.175  -3.586  1.00  0.00     0.091 A 
ATOM     88  F   UNL     1       0.744  21.854  -2.058  1.00  0.00    -0.205 F 
ATOM     89  C   UNL     1      -1.450  23.237  -4.641  1.00  0.00     0.022 A 
BRANCH  87  90
ATOM     90  S   UNL     1       0.097  24.732  -2.941  1.00  0.00     0.127 S 
ATOM     91  O   UNL     1       1.069  25.112  -3.964  1.00  0.00    -0.237 OA
ATOM     92  O   UNL     1      -1.109  25.561  -2.907  1.00  0.00    -0.237 OA
ATOM     93  O   UNL     1       0.652  24.426  -1.629  1.00  0.00    -0.744 OA
ENDBRANCH  87  90
ENDBRANCH  60  83
ENDBRANCH  34  35
ENDBRANCH  26  29
ENDBRANCH  24  25
ENDBRANCH  23  24
ENDBRANCH  22  23
ENDBRANCH   1  22
TORSDOF 20
