REMARK SMILES Cc1ccc(-c2cc(C(=O)NCCCCNC(=O)c3ccc(-c4c5nc(c(-c6cccc(S(=O)(=O)[O-])c6F)c6ccc([nH]6)c(-c6cccc(S(=O)(=O)[O-])c6F)c6nc(c(-c7cccc(S(=O)(=O)[O-])c7F)c7ccc4[nH]7)C=C6)C=C5)cc3)c3c(-c4cccc([N+](=O)[O-])c4)[nH]nc3n2)cc1
REMARK SMILES IDX 14 1 13 2 12 3 11 4 9 5 10 6 8 8 6 9 7 10 96 11 95 12 82 13
REMARK SMILES IDX 94 14 83 15 93 16 5 18 1 19 2 20 3 21 98 22 4 23 97 24 84 25
REMARK SMILES IDX 85 26 92 27 86 28 88 29 87 30 89 31 90 32 91 33 15 34 16 35
REMARK SMILES IDX 17 36 18 38 19 39 20 40 81 41 21 42 80 43 22 44 23 45 24 46
REMARK SMILES IDX 74 47 25 48 79 49 73 50 75 51 26 52 78 53 72 54 71 55 27 57
REMARK SMILES IDX 59 58 39 59 58 60 40 61 43 62 57 63 76 64 41 65 42 66 56 68
REMARK SMILES IDX 77 69 44 70 28 71 29 72 37 73 30 74 32 75 38 76 31 77 33 78
REMARK SMILES IDX 34 79 35 80 36 81 60 82 61 83 69 84 62 85 64 86 70 87 63 88
REMARK SMILES IDX 65 89 66 90 67 91 68 92 45 93 46 94 54 95 47 96 49 97 55 98
REMARK SMILES IDX 48 99 50 100 51 101 52 102 53 103
REMARK H PARENT 11 7 93 17 16 37 75 56 43 67
REMARK Flexibility Score: inf
ROOT
ATOM      1  C   UNL     1      -3.547   0.911  -5.721  1.00  0.00     0.023 C 
ENDROOT
BRANCH   1   2
ATOM      2  C   UNL     1      -2.955   1.032  -4.313  1.00  0.00     0.023 C 
BRANCH   2   3
ATOM      3  C   UNL     1      -3.506   2.203  -3.485  1.00  0.00     0.116 C 
BRANCH   3   4
ATOM      4  N   UNL     1      -4.933   2.077  -3.228  1.00  0.00    -0.352 N 
ATOM      5  C   UNL     1      -5.727   1.464  -2.292  1.00  0.00     0.252 C 
ATOM      6  O   UNL     1      -6.925   1.700  -2.422  1.00  0.00    -0.269 OA
ATOM      7  H   UNL     1      -5.468   2.557  -3.900  1.00  0.00     0.163 HD
BRANCH   5   8
ATOM      8  C   UNL     1      -5.239   0.619  -1.171  1.00  0.00     0.055 A 
ATOM      9  C   UNL     1      -3.366  -0.263   0.220  1.00  0.00     0.074 A 
ATOM     10  C   UNL     1      -3.885   0.363  -0.939  1.00  0.00     0.043 A 
ATOM     11  N   UNL     1      -4.100  -0.806   1.220  1.00  0.00    -0.226 NA
ATOM     12  C   UNL     1      -5.434  -0.661   1.016  1.00  0.00     0.182 A 
ATOM     13  C   UNL     1      -5.993   0.021  -0.135  1.00  0.00     0.059 A 
ATOM     14  N   UNL     1      -6.381  -1.112   1.839  1.00  0.00    -0.154 NA
ATOM     15  C   UNL     1      -7.366  -0.088   0.042  1.00  0.00     0.076 A 
ATOM     16  N   UNL     1      -7.520  -0.734   1.245  1.00  0.00    -0.275 N 
ATOM     17  H   UNL     1      -8.404  -0.906   1.642  1.00  0.00     0.190 HD
BRANCH   9  18
ATOM     18  C   UNL     1      -1.902  -0.255   0.370  1.00  0.00     0.000 A 
ATOM     19  C   UNL     1       2.406  -0.098   0.038  1.00  0.00     0.044 C 
ATOM     20  C   UNL     1       0.917  -0.148   0.208  1.00  0.00    -0.051 A 
ATOM     21  C   UNL     1       0.249  -1.379   0.272  1.00  0.00     0.004 A 
ATOM     22  C   UNL     1       0.174   1.032   0.276  1.00  0.00     0.004 A 
ATOM     23  C   UNL     1      -1.148  -1.433   0.357  1.00  0.00     0.010 A 
ATOM     24  C   UNL     1      -1.216   0.977   0.363  1.00  0.00     0.010 A 
ENDBRANCH   9  18
BRANCH  15  25
ATOM     25  C   UNL     1      -8.534   0.278  -0.747  1.00  0.00     0.007 A 
ATOM     26  C   UNL     1      -9.366   1.329  -0.336  1.00  0.00     0.011 A 
ATOM     27  C   UNL     1      -8.781  -0.365  -1.967  1.00  0.00     0.096 A 
ATOM     28  C   UNL     1     -10.401   1.778  -1.162  1.00  0.00     0.008 A 
ATOM     29  C   UNL     1      -9.796   0.115  -2.805  1.00  0.00     0.270 A 
ATOM     30  C   UNL     1     -10.611   1.183  -2.407  1.00  0.00     0.085 A 
BRANCH  29  31
ATOM     31  N   UNL     1      -9.974  -0.481  -4.133  1.00  0.00     0.062 N 
ATOM     32  O   UNL     1     -10.894  -0.050  -4.843  1.00  0.00    -0.258 OA
ATOM     33  O   UNL     1      -9.216  -1.409  -4.459  1.00  0.00    -0.258 OA
ENDBRANCH  29  31
ENDBRANCH  15  25
ENDBRANCH   5   8
ENDBRANCH   3   4
ENDBRANCH   2   3
ENDBRANCH   1   2
BRANCH   1  34
ATOM     34  C   UNL     1      -3.277   2.114  -6.612  1.00  0.00     0.116 C 
BRANCH  34  35
ATOM     35  N   UNL     1      -1.955   2.130  -7.213  1.00  0.00    -0.352 N 
ATOM     36  C   UNL     1      -1.355   3.099  -7.999  1.00  0.00     0.251 C 
ATOM     37  H   UNL     1      -1.404   1.333  -7.035  1.00  0.00     0.163 HD
ATOM     38  O   UNL     1      -0.353   2.789  -8.643  1.00  0.00    -0.269 OA
BRANCH  36  39
ATOM     39  C   UNL     1      -1.806   4.513  -7.925  1.00  0.00     0.039 A 
ATOM     40  C   UNL     1      -0.811   5.495  -7.816  1.00  0.00     0.014 A 
ATOM     41  C   UNL     1      -3.131   4.839  -7.656  1.00  0.00     0.014 A 
ATOM     42  C   UNL     1      -1.084   6.678  -7.137  1.00  0.00     0.010 A 
ATOM     43  C   UNL     1      -3.385   5.957  -6.895  1.00  0.00     0.010 A 
ATOM     44  C   UNL     1      -2.338   6.824  -6.562  1.00  0.00    -0.014 A 
BRANCH  44  45
ATOM     45  C   UNL     1      -2.682   7.816  -5.562  1.00  0.00     0.031 A 
ATOM     46  C   UNL     1      -3.350   9.058  -5.979  1.00  0.00     0.074 A 
ATOM     47  C   UNL     1      -2.619   7.448  -4.262  1.00  0.00     0.049 A 
ATOM     48  N   UNL     1      -3.613  10.030  -5.178  1.00  0.00    -0.248 NA
ATOM     49  C   UNL     1      -3.734   9.323  -7.364  1.00  0.00     0.031 C 
ATOM     50  C   UNL     1      -3.358   8.016  -3.140  1.00  0.00     0.029 A 
ATOM     51  N   UNL     1      -1.679   6.603  -3.658  1.00  0.00    -0.354 N 
ATOM     52  C   UNL     1      -4.468  10.875  -5.845  1.00  0.00     0.074 A 
ATOM     53  C   UNL     1      -4.387  10.482  -7.227  1.00  0.00     0.031 C 
ATOM     54  C   UNL     1      -2.699   7.740  -2.005  1.00  0.00     0.029 A 
ATOM     55  C   UNL     1      -1.423   7.165  -2.392  1.00  0.00     0.049 A 
ATOM     56  H   UNL     1      -1.280   5.787  -4.039  1.00  0.00     0.167 HD
ATOM     57  C   UNL     1      -5.263  11.696  -5.109  1.00  0.00     0.034 A 
ATOM     58  C   UNL     1      -0.202   7.643  -2.010  1.00  0.00     0.034 A 
ATOM     59  C   UNL     1      -4.795  11.756  -3.718  1.00  0.00     0.049 A 
ATOM     60  C   UNL     1      -0.231   9.112  -1.618  1.00  0.00     0.074 A 
ATOM     61  C   UNL     1      -5.244  11.206  -2.531  1.00  0.00     0.029 A 
ATOM     62  N   UNL     1      -3.518  12.250  -3.463  1.00  0.00    -0.354 N 
ATOM     63  N   UNL     1      -1.256   9.903  -1.789  1.00  0.00    -0.248 NA
ATOM     64  C   UNL     1       0.901   9.810  -1.015  1.00  0.00     0.031 C 
ATOM     65  C   UNL     1      -4.170  11.262  -1.594  1.00  0.00     0.029 A 
ATOM     66  C   UNL     1      -3.093  11.896  -2.193  1.00  0.00     0.049 A 
ATOM     67  H   UNL     1      -2.987  12.780  -4.101  1.00  0.00     0.167 HD
ATOM     68  C   UNL     1      -0.918  11.193  -1.465  1.00  0.00     0.074 A 
ATOM     69  C   UNL     1       0.417  11.060  -0.905  1.00  0.00     0.031 C 
ATOM     70  C   UNL     1      -1.745  12.252  -1.744  1.00  0.00     0.034 A 
BRANCH  57  71
ATOM     71  C   UNL     1      -6.570  12.314  -5.577  1.00  0.00     0.023 A 
ATOM     72  C   UNL     1      -7.245  13.155  -4.664  1.00  0.00     0.012 A 
ATOM     73  C   UNL     1      -7.255  12.044  -6.790  1.00  0.00     0.148 A 
ATOM     74  C   UNL     1      -8.514  13.688  -4.929  1.00  0.00     0.002 A 
ATOM     75  C   UNL     1      -8.489  12.633  -7.085  1.00  0.00     0.091 A 
ATOM     76  F   UNL     1      -6.784  11.133  -7.644  1.00  0.00    -0.205 F 
ATOM     77  C   UNL     1      -9.130  13.442  -6.147  1.00  0.00     0.022 A 
BRANCH  75  78
ATOM     78  S   UNL     1      -9.315  12.395  -8.671  1.00  0.00     0.127 S 
ATOM     79  O   UNL     1     -10.434  11.527  -8.309  1.00  0.00    -0.237 OA
ATOM     80  O   UNL     1      -9.698  13.760  -9.035  1.00  0.00    -0.237 OA
ATOM     81  O   UNL     1      -8.325  11.797  -9.559  1.00  0.00    -0.744 OA
ENDBRANCH  75  78
ENDBRANCH  57  71
BRANCH  58  82
ATOM     82  C   UNL     1       0.942   6.933  -2.656  1.00  0.00     0.023 A 
ATOM     83  C   UNL     1       1.086   5.557  -2.352  1.00  0.00     0.012 A 
ATOM     84  C   UNL     1       1.558   7.440  -3.813  1.00  0.00     0.148 A 
ATOM     85  C   UNL     1       1.688   4.682  -3.256  1.00  0.00     0.002 A 
ATOM     86  C   UNL     1       2.161   6.559  -4.711  1.00  0.00     0.091 A 
ATOM     87  F   UNL     1       1.468   8.752  -4.064  1.00  0.00    -0.205 F 
ATOM     88  C   UNL     1       2.188   5.178  -4.455  1.00  0.00     0.022 A 
BRANCH  86  89
ATOM     89  S   UNL     1       2.796   7.119  -6.299  1.00  0.00     0.127 S 
ATOM     90  O   UNL     1       4.216   7.277  -6.005  1.00  0.00    -0.237 OA
ATOM     91  O   UNL     1       2.470   5.998  -7.179  1.00  0.00    -0.237 OA
ATOM     92  O   UNL     1       2.054   8.337  -6.587  1.00  0.00    -0.744 OA
ENDBRANCH  86  89
ENDBRANCH  58  82
BRANCH  70  93
ATOM     93  C   UNL     1      -1.368  13.730  -1.652  1.00  0.00     0.023 A 
ATOM     94  C   UNL     1      -0.034  14.174  -1.571  1.00  0.00     0.012 A 
ATOM     95  C   UNL     1      -2.355  14.747  -1.782  1.00  0.00     0.148 A 
ATOM     96  C   UNL     1       0.305  15.533  -1.554  1.00  0.00     0.002 A 
ATOM     97  C   UNL     1      -2.003  16.092  -1.887  1.00  0.00     0.091 A 
ATOM     98  F   UNL     1      -3.656  14.424  -1.784  1.00  0.00    -0.205 F 
ATOM     99  C   UNL     1      -0.677  16.494  -1.737  1.00  0.00     0.022 A 
BRANCH  97 100
ATOM    100  S   UNL     1      -3.212  17.332  -2.379  1.00  0.00     0.127 S 
ATOM    101  O   UNL     1      -3.667  17.844  -1.089  1.00  0.00    -0.237 OA
ATOM    102  O   UNL     1      -2.399  18.273  -3.154  1.00  0.00    -0.237 OA
ATOM    103  O   UNL     1      -4.196  16.607  -3.171  1.00  0.00    -0.744 OA
ENDBRANCH  97 100
ENDBRANCH  70  93
ENDBRANCH  44  45
ENDBRANCH  36  39
ENDBRANCH  34  35
ENDBRANCH   1  34
TORSDOF 17
