REMARK SMILES Nc1ccc(-c2cc(Cl)cc3c2O[C@H](C(F)(F)F)C(C(=O)NCCCCNC(=O)c2ccc(-c4c5nc(c(-c6cccc(S(=O)(=O)[O-])c6F)c6ccc([nH]6)c(-c6cccc(S(=O)(=O)[O-])c6F)c6nc(c(-c7cccc(S(=O)(=O)[O-])c7F)c7ccc4[nH]7)C=C6)C=C5)cc2)=C3)cc1
REMARK SMILES IDX 25 1 24 2 23 3 22 4 20 5 21 6 19 8 6 9 7 10 12 11 8 12 11 13
REMARK SMILES IDX 13 14 9 15 10 16 93 17 14 18 5 19 2 20 3 21 95 22 4 23 94 24
REMARK SMILES IDX 1 25 15 28 16 29 17 30 18 31 26 32 27 33 28 34 29 36 30 37
REMARK SMILES IDX 31 38 92 39 32 40 91 41 33 42 34 43 35 44 85 45 36 46 90 47
REMARK SMILES IDX 84 48 86 49 37 50 89 51 83 52 82 53 38 55 70 56 50 57 69 58
REMARK SMILES IDX 51 59 54 60 68 61 87 62 52 63 53 64 67 66 88 67 55 68 39 69
REMARK SMILES IDX 40 70 48 71 41 72 43 73 49 74 42 75 44 76 45 77 46 78 47 79
REMARK SMILES IDX 71 80 72 81 80 82 73 83 75 84 81 85 74 86 76 87 77 88 78 89
REMARK SMILES IDX 79 90 56 91 57 92 65 93 58 94 60 95 66 96 59 97 61 98 62 99
REMARK SMILES IDX 63 100 64 101
REMARK H PARENT 22 7 1 26 1 27 27 35 86 54 54 65
REMARK Flexibility Score: inf
ROOT
ATOM      1  C   UNL     1      -4.006  -2.645   8.077  1.00  0.00     0.023 C 
ENDROOT
BRANCH   1   2
ATOM      2  C   UNL     1      -3.654  -2.342   6.618  1.00  0.00     0.023 C 
BRANCH   2   3
ATOM      3  C   UNL     1      -4.240  -3.328   5.609  1.00  0.00     0.116 C 
BRANCH   3   4
ATOM      4  N   UNL     1      -5.578  -2.952   5.186  1.00  0.00    -0.352 N 
ATOM      5  C   UNL     1      -6.136  -2.299   4.139  1.00  0.00     0.251 C 
ATOM      6  O   UNL     1      -7.367  -2.197   4.171  1.00  0.00    -0.270 OA
ATOM      7  H   UNL     1      -6.260  -3.252   5.830  1.00  0.00     0.163 HD
BRANCH   5   8
ATOM      8  C   UNL     1      -5.385  -1.713   2.989  1.00  0.00     0.067 C 
ATOM      9  C   UNL     1      -3.357   0.148  -0.202  1.00  0.00     0.026 A 
ATOM     10  C   UNL     1      -4.110   0.687  -1.255  1.00  0.00     0.033 A 
ATOM     11  C   UNL     1      -4.051  -0.401   0.894  1.00  0.00     0.135 A 
ATOM     12  C   UNL     1      -5.506   0.670  -1.207  1.00  0.00     0.042 A 
ATOM     13  C   UNL     1      -5.450  -0.425   0.942  1.00  0.00     0.019 A 
ATOM     14  O   UNL     1      -3.307  -0.860   1.952  1.00  0.00    -0.475 OA
ATOM     15  Cl  UNL     1      -6.408   1.339  -2.513  1.00  0.00    -0.084 Cl
ATOM     16  C   UNL     1      -6.179   0.118  -0.117  1.00  0.00     0.032 A 
ATOM     17  C   UNL     1      -6.113  -0.996   2.111  1.00  0.00     0.025 C 
ATOM     18  C   UNL     1      -3.916  -1.906   2.751  1.00  0.00     0.314 C 
BRANCH   9  19
ATOM     19  C   UNL     1      -1.887   0.139  -0.253  1.00  0.00    -0.014 A 
ATOM     20  C   UNL     1       0.943   0.093  -0.150  1.00  0.00     0.031 A 
ATOM     21  C   UNL     1       0.217  -1.093  -0.251  1.00  0.00     0.026 A 
ATOM     22  C   UNL     1       0.249   1.304  -0.182  1.00  0.00     0.026 A 
ATOM     23  C   UNL     1      -1.181  -1.073  -0.292  1.00  0.00     0.011 A 
ATOM     24  C   UNL     1      -1.150   1.330  -0.220  1.00  0.00     0.011 A 
BRANCH  20  25
ATOM     25  N   UNL     1       2.329   0.071  -0.155  1.00  0.00    -0.399 N 
ATOM     26  H   UNL     1       2.808  -0.789  -0.132  1.00  0.00     0.156 HD
ATOM     27  H   UNL     1       2.835   0.915  -0.181  1.00  0.00     0.156 HD
ENDBRANCH  20  25
ENDBRANCH   9  19
BRANCH  18  28
ATOM     28  C   UNL     1      -3.579  -3.281   2.143  1.00  0.00     0.429 C 
ATOM     29  F   UNL     1      -2.247  -3.526   2.231  1.00  0.00    -0.167 F 
ATOM     30  F   UNL     1      -4.202  -4.298   2.781  1.00  0.00    -0.167 F 
ATOM     31  F   UNL     1      -3.916  -3.370   0.836  1.00  0.00    -0.167 F 
ENDBRANCH  18  28
ENDBRANCH   5   8
ENDBRANCH   3   4
ENDBRANCH   2   3
ENDBRANCH   1   2
BRANCH   1  32
ATOM     32  C   UNL     1      -3.612  -4.035   8.574  1.00  0.00     0.116 C 
BRANCH  32  33
ATOM     33  N   UNL     1      -2.210  -4.372   8.369  1.00  0.00    -0.352 N 
ATOM     34  C   UNL     1      -1.470  -5.324   9.039  1.00  0.00     0.251 C 
ATOM     35  H   UNL     1      -1.736  -3.863   7.672  1.00  0.00     0.163 HD
ATOM     36  O   UNL     1      -0.271  -5.453   8.816  1.00  0.00    -0.269 OA
BRANCH  34  37
ATOM     37  C   UNL     1      -2.142  -6.135  10.075  1.00  0.00     0.039 A 
ATOM     38  C   UNL     1      -3.326  -6.809   9.774  1.00  0.00     0.014 A 
ATOM     39  C   UNL     1      -1.644  -6.122  11.380  1.00  0.00     0.014 A 
ATOM     40  C   UNL     1      -4.106  -7.311  10.808  1.00  0.00     0.010 A 
ATOM     41  C   UNL     1      -2.395  -6.697  12.409  1.00  0.00     0.010 A 
ATOM     42  C   UNL     1      -3.662  -7.237  12.140  1.00  0.00    -0.014 A 
BRANCH  42  43
ATOM     43  C   UNL     1      -4.561  -7.702  13.228  1.00  0.00     0.031 A 
ATOM     44  C   UNL     1      -5.123  -6.732  14.233  1.00  0.00     0.074 A 
ATOM     45  C   UNL     1      -4.930  -8.997  13.265  1.00  0.00     0.049 A 
ATOM     46  N   UNL     1      -5.974  -6.958  15.202  1.00  0.00    -0.248 NA
ATOM     47  C   UNL     1      -4.680  -5.330  14.147  1.00  0.00     0.031 C 
ATOM     48  C   UNL     1      -4.440 -10.036  12.356  1.00  0.00     0.029 A 
ATOM     49  N   UNL     1      -5.818  -9.655  14.076  1.00  0.00    -0.354 N 
ATOM     50  C   UNL     1      -6.134  -5.746  15.862  1.00  0.00     0.074 A 
ATOM     51  C   UNL     1      -5.294  -4.782  15.188  1.00  0.00     0.031 C 
ATOM     52  C   UNL     1      -5.074 -11.186  12.624  1.00  0.00     0.029 A 
ATOM     53  C   UNL     1      -5.982 -10.980  13.749  1.00  0.00     0.049 A 
ATOM     54  H   UNL     1      -6.293  -9.220  14.821  1.00  0.00     0.167 HD
ATOM     55  C   UNL     1      -6.928  -5.455  16.919  1.00  0.00     0.034 A 
ATOM     56  C   UNL     1      -6.775 -11.926  14.287  1.00  0.00     0.034 A 
ATOM     57  C   UNL     1      -7.816  -6.393  17.550  1.00  0.00     0.049 A 
ATOM     58  C   UNL     1      -7.671 -11.569  15.437  1.00  0.00     0.074 A 
ATOM     59  C   UNL     1      -8.690  -6.173  18.600  1.00  0.00     0.029 A 
ATOM     60  N   UNL     1      -7.954  -7.722  17.184  1.00  0.00    -0.354 N 
ATOM     61  N   UNL     1      -7.858 -10.400  15.998  1.00  0.00    -0.248 NA
ATOM     62  C   UNL     1      -8.470 -12.655  16.023  1.00  0.00     0.031 C 
ATOM     63  C   UNL     1      -9.363  -7.369  18.866  1.00  0.00     0.029 A 
ATOM     64  C   UNL     1      -8.902  -8.334  17.985  1.00  0.00     0.049 A 
ATOM     65  H   UNL     1      -7.453  -8.165  16.462  1.00  0.00     0.167 HD
ATOM     66  C   UNL     1      -8.794 -10.606  17.002  1.00  0.00     0.074 A 
ATOM     67  C   UNL     1      -9.160 -12.007  16.955  1.00  0.00     0.031 C 
ATOM     68  C   UNL     1      -9.286  -9.718  17.898  1.00  0.00     0.034 A 
BRANCH  55  69
ATOM     69  C   UNL     1      -6.932  -4.043  17.434  1.00  0.00     0.023 A 
ATOM     70  C   UNL     1      -7.728  -3.081  16.782  1.00  0.00     0.012 A 
ATOM     71  C   UNL     1      -6.240  -3.695  18.610  1.00  0.00     0.148 A 
ATOM     72  C   UNL     1      -7.831  -1.787  17.290  1.00  0.00     0.002 A 
ATOM     73  C   UNL     1      -6.367  -2.409  19.124  1.00  0.00     0.091 A 
ATOM     74  F   UNL     1      -5.478  -4.625  19.202  1.00  0.00    -0.205 F 
ATOM     75  C   UNL     1      -7.159  -1.454  18.464  1.00  0.00     0.022 A 
BRANCH  73  76
ATOM     76  S   UNL     1      -5.584  -1.890  20.655  1.00  0.00     0.127 S 
ATOM     77  O   UNL     1      -4.600  -0.923  20.169  1.00  0.00    -0.237 OA
ATOM     78  O   UNL     1      -6.704  -1.303  21.390  1.00  0.00    -0.237 OA
ATOM     79  O   UNL     1      -5.026  -3.096  21.252  1.00  0.00    -0.744 OA
ENDBRANCH  73  76
ENDBRANCH  55  69
BRANCH  56  80
ATOM     80  C   UNL     1      -6.788 -13.285  13.685  1.00  0.00     0.023 A 
ATOM     81  C   UNL     1      -7.882 -13.671  12.887  1.00  0.00     0.012 A 
ATOM     82  C   UNL     1      -5.685 -14.150  13.814  1.00  0.00     0.148 A 
ATOM     83  C   UNL     1      -7.876 -14.899  12.226  1.00  0.00     0.002 A 
ATOM     84  C   UNL     1      -5.665 -15.350  13.115  1.00  0.00     0.091 A 
ATOM     85  F   UNL     1      -4.663 -13.761  14.589  1.00  0.00    -0.205 F 
ATOM     86  C   UNL     1      -6.763 -15.731  12.327  1.00  0.00     0.022 A 
BRANCH  84  87
ATOM     87  S   UNL     1      -4.224 -16.422  13.082  1.00  0.00     0.127 S 
ATOM     88  O   UNL     1      -4.698 -17.582  13.832  1.00  0.00    -0.237 OA
ATOM     89  O   UNL     1      -4.048 -16.645  11.647  1.00  0.00    -0.237 OA
ATOM     90  O   UNL     1      -3.152 -15.661  13.708  1.00  0.00    -0.744 OA
ENDBRANCH  84  87
ENDBRANCH  56  80
BRANCH  68  91
ATOM     91  C   UNL     1     -10.262 -10.220  18.924  1.00  0.00     0.023 A 
ATOM     92  C   UNL     1      -9.767 -10.870  20.071  1.00  0.00     0.012 A 
ATOM     93  C   UNL     1     -11.637  -9.943  18.816  1.00  0.00     0.148 A 
ATOM     94  C   UNL     1     -10.632 -11.241  21.099  1.00  0.00     0.002 A 
ATOM     95  C   UNL     1     -12.489 -10.290  19.857  1.00  0.00     0.091 A 
ATOM     96  F   UNL     1     -12.079  -9.330  17.708  1.00  0.00    -0.205 F 
ATOM     97  C   UNL     1     -11.988 -10.942  20.997  1.00  0.00     0.022 A 
BRANCH  95  98
ATOM     98  S   UNL     1     -14.240  -9.890  19.853  1.00  0.00     0.127 S 
ATOM     99  O   UNL     1     -14.849 -11.217  19.773  1.00  0.00    -0.237 OA
ATOM    100  O   UNL     1     -14.406  -9.219  21.142  1.00  0.00    -0.237 OA
ATOM    101  O   UNL     1     -14.457  -9.038  18.691  1.00  0.00    -0.744 OA
ENDBRANCH  95  98
ENDBRANCH  68  91
ENDBRANCH  42  43
ENDBRANCH  34  37
ENDBRANCH  32  33
ENDBRANCH   1  32
TORSDOF 17
