REMARK SMILES O=C(NCCCCNC(=O)[C@@H]1CCC(=O)N1C(=O)/C=C/c1ccccc1)c1ccc(-c2c3nc(c(-c4cccc(S(=O)(=O)[O-])c4F)c4ccc([nH]4)c(-c4cccc(S(=O)(=O)[O-])c4F)c4nc(c(-c5cccc(S(=O)(=O)[O-])c5F)c5ccc2[nH]5)C=C4)C=C3)cc1
REMARK SMILES IDX 5 1 4 2 3 3 1 4 2 5 27 7 28 8 89 9 29 10 88 11 30 12 31 13
REMARK SMILES IDX 32 14 82 15 33 16 87 17 81 18 83 19 34 20 86 21 80 22 79 23
REMARK SMILES IDX 35 25 67 26 47 27 66 28 48 29 51 30 65 31 84 32 49 33 50 34
REMARK SMILES IDX 64 36 85 37 52 38 36 39 37 40 45 41 38 42 40 43 46 44 39 45
REMARK SMILES IDX 41 46 42 47 43 48 44 49 68 50 69 51 77 52 70 53 72 54 78 55
REMARK SMILES IDX 71 56 73 57 74 58 75 59 76 60 53 61 54 62 62 63 55 64 57 65
REMARK SMILES IDX 63 66 56 67 58 68 59 69 60 70 61 71 6 72 7 73 8 74 9 75
REMARK SMILES IDX 10 77 11 78 12 79 16 80 13 81 14 82 15 83 17 84 18 85 19 86
REMARK SMILES IDX 20 87 21 88 22 89 26 90 23 91 25 92 24 93
REMARK H PARENT 3 6 83 24 51 35 8 76
REMARK Flexibility Score: inf
ROOT
ATOM      1  C   UNL     1       4.804  -1.756  -2.099  1.00  0.00     0.023 C 
ENDROOT
BRANCH   1   2
ATOM      2  C   UNL     1       4.513  -0.521  -1.255  1.00  0.00     0.116 C 
BRANCH   2   3
ATOM      3  N   UNL     1       3.094  -0.223  -1.160  1.00  0.00    -0.352 N 
ATOM      4  O   UNL     1       1.128   0.152  -0.122  1.00  0.00    -0.269 OA
ATOM      5  C   UNL     1       2.349   0.070  -0.040  1.00  0.00     0.251 C 
ATOM      6  H   UNL     1       2.598  -0.231  -2.010  1.00  0.00     0.163 HD
BRANCH   5   7
ATOM      7  C   UNL     1       3.033   0.250   1.259  1.00  0.00     0.039 A 
ATOM      8  C   UNL     1       4.183   1.037   1.351  1.00  0.00     0.014 A 
ATOM      9  C   UNL     1       2.528  -0.394   2.392  1.00  0.00     0.014 A 
ATOM     10  C   UNL     1       4.907   1.064   2.537  1.00  0.00     0.010 A 
ATOM     11  C   UNL     1       3.215  -0.299   3.605  1.00  0.00     0.010 A 
ATOM     12  C   UNL     1       4.428   0.403   3.680  1.00  0.00    -0.014 A 
BRANCH  12  13
ATOM     13  C   UNL     1       5.176   0.524   4.957  1.00  0.00     0.031 A 
ATOM     14  C   UNL     1       5.803  -0.672   5.617  1.00  0.00     0.074 A 
ATOM     15  C   UNL     1       5.285   1.742   5.522  1.00  0.00     0.049 A 
ATOM     16  N   UNL     1       6.513  -0.724   6.715  1.00  0.00    -0.248 NA
ATOM     17  C   UNL     1       5.603  -1.981   4.974  1.00  0.00     0.031 C 
ATOM     18  C   UNL     1       4.672   2.967   5.000  1.00  0.00     0.029 A 
ATOM     19  N   UNL     1       5.940   2.156   6.652  1.00  0.00    -0.354 N 
ATOM     20  C   UNL     1       6.810  -2.066   6.919  1.00  0.00     0.074 A 
ATOM     21  C   UNL     1       6.200  -2.800   5.832  1.00  0.00     0.031 C 
ATOM     22  C   UNL     1       4.997   3.995   5.794  1.00  0.00     0.029 A 
ATOM     23  C   UNL     1       5.802   3.500   6.905  1.00  0.00     0.049 A 
ATOM     24  H   UNL     1       6.460   1.549   7.228  1.00  0.00     0.167 HD
ATOM     25  C   UNL     1       7.539  -2.630   7.912  1.00  0.00     0.034 A 
ATOM     26  C   UNL     1       6.260   4.253   7.923  1.00  0.00     0.034 A 
ATOM     27  C   UNL     1       8.181  -1.888   8.966  1.00  0.00     0.049 A 
ATOM     28  C   UNL     1       7.103   3.607   8.983  1.00  0.00     0.074 A 
ATOM     29  C   UNL     1       9.004  -2.363   9.973  1.00  0.00     0.029 A 
ATOM     30  N   UNL     1       8.069  -0.519   9.156  1.00  0.00    -0.354 N 
ATOM     31  N   UNL     1       7.490   2.358   9.078  1.00  0.00    -0.248 NA
ATOM     32  C   UNL     1       7.597   4.476  10.059  1.00  0.00     0.031 C 
ATOM     33  C   UNL     1       9.377  -1.282  10.780  1.00  0.00     0.029 A 
ATOM     34  C   UNL     1       8.799  -0.133  10.268  1.00  0.00     0.049 A 
ATOM     35  H   UNL     1       7.546   0.089   8.585  1.00  0.00     0.167 HD
ATOM     36  C   UNL     1       8.288   2.293  10.213  1.00  0.00     0.074 A 
ATOM     37  C   UNL     1       8.353   3.636  10.754  1.00  0.00     0.031 C 
ATOM     38  C   UNL     1       8.892   1.215  10.769  1.00  0.00     0.034 A 
BRANCH  25  39
ATOM     39  C   UNL     1       7.728  -4.124   7.889  1.00  0.00     0.023 A 
ATOM     40  C   UNL     1       8.627  -4.695   6.966  1.00  0.00     0.012 A 
ATOM     41  C   UNL     1       7.086  -4.953   8.831  1.00  0.00     0.148 A 
ATOM     42  C   UNL     1       8.868  -6.069   6.966  1.00  0.00     0.002 A 
ATOM     43  C   UNL     1       7.359  -6.316   8.848  1.00  0.00     0.091 A 
ATOM     44  F   UNL     1       6.218  -4.395   9.687  1.00  0.00    -0.205 F 
ATOM     45  C   UNL     1       8.244  -6.877   7.913  1.00  0.00     0.022 A 
BRANCH  43  46
ATOM     46  S   UNL     1       6.659  -7.428  10.075  1.00  0.00     0.127 S 
ATOM     47  O   UNL     1       5.666  -8.152   9.283  1.00  0.00    -0.237 OA
ATOM     48  O   UNL     1       7.821  -8.225  10.472  1.00  0.00    -0.237 OA
ATOM     49  O   UNL     1       6.123  -6.575  11.127  1.00  0.00    -0.744 OA
ENDBRANCH  43  46
ENDBRANCH  25  39
BRANCH  26  50
ATOM     50  C   UNL     1       5.965   5.712   7.943  1.00  0.00     0.023 A 
ATOM     51  C   UNL     1       7.000   6.632   7.696  1.00  0.00     0.012 A 
ATOM     52  C   UNL     1       4.652   6.187   8.132  1.00  0.00     0.148 A 
ATOM     53  C   UNL     1       6.737   8.002   7.653  1.00  0.00     0.002 A 
ATOM     54  C   UNL     1       4.386   7.546   8.028  1.00  0.00     0.091 A 
ATOM     55  F   UNL     1       3.683   5.295   8.384  1.00  0.00    -0.205 F 
ATOM     56  C   UNL     1       5.429   8.457   7.804  1.00  0.00     0.022 A 
BRANCH  54  57
ATOM     57  S   UNL     1       2.711   8.194   8.058  1.00  0.00     0.127 S 
ATOM     58  O   UNL     1       2.633   8.761   9.401  1.00  0.00    -0.237 OA
ATOM     59  O   UNL     1       2.743   9.177   6.974  1.00  0.00    -0.237 OA
ATOM     60  O   UNL     1       1.849   7.048   7.797  1.00  0.00    -0.744 OA
ENDBRANCH  54  57
ENDBRANCH  26  50
BRANCH  38  61
ATOM     61  C   UNL     1       9.687   1.441  12.027  1.00  0.00     0.023 A 
ATOM     62  C   UNL     1       9.012   1.666  13.242  1.00  0.00     0.012 A 
ATOM     63  C   UNL     1      11.093   1.368  12.017  1.00  0.00     0.148 A 
ATOM     64  C   UNL     1       9.726   1.845  14.426  1.00  0.00     0.002 A 
ATOM     65  C   UNL     1      11.797   1.504  13.209  1.00  0.00     0.091 A 
ATOM     66  F   UNL     1      11.718   1.176  10.846  1.00  0.00    -0.205 F 
ATOM     67  C   UNL     1      11.116   1.753  14.412  1.00  0.00     0.022 A 
BRANCH  65  68
ATOM     68  S   UNL     1      13.581   1.311  13.293  1.00  0.00     0.127 S 
ATOM     69  O   UNL     1      14.027   2.700  13.390  1.00  0.00    -0.237 OA
ATOM     70  O   UNL     1      13.755   0.527  14.516  1.00  0.00    -0.237 OA
ATOM     71  O   UNL     1      13.962   0.612  12.072  1.00  0.00    -0.744 OA
ENDBRANCH  65  68
ENDBRANCH  38  61
ENDBRANCH  12  13
ENDBRANCH   5   7
ENDBRANCH   2   3
ENDBRANCH   1   2
BRANCH   1  72
ATOM     72  C   UNL     1       4.331  -1.677  -3.552  1.00  0.00     0.023 C 
BRANCH  72  73
ATOM     73  C   UNL     1       4.849  -0.466  -4.322  1.00  0.00     0.116 C 
BRANCH  73  74
ATOM     74  N   UNL     1       6.294  -0.497  -4.457  1.00  0.00    -0.354 N 
ATOM     75  C   UNL     1       7.063  -0.556  -5.580  1.00  0.00     0.243 C 
ATOM     76  H   UNL     1       6.793  -0.471  -3.609  1.00  0.00     0.163 HD
ATOM     77  O   UNL     1       8.287  -0.463  -5.453  1.00  0.00    -0.273 OA
BRANCH  75  78
ATOM     78  C   UNL     1       6.414  -0.744  -6.959  1.00  0.00     0.183 C 
ATOM     79  C   UNL     1       6.901  -2.056  -7.557  1.00  0.00     0.046 C 
ATOM     80  N   UNL     1       6.901   0.287  -7.859  1.00  0.00    -0.266 N 
ATOM     81  C   UNL     1       7.062  -1.746  -9.027  1.00  0.00     0.103 C 
ATOM     82  C   UNL     1       7.411  -0.280  -9.037  1.00  0.00     0.230 C 
ATOM     83  O   UNL     1       7.974   0.264  -9.973  1.00  0.00    -0.274 OA
BRANCH  80  84
ATOM     84  C   UNL     1       6.566   1.606  -7.577  1.00  0.00     0.253 C 
ATOM     85  O   UNL     1       5.801   1.911  -6.660  1.00  0.00    -0.269 OA
BRANCH  84  86
ATOM     86  C   UNL     1       7.164   2.694  -8.378  1.00  0.00     0.072 C 
ATOM     87  C   UNL     1       6.822   2.900  -9.658  1.00  0.00     0.014 C 
BRANCH  87  88
ATOM     88  C   UNL     1       7.311   3.992 -10.519  1.00  0.00    -0.025 A 
ATOM     89  C   UNL     1       6.820   4.071 -11.831  1.00  0.00     0.008 A 
ATOM     90  C   UNL     1       8.247   4.949 -10.104  1.00  0.00     0.008 A 
ATOM     91  C   UNL     1       7.244   5.080 -12.700  1.00  0.00     0.001 A 
ATOM     92  C   UNL     1       8.671   5.960 -10.972  1.00  0.00     0.001 A 
ATOM     93  C   UNL     1       8.169   6.027 -12.269  1.00  0.00     0.000 A 
ENDBRANCH  87  88
ENDBRANCH  84  86
ENDBRANCH  80  84
ENDBRANCH  75  78
ENDBRANCH  73  74
ENDBRANCH  72  73
ENDBRANCH   1  72
TORSDOF 17
