REMARK SMILES C[N@@H+]1CC[N@@H+](C)[C@H](C[NH2+]Cc2ccc(C(=O)NCCCCNC(=O)c3ccc(-c4c5nc(c(-c6cccc(S(=O)(=O)[O-])c6F)c6ccc([nH]6)c(-c6cccc(S(=O)(=O)[O-])c6F)c6nc(c(-c7cccc(S(=O)(=O)[O-])c7F)c7ccc4[nH]7)C=C6)C=C5)cc3)cn2)C1
REMARK SMILES IDX 19 1 18 2 17 3 15 4 16 5 14 7 11 8 12 9 89 10 13 11 88 12
REMARK SMILES IDX 10 13 9 14 8 17 7 18 1 19 2 20 3 21 90 22 4 24 5 25 6 26
REMARK SMILES IDX 20 28 21 29 22 30 23 31 24 33 25 34 26 35 87 36 27 37 86 38
REMARK SMILES IDX 28 39 29 40 30 41 80 42 31 43 85 44 79 45 81 46 32 47 84 48
REMARK SMILES IDX 78 49 77 50 33 52 65 53 45 54 64 55 46 56 49 57 63 58 82 59
REMARK SMILES IDX 47 60 48 61 62 63 83 64 50 65 34 66 35 67 43 68 36 69 38 70
REMARK SMILES IDX 44 71 37 72 39 73 40 74 41 75 42 76 66 77 67 78 75 79 68 80
REMARK SMILES IDX 70 81 76 82 69 83 71 84 72 85 73 86 74 87 51 88 52 89 60 90
REMARK SMILES IDX 53 91 55 92 61 93 54 94 56 95 57 96 58 97 59 98
REMARK H PARENT 17 6 9 15 9 16 2 23 5 27 22 32 81 51 49 62
REMARK Flexibility Score: inf
ROOT
ATOM      1  C   UNL     1      -4.211   6.282  -7.388  1.00  0.00     0.023 C 
ENDROOT
BRANCH   1   2
ATOM      2  C   UNL     1      -2.764   5.833  -7.169  1.00  0.00     0.116 C 
BRANCH   2   3
ATOM      3  N   UNL     1      -2.088   6.722  -6.249  1.00  0.00    -0.352 N 
ATOM      4  C   UNL     1      -2.032   6.763  -4.879  1.00  0.00     0.252 C 
ATOM      5  O   UNL     1      -1.375   7.673  -4.370  1.00  0.00    -0.269 OA
ATOM      6  H   UNL     1      -1.569   7.433  -6.690  1.00  0.00     0.163 HD
BRANCH   4   7
ATOM      7  C   UNL     1      -2.658   5.753  -3.986  1.00  0.00     0.058 A 
ATOM      8  C   UNL     1      -3.395   3.796  -2.180  1.00  0.00     0.094 A 
ATOM      9  C   UNL     1      -3.984   3.812  -3.437  1.00  0.00     0.030 A 
ATOM     10  N   UNL     1      -2.559   4.775  -1.757  1.00  0.00    -0.255 NA
ATOM     11  C   UNL     1      -3.626   4.814  -4.333  1.00  0.00     0.017 A 
ATOM     12  C   UNL     1      -2.202   5.713  -2.671  1.00  0.00     0.125 A 
BRANCH   8  13
ATOM     13  C   UNL     1      -3.562   2.576  -1.305  1.00  0.00     0.318 C 
BRANCH  13  14
ATOM     14  N   UNL     1      -2.324   1.794  -1.260  1.00  0.00    -0.336 N 
ATOM     15  H   UNL     1      -2.558   0.802  -1.225  1.00  0.00     0.346 HD
ATOM     16  H   UNL     1      -1.778   2.007  -2.095  1.00  0.00     0.346 HD
BRANCH  14  17
ATOM     17  C   UNL     1      -1.516   2.138  -0.076  1.00  0.00     0.332 C 
BRANCH  17  18
ATOM     18  C   UNL     1      -0.723   0.903   0.458  1.00  0.00     0.295 C 
ATOM     19  C   UNL     1       2.897  -0.107  -0.199  1.00  0.00     0.333 C 
ATOM     20  N   UNL     1       1.535  -0.200   0.315  1.00  0.00    -0.328 N 
ATOM     21  C   UNL     1       0.868  -1.423  -0.158  1.00  0.00     0.324 C 
ATOM     22  C   UNL     1       0.725   0.957  -0.121  1.00  0.00     0.334 C 
ATOM     23  H   UNL     1       1.606  -0.215   1.332  1.00  0.00     0.348 HD
ATOM     24  C   UNL     1      -0.548  -1.542   0.443  1.00  0.00     0.324 C 
ATOM     25  N   UNL     1      -1.431  -0.390   0.160  1.00  0.00    -0.321 N 
ATOM     26  C   UNL     1      -2.667  -0.531   0.939  1.00  0.00     0.333 C 
ATOM     27  H   UNL     1      -1.674  -0.373  -0.830  1.00  0.00     0.348 HD
ENDBRANCH  17  18
ENDBRANCH  14  17
ENDBRANCH  13  14
ENDBRANCH   8  13
ENDBRANCH   4   7
ENDBRANCH   2   3
ENDBRANCH   1   2
BRANCH   1  28
ATOM     28  C   UNL     1      -4.367   7.437  -8.379  1.00  0.00     0.023 C 
BRANCH  28  29
ATOM     29  C   UNL     1      -3.874   7.139  -9.790  1.00  0.00     0.116 C 
BRANCH  29  30
ATOM     30  N   UNL     1      -4.455   5.932 -10.361  1.00  0.00    -0.352 N 
ATOM     31  C   UNL     1      -4.649   5.627 -11.687  1.00  0.00     0.251 C 
ATOM     32  H   UNL     1      -4.746   5.248  -9.716  1.00  0.00     0.163 HD
ATOM     33  O   UNL     1      -5.243   4.606 -12.007  1.00  0.00    -0.269 OA
BRANCH  31  34
ATOM     34  C   UNL     1      -4.171   6.575 -12.714  1.00  0.00     0.039 A 
ATOM     35  C   UNL     1      -5.068   7.006 -13.693  1.00  0.00     0.014 A 
ATOM     36  C   UNL     1      -2.867   7.074 -12.674  1.00  0.00     0.014 A 
ATOM     37  C   UNL     1      -4.674   7.994 -14.595  1.00  0.00     0.010 A 
ATOM     38  C   UNL     1      -2.500   8.108 -13.530  1.00  0.00     0.010 A 
ATOM     39  C   UNL     1      -3.400   8.579 -14.496  1.00  0.00    -0.014 A 
BRANCH  39  40
ATOM     40  C   UNL     1      -3.016   9.713 -15.371  1.00  0.00     0.031 A 
ATOM     41  C   UNL     1      -1.893   9.572 -16.360  1.00  0.00     0.074 A 
ATOM     42  C   UNL     1      -3.634  10.901 -15.215  1.00  0.00     0.049 A 
ATOM     43  N   UNL     1      -1.428  10.453 -17.206  1.00  0.00    -0.248 NA
ATOM     44  C   UNL     1      -1.181   8.284 -16.384  1.00  0.00     0.031 C 
ATOM     45  C   UNL     1      -4.667  11.191 -14.216  1.00  0.00     0.029 A 
ATOM     46  N   UNL     1      -3.471  12.090 -15.878  1.00  0.00    -0.354 N 
ATOM     47  C   UNL     1      -0.355   9.841 -17.842  1.00  0.00     0.074 A 
ATOM     48  C   UNL     1      -0.213   8.525 -17.256  1.00  0.00     0.031 C 
ATOM     49  C   UNL     1      -5.052  12.471 -14.341  1.00  0.00     0.029 A 
ATOM     50  C   UNL     1      -4.285  13.097 -15.413  1.00  0.00     0.049 A 
ATOM     51  H   UNL     1      -2.832  12.212 -16.616  1.00  0.00     0.167 HD
ATOM     52  C   UNL     1       0.419  10.317 -18.846  1.00  0.00     0.034 A 
ATOM     53  C   UNL     1      -4.406  14.378 -15.813  1.00  0.00     0.034 A 
ATOM     54  C   UNL     1       0.244  11.608 -19.453  1.00  0.00     0.049 A 
ATOM     55  C   UNL     1      -3.581  14.858 -16.975  1.00  0.00     0.074 A 
ATOM     56  C   UNL     1       0.910  12.145 -20.541  1.00  0.00     0.029 A 
ATOM     57  N   UNL     1      -0.656  12.570 -19.022  1.00  0.00    -0.354 N 
ATOM     58  N   UNL     1      -2.700  14.200 -17.689  1.00  0.00    -0.248 NA
ATOM     59  C   UNL     1      -3.797  16.244 -17.413  1.00  0.00     0.031 C 
ATOM     60  C   UNL     1       0.421  13.439 -20.758  1.00  0.00     0.029 A 
ATOM     61  C   UNL     1      -0.560  13.701 -19.815  1.00  0.00     0.049 A 
ATOM     62  H   UNL     1      -1.273  12.465 -18.262  1.00  0.00     0.167 HD
ATOM     63  C   UNL     1      -2.276  15.081 -18.677  1.00  0.00     0.074 A 
ATOM     64  C   UNL     1      -3.022  16.309 -18.488  1.00  0.00     0.031 C 
ATOM     65  C   UNL     1      -1.340  14.899 -19.642  1.00  0.00     0.034 A 
BRANCH  52  66
ATOM     66  C   UNL     1       1.484   9.405 -19.397  1.00  0.00     0.023 A 
ATOM     67  C   UNL     1       1.104   8.291 -20.175  1.00  0.00     0.012 A 
ATOM     68  C   UNL     1       2.851   9.672 -19.196  1.00  0.00     0.148 A 
ATOM     69  C   UNL     1       2.065   7.439 -20.716  1.00  0.00     0.002 A 
ATOM     70  C   UNL     1       3.806   8.842 -19.774  1.00  0.00     0.091 A 
ATOM     71  F   UNL     1       3.194  10.720 -18.434  1.00  0.00    -0.205 F 
ATOM     72  C   UNL     1       3.415   7.721 -20.525  1.00  0.00     0.022 A 
BRANCH  70  73
ATOM     73  S   UNL     1       5.569   9.161 -19.650  1.00  0.00     0.127 S 
ATOM     74  O   UNL     1       5.995   8.109 -18.728  1.00  0.00    -0.237 OA
ATOM     75  O   UNL     1       6.015   8.976 -21.032  1.00  0.00    -0.237 OA
ATOM     76  O   UNL     1       5.696  10.522 -19.150  1.00  0.00    -0.744 OA
ENDBRANCH  70  73
ENDBRANCH  52  66
BRANCH  53  77
ATOM     77  C   UNL     1      -5.410  15.266 -15.163  1.00  0.00     0.023 A 
ATOM     78  C   UNL     1      -6.561  15.645 -15.882  1.00  0.00     0.012 A 
ATOM     79  C   UNL     1      -5.253  15.707 -13.836  1.00  0.00     0.148 A 
ATOM     80  C   UNL     1      -7.522  16.473 -15.300  1.00  0.00     0.002 A 
ATOM     81  C   UNL     1      -6.241  16.486 -13.244  1.00  0.00     0.091 A 
ATOM     82  F   UNL     1      -4.145  15.347 -13.173  1.00  0.00    -0.205 F 
ATOM     83  C   UNL     1      -7.368  16.884 -13.980  1.00  0.00     0.022 A 
BRANCH  81  84
ATOM     84  S   UNL     1      -6.189  16.946 -11.508  1.00  0.00     0.127 S 
ATOM     85  O   UNL     1      -5.847  18.364 -11.584  1.00  0.00    -0.237 OA
ATOM     86  O   UNL     1      -7.559  16.663 -11.077  1.00  0.00    -0.237 OA
ATOM     87  O   UNL     1      -5.184  16.080 -10.907  1.00  0.00    -0.744 OA
ENDBRANCH  81  84
ENDBRANCH  53  77
BRANCH  65  88
ATOM     88  C   UNL     1      -1.077  16.052 -20.575  1.00  0.00     0.023 A 
ATOM     89  C   UNL     1      -0.391  17.188 -20.102  1.00  0.00     0.012 A 
ATOM     90  C   UNL     1      -1.459  15.990 -21.929  1.00  0.00     0.148 A 
ATOM     91  C   UNL     1      -0.125  18.261 -20.951  1.00  0.00     0.002 A 
ATOM     92  C   UNL     1      -1.148  17.044 -22.781  1.00  0.00     0.091 A 
ATOM     93  F   UNL     1      -2.130  14.911 -22.358  1.00  0.00    -0.205 F 
ATOM     94  C   UNL     1      -0.493  18.185 -22.291  1.00  0.00     0.022 A 
BRANCH  92  95
ATOM     95  S   UNL     1      -1.504  16.985 -24.541  1.00  0.00     0.127 S 
ATOM     96  O   UNL     1      -2.700  17.821 -24.633  1.00  0.00    -0.237 OA
ATOM     97  O   UNL     1      -0.300  17.577 -25.126  1.00  0.00    -0.237 OA
ATOM     98  O   UNL     1      -1.694  15.576 -24.859  1.00  0.00    -0.744 OA
ENDBRANCH  92  95
ENDBRANCH  65  88
ENDBRANCH  39  40
ENDBRANCH  31  34
ENDBRANCH  29  30
ENDBRANCH  28  29
ENDBRANCH   1  28
TORSDOF 18
