REMARK SMILES Cc1c(Cl)cccc1NC(=O)C[C@H](C(=O)NCCCCNC(=O)c1ccc(-c2c3nc(c(-c4cccc(S(=O)(=O)[O-])c4F)c4ccc([nH]4)c(-c4cccc(S(=O)(=O)[O-])c4F)c4nc(c(-c5cccc(S(=O)(=O)[O-])c5F)c5ccc2[nH]5)C=C4)C=C3)cc1)[C@H](C)c1ccccc1
REMARK SMILES IDX 18 1 17 2 16 3 14 4 15 5 13 7 12 8 10 9 9 10 11 12 8 13 1 14
REMARK SMILES IDX 2 15 3 16 4 17 5 18 7 19 6 20 87 21 88 22 89 23 90 24 94 25
REMARK SMILES IDX 91 26 93 27 92 28 19 29 20 30 21 31 22 32 23 34 24 35 25 36
REMARK SMILES IDX 86 37 26 38 85 39 27 40 28 41 29 42 79 43 30 44 84 45 78 46
REMARK SMILES IDX 80 47 31 48 83 49 77 50 76 51 32 53 64 54 44 55 63 56 45 57
REMARK SMILES IDX 48 58 62 59 81 60 46 61 47 62 61 64 82 65 49 66 33 67 34 68
REMARK SMILES IDX 42 69 35 70 37 71 43 72 36 73 38 74 39 75 40 76 41 77 65 78
REMARK SMILES IDX 66 79 74 80 67 81 69 82 75 83 68 84 70 85 71 86 72 87 73 88
REMARK SMILES IDX 50 89 51 90 59 91 52 92 54 93 60 94 53 95 55 96 56 97 57 98
REMARK SMILES IDX 58 99
REMARK H PARENT 16 6 9 11 21 33 80 52 48 63
REMARK Flexibility Score: inf
ROOT
ATOM      1  C   UNL     1      -5.784  -4.236  -0.376  1.00  0.00     0.023 C 
ENDROOT
BRANCH   1   2
ATOM      2  C   UNL     1      -7.051  -3.678  -1.022  1.00  0.00     0.116 C 
BRANCH   2   3
ATOM      3  N   UNL     1      -7.577  -2.558  -0.291  1.00  0.00    -0.356 N 
ATOM      4  C   UNL     1      -7.508  -1.226  -0.490  1.00  0.00     0.224 C 
ATOM      5  O   UNL     1      -8.301  -0.582   0.211  1.00  0.00    -0.275 OA
ATOM      6  H   UNL     1      -8.088  -2.813   0.511  1.00  0.00     0.163 HD
BRANCH   4   7
ATOM      7  C   UNL     1      -6.619  -0.501  -1.541  1.00  0.00     0.095 C 
BRANCH   7   8
ATOM      8  C   UNL     1      -6.841   1.007  -1.270  1.00  0.00     0.114 C 
BRANCH   8   9
ATOM      9  C   UNL     1      -6.264   1.873  -0.129  1.00  0.00     0.225 C 
ATOM     10  N   UNL     1      -6.097   1.642   1.197  1.00  0.00    -0.326 N 
ATOM     11  H   UNL     1      -6.063   2.497   1.684  1.00  0.00     0.169 HD
ATOM     12  O   UNL     1      -6.040   3.063  -0.439  1.00  0.00    -0.275 OA
BRANCH  10  13
ATOM     13  C   UNL     1      -5.957   0.567   2.104  1.00  0.00     0.045 A 
ATOM     14  C   UNL     1      -6.281   2.119   4.140  1.00  0.00     0.048 C 
ATOM     15  C   UNL     1      -6.099   0.764   3.502  1.00  0.00    -0.009 A 
ATOM     16  C   UNL     1      -5.989  -0.355   4.372  1.00  0.00     0.046 A 
ATOM     17  Cl  UNL     1      -6.203  -0.214   6.086  1.00  0.00    -0.084 Cl
ATOM     18  C   UNL     1      -5.663  -1.619   3.893  1.00  0.00     0.021 A 
ATOM     19  C   UNL     1      -5.539  -0.687   1.683  1.00  0.00     0.026 A 
ATOM     20  C   UNL     1      -5.391  -1.770   2.549  1.00  0.00     0.004 A 
ENDBRANCH  10  13
ENDBRANCH   8   9
ENDBRANCH   7   8
BRANCH   7  21
ATOM     21  C   UNL     1      -5.114  -0.894  -1.823  1.00  0.00     0.029 C 
ATOM     22  C   UNL     1      -4.074   0.220  -1.561  1.00  0.00     0.013 C 
BRANCH  21  23
ATOM     23  C   UNL     1      -4.808  -1.484  -3.220  1.00  0.00    -0.044 A 
ATOM     24  C   UNL     1      -4.667  -2.872  -3.377  1.00  0.00     0.004 A 
ATOM     25  C   UNL     1      -4.500  -0.697  -4.339  1.00  0.00     0.004 A 
ATOM     26  C   UNL     1      -4.292  -3.469  -4.580  1.00  0.00     0.000 A 
ATOM     27  C   UNL     1      -4.060  -1.285  -5.537  1.00  0.00     0.000 A 
ATOM     28  C   UNL     1      -3.970  -2.670  -5.662  1.00  0.00     0.000 A 
ENDBRANCH  21  23
ENDBRANCH   7  21
ENDBRANCH   4   7
ENDBRANCH   2   3
ENDBRANCH   1   2
BRANCH   1  29
ATOM     29  C   UNL     1      -5.993  -5.037   0.902  1.00  0.00     0.023 C 
BRANCH  29  30
ATOM     30  C   UNL     1      -6.786  -6.316   0.718  1.00  0.00     0.116 C 
BRANCH  30  31
ATOM     31  N   UNL     1      -6.263  -7.187  -0.328  1.00  0.00    -0.352 N 
ATOM     32  C   UNL     1      -6.189  -8.559  -0.333  1.00  0.00     0.251 C 
ATOM     33  H   UNL     1      -5.918  -6.735  -1.132  1.00  0.00     0.163 HD
ATOM     34  O   UNL     1      -5.629  -9.149  -1.252  1.00  0.00    -0.269 OA
BRANCH  32  35
ATOM     35  C   UNL     1      -6.764  -9.300   0.805  1.00  0.00     0.039 A 
ATOM     36  C   UNL     1      -5.992 -10.272   1.442  1.00  0.00     0.014 A 
ATOM     37  C   UNL     1      -8.029  -8.961   1.289  1.00  0.00     0.014 A 
ATOM     38  C   UNL     1      -6.469 -10.858   2.615  1.00  0.00     0.010 A 
ATOM     39  C   UNL     1      -8.450  -9.465   2.510  1.00  0.00     0.010 A 
ATOM     40  C   UNL     1      -7.683 -10.430   3.177  1.00  0.00    -0.014 A 
BRANCH  40  41
ATOM     41  C   UNL     1      -8.186 -10.986   4.455  1.00  0.00     0.031 A 
ATOM     42  C   UNL     1      -9.508 -11.704   4.484  1.00  0.00     0.074 A 
ATOM     43  C   UNL     1      -7.506 -10.760   5.597  1.00  0.00     0.049 A 
ATOM     44  N   UNL     1     -10.156 -12.196   5.506  1.00  0.00    -0.248 NA
ATOM     45  C   UNL     1     -10.216 -11.857   3.199  1.00  0.00     0.031 C 
ATOM     46  C   UNL     1      -6.260  -9.996   5.707  1.00  0.00     0.029 A 
ATOM     47  N   UNL     1      -7.781 -11.129   6.889  1.00  0.00    -0.354 N 
ATOM     48  C   UNL     1     -11.359 -12.672   4.998  1.00  0.00     0.074 A 
ATOM     49  C   UNL     1     -11.373 -12.374   3.585  1.00  0.00     0.031 C 
ATOM     50  C   UNL     1      -5.875  -9.964   6.993  1.00  0.00     0.029 A 
ATOM     51  C   UNL     1      -6.857 -10.677   7.802  1.00  0.00     0.049 A 
ATOM     52  H   UNL     1      -8.566 -11.668   7.139  1.00  0.00     0.167 HD
ATOM     53  C   UNL     1     -12.348 -13.332   5.644  1.00  0.00     0.034 A 
ATOM     54  C   UNL     1      -6.811 -10.821   9.141  1.00  0.00     0.034 A 
ATOM     55  C   UNL     1     -12.296 -13.684   7.035  1.00  0.00     0.049 A 
ATOM     56  C   UNL     1      -7.893 -11.616   9.822  1.00  0.00     0.074 A 
ATOM     57  C   UNL     1     -13.193 -14.444   7.763  1.00  0.00     0.029 A 
ATOM     58  N   UNL     1     -11.291 -13.300   7.909  1.00  0.00    -0.354 N 
ATOM     59  N   UNL     1      -8.938 -12.208   9.294  1.00  0.00    -0.248 NA
ATOM     60  C   UNL     1      -7.771 -11.797  11.275  1.00  0.00     0.031 C 
ATOM     61  C   UNL     1     -12.740 -14.503   9.084  1.00  0.00     0.029 A 
ATOM     62  C   UNL     1     -11.549 -13.801   9.172  1.00  0.00     0.049 A 
ATOM     63  H   UNL     1     -10.511 -12.751   7.666  1.00  0.00     0.167 HD
ATOM     64  C   UNL     1      -9.574 -12.863  10.342  1.00  0.00     0.074 A 
ATOM     65  C   UNL     1      -8.785 -12.613  11.531  1.00  0.00     0.031 C 
ATOM     66  C   UNL     1     -10.716 -13.593  10.328  1.00  0.00     0.034 A 
BRANCH  53  67
ATOM     67  C   UNL     1     -13.540 -13.775   4.838  1.00  0.00     0.023 A 
ATOM     68  C   UNL     1     -13.402 -14.827   3.911  1.00  0.00     0.012 A 
ATOM     69  C   UNL     1     -14.807 -13.197   5.045  1.00  0.00     0.148 A 
ATOM     70  C   UNL     1     -14.499 -15.278   3.179  1.00  0.00     0.002 A 
ATOM     71  C   UNL     1     -15.906 -13.683   4.346  1.00  0.00     0.091 A 
ATOM     72  F   UNL     1     -14.913 -12.182   5.914  1.00  0.00    -0.205 F 
ATOM     73  C   UNL     1     -15.751 -14.715   3.405  1.00  0.00     0.022 A 
BRANCH  71  74
ATOM     74  S   UNL     1     -17.576 -13.082   4.622  1.00  0.00     0.127 S 
ATOM     75  O   UNL     1     -17.853 -12.394   3.361  1.00  0.00    -0.237 OA
ATOM     76  O   UNL     1     -18.321 -14.327   4.813  1.00  0.00    -0.237 OA
ATOM     77  O   UNL     1     -17.507 -12.226   5.797  1.00  0.00    -0.744 OA
ENDBRANCH  71  74
ENDBRANCH  53  67
BRANCH  54  78
ATOM     78  C   UNL     1      -5.667 -10.266   9.919  1.00  0.00     0.023 A 
ATOM     79  C   UNL     1      -4.739 -11.148  10.507  1.00  0.00     0.012 A 
ATOM     80  C   UNL     1      -5.483  -8.878  10.070  1.00  0.00     0.148 A 
ATOM     81  C   UNL     1      -3.673 -10.661  11.264  1.00  0.00     0.002 A 
ATOM     82  C   UNL     1      -4.388  -8.398  10.779  1.00  0.00     0.091 A 
ATOM     83  F   UNL     1      -6.382  -8.054   9.514  1.00  0.00    -0.205 F 
ATOM     84  C   UNL     1      -3.492  -9.287  11.393  1.00  0.00     0.022 A 
BRANCH  82  85
ATOM     85  S   UNL     1      -4.005  -6.646  10.880  1.00  0.00     0.127 S 
ATOM     86  O   UNL     1      -4.382  -6.336  12.256  1.00  0.00    -0.237 OA
ATOM     87  O   UNL     1      -2.566  -6.633  10.616  1.00  0.00    -0.237 OA
ATOM     88  O   UNL     1      -4.807  -6.013   9.840  1.00  0.00    -0.744 OA
ENDBRANCH  82  85
ENDBRANCH  54  78
BRANCH  66  89
ATOM     89  C   UNL     1     -11.165 -14.215  11.623  1.00  0.00     0.023 A 
ATOM     90  C   UNL     1     -11.707 -13.404  12.639  1.00  0.00     0.012 A 
ATOM     91  C   UNL     1     -11.126 -15.612  11.796  1.00  0.00     0.148 A 
ATOM     92  C   UNL     1     -12.175 -13.973  13.822  1.00  0.00     0.002 A 
ATOM     93  C   UNL     1     -11.640 -16.176  12.956  1.00  0.00     0.091 A 
ATOM     94  F   UNL     1     -10.589 -16.363  10.823  1.00  0.00    -0.205 F 
ATOM     95  C   UNL     1     -12.154 -15.358  13.975  1.00  0.00     0.022 A 
BRANCH  93  96
ATOM     96  S   UNL     1     -11.747 -17.953  13.195  1.00  0.00     0.127 S 
ATOM     97  O   UNL     1     -10.695 -18.184  14.183  1.00  0.00    -0.237 OA
ATOM     98  O   UNL     1     -13.109 -18.117  13.703  1.00  0.00    -0.237 OA
ATOM     99  O   UNL     1     -11.516 -18.548  11.885  1.00  0.00    -0.744 OA
ENDBRANCH  93  96
ENDBRANCH  66  89
ENDBRANCH  40  41
ENDBRANCH  32  35
ENDBRANCH  30  31
ENDBRANCH  29  30
ENDBRANCH   1  29
TORSDOF 19
