REMARK SMILES C[C@H](O)[C@H](NC(=O)C[NH3+])C(=O)NCCCCNC(=O)c1ccc(-c2c3nc(c(-c4cccc(S(=O)(=O)[O-])c4F)c4ccc([nH]4)c(-c4cccc(S(=O)(=O)[O-])c4F)c4nc(c(-c5cccc(S(=O)(=O)[O-])c5F)c5ccc2[nH]5)C=C4)C=C3)cc1
REMARK SMILES IDX 14 1 13 2 12 3 10 4 11 5 4 7 2 8 1 9 3 10 5 12 6 13 7 15
REMARK SMILES IDX 8 16 9 17 15 21 16 22 17 23 18 24 19 26 20 27 21 28 82 29
REMARK SMILES IDX 22 30 81 31 23 32 24 33 25 34 75 35 26 36 80 37 74 38 76 39
REMARK SMILES IDX 27 40 79 41 73 42 72 43 28 45 60 46 40 47 59 48 41 49 44 50
REMARK SMILES IDX 58 51 77 52 42 53 43 54 57 56 78 57 45 58 29 59 30 60 38 61
REMARK SMILES IDX 31 62 33 63 39 64 32 65 34 66 35 67 36 68 37 69 61 70 62 71
REMARK SMILES IDX 70 72 63 73 65 74 71 75 64 76 66 77 67 78 68 79 69 80 46 81
REMARK SMILES IDX 47 82 55 83 48 84 50 85 56 86 49 87 51 88 52 89 53 90 54 91
REMARK H PARENT 12 6 3 11 5 14 9 18 9 19 9 20 17 25 76 44 44 55
REMARK Flexibility Score: inf
ROOT
ATOM      1  C   UNL     1       1.182   2.369  -4.215  1.00  0.00     0.023 C 
ENDROOT
BRANCH   1   2
ATOM      2  C   UNL     1      -0.053   2.441  -3.324  1.00  0.00     0.116 C 
BRANCH   2   3
ATOM      3  N   UNL     1      -1.097   1.490  -3.663  1.00  0.00    -0.354 N 
ATOM      4  C   UNL     1      -1.594   0.441  -2.947  1.00  0.00     0.245 C 
ATOM      5  O   UNL     1      -2.649  -0.066  -3.337  1.00  0.00    -0.273 OA
ATOM      6  H   UNL     1      -1.510   1.623  -4.546  1.00  0.00     0.163 HD
BRANCH   4   7
ATOM      7  C   UNL     1      -0.953  -0.000  -1.628  1.00  0.00     0.200 C 
BRANCH   7   8
ATOM      8  C   UNL     1      -1.534   0.824  -0.430  1.00  0.00     0.143 C 
ATOM      9  C   UNL     1      -1.943   2.282  -0.665  1.00  0.00     0.041 C 
BRANCH   8  10
ATOM     10  O   UNL     1      -0.605   0.810   0.672  1.00  0.00    -0.391 OA
ATOM     11  H   UNL     1       0.200   1.290   0.423  1.00  0.00     0.211 HD
ENDBRANCH   8  10
ENDBRANCH   7   8
BRANCH   7  12
ATOM     12  N   UNL     1       0.516  -0.027  -1.610  1.00  0.00    -0.337 N 
ATOM     13  C   UNL     1       1.366  -0.760  -2.390  1.00  0.00     0.275 C 
ATOM     14  H   UNL     1       0.945   0.561  -0.947  1.00  0.00     0.164 HD
ATOM     15  O   UNL     1       2.500  -0.961  -1.945  1.00  0.00    -0.268 OA
BRANCH  13  16
ATOM     16  C   UNL     1       0.987  -1.196  -3.811  1.00  0.00     0.360 C 
BRANCH  16  17
ATOM     17  N   UNL     1      -0.004  -2.275  -3.825  1.00  0.00    -0.350 N 
ATOM     18  H   UNL     1       0.383  -3.097  -3.360  1.00  0.00     0.344 HD
ATOM     19  H   UNL     1      -0.239  -2.509  -4.789  1.00  0.00     0.344 HD
ATOM     20  H   UNL     1      -0.845  -1.971  -3.334  1.00  0.00     0.344 HD
ENDBRANCH  16  17
ENDBRANCH  13  16
ENDBRANCH   7  12
ENDBRANCH   4   7
ENDBRANCH   2   3
ENDBRANCH   1   2
BRANCH   1  21
ATOM     21  C   UNL     1       0.887   2.358  -5.710  1.00  0.00     0.023 C 
BRANCH  21  22
ATOM     22  C   UNL     1      -0.013   3.495  -6.165  1.00  0.00     0.116 C 
BRANCH  22  23
ATOM     23  N   UNL     1       0.531   4.795  -5.800  1.00  0.00    -0.352 N 
ATOM     24  C   UNL     1       0.856   5.844  -6.622  1.00  0.00     0.251 C 
ATOM     25  H   UNL     1       0.688   4.939  -4.839  1.00  0.00     0.163 HD
ATOM     26  O   UNL     1       1.522   6.780  -6.202  1.00  0.00    -0.269 OA
BRANCH  24  27
ATOM     27  C   UNL     1       0.389   5.808  -8.020  1.00  0.00     0.039 A 
ATOM     28  C   UNL     1       1.287   6.093  -9.049  1.00  0.00     0.014 A 
ATOM     29  C   UNL     1      -0.930   5.439  -8.300  1.00  0.00     0.014 A 
ATOM     30  C   UNL     1       0.867   5.962 -10.371  1.00  0.00     0.010 A 
ATOM     31  C   UNL     1      -1.311   5.209  -9.612  1.00  0.00     0.010 A 
ATOM     32  C   UNL     1      -0.425   5.492 -10.661  1.00  0.00    -0.014 A 
BRANCH  32  33
ATOM     33  C   UNL     1      -0.887   5.311 -12.057  1.00  0.00     0.031 A 
ATOM     34  C   UNL     1      -2.067   6.100 -12.558  1.00  0.00     0.074 A 
ATOM     35  C   UNL     1      -0.303   4.382 -12.838  1.00  0.00     0.049 A 
ATOM     36  N   UNL     1      -2.663   6.042 -13.719  1.00  0.00    -0.248 NA
ATOM     37  C   UNL     1      -2.679   7.057 -11.619  1.00  0.00     0.031 C 
ATOM     38  C   UNL     1       0.795   3.501 -12.431  1.00  0.00     0.029 A 
ATOM     39  N   UNL     1      -0.567   4.006 -14.130  1.00  0.00    -0.354 N 
ATOM     40  C   UNL     1      -3.739   6.918 -13.635  1.00  0.00     0.074 A 
ATOM     41  C   UNL     1      -3.742   7.461 -12.297  1.00  0.00     0.031 C 
ATOM     42  C   UNL     1       1.117   2.697 -13.456  1.00  0.00     0.029 A 
ATOM     43  C   UNL     1       0.229   2.979 -14.579  1.00  0.00     0.049 A 
ATOM     44  H   UNL     1      -1.261   4.432 -14.684  1.00  0.00     0.167 HD
ATOM     45  C   UNL     1      -4.624   7.266 -14.598  1.00  0.00     0.034 A 
ATOM     46  C   UNL     1       0.233   2.332 -15.760  1.00  0.00     0.034 A 
ATOM     47  C   UNL     1      -4.585   6.752 -15.938  1.00  0.00     0.049 A 
ATOM     48  C   UNL     1      -0.739   2.762 -16.825  1.00  0.00     0.074 A 
ATOM     49  C   UNL     1      -5.377   7.102 -17.017  1.00  0.00     0.029 A 
ATOM     50  N   UNL     1      -3.713   5.770 -16.382  1.00  0.00    -0.354 N 
ATOM     51  N   UNL     1      -1.650   3.704 -16.778  1.00  0.00    -0.248 NA
ATOM     52  C   UNL     1      -0.659   2.067 -18.117  1.00  0.00     0.031 C 
ATOM     53  C   UNL     1      -5.005   6.306 -18.104  1.00  0.00     0.029 A 
ATOM     54  C   UNL     1      -3.954   5.491 -17.715  1.00  0.00     0.049 A 
ATOM     55  H   UNL     1      -3.023   5.336 -15.830  1.00  0.00     0.167 HD
ATOM     56  C   UNL     1      -2.226   3.741 -18.043  1.00  0.00     0.074 A 
ATOM     57  C   UNL     1      -1.545   2.740 -18.839  1.00  0.00     0.031 C 
ATOM     58  C   UNL     1      -3.233   4.524 -18.502  1.00  0.00     0.034 A 
BRANCH  45  59
ATOM     59  C   UNL     1      -5.679   8.282 -14.245  1.00  0.00     0.023 A 
ATOM     60  C   UNL     1      -5.309   9.623 -14.009  1.00  0.00     0.012 A 
ATOM     61  C   UNL     1      -7.039   7.922 -14.191  1.00  0.00     0.148 A 
ATOM     62  C   UNL     1      -6.270  10.580 -13.687  1.00  0.00     0.002 A 
ATOM     63  C   UNL     1      -7.997   8.892 -13.919  1.00  0.00     0.091 A 
ATOM     64  F   UNL     1      -7.370   6.639 -14.395  1.00  0.00    -0.205 F 
ATOM     65  C   UNL     1      -7.614  10.217 -13.653  1.00  0.00     0.022 A 
BRANCH  63  66
ATOM     66  S   UNL     1      -9.759   8.546 -13.933  1.00  0.00     0.127 S 
ATOM     67  O   UNL     1     -10.097   8.685 -12.517  1.00  0.00    -0.237 OA
ATOM     68  O   UNL     1     -10.274   9.614 -14.790  1.00  0.00    -0.237 OA
ATOM     69  O   UNL     1      -9.902   7.204 -14.479  1.00  0.00    -0.744 OA
ENDBRANCH  63  66
ENDBRANCH  45  59
BRANCH  46  70
ATOM     70  C   UNL     1       1.227   1.252 -16.017  1.00  0.00     0.023 A 
ATOM     71  C   UNL     1       2.264   1.470 -16.946  1.00  0.00     0.012 A 
ATOM     72  C   UNL     1       1.168   0.024 -15.331  1.00  0.00     0.148 A 
ATOM     73  C   UNL     1       3.200   0.471 -17.215  1.00  0.00     0.002 A 
ATOM     74  C   UNL     1       2.138  -0.945 -15.560  1.00  0.00     0.091 A 
ATOM     75  F   UNL     1       0.171  -0.166 -14.456  1.00  0.00    -0.205 F 
ATOM     76  C   UNL     1       3.143  -0.732 -16.516  1.00  0.00     0.022 A 
BRANCH  74  77
ATOM     77  S   UNL     1       2.220  -2.468 -14.613  1.00  0.00     0.127 S 
ATOM     78  O   UNL     1       1.860  -3.465 -15.617  1.00  0.00    -0.237 OA
ATOM     79  O   UNL     1       3.623  -2.488 -14.198  1.00  0.00    -0.237 OA
ATOM     80  O   UNL     1       1.273  -2.303 -13.518  1.00  0.00    -0.744 OA
ENDBRANCH  74  77
ENDBRANCH  46  70
BRANCH  58  81
ATOM     81  C   UNL     1      -3.635   4.368 -19.945  1.00  0.00     0.023 A 
ATOM     82  C   UNL     1      -4.331   3.217 -20.363  1.00  0.00     0.012 A 
ATOM     83  C   UNL     1      -3.391   5.404 -20.868  1.00  0.00     0.148 A 
ATOM     84  C   UNL     1      -4.747   3.085 -21.687  1.00  0.00     0.002 A 
ATOM     85  C   UNL     1      -3.857   5.290 -22.171  1.00  0.00     0.091 A 
ATOM     86  F   UNL     1      -2.713   6.484 -20.452  1.00  0.00    -0.205 F 
ATOM     87  C   UNL     1      -4.522   4.125 -22.586  1.00  0.00     0.022 A 
BRANCH  85  88
ATOM     88  S   UNL     1      -3.704   6.619 -23.369  1.00  0.00     0.127 S 
ATOM     89  O   UNL     1      -2.719   6.069 -24.299  1.00  0.00    -0.237 OA
ATOM     90  O   UNL     1      -5.063   6.710 -23.902  1.00  0.00    -0.237 OA
ATOM     91  O   UNL     1      -3.268   7.789 -22.619  1.00  0.00    -0.744 OA
ENDBRANCH  85  88
ENDBRANCH  58  81
ENDBRANCH  32  33
ENDBRANCH  24  27
ENDBRANCH  22  23
ENDBRANCH  21  22
ENDBRANCH   1  21
TORSDOF 19
