REMARK SMILES CCSc1cccc(-c2ccc([C@@H](C)C(=O)NCCCCNC(=O)c3ccc(-c4c5nc(c(-c6cccc(S(=O)(=O)[O-])c6F)c6ccc([nH]6)c(-c6cccc(S(=O)(=O)[O-])c6F)c6nc(c(-c7cccc(S(=O)(=O)[O-])c7F)c7ccc4[nH]7)C=C6)C=C5)cc3)cc2)c1
REMARK SMILES IDX 19 1 18 2 17 3 15 4 16 5 13 7 14 8 12 9 9 10 10 11 89 12
REMARK SMILES IDX 11 13 88 14 8 15 4 16 5 17 90 18 6 19 7 20 3 21 2 22 1 23
REMARK SMILES IDX 20 24 21 25 22 26 23 27 24 29 25 30 26 31 87 32 27 33 86 34
REMARK SMILES IDX 28 35 29 36 30 37 80 38 31 39 85 40 79 41 81 42 32 43 84 44
REMARK SMILES IDX 78 45 77 46 33 48 65 49 45 50 64 51 46 52 49 53 63 54 82 55
REMARK SMILES IDX 47 56 48 57 62 59 83 60 50 61 34 62 35 63 43 64 36 65 38 66
REMARK SMILES IDX 44 67 37 68 39 69 40 70 41 71 42 72 66 73 67 74 75 75 68 76
REMARK SMILES IDX 70 77 76 78 69 79 71 80 72 81 73 82 74 83 51 84 52 85 60 86
REMARK SMILES IDX 53 87 55 88 61 89 54 90 56 91 57 92 58 93 59 94
REMARK H PARENT 17 6 22 28 81 47 49 58
REMARK Flexibility Score: inf
ROOT
ATOM      1  C   UNL     1       7.973   7.393  -2.594  1.00  0.00     0.023 C 
ENDROOT
BRANCH   1   2
ATOM      2  C   UNL     1       8.779   8.489  -1.898  1.00  0.00     0.116 C 
BRANCH   2   3
ATOM      3  N   UNL     1       7.939   9.541  -1.362  1.00  0.00    -0.356 N 
ATOM      4  C   UNL     1       7.434   9.748  -0.115  1.00  0.00     0.227 C 
ATOM      5  O   UNL     1       6.714  10.743   0.036  1.00  0.00    -0.274 OA
ATOM      6  H   UNL     1       7.689  10.231  -2.018  1.00  0.00     0.163 HD
BRANCH   4   7
ATOM      7  C   UNL     1       7.728   8.841   1.089  1.00  0.00     0.105 C 
ATOM      8  C   UNL     1       9.203   8.816   1.496  1.00  0.00     0.023 C 
BRANCH   7   9
ATOM      9  C   UNL     1       7.027   7.492   1.021  1.00  0.00    -0.036 A 
ATOM     10  C   UNL     1       5.586   5.031   0.763  1.00  0.00    -0.018 A 
ATOM     11  C   UNL     1       6.929   5.155   0.366  1.00  0.00     0.009 A 
ATOM     12  C   UNL     1       4.987   6.171   1.319  1.00  0.00     0.009 A 
ATOM     13  C   UNL     1       7.646   6.346   0.524  1.00  0.00     0.005 A 
ATOM     14  C   UNL     1       5.688   7.384   1.429  1.00  0.00     0.005 A 
BRANCH  10  15
ATOM     15  C   UNL     1       4.857   3.753   0.566  1.00  0.00    -0.017 A 
ATOM     16  C   UNL     1       2.828   2.493  -0.016  1.00  0.00     0.008 A 
ATOM     17  C   UNL     1       3.561   1.308  -0.002  1.00  0.00     0.015 A 
ATOM     18  C   UNL     1       3.484   3.708   0.247  1.00  0.00     0.023 A 
ATOM     19  C   UNL     1       4.908   1.317   0.340  1.00  0.00     0.002 A 
ATOM     20  C   UNL     1       5.539   2.523   0.637  1.00  0.00     0.009 A 
BRANCH  16  21
ATOM     21  S   UNL     1       1.098   2.511  -0.461  1.00  0.00    -0.126 SA
BRANCH  21  22
ATOM     22  C   UNL     1       0.395   1.286   0.700  1.00  0.00     0.071 C 
ATOM     23  C   UNL     1       0.279  -0.101   0.087  1.00  0.00     0.016 C 
ENDBRANCH  21  22
ENDBRANCH  16  21
ENDBRANCH  10  15
ENDBRANCH   7   9
ENDBRANCH   4   7
ENDBRANCH   2   3
ENDBRANCH   1   2
BRANCH   1  24
ATOM     24  C   UNL     1       7.676   7.646  -4.072  1.00  0.00     0.023 C 
BRANCH  24  25
ATOM     25  C   UNL     1       8.896   7.747  -4.983  1.00  0.00     0.116 C 
BRANCH  25  26
ATOM     26  N   UNL     1       9.767   6.578  -4.948  1.00  0.00    -0.352 N 
ATOM     27  C   UNL     1      10.515   6.044  -5.976  1.00  0.00     0.251 C 
ATOM     28  H   UNL     1       9.829   6.112  -4.082  1.00  0.00     0.163 HD
ATOM     29  O   UNL     1      11.156   5.014  -5.814  1.00  0.00    -0.269 OA
BRANCH  27  30
ATOM     30  C   UNL     1      10.488   6.713  -7.294  1.00  0.00     0.039 A 
ATOM     31  C   UNL     1      10.111   5.976  -8.419  1.00  0.00     0.014 A 
ATOM     32  C   UNL     1      10.739   8.083  -7.393  1.00  0.00     0.014 A 
ATOM     33  C   UNL     1       9.885   6.636  -9.629  1.00  0.00     0.010 A 
ATOM     34  C   UNL     1      10.451   8.746  -8.580  1.00  0.00     0.010 A 
ATOM     35  C   UNL     1      10.001   8.033  -9.703  1.00  0.00    -0.014 A 
BRANCH  35  36
ATOM     36  C   UNL     1       9.600   8.789 -10.916  1.00  0.00     0.031 A 
ATOM     37  C   UNL     1      10.615   9.604 -11.666  1.00  0.00     0.074 A 
ATOM     38  C   UNL     1       8.297   8.853 -11.256  1.00  0.00     0.049 A 
ATOM     39  N   UNL     1      10.434  10.434 -12.659  1.00  0.00    -0.248 NA
ATOM     40  C   UNL     1      12.014   9.495 -11.221  1.00  0.00     0.031 C 
ATOM     41  C   UNL     1       7.204   8.175 -10.554  1.00  0.00     0.029 A 
ATOM     42  N   UNL     1       7.663   9.555 -12.252  1.00  0.00    -0.354 N 
ATOM     43  C   UNL     1      11.682  10.979 -12.930  1.00  0.00     0.074 A 
ATOM     44  C   UNL     1      12.611  10.403 -11.981  1.00  0.00     0.031 C 
ATOM     45  C   UNL     1       6.038   8.499 -11.135  1.00  0.00     0.029 A 
ATOM     46  C   UNL     1       6.293   9.432 -12.228  1.00  0.00     0.049 A 
ATOM     47  H   UNL     1       8.144  10.096 -12.919  1.00  0.00     0.167 HD
ATOM     48  C   UNL     1      12.031  11.857 -13.900  1.00  0.00     0.034 A 
ATOM     49  C   UNL     1       5.346  10.015 -12.990  1.00  0.00     0.034 A 
ATOM     50  C   UNL     1      11.118  12.377 -14.881  1.00  0.00     0.049 A 
ATOM     51  C   UNL     1       5.766  10.959 -14.084  1.00  0.00     0.074 A 
ATOM     52  C   UNL     1      11.398  13.172 -15.978  1.00  0.00     0.029 A 
ATOM     53  N   UNL     1       9.750  12.161 -14.881  1.00  0.00    -0.354 N 
ATOM     54  N   UNL     1       6.974  11.324 -14.438  1.00  0.00    -0.248 NA
ATOM     55  C   UNL     1       4.695  11.553 -14.898  1.00  0.00     0.031 C 
ATOM     56  C   UNL     1      10.194  13.446 -16.636  1.00  0.00     0.029 A 
ATOM     57  C   UNL     1       9.167  12.819 -15.950  1.00  0.00     0.049 A 
ATOM     58  H   UNL     1       9.264  11.619 -14.218  1.00  0.00     0.167 HD
ATOM     59  C   UNL     1       6.812  12.172 -15.527  1.00  0.00     0.074 A 
ATOM     60  C   UNL     1       5.390  12.247 -15.791  1.00  0.00     0.031 C 
ATOM     61  C   UNL     1       7.755  12.845 -16.231  1.00  0.00     0.034 A 
BRANCH  48  62
ATOM     62  C   UNL     1      13.479  12.253 -13.993  1.00  0.00     0.023 A 
ATOM     63  C   UNL     1      14.412  11.330 -14.508  1.00  0.00     0.012 A 
ATOM     64  C   UNL     1      13.909  13.543 -13.628  1.00  0.00     0.148 A 
ATOM     65  C   UNL     1      15.757  11.675 -14.631  1.00  0.00     0.002 A 
ATOM     66  C   UNL     1      15.245  13.891 -13.788  1.00  0.00     0.091 A 
ATOM     67  F   UNL     1      13.011  14.397 -13.116  1.00  0.00    -0.205 F 
ATOM     68  C   UNL     1      16.171  12.957 -14.281  1.00  0.00     0.022 A 
BRANCH  66  69
ATOM     69  S   UNL     1      15.862  15.539 -13.426  1.00  0.00     0.127 S 
ATOM     70  O   UNL     1      16.563  15.320 -12.161  1.00  0.00    -0.237 OA
ATOM     71  O   UNL     1      16.738  15.802 -14.569  1.00  0.00    -0.237 OA
ATOM     72  O   UNL     1      14.688  16.396 -13.355  1.00  0.00    -0.744 OA
ENDBRANCH  66  69
ENDBRANCH  48  62
BRANCH  49  73
ATOM     73  C   UNL     1       3.911   9.672 -12.783  1.00  0.00     0.023 A 
ATOM     74  C   UNL     1       3.252   8.878 -13.741  1.00  0.00     0.012 A 
ATOM     75  C   UNL     1       3.209  10.089 -11.636  1.00  0.00     0.148 A 
ATOM     76  C   UNL     1       1.913   8.523 -13.572  1.00  0.00     0.002 A 
ATOM     77  C   UNL     1       1.890   9.690 -11.449  1.00  0.00     0.091 A 
ATOM     78  F   UNL     1       3.847  10.861 -10.745  1.00  0.00    -0.205 F 
ATOM     79  C   UNL     1       1.236   8.919 -12.422  1.00  0.00     0.022 A 
BRANCH  77  80
ATOM     80  S   UNL     1       0.989  10.049  -9.937  1.00  0.00     0.127 S 
ATOM     81  O   UNL     1       0.113  11.137 -10.361  1.00  0.00    -0.237 OA
ATOM     82  O   UNL     1       0.311   8.778  -9.675  1.00  0.00    -0.237 OA
ATOM     83  O   UNL     1       2.007  10.393  -8.954  1.00  0.00    -0.744 OA
ENDBRANCH  77  80
ENDBRANCH  49  73
BRANCH  61  84
ATOM     84  C   UNL     1       7.290  13.723 -17.361  1.00  0.00     0.023 A 
ATOM     85  C   UNL     1       6.702  14.969 -17.067  1.00  0.00     0.012 A 
ATOM     86  C   UNL     1       7.521  13.363 -18.703  1.00  0.00     0.148 A 
ATOM     87  C   UNL     1       6.334  15.837 -18.094  1.00  0.00     0.002 A 
ATOM     88  C   UNL     1       7.189  14.252 -19.719  1.00  0.00     0.091 A 
ATOM     89  F   UNL     1       8.066  12.165 -18.959  1.00  0.00    -0.205 F 
ATOM     90  C   UNL     1       6.589  15.485 -19.417  1.00  0.00     0.022 A 
BRANCH  88  91
ATOM     91  S   UNL     1       7.559  13.923 -21.447  1.00  0.00     0.127 S 
ATOM     92  O   UNL     1       6.227  13.668 -21.993  1.00  0.00    -0.237 OA
ATOM     93  O   UNL     1       8.165  15.182 -21.880  1.00  0.00    -0.237 OA
ATOM     94  O   UNL     1       8.466  12.783 -21.453  1.00  0.00    -0.744 OA
ENDBRANCH  88  91
ENDBRANCH  61  84
ENDBRANCH  35  36
ENDBRANCH  27  30
ENDBRANCH  25  26
ENDBRANCH  24  25
ENDBRANCH   1  24
TORSDOF 18
