REMARK SMILES Cc1c(C(=O)NCCCCNC(=O)c2ccc(-c3c4nc(c(-c5cccc(S(=O)(=O)[O-])c5F)c5ccc([nH]5)c(-c5cccc(S(=O)(=O)[O-])c5F)c5nc(c(-c6cccc(S(=O)(=O)[O-])c6F)c6ccc3[nH]6)C=C5)C=C4)cc2)oc2c1/C(=N/NC(=O)C(c1ccccc1)c1ccccc1)CCC2
REMARK SMILES IDX 8 1 7 2 6 3 4 4 5 5 3 7 1 8 2 9 79 10 77 11 78 12 80 13
REMARK SMILES IDX 100 14 81 15 98 16 99 17 82 18 83 19 84 21 85 22 86 23 87 24
REMARK SMILES IDX 91 25 88 26 90 27 89 28 92 29 93 30 97 31 94 32 96 33 95 34
REMARK SMILES IDX 9 35 10 36 11 37 12 38 13 40 14 41 15 42 76 43 16 44 75 45
REMARK SMILES IDX 17 46 18 47 19 48 69 49 20 50 74 51 68 52 70 53 21 54 73 55
REMARK SMILES IDX 67 56 66 57 22 59 54 60 34 61 53 62 35 63 38 64 52 65 71 66
REMARK SMILES IDX 36 67 37 68 51 70 72 71 39 72 23 73 24 74 32 75 25 76 27 77
REMARK SMILES IDX 33 78 26 79 28 80 29 81 30 82 31 83 55 84 56 85 64 86 57 87
REMARK SMILES IDX 59 88 65 89 58 90 60 91 61 92 62 93 63 94 40 95 41 96 49 97
REMARK SMILES IDX 42 98 44 99 50 100 43 101 45 102 46 103 47 104 48 105
REMARK H PARENT 6 6 82 20 11 39 70 58 38 69
REMARK Flexibility Score: inf
ROOT
ATOM      1  C   UNL     1       2.785  -6.266   0.187  1.00  0.00     0.023 C 
ENDROOT
BRANCH   1   2
ATOM      2  C   UNL     1       2.018  -5.481   1.272  1.00  0.00     0.116 C 
BRANCH   2   3
ATOM      3  N   UNL     1       2.736  -4.295   1.768  1.00  0.00    -0.349 N 
ATOM      4  C   UNL     1       2.686  -2.957   1.371  1.00  0.00     0.287 C 
ATOM      5  O   UNL     1       3.336  -2.131   2.020  1.00  0.00    -0.266 OA
ATOM      6  H   UNL     1       3.360  -4.476   2.508  1.00  0.00     0.163 HD
BRANCH   4   7
ATOM      7  C   UNL     1       1.869  -2.596   0.231  1.00  0.00     0.195 A 
ATOM      8  C   UNL     1       1.481  -0.037   0.222  1.00  0.00     0.049 C 
ATOM      9  C   UNL     1       1.293  -1.419  -0.288  1.00  0.00     0.010 A 
ATOM     10  C   UNL     1       0.344  -1.865  -1.276  1.00  0.00     0.043 A 
ATOM     11  O   UNL     1       1.485  -3.646  -0.525  1.00  0.00    -0.455 OA
ATOM     12  C   UNL     1       0.452  -3.243  -1.233  1.00  0.00     0.114 A 
ATOM     13  C   UNL     1      -0.732  -1.313  -2.110  1.00  0.00     0.072 C 
ATOM     14  C   UNL     1      -0.438  -4.311  -1.712  1.00  0.00     0.076 C 
ATOM     15  N   UNL     1      -0.768  -0.072  -2.493  1.00  0.00    -0.177 NA
ATOM     16  C   UNL     1      -1.752  -2.364  -2.385  1.00  0.00     0.059 C 
ATOM     17  C   UNL     1      -1.219  -3.713  -2.838  1.00  0.00     0.014 C 
BRANCH  15  18
ATOM     18  N   UNL     1      -1.687   0.622  -3.288  1.00  0.00    -0.246 N 
ATOM     19  C   UNL     1      -2.740   0.473  -4.178  1.00  0.00     0.252 C 
ATOM     20  H   UNL     1      -1.523   1.586  -3.169  1.00  0.00     0.193 HD
ATOM     21  O   UNL     1      -3.131   1.537  -4.703  1.00  0.00    -0.272 OA
BRANCH  19  22
ATOM     22  C   UNL     1      -3.497  -0.841  -4.609  1.00  0.00     0.140 C 
BRANCH  22  23
ATOM     23  C   UNL     1      -2.484  -1.751  -5.406  1.00  0.00    -0.031 A 
ATOM     24  C   UNL     1      -2.703  -3.096  -5.742  1.00  0.00     0.005 A 
ATOM     25  C   UNL     1      -1.214  -1.228  -5.768  1.00  0.00     0.005 A 
ATOM     26  C   UNL     1      -1.647  -3.909  -6.207  1.00  0.00     0.000 A 
ATOM     27  C   UNL     1      -0.161  -2.033  -6.211  1.00  0.00     0.000 A 
ATOM     28  C   UNL     1      -0.368  -3.388  -6.399  1.00  0.00     0.000 A 
ENDBRANCH  22  23
BRANCH  22  29
ATOM     29  C   UNL     1      -4.353  -1.318  -3.360  1.00  0.00    -0.031 A 
ATOM     30  C   UNL     1      -4.604  -0.373  -2.332  1.00  0.00     0.005 A 
ATOM     31  C   UNL     1      -4.692  -2.653  -3.065  1.00  0.00     0.005 A 
ATOM     32  C   UNL     1      -4.875  -0.762  -1.017  1.00  0.00     0.000 A 
ATOM     33  C   UNL     1      -4.993  -3.042  -1.743  1.00  0.00     0.000 A 
ATOM     34  C   UNL     1      -5.024  -2.105  -0.712  1.00  0.00     0.000 A 
ENDBRANCH  22  29
ENDBRANCH  19  22
ENDBRANCH  15  18
ENDBRANCH   4   7
ENDBRANCH   2   3
ENDBRANCH   1   2
BRANCH   1  35
ATOM     35  C   UNL     1       3.976  -7.089   0.701  1.00  0.00     0.023 C 
BRANCH  35  36
ATOM     36  C   UNL     1       3.606  -8.244   1.627  1.00  0.00     0.116 C 
BRANCH  36  37
ATOM     37  N   UNL     1       2.910  -9.345   0.949  1.00  0.00    -0.352 N 
ATOM     38  C   UNL     1       2.332 -10.458   1.537  1.00  0.00     0.251 C 
ATOM     39  H   UNL     1       2.848  -9.286  -0.032  1.00  0.00     0.163 HD
ATOM     40  O   UNL     1       2.163 -11.497   0.903  1.00  0.00    -0.269 OA
BRANCH  38  41
ATOM     41  C   UNL     1       1.895 -10.359   2.940  1.00  0.00     0.039 A 
ATOM     42  C   UNL     1       2.104 -11.384   3.868  1.00  0.00     0.014 A 
ATOM     43  C   UNL     1       1.298  -9.161   3.320  1.00  0.00     0.014 A 
ATOM     44  C   UNL     1       1.778 -11.154   5.205  1.00  0.00     0.010 A 
ATOM     45  C   UNL     1       1.152  -8.874   4.649  1.00  0.00     0.010 A 
ATOM     46  C   UNL     1       1.316  -9.886   5.588  1.00  0.00    -0.014 A 
BRANCH  46  47
ATOM     47  C   UNL     1       1.112  -9.532   6.989  1.00  0.00     0.031 A 
ATOM     48  C   UNL     1       2.329  -9.679   7.833  1.00  0.00     0.074 A 
ATOM     49  C   UNL     1       0.006  -8.872   7.402  1.00  0.00     0.049 A 
ATOM     50  N   UNL     1       2.541 -10.538   8.776  1.00  0.00    -0.248 NA
ATOM     51  C   UNL     1       3.522  -8.899   7.464  1.00  0.00     0.031 C 
ATOM     52  C   UNL     1      -1.103  -8.369   6.575  1.00  0.00     0.029 A 
ATOM     53  N   UNL     1      -0.289  -8.358   8.627  1.00  0.00    -0.354 N 
ATOM     54  C   UNL     1       3.793 -10.211   9.298  1.00  0.00     0.074 A 
ATOM     55  C   UNL     1       4.434  -9.408   8.295  1.00  0.00     0.031 C 
ATOM     56  C   UNL     1      -1.778  -7.417   7.253  1.00  0.00     0.029 A 
ATOM     57  C   UNL     1      -1.274  -7.370   8.611  1.00  0.00     0.049 A 
ATOM     58  H   UNL     1       0.154  -8.658   9.453  1.00  0.00     0.167 HD
ATOM     59  C   UNL     1       4.055 -10.361  10.629  1.00  0.00     0.034 A 
ATOM     60  C   UNL     1      -1.615  -6.541   9.628  1.00  0.00     0.034 A 
ATOM     61  C   UNL     1       3.051 -11.199  11.250  1.00  0.00     0.049 A 
ATOM     62  C   UNL     1      -1.111  -7.161  10.873  1.00  0.00     0.074 A 
ATOM     63  C   UNL     1       2.570 -12.477  11.047  1.00  0.00     0.029 A 
ATOM     64  N   UNL     1       2.098 -10.554  12.002  1.00  0.00    -0.354 N 
ATOM     65  N   UNL     1      -1.563  -8.285  11.350  1.00  0.00    -0.248 NA
ATOM     66  C   UNL     1       0.203  -6.758  11.345  1.00  0.00     0.031 C 
ATOM     67  C   UNL     1       1.164 -12.381  11.277  1.00  0.00     0.029 A 
ATOM     68  C   UNL     1       0.876 -11.078  11.687  1.00  0.00     0.049 A 
ATOM     69  H   UNL     1       2.267  -9.838  12.656  1.00  0.00     0.167 HD
ATOM     70  C   UNL     1      -0.425  -8.952  11.781  1.00  0.00     0.074 A 
ATOM     71  C   UNL     1       0.608  -7.919  11.866  1.00  0.00     0.031 C 
ATOM     72  C   UNL     1      -0.352 -10.315  11.731  1.00  0.00     0.034 A 
BRANCH  59  73
ATOM     73  C   UNL     1       4.904  -9.415  11.477  1.00  0.00     0.023 A 
ATOM     74  C   UNL     1       4.982  -9.712  12.861  1.00  0.00     0.012 A 
ATOM     75  C   UNL     1       5.356  -8.133  11.088  1.00  0.00     0.148 A 
ATOM     76  C   UNL     1       5.347  -8.749  13.808  1.00  0.00     0.002 A 
ATOM     77  C   UNL     1       5.770  -7.194  12.028  1.00  0.00     0.091 A 
ATOM     78  F   UNL     1       5.309  -7.752   9.814  1.00  0.00    -0.205 F 
ATOM     79  C   UNL     1       5.728  -7.482  13.392  1.00  0.00     0.022 A 
BRANCH  77  80
ATOM     80  S   UNL     1       6.305  -5.544  11.545  1.00  0.00     0.127 S 
ATOM     81  O   UNL     1       5.197  -4.729  12.032  1.00  0.00    -0.237 OA
ATOM     82  O   UNL     1       7.555  -5.409  12.293  1.00  0.00    -0.237 OA
ATOM     83  O   UNL     1       6.475  -5.588  10.098  1.00  0.00    -0.744 OA
ENDBRANCH  77  80
ENDBRANCH  59  73
BRANCH  60  84
ATOM     84  C   UNL     1      -2.126  -5.150   9.609  1.00  0.00     0.023 A 
ATOM     85  C   UNL     1      -2.776  -4.631  10.747  1.00  0.00     0.012 A 
ATOM     86  C   UNL     1      -1.720  -4.245   8.604  1.00  0.00     0.148 A 
ATOM     87  C   UNL     1      -2.975  -3.253  10.901  1.00  0.00     0.002 A 
ATOM     88  C   UNL     1      -1.924  -2.876   8.759  1.00  0.00     0.091 A 
ATOM     89  F   UNL     1      -1.051  -4.718   7.544  1.00  0.00    -0.205 F 
ATOM     90  C   UNL     1      -2.539  -2.375   9.913  1.00  0.00     0.022 A 
BRANCH  88  91
ATOM     91  S   UNL     1      -1.364  -1.679   7.540  1.00  0.00     0.127 S 
ATOM     92  O   UNL     1      -2.564  -0.865   7.343  1.00  0.00    -0.237 OA
ATOM     93  O   UNL     1      -0.280  -1.009   8.252  1.00  0.00    -0.237 OA
ATOM     94  O   UNL     1      -0.971  -2.458   6.372  1.00  0.00    -0.744 OA
ENDBRANCH  88  91
ENDBRANCH  60  84
BRANCH  72  95
ATOM     95  C   UNL     1      -1.621 -11.086  11.469  1.00  0.00     0.023 A 
ATOM     96  C   UNL     1      -2.336 -10.994  10.255  1.00  0.00     0.012 A 
ATOM     97  C   UNL     1      -2.002 -12.057  12.408  1.00  0.00     0.148 A 
ATOM     98  C   UNL     1      -3.417 -11.842   9.995  1.00  0.00     0.002 A 
ATOM     99  C   UNL     1      -3.044 -12.930  12.126  1.00  0.00     0.091 A 
ATOM    100  F   UNL     1      -1.311 -12.131  13.555  1.00  0.00    -0.205 F 
ATOM    101  C   UNL     1      -3.762 -12.820  10.925  1.00  0.00     0.022 A 
BRANCH  99 102
ATOM    102  S   UNL     1      -3.447 -14.287  13.226  1.00  0.00     0.127 S 
ATOM    103  O   UNL     1      -4.681 -13.816  13.851  1.00  0.00    -0.237 OA
ATOM    104  O   UNL     1      -3.618 -15.405  12.297  1.00  0.00    -0.237 OA
ATOM    105  O   UNL     1      -2.305 -14.429  14.122  1.00  0.00    -0.744 OA
ENDBRANCH  99 102
ENDBRANCH  72  95
ENDBRANCH  46  47
ENDBRANCH  38  41
ENDBRANCH  36  37
ENDBRANCH  35  36
ENDBRANCH   1  35
TORSDOF 18
