REMARK SMILES COc1cc2c(cc1OC)[C@H](C(=O)NCCCCNC(=O)c1ccc(-c3c4nc(c(-c5cccc(S(=O)(=O)[O-])c5F)c5ccc([nH]5)c(-c5cccc(S(=O)(=O)[O-])c5F)c5nc(c(-c6cccc(S(=O)(=O)[O-])c6F)c6ccc3[nH]6)C=C5)C=C4)cc1)[C@H](c1cccc(Cl)c1)N(C)C2=O
REMARK SMILES IDX 17 1 16 2 15 3 14 4 12 5 13 6 11 8 3 9 4 10 8 11 5 12 7 13
REMARK SMILES IDX 6 14 95 15 93 16 96 17 85 18 94 19 2 20 1 21 9 22 10 23
REMARK SMILES IDX 86 24 87 25 92 26 88 27 90 28 89 29 91 30 18 31 19 32 20 33
REMARK SMILES IDX 21 35 22 36 23 37 84 38 24 39 83 40 25 41 26 42 27 43 77 44
REMARK SMILES IDX 28 45 82 46 76 47 78 48 29 49 81 50 75 51 74 52 30 54 62 55
REMARK SMILES IDX 42 56 61 57 43 58 46 59 60 60 79 61 44 62 45 63 59 65 80 66
REMARK SMILES IDX 47 67 31 68 32 69 40 70 33 71 35 72 41 73 34 74 36 75 37 76
REMARK SMILES IDX 38 77 39 78 63 79 64 80 72 81 65 82 67 83 73 84 66 85 68 86
REMARK SMILES IDX 69 87 70 88 71 89 48 90 49 91 57 92 50 93 52 94 58 95 51 96
REMARK SMILES IDX 53 97 54 98 55 99 56 100
REMARK H PARENT 14 7 19 34 78 53 46 64
REMARK Flexibility Score: inf
ROOT
ATOM      1  C   UNL     1      -0.862  -7.570   0.123  1.00  0.00     0.023 C 
ENDROOT
BRANCH   1   2
ATOM      2  C   UNL     1       0.246  -6.543  -0.050  1.00  0.00     0.023 C 
BRANCH   2   3
ATOM      3  C   UNL     1       1.289  -6.836  -1.117  1.00  0.00     0.116 C 
BRANCH   3   4
ATOM      4  N   UNL     1       0.816  -7.027  -2.475  1.00  0.00    -0.355 N 
ATOM      5  C   UNL     1       1.316  -6.516  -3.640  1.00  0.00     0.230 C 
ATOM      6  O   UNL     1       1.030  -7.111  -4.685  1.00  0.00    -0.274 OA
ATOM      7  H   UNL     1       0.024  -7.605  -2.571  1.00  0.00     0.163 HD
BRANCH   5   8
ATOM      8  C   UNL     1       2.196  -5.265  -3.705  1.00  0.00     0.136 C 
ATOM      9  C   UNL     1       1.066  -1.978  -1.122  1.00  0.00     0.161 A 
ATOM     10  C   UNL     1       2.353  -2.051  -1.681  1.00  0.00     0.064 A 
ATOM     11  C   UNL     1       0.093  -2.898  -1.527  1.00  0.00     0.161 A 
ATOM     12  C   UNL     1       2.692  -3.080  -2.572  1.00  0.00     0.048 A 
ATOM     13  C   UNL     1       0.444  -3.910  -2.430  1.00  0.00     0.056 A 
ATOM     14  C   UNL     1       1.761  -4.076  -2.876  1.00  0.00    -0.016 A 
ATOM     15  C   UNL     1       4.052  -3.099  -3.192  1.00  0.00     0.254 C 
ATOM     16  N   UNL     1       4.472  -4.293  -3.779  1.00  0.00    -0.333 N 
ATOM     17  O   UNL     1       4.748  -2.088  -3.151  1.00  0.00    -0.269 OA
ATOM     18  C   UNL     1       3.721  -5.551  -3.585  1.00  0.00     0.132 C 
ATOM     19  C   UNL     1       5.807  -4.364  -4.346  1.00  0.00     0.147 C 
BRANCH   9  20
ATOM     20  O   UNL     1       0.768  -1.091  -0.124  1.00  0.00    -0.493 OA
ATOM     21  C   UNL     1       1.300   0.217  -0.281  1.00  0.00     0.278 C 
ENDBRANCH   9  20
BRANCH  11  22
ATOM     22  O   UNL     1      -1.217  -2.994  -1.147  1.00  0.00    -0.493 OA
ATOM     23  C   UNL     1      -1.750  -2.055  -0.228  1.00  0.00     0.278 C 
ENDBRANCH  11  22
BRANCH  18  24
ATOM     24  C   UNL     1       4.216  -6.294  -2.337  1.00  0.00    -0.023 A 
ATOM     25  C   UNL     1       4.212  -7.701  -2.317  1.00  0.00     0.006 A 
ATOM     26  C   UNL     1       4.641  -5.625  -1.171  1.00  0.00     0.026 A 
ATOM     27  C   UNL     1       4.551  -8.406  -1.154  1.00  0.00     0.002 A 
ATOM     28  C   UNL     1       4.976  -6.332  -0.015  1.00  0.00     0.041 A 
ATOM     29  C   UNL     1       4.917  -7.720   0.003  1.00  0.00     0.020 A 
ATOM     30  Cl  UNL     1       5.430  -5.472   1.405  1.00  0.00    -0.084 Cl
ENDBRANCH  18  24
ENDBRANCH   5   8
ENDBRANCH   3   4
ENDBRANCH   2   3
ENDBRANCH   1   2
BRANCH   1  31
ATOM     31  C   UNL     1      -0.430  -9.030   0.113  1.00  0.00     0.116 C 
BRANCH  31  32
ATOM     32  N   UNL     1       0.523  -9.381   1.159  1.00  0.00    -0.352 N 
ATOM     33  C   UNL     1       0.383 -10.217   2.244  1.00  0.00     0.251 C 
ATOM     34  H   UNL     1       1.406  -8.954   1.076  1.00  0.00     0.163 HD
ATOM     35  O   UNL     1       1.303 -10.337   3.049  1.00  0.00    -0.269 OA
BRANCH  33  36
ATOM     36  C   UNL     1      -0.894 -10.927   2.467  1.00  0.00     0.039 A 
ATOM     37  C   UNL     1      -1.507 -10.840   3.720  1.00  0.00     0.014 A 
ATOM     38  C   UNL     1      -1.520 -11.614   1.427  1.00  0.00     0.014 A 
ATOM     39  C   UNL     1      -2.802 -11.336   3.890  1.00  0.00     0.010 A 
ATOM     40  C   UNL     1      -2.844 -12.014   1.569  1.00  0.00     0.010 A 
ATOM     41  C   UNL     1      -3.507 -11.866   2.797  1.00  0.00    -0.014 A 
BRANCH  41  42
ATOM     42  C   UNL     1      -4.946 -12.229   2.893  1.00  0.00     0.031 A 
ATOM     43  C   UNL     1      -5.395 -13.634   2.592  1.00  0.00     0.074 A 
ATOM     44  C   UNL     1      -5.862 -11.267   3.127  1.00  0.00     0.049 A 
ATOM     45  N   UNL     1      -6.610 -14.111   2.510  1.00  0.00    -0.248 NA
ATOM     46  C   UNL     1      -4.342 -14.624   2.312  1.00  0.00     0.031 C 
ATOM     47  C   UNL     1      -5.567  -9.848   3.344  1.00  0.00     0.029 A 
ATOM     48  N   UNL     1      -7.233 -11.330   3.189  1.00  0.00    -0.354 N 
ATOM     49  C   UNL     1      -6.470 -15.439   2.126  1.00  0.00     0.074 A 
ATOM     50  C   UNL     1      -5.055 -15.683   1.956  1.00  0.00     0.031 C 
ATOM     51  C   UNL     1      -6.718  -9.180   3.525  1.00  0.00     0.029 A 
ATOM     52  C   UNL     1      -7.834 -10.111   3.405  1.00  0.00     0.049 A 
ATOM     53  H   UNL     1      -7.738 -12.169   3.088  1.00  0.00     0.167 HD
ATOM     54  C   UNL     1      -7.428 -16.383   1.965  1.00  0.00     0.034 A 
ATOM     55  C   UNL     1      -9.137  -9.778   3.491  1.00  0.00     0.034 A 
ATOM     56  C   UNL     1      -8.828 -16.158   2.199  1.00  0.00     0.049 A 
ATOM     57  C   UNL     1     -10.179 -10.856   3.359  1.00  0.00     0.074 A 
ATOM     58  C   UNL     1      -9.864 -17.074   2.164  1.00  0.00     0.029 A 
ATOM     59  N   UNL     1      -9.390 -14.930   2.514  1.00  0.00    -0.354 N 
ATOM     60  N   UNL     1     -10.014 -12.141   3.158  1.00  0.00    -0.248 NA
ATOM     61  C   UNL     1     -11.584 -10.444   3.495  1.00  0.00     0.031 C 
ATOM     62  C   UNL     1     -11.055 -16.398   2.450  1.00  0.00     0.029 A 
ATOM     63  C   UNL     1     -10.758 -15.063   2.671  1.00  0.00     0.049 A 
ATOM     64  H   UNL     1      -8.889 -14.088   2.611  1.00  0.00     0.167 HD
ATOM     65  C   UNL     1     -11.289 -12.696   3.176  1.00  0.00     0.074 A 
ATOM     66  C   UNL     1     -12.214 -11.610   3.429  1.00  0.00     0.031 C 
ATOM     67  C   UNL     1     -11.661 -13.984   2.981  1.00  0.00     0.034 A 
BRANCH  54  68
ATOM     68  C   UNL     1      -6.980 -17.770   1.587  1.00  0.00     0.023 A 
ATOM     69  C   UNL     1      -6.323 -18.567   2.547  1.00  0.00     0.012 A 
ATOM     70  C   UNL     1      -7.244 -18.302   0.310  1.00  0.00     0.148 A 
ATOM     71  C   UNL     1      -5.903 -19.858   2.232  1.00  0.00     0.002 A 
ATOM     72  C   UNL     1      -6.859 -19.605   0.017  1.00  0.00     0.091 A 
ATOM     73  F   UNL     1      -7.847 -17.521  -0.598  1.00  0.00    -0.205 F 
ATOM     74  C   UNL     1      -6.179 -20.380   0.972  1.00  0.00     0.022 A 
BRANCH  72  75
ATOM     75  S   UNL     1      -7.234 -20.392  -1.554  1.00  0.00     0.127 S 
ATOM     76  O   UNL     1      -5.931 -20.366  -2.216  1.00  0.00    -0.237 OA
ATOM     77  O   UNL     1      -7.679 -21.722  -1.137  1.00  0.00    -0.237 OA
ATOM     78  O   UNL     1      -8.269 -19.574  -2.170  1.00  0.00    -0.744 OA
ENDBRANCH  72  75
ENDBRANCH  54  68
BRANCH  55  79
ATOM     79  C   UNL     1      -9.529  -8.372   3.797  1.00  0.00     0.023 A 
ATOM     80  C   UNL     1     -10.059  -8.072   5.067  1.00  0.00     0.012 A 
ATOM     81  C   UNL     1      -9.353  -7.332   2.864  1.00  0.00     0.148 A 
ATOM     82  C   UNL     1     -10.433  -6.769   5.394  1.00  0.00     0.002 A 
ATOM     83  C   UNL     1      -9.681  -6.026   3.215  1.00  0.00     0.091 A 
ATOM     84  F   UNL     1      -8.862  -7.638   1.655  1.00  0.00    -0.205 F 
ATOM     85  C   UNL     1     -10.235  -5.745   4.473  1.00  0.00     0.022 A 
BRANCH  83  86
ATOM     86  S   UNL     1      -9.339  -4.628   2.138  1.00  0.00     0.127 S 
ATOM     87  O   UNL     1     -10.675  -4.285   1.660  1.00  0.00    -0.237 OA
ATOM     88  O   UNL     1      -8.750  -3.663   3.068  1.00  0.00    -0.237 OA
ATOM     89  O   UNL     1      -8.412  -5.129   1.133  1.00  0.00    -0.744 OA
ENDBRANCH  83  86
ENDBRANCH  55  79
BRANCH  67  90
ATOM     90  C   UNL     1     -13.130 -14.307   3.055  1.00  0.00     0.023 A 
ATOM     91  C   UNL     1     -13.976 -13.940   1.990  1.00  0.00     0.012 A 
ATOM     92  C   UNL     1     -13.654 -15.047   4.134  1.00  0.00     0.148 A 
ATOM     93  C   UNL     1     -15.327 -14.283   2.009  1.00  0.00     0.002 A 
ATOM     94  C   UNL     1     -14.992 -15.423   4.124  1.00  0.00     0.091 A 
ATOM     95  F   UNL     1     -12.836 -15.369   5.146  1.00  0.00    -0.205 F 
ATOM     96  C   UNL     1     -15.831 -15.034   3.067  1.00  0.00     0.022 A 
BRANCH  94  97
ATOM     97  S   UNL     1     -15.706 -16.468   5.399  1.00  0.00     0.127 S 
ATOM     98  O   UNL     1     -16.508 -15.508   6.157  1.00  0.00    -0.237 OA
ATOM     99  O   UNL     1     -16.483 -17.429   4.617  1.00  0.00    -0.237 OA
ATOM    100  O   UNL     1     -14.579 -17.048   6.118  1.00  0.00    -0.744 OA
ENDBRANCH  94  97
ENDBRANCH  67  90
ENDBRANCH  41  42
ENDBRANCH  33  36
ENDBRANCH  31  32
ENDBRANCH   1  31
TORSDOF 17
