REMARK SMILES Cc1ccc2nc(CC3(CC(=O)NCCCCNC(=O)c4ccc(-c5c6nc(c(-c7cccc(S(=O)(=O)[O-])c7F)c7ccc([nH]7)c(-c7cccc(S(=O)(=O)[O-])c7F)c7nc(c(-c8cccc(S(=O)(=O)[O-])c8F)c8ccc5[nH]8)C=C7)C=C6)cc4)CCCCC3)sc2c1
REMARK SMILES IDX 15 1 14 2 13 3 11 4 12 5 10 7 9 8 84 9 88 10 85 11 87 12
REMARK SMILES IDX 86 13 8 14 7 15 1 16 2 17 3 18 91 19 4 20 90 21 5 22 89 23
REMARK SMILES IDX 6 24 16 25 17 26 18 27 19 28 20 30 21 31 22 32 83 33 23 34
REMARK SMILES IDX 82 35 24 36 25 37 26 38 76 39 27 40 81 41 75 42 77 43 28 44
REMARK SMILES IDX 80 45 74 46 73 47 29 49 61 50 41 51 60 52 42 53 45 54 59 55
REMARK SMILES IDX 78 56 43 57 44 58 58 60 79 61 46 62 30 63 31 64 39 65 32 66
REMARK SMILES IDX 34 67 40 68 33 69 35 70 36 71 37 72 38 73 62 74 63 75 71 76
REMARK SMILES IDX 64 77 66 78 72 79 65 80 67 81 68 82 69 83 70 84 47 85 48 86
REMARK SMILES IDX 56 87 49 88 51 89 57 90 50 91 52 92 53 93 54 94 55 95
REMARK H PARENT 13 6 18 29 77 48 45 59
REMARK Flexibility Score: inf
ROOT
ATOM      1  C   UNL     1      -3.620  -4.776   0.283  1.00  0.00     0.023 C 
ENDROOT
BRANCH   1   2
ATOM      2  C   UNL     1      -5.059  -4.673  -0.229  1.00  0.00     0.116 C 
BRANCH   2   3
ATOM      3  N   UNL     1      -5.782  -3.613   0.443  1.00  0.00    -0.356 N 
ATOM      4  C   UNL     1      -6.083  -2.357   0.022  1.00  0.00     0.220 C 
ATOM      5  O   UNL     1      -6.683  -1.608   0.798  1.00  0.00    -0.275 OA
ATOM      6  H   UNL     1      -6.107  -3.838   1.345  1.00  0.00     0.163 HD
BRANCH   4   7
ATOM      7  C   UNL     1      -5.697  -1.862  -1.368  1.00  0.00     0.107 C 
BRANCH   7   8
ATOM      8  C   UNL     1      -4.259  -1.261  -1.568  1.00  0.00    -0.015 C 
ATOM      9  C   UNL     1      -4.321  -0.203  -2.715  1.00  0.00     0.008 C 
ATOM     10  C   UNL     1      -3.234  -2.318  -2.059  1.00  0.00     0.008 C 
ATOM     11  C   UNL     1      -4.646  -0.808  -4.089  1.00  0.00     0.001 C 
ATOM     12  C   UNL     1      -3.576  -2.985  -3.386  1.00  0.00     0.001 C 
ATOM     13  C   UNL     1      -3.694  -1.936  -4.481  1.00  0.00     0.000 C 
BRANCH   8  14
ATOM     14  C   UNL     1      -3.809  -0.558  -0.236  1.00  0.00     0.075 C 
BRANCH  14  15
ATOM     15  C   UNL     1      -2.332  -0.326  -0.103  1.00  0.00     0.094 A 
ATOM     16  C   UNL     1       3.690   1.052  -0.012  1.00  0.00     0.044 C 
ATOM     17  C   UNL     1       2.339   0.398   0.029  1.00  0.00    -0.050 A 
ATOM     18  C   UNL     1       2.229  -0.988   0.163  1.00  0.00     0.006 A 
ATOM     19  C   UNL     1       1.183   1.192  -0.060  1.00  0.00     0.024 A 
ATOM     20  C   UNL     1       0.976  -1.604   0.210  1.00  0.00     0.030 A 
ATOM     21  C   UNL     1      -0.071   0.559  -0.040  1.00  0.00     0.055 A 
ATOM     22  C   UNL     1      -0.189  -0.823   0.104  1.00  0.00     0.082 A 
ATOM     23  S   UNL     1      -1.648   1.243  -0.189  1.00  0.00    -0.119 S 
ATOM     24  N   UNL     1      -1.480  -1.305   0.114  1.00  0.00    -0.241 NA
ENDBRANCH  14  15
ENDBRANCH   8  14
ENDBRANCH   7   8
ENDBRANCH   4   7
ENDBRANCH   2   3
ENDBRANCH   1   2
BRANCH   1  25
ATOM     25  C   UNL     1      -3.380  -5.795   1.385  1.00  0.00     0.023 C 
BRANCH  25  26
ATOM     26  C   UNL     1      -3.651  -7.236   0.984  1.00  0.00     0.116 C 
BRANCH  26  27
ATOM     27  N   UNL     1      -2.905  -7.690  -0.184  1.00  0.00    -0.352 N 
ATOM     28  C   UNL     1      -2.425  -8.956  -0.448  1.00  0.00     0.251 C 
ATOM     29  H   UNL     1      -2.722  -7.008  -0.870  1.00  0.00     0.163 HD
ATOM     30  O   UNL     1      -1.760  -9.174  -1.447  1.00  0.00    -0.269 OA
BRANCH  28  31
ATOM     31  C   UNL     1      -2.695 -10.032   0.532  1.00  0.00     0.039 A 
ATOM     32  C   UNL     1      -1.636 -10.827   0.973  1.00  0.00     0.014 A 
ATOM     33  C   UNL     1      -3.974 -10.195   1.068  1.00  0.00     0.014 A 
ATOM     34  C   UNL     1      -1.852 -11.743   2.004  1.00  0.00     0.010 A 
ATOM     35  C   UNL     1      -4.158 -11.024   2.165  1.00  0.00     0.010 A 
ATOM     36  C   UNL     1      -3.107 -11.826   2.630  1.00  0.00    -0.014 A 
BRANCH  36  37
ATOM     37  C   UNL     1      -3.349 -12.768   3.751  1.00  0.00     0.031 A 
ATOM     38  C   UNL     1      -4.388 -13.850   3.609  1.00  0.00     0.074 A 
ATOM     39  C   UNL     1      -2.697 -12.604   4.920  1.00  0.00     0.049 A 
ATOM     40  N   UNL     1      -4.753 -14.760   4.474  1.00  0.00    -0.248 NA
ATOM     41  C   UNL     1      -5.149 -13.892   2.347  1.00  0.00     0.031 C 
ATOM     42  C   UNL     1      -1.758 -11.522   5.225  1.00  0.00     0.029 A 
ATOM     43  N   UNL     1      -2.742 -13.338   6.078  1.00  0.00    -0.354 N 
ATOM     44  C   UNL     1      -5.807 -15.446   3.881  1.00  0.00     0.074 A 
ATOM     45  C   UNL     1      -6.059 -14.817   2.606  1.00  0.00     0.031 C 
ATOM     46  C   UNL     1      -1.303 -11.674   6.480  1.00  0.00     0.029 A 
ATOM     47  C   UNL     1      -1.925 -12.853   7.073  1.00  0.00     0.049 A 
ATOM     48  H   UNL     1      -3.306 -14.138   6.187  1.00  0.00     0.167 HD
ATOM     49  C   UNL     1      -6.476 -16.531   4.335  1.00  0.00     0.034 A 
ATOM     50  C   UNL     1      -1.694 -13.319   8.316  1.00  0.00     0.034 A 
ATOM     51  C   UNL     1      -6.165 -17.203   5.565  1.00  0.00     0.049 A 
ATOM     52  C   UNL     1      -2.366 -14.595   8.748  1.00  0.00     0.074 A 
ATOM     53  C   UNL     1      -6.695 -18.380   6.061  1.00  0.00     0.029 A 
ATOM     54  N   UNL     1      -5.235 -16.759   6.491  1.00  0.00    -0.354 N 
ATOM     55  N   UNL     1      -3.217 -15.345   8.090  1.00  0.00    -0.248 NA
ATOM     56  C   UNL     1      -2.007 -15.119  10.075  1.00  0.00     0.031 C 
ATOM     57  C   UNL     1      -6.090 -18.643   7.295  1.00  0.00     0.029 A 
ATOM     58  C   UNL     1      -5.174 -17.637   7.558  1.00  0.00     0.049 A 
ATOM     59  H   UNL     1      -4.697 -15.939   6.403  1.00  0.00     0.167 HD
ATOM     60  C   UNL     1      -3.471 -16.441   8.906  1.00  0.00     0.074 A 
ATOM     61  C   UNL     1      -2.658 -16.274  10.093  1.00  0.00     0.031 C 
ATOM     62  C   UNL     1      -4.316 -17.482   8.704  1.00  0.00     0.034 A 
BRANCH  49  63
ATOM     63  C   UNL     1      -7.555 -17.106   3.455  1.00  0.00     0.023 A 
ATOM     64  C   UNL     1      -7.197 -17.776   2.267  1.00  0.00     0.012 A 
ATOM     65  C   UNL     1      -8.911 -17.030   3.824  1.00  0.00     0.148 A 
ATOM     66  C   UNL     1      -8.173 -18.331   1.441  1.00  0.00     0.002 A 
ATOM     67  C   UNL     1      -9.876 -17.626   3.019  1.00  0.00     0.091 A 
ATOM     68  F   UNL     1      -9.234 -16.369   4.945  1.00  0.00    -0.205 F 
ATOM     69  C   UNL     1      -9.510 -18.265   1.823  1.00  0.00     0.022 A 
BRANCH  67  70
ATOM     70  S   UNL     1     -11.617 -17.666   3.458  1.00  0.00     0.127 S 
ATOM     71  O   UNL     1     -12.193 -16.765   2.460  1.00  0.00    -0.237 OA
ATOM     72  O   UNL     1     -11.949 -19.078   3.267  1.00  0.00    -0.237 OA
ATOM     73  O   UNL     1     -11.696 -17.203   4.836  1.00  0.00    -0.744 OA
ENDBRANCH  67  70
ENDBRANCH  49  63
BRANCH  50  74
ATOM     74  C   UNL     1      -0.711 -12.633   9.203  1.00  0.00     0.023 A 
ATOM     75  C   UNL     1       0.522 -13.256   9.479  1.00  0.00     0.012 A 
ATOM     76  C   UNL     1      -0.978 -11.368   9.759  1.00  0.00     0.148 A 
ATOM     77  C   UNL     1       1.454 -12.652  10.324  1.00  0.00     0.002 A 
ATOM     78  C   UNL     1      -0.024 -10.747  10.558  1.00  0.00     0.091 A 
ATOM     79  F   UNL     1      -2.162 -10.795   9.497  1.00  0.00    -0.205 F 
ATOM     80  C   UNL     1       1.185 -11.394  10.856  1.00  0.00     0.022 A 
BRANCH  78  81
ATOM     81  S   UNL     1      -0.235  -9.073  11.175  1.00  0.00     0.127 S 
ATOM     82  O   UNL     1      -0.566  -9.310  12.577  1.00  0.00    -0.237 OA
ATOM     83  O   UNL     1       1.088  -8.492  10.944  1.00  0.00    -0.237 OA
ATOM     84  O   UNL     1      -1.292  -8.491  10.358  1.00  0.00    -0.744 OA
ENDBRANCH  78  81
ENDBRANCH  50  74
BRANCH  62  85
ATOM     85  C   UNL     1      -4.390 -18.536   9.776  1.00  0.00     0.023 A 
ATOM     86  C   UNL     1      -5.030 -18.244  10.997  1.00  0.00     0.012 A 
ATOM     87  C   UNL     1      -3.887 -19.832   9.551  1.00  0.00     0.148 A 
ATOM     88  C   UNL     1      -5.134 -19.214  11.992  1.00  0.00     0.002 A 
ATOM     89  C   UNL     1      -4.038 -20.808  10.528  1.00  0.00     0.091 A 
ATOM     90  F   UNL     1      -3.263 -20.086   8.391  1.00  0.00    -0.205 F 
ATOM     91  C   UNL     1      -4.649 -20.498  11.754  1.00  0.00     0.022 A 
BRANCH  89  92
ATOM     92  S   UNL     1      -3.530 -22.510  10.259  1.00  0.00     0.127 S 
ATOM     93  O   UNL     1      -2.253 -22.557  10.969  1.00  0.00    -0.237 OA
ATOM     94  O   UNL     1      -4.610 -23.266  10.894  1.00  0.00    -0.237 OA
ATOM     95  O   UNL     1      -3.455 -22.674   8.813  1.00  0.00    -0.744 OA
ENDBRANCH  89  92
ENDBRANCH  62  85
ENDBRANCH  36  37
ENDBRANCH  28  31
ENDBRANCH  26  27
ENDBRANCH  25  26
ENDBRANCH   1  25
TORSDOF 17
