REMARK SMILES COC(=O)C[C@H](NC(=O)N[C@@H]1CCCCC1(C)C)C(=O)NCCCCNC(=O)c1ccc(-c2c3nc(c(-c4cccc(S(=O)(=O)[O-])c4F)c4ccc([nH]4)c(-c4cccc(S(=O)(=O)[O-])c4F)c4nc(c(-c5cccc(S(=O)(=O)[O-])c5F)c5ccc2[nH]5)C=C4)C=C3)cc1
REMARK SMILES IDX 23 1 22 2 21 3 19 4 20 5 6 7 5 8 3 9 4 10 2 11 1 12 7 13
REMARK SMILES IDX 8 14 9 16 10 17 11 19 12 20 16 21 13 22 15 23 17 24 18 25
REMARK SMILES IDX 14 26 24 27 25 28 26 29 27 30 28 32 29 33 30 34 91 35 31 36
REMARK SMILES IDX 90 37 32 38 33 39 34 40 84 41 35 42 89 43 83 44 85 45 36 46
REMARK SMILES IDX 88 47 82 48 81 49 37 51 69 52 49 53 68 54 50 55 53 56 67 57
REMARK SMILES IDX 86 58 51 59 52 60 66 62 87 63 54 64 38 65 39 66 47 67 40 68
REMARK SMILES IDX 42 69 48 70 41 71 43 72 44 73 45 74 46 75 70 76 71 77 79 78
REMARK SMILES IDX 72 79 74 80 80 81 73 82 75 83 76 84 77 85 78 86 55 87 56 88
REMARK SMILES IDX 64 89 57 90 59 91 65 92 58 93 60 94 61 95 62 96 63 97
REMARK H PARENT 21 6 7 15 10 18 26 31 85 50 53 61
REMARK Flexibility Score: inf
ROOT
ATOM      1  C   UNL     1      -3.291   3.164   4.038  1.00  0.00     0.023 C 
ENDROOT
BRANCH   1   2
ATOM      2  C   UNL     1      -2.755   3.745   2.737  1.00  0.00     0.116 C 
BRANCH   2   3
ATOM      3  N   UNL     1      -1.620   4.613   2.943  1.00  0.00    -0.354 N 
ATOM      4  C   UNL     1      -0.369   4.549   2.409  1.00  0.00     0.243 C 
ATOM      5  O   UNL     1       0.322   5.570   2.482  1.00  0.00    -0.273 OA
ATOM      6  H   UNL     1      -1.774   5.363   3.562  1.00  0.00     0.163 HD
BRANCH   4   7
ATOM      7  C   UNL     1       0.108   3.323   1.594  1.00  0.00     0.184 C 
BRANCH   7   8
ATOM      8  C   UNL     1      -0.601   3.337   0.234  1.00  0.00     0.157 C 
BRANCH   8   9
ATOM      9  C   UNL     1       0.350   2.985  -0.877  1.00  0.00     0.308 C 
ATOM     10  O   UNL     1       0.307   1.933  -1.500  1.00  0.00    -0.252 OA
BRANCH   9  11
ATOM     11  O   UNL     1       1.246   3.987  -1.088  1.00  0.00    -0.469 OA
ATOM     12  C   UNL     1       2.260   3.710  -2.060  1.00  0.00     0.282 C 
ENDBRANCH   9  11
ENDBRANCH   8   9
ENDBRANCH   7   8
BRANCH   7  13
ATOM     13  N   UNL     1      -0.058   2.049   2.329  1.00  0.00    -0.326 N 
ATOM     14  C   UNL     1       0.538   1.321   3.261  1.00  0.00     0.315 C 
ATOM     15  H   UNL     1      -0.878   1.596   2.027  1.00  0.00     0.166 HD
ATOM     16  O   UNL     1      -0.218   0.508   3.817  1.00  0.00    -0.249 OA
ATOM     17  N   UNL     1       1.780   1.306   3.718  1.00  0.00    -0.335 N 
ATOM     18  H   UNL     1       1.730   0.965   4.640  1.00  0.00     0.165 HD
BRANCH  17  19
ATOM     19  C   UNL     1       3.229   1.582   3.449  1.00  0.00     0.089 C 
ATOM     20  C   UNL     1       3.894   1.977   4.789  1.00  0.00     0.025 C 
ATOM     21  C   UNL     1       3.606   2.590   2.352  1.00  0.00    -0.015 C 
ATOM     22  C   UNL     1       3.464   3.369   5.252  1.00  0.00     0.002 C 
ATOM     23  C   UNL     1       3.085   3.966   2.824  1.00  0.00     0.008 C 
ATOM     24  C   UNL     1       5.133   2.728   2.112  1.00  0.00     0.013 C 
ATOM     25  C   UNL     1       3.097   2.040   1.007  1.00  0.00     0.013 C 
ATOM     26  C   UNL     1       3.649   4.433   4.169  1.00  0.00     0.001 C 
ENDBRANCH  17  19
ENDBRANCH   7  13
ENDBRANCH   4   7
ENDBRANCH   2   3
ENDBRANCH   1   2
BRANCH   1  27
ATOM     27  C   UNL     1      -4.005   4.166   4.949  1.00  0.00     0.023 C 
BRANCH  27  28
ATOM     28  C   UNL     1      -5.011   5.087   4.265  1.00  0.00     0.116 C 
BRANCH  28  29
ATOM     29  N   UNL     1      -5.920   4.393   3.365  1.00  0.00    -0.352 N 
ATOM     30  C   UNL     1      -7.216   4.699   3.030  1.00  0.00     0.251 C 
ATOM     31  H   UNL     1      -5.553   3.587   2.933  1.00  0.00     0.163 HD
ATOM     32  O   UNL     1      -7.836   3.976   2.265  1.00  0.00    -0.269 OA
BRANCH  30  33
ATOM     33  C   UNL     1      -7.867   5.872   3.647  1.00  0.00     0.039 A 
ATOM     34  C   UNL     1      -9.118   5.688   4.239  1.00  0.00     0.014 A 
ATOM     35  C   UNL     1      -7.243   7.122   3.680  1.00  0.00     0.014 A 
ATOM     36  C   UNL     1      -9.718   6.746   4.918  1.00  0.00     0.010 A 
ATOM     37  C   UNL     1      -7.813   8.157   4.418  1.00  0.00     0.010 A 
ATOM     38  C   UNL     1      -9.055   7.979   5.043  1.00  0.00    -0.014 A 
BRANCH  38  39
ATOM     39  C   UNL     1      -9.654   9.066   5.855  1.00  0.00     0.031 A 
ATOM     40  C   UNL     1     -10.093  10.351   5.212  1.00  0.00     0.074 A 
ATOM     41  C   UNL     1      -9.766   8.899   7.188  1.00  0.00     0.049 A 
ATOM     42  N   UNL     1     -10.687  11.380   5.758  1.00  0.00    -0.248 NA
ATOM     43  C   UNL     1      -9.810  10.515   3.777  1.00  0.00     0.031 C 
ATOM     44  C   UNL     1      -9.278   7.739   7.939  1.00  0.00     0.029 A 
ATOM     45  N   UNL     1     -10.315   9.709   8.149  1.00  0.00    -0.354 N 
ATOM     46  C   UNL     1     -10.838  12.316   4.742  1.00  0.00     0.074 A 
ATOM     47  C   UNL     1     -10.229  11.753   3.557  1.00  0.00     0.031 C 
ATOM     48  C   UNL     1      -9.560   7.907   9.240  1.00  0.00     0.029 A 
ATOM     49  C   UNL     1     -10.237   9.187   9.419  1.00  0.00     0.049 A 
ATOM     50  H   UNL     1     -10.725  10.581   7.949  1.00  0.00     0.167 HD
ATOM     51  C   UNL     1     -11.463  13.516   4.782  1.00  0.00     0.034 A 
ATOM     52  C   UNL     1     -10.672   9.681  10.595  1.00  0.00     0.034 A 
ATOM     53  C   UNL     1     -12.093  14.056   5.957  1.00  0.00     0.049 A 
ATOM     54  C   UNL     1     -11.423  10.984  10.597  1.00  0.00     0.074 A 
ATOM     55  C   UNL     1     -12.811  15.231   6.088  1.00  0.00     0.029 A 
ATOM     56  N   UNL     1     -12.080  13.455   7.207  1.00  0.00    -0.354 N 
ATOM     57  N   UNL     1     -11.708  11.775   9.590  1.00  0.00    -0.248 NA
ATOM     58  C   UNL     1     -11.956  11.441  11.888  1.00  0.00     0.031 C 
ATOM     59  C   UNL     1     -13.222  15.347   7.420  1.00  0.00     0.029 A 
ATOM     60  C   UNL     1     -12.777  14.234   8.115  1.00  0.00     0.049 A 
ATOM     61  H   UNL     1     -11.640  12.600   7.418  1.00  0.00     0.167 HD
ATOM     62  C   UNL     1     -12.471  12.808  10.120  1.00  0.00     0.074 A 
ATOM     63  C   UNL     1     -12.638  12.520  11.531  1.00  0.00     0.031 C 
ATOM     64  C   UNL     1     -12.968  13.909   9.505  1.00  0.00     0.034 A 
BRANCH  51  65
ATOM     65  C   UNL     1     -11.561  14.295   3.496  1.00  0.00     0.023 A 
ATOM     66  C   UNL     1     -12.427  13.837   2.481  1.00  0.00     0.012 A 
ATOM     67  C   UNL     1     -10.857  15.501   3.311  1.00  0.00     0.148 A 
ATOM     68  C   UNL     1     -12.569  14.549   1.291  1.00  0.00     0.002 A 
ATOM     69  C   UNL     1     -11.037  16.228   2.139  1.00  0.00     0.091 A 
ATOM     70  F   UNL     1     -10.024  15.910   4.278  1.00  0.00    -0.205 F 
ATOM     71  C   UNL     1     -11.883  15.748   1.125  1.00  0.00     0.022 A 
BRANCH  69  72
ATOM     72  S   UNL     1     -10.259  17.822   1.853  1.00  0.00     0.127 S 
ATOM     73  O   UNL     1      -9.319  17.503   0.779  1.00  0.00    -0.237 OA
ATOM     74  O   UNL     1     -11.395  18.648   1.444  1.00  0.00    -0.237 OA
ATOM     75  O   UNL     1      -9.650  18.206   3.119  1.00  0.00    -0.744 OA
ENDBRANCH  69  72
ENDBRANCH  51  65
BRANCH  52  76
ATOM     76  C   UNL     1     -10.475   8.903  11.851  1.00  0.00     0.023 A 
ATOM     77  C   UNL     1     -11.585   8.324  12.495  1.00  0.00     0.012 A 
ATOM     78  C   UNL     1      -9.191   8.715  12.397  1.00  0.00     0.148 A 
ATOM     79  C   UNL     1     -11.425   7.606  13.681  1.00  0.00     0.002 A 
ATOM     80  C   UNL     1      -9.031   7.949  13.546  1.00  0.00     0.091 A 
ATOM     81  F   UNL     1      -8.146   9.285  11.779  1.00  0.00    -0.205 F 
ATOM     82  C   UNL     1     -10.149   7.409  14.200  1.00  0.00     0.022 A 
BRANCH  80  83
ATOM     83  S   UNL     1      -7.409   7.533  14.196  1.00  0.00     0.127 S 
ATOM     84  O   UNL     1      -7.303   8.435  15.338  1.00  0.00    -0.237 OA
ATOM     85  O   UNL     1      -7.570   6.119  14.539  1.00  0.00    -0.237 OA
ATOM     86  O   UNL     1      -6.481   7.777  13.100  1.00  0.00    -0.744 OA
ENDBRANCH  80  83
ENDBRANCH  52  76
BRANCH  64  87
ATOM     87  C   UNL     1     -13.750  14.877  10.354  1.00  0.00     0.023 A 
ATOM     88  C   UNL     1     -13.076  15.671  11.304  1.00  0.00     0.012 A 
ATOM     89  C   UNL     1     -15.139  15.032  10.185  1.00  0.00     0.148 A 
ATOM     90  C   UNL     1     -13.779  16.571  12.104  1.00  0.00     0.002 A 
ATOM     91  C   UNL     1     -15.826  15.966  10.952  1.00  0.00     0.091 A 
ATOM     92  F   UNL     1     -15.768  14.255   9.291  1.00  0.00    -0.205 F 
ATOM     93  C   UNL     1     -15.150  16.725  11.921  1.00  0.00     0.022 A 
BRANCH  91  94
ATOM     94  S   UNL     1     -17.576  16.295  10.716  1.00  0.00     0.127 S 
ATOM     95  O   UNL     1     -18.169  15.579  11.844  1.00  0.00    -0.237 OA
ATOM     96  O   UNL     1     -17.638  17.753  10.819  1.00  0.00    -0.237 OA
ATOM     97  O   UNL     1     -17.902  15.773   9.396  1.00  0.00    -0.744 OA
ENDBRANCH  91  94
ENDBRANCH  64  87
ENDBRANCH  38  39
ENDBRANCH  30  33
ENDBRANCH  28  29
ENDBRANCH  27  28
ENDBRANCH   1  27
TORSDOF 19
