REMARK SMILES CCCCN(c1ccccc1C(=O)NCCCCNC(=O)c1ccc(-c2c3nc(c(-c4cccc(S(=O)(=O)[O-])c4F)c4ccc([nH]4)c(-c4cccc(S(=O)(=O)[O-])c4F)c4nc(c(-c5cccc(S(=O)(=O)[O-])c5F)c5ccc2[nH]5)C=C4)C=C3)cc1)S(=O)(=O)c1ccc2c(c1)oc(=O)n2C
REMARK SMILES IDX 16 1 15 2 14 3 12 4 13 5 11 7 6 8 7 9 8 10 10 11 9 12 5 13
REMARK SMILES IDX 4 14 3 15 2 16 1 17 85 18 86 19 87 20 88 21 89 22 93 23
REMARK SMILES IDX 90 24 92 25 91 26 94 27 97 28 95 29 98 30 96 31 17 32 18 33
REMARK SMILES IDX 19 34 20 35 21 37 22 38 23 39 84 40 24 41 83 42 25 43 26 44
REMARK SMILES IDX 27 45 77 46 28 47 82 48 76 49 78 50 29 51 81 52 75 53 74 54
REMARK SMILES IDX 30 56 62 57 42 58 61 59 43 60 46 61 60 62 79 63 44 64 45 65
REMARK SMILES IDX 59 67 80 68 47 69 31 70 32 71 40 72 33 73 35 74 41 75 34 76
REMARK SMILES IDX 36 77 37 78 38 79 39 80 63 81 64 82 72 83 65 84 67 85 73 86
REMARK SMILES IDX 66 87 68 88 69 89 70 90 71 91 48 92 49 93 57 94 50 95 52 96
REMARK SMILES IDX 58 97 51 98 53 99 54 100 55 101 56 102
REMARK H PARENT 14 6 19 36 78 55 46 66
REMARK Flexibility Score: inf
ROOT
ATOM      1  C   UNL     1      -0.139  -2.345  -2.374  1.00  0.00     0.023 C 
ENDROOT
BRANCH   1   2
ATOM      2  C   UNL     1      -0.415  -0.921  -2.837  1.00  0.00     0.116 C 
BRANCH   2   3
ATOM      3  N   UNL     1       0.100  -0.572  -4.139  1.00  0.00    -0.352 N 
ATOM      4  C   UNL     1      -0.287   0.409  -5.019  1.00  0.00     0.253 C 
ATOM      5  O   UNL     1       0.373   0.523  -6.056  1.00  0.00    -0.269 OA
ATOM      6  H   UNL     1       0.851  -1.128  -4.447  1.00  0.00     0.163 HD
BRANCH   4   7
ATOM      7  C   UNL     1      -1.464   1.321  -4.857  1.00  0.00     0.064 A 
ATOM      8  C   UNL     1      -1.833   2.071  -3.721  1.00  0.00     0.065 A 
ATOM      9  C   UNL     1      -2.782   3.102  -3.866  1.00  0.00     0.028 A 
ATOM     10  C   UNL     1      -3.475   3.298  -5.060  1.00  0.00     0.002 A 
ATOM     11  C   UNL     1      -2.164   1.553  -6.064  1.00  0.00     0.016 A 
ATOM     12  C   UNL     1      -3.178   2.508  -6.159  1.00  0.00     0.001 A 
BRANCH   8  13
ATOM     13  N   UNL     1      -1.193   1.928  -2.436  1.00  0.00    -0.266 N 
BRANCH  13  14
ATOM     14  C   UNL     1       0.217   2.453  -2.361  1.00  0.00     0.136 C 
BRANCH  14  15
ATOM     15  C   UNL     1       0.654   3.370  -1.212  1.00  0.00     0.022 C 
BRANCH  15  16
ATOM     16  C   UNL     1       0.689   2.868   0.233  1.00  0.00    -0.002 C 
ATOM     17  C   UNL     1       1.269   1.485   0.431  1.00  0.00     0.004 C 
ENDBRANCH  15  16
ENDBRANCH  14  15
ENDBRANCH  13  14
BRANCH  13  18
ATOM     18  S   UNL     1      -2.167   1.766  -1.046  1.00  0.00     0.264 S 
ATOM     19  O   UNL     1      -1.575   0.748  -0.203  1.00  0.00    -0.201 OA
ATOM     20  O   UNL     1      -2.438   3.095  -0.534  1.00  0.00    -0.201 OA
BRANCH  18  21
ATOM     21  C   UNL     1      -3.771   1.094  -1.519  1.00  0.00     0.091 A 
ATOM     22  C   UNL     1      -4.866   1.988  -1.622  1.00  0.00     0.025 A 
ATOM     23  C   UNL     1      -3.984  -0.291  -1.548  1.00  0.00     0.071 A 
ATOM     24  C   UNL     1      -6.168   1.521  -1.826  1.00  0.00     0.032 A 
ATOM     25  C   UNL     1      -5.285  -0.724  -1.735  1.00  0.00     0.157 A 
ATOM     26  C   UNL     1      -6.341   0.158  -1.876  1.00  0.00     0.090 A 
ATOM     27  O   UNL     1      -5.697  -2.050  -1.763  1.00  0.00    -0.408 OA
ATOM     28  N   UNL     1      -7.468  -0.615  -2.012  1.00  0.00    -0.277 N 
ATOM     29  C   UNL     1      -7.088  -1.942  -1.935  1.00  0.00     0.419 A 
ATOM     30  C   UNL     1      -8.814  -0.159  -2.204  1.00  0.00     0.157 C 
ATOM     31  O   UNL     1      -7.835  -2.902  -2.002  1.00  0.00    -0.223 OA
ENDBRANCH  18  21
ENDBRANCH  13  18
ENDBRANCH   8  13
ENDBRANCH   4   7
ENDBRANCH   2   3
ENDBRANCH   1   2
BRANCH   1  32
ATOM     32  C   UNL     1       1.329  -2.744  -2.204  1.00  0.00     0.023 C 
BRANCH  32  33
ATOM     33  C   UNL     1       2.225  -1.843  -1.359  1.00  0.00     0.116 C 
BRANCH  33  34
ATOM     34  N   UNL     1       1.792  -1.643   0.017  1.00  0.00    -0.352 N 
ATOM     35  C   UNL     1       2.530  -1.593   1.182  1.00  0.00     0.251 C 
ATOM     36  H   UNL     1       0.822  -1.526   0.135  1.00  0.00     0.163 HD
ATOM     37  O   UNL     1       1.989  -1.284   2.242  1.00  0.00    -0.269 OA
BRANCH  35  38
ATOM     38  C   UNL     1       3.948  -2.012   1.194  1.00  0.00     0.039 A 
ATOM     39  C   UNL     1       4.324  -2.956   2.154  1.00  0.00     0.014 A 
ATOM     40  C   UNL     1       4.865  -1.586   0.232  1.00  0.00     0.014 A 
ATOM     41  C   UNL     1       5.558  -3.594   2.050  1.00  0.00     0.010 A 
ATOM     42  C   UNL     1       6.060  -2.286   0.074  1.00  0.00     0.010 A 
ATOM     43  C   UNL     1       6.394  -3.325   0.956  1.00  0.00    -0.014 A 
BRANCH  43  44
ATOM     44  C   UNL     1       7.561  -4.200   0.681  1.00  0.00     0.031 A 
ATOM     45  C   UNL     1       8.954  -3.649   0.710  1.00  0.00     0.074 A 
ATOM     46  C   UNL     1       7.341  -5.487   0.337  1.00  0.00     0.049 A 
ATOM     47  N   UNL     1      10.086  -4.268   0.500  1.00  0.00    -0.248 NA
ATOM     48  C   UNL     1       9.097  -2.211   0.987  1.00  0.00     0.031 C 
ATOM     49  C   UNL     1       6.021  -6.109   0.191  1.00  0.00     0.029 A 
ATOM     50  N   UNL     1       8.215  -6.501   0.033  1.00  0.00    -0.354 N 
ATOM     51  C   UNL     1      11.072  -3.296   0.593  1.00  0.00     0.074 A 
ATOM     52  C   UNL     1      10.403  -2.038   0.843  1.00  0.00     0.031 C 
ATOM     53  C   UNL     1       6.173  -7.396  -0.155  1.00  0.00     0.029 A 
ATOM     54  C   UNL     1       7.595  -7.687  -0.291  1.00  0.00     0.049 A 
ATOM     55  H   UNL     1       9.193  -6.391   0.045  1.00  0.00     0.167 HD
ATOM     56  C   UNL     1      12.415  -3.443   0.503  1.00  0.00     0.034 A 
ATOM     57  C   UNL     1       8.114  -8.874  -0.660  1.00  0.00     0.034 A 
ATOM     58  C   UNL     1      13.068  -4.704   0.274  1.00  0.00     0.049 A 
ATOM     59  C   UNL     1       9.610  -9.018  -0.717  1.00  0.00     0.074 A 
ATOM     60  C   UNL     1      14.423  -4.978   0.242  1.00  0.00     0.029 A 
ATOM     61  N   UNL     1      12.412  -5.900   0.021  1.00  0.00    -0.354 N 
ATOM     62  N   UNL     1      10.534  -8.121  -0.466  1.00  0.00    -0.248 NA
ATOM     63  C   UNL     1      10.139 -10.342  -1.073  1.00  0.00     0.031 C 
ATOM     64  C   UNL     1      14.586  -6.332  -0.067  1.00  0.00     0.029 A 
ATOM     65  C   UNL     1      13.333  -6.912  -0.185  1.00  0.00     0.049 A 
ATOM     66  H   UNL     1      11.434  -6.012  -0.009  1.00  0.00     0.167 HD
ATOM     67  C   UNL     1      11.750  -8.779  -0.599  1.00  0.00     0.074 A 
ATOM     68  C   UNL     1      11.444 -10.156  -0.931  1.00  0.00     0.031 C 
ATOM     69  C   UNL     1      13.007  -8.286  -0.471  1.00  0.00     0.034 A 
BRANCH  56  70
ATOM     70  C   UNL     1      13.265  -2.213   0.684  1.00  0.00     0.023 A 
ATOM     71  C   UNL     1      13.359  -1.608   1.955  1.00  0.00     0.012 A 
ATOM     72  C   UNL     1      14.002  -1.678  -0.390  1.00  0.00     0.148 A 
ATOM     73  C   UNL     1      14.138  -0.467   2.144  1.00  0.00     0.002 A 
ATOM     74  C   UNL     1      14.814  -0.569  -0.183  1.00  0.00     0.091 A 
ATOM     75  F   UNL     1      13.885  -2.254  -1.595  1.00  0.00    -0.205 F 
ATOM     76  C   UNL     1      14.872   0.046   1.078  1.00  0.00     0.022 A 
BRANCH  74  77
ATOM     77  S   UNL     1      15.860   0.121  -1.470  1.00  0.00     0.127 S 
ATOM     78  O   UNL     1      15.210   1.408  -1.718  1.00  0.00    -0.237 OA
ATOM     79  O   UNL     1      17.155   0.212  -0.795  1.00  0.00    -0.237 OA
ATOM     80  O   UNL     1      15.814  -0.823  -2.577  1.00  0.00    -0.744 OA
ENDBRANCH  74  77
ENDBRANCH  56  70
BRANCH  57  81
ATOM     81  C   UNL     1       7.217 -10.031  -0.949  1.00  0.00     0.023 A 
ATOM     82  C   UNL     1       7.198 -11.135  -0.074  1.00  0.00     0.012 A 
ATOM     83  C   UNL     1       6.366 -10.033  -2.071  1.00  0.00     0.148 A 
ATOM     84  C   UNL     1       6.376 -12.234  -0.331  1.00  0.00     0.002 A 
ATOM     85  C   UNL     1       5.509 -11.105  -2.291  1.00  0.00     0.091 A 
ATOM     86  F   UNL     1       6.404  -8.979  -2.898  1.00  0.00    -0.205 F 
ATOM     87  C   UNL     1       5.525 -12.215  -1.432  1.00  0.00     0.022 A 
BRANCH  85  88
ATOM     88  S   UNL     1       4.289 -11.111  -3.610  1.00  0.00     0.127 S 
ATOM     89  O   UNL     1       4.822 -12.133  -4.506  1.00  0.00    -0.237 OA
ATOM     90  O   UNL     1       3.072 -11.492  -2.893  1.00  0.00    -0.237 OA
ATOM     91  O   UNL     1       4.274  -9.753  -4.137  1.00  0.00    -0.744 OA
ENDBRANCH  85  88
ENDBRANCH  57  81
BRANCH  69  92
ATOM     92  C   UNL     1      14.152  -9.247  -0.653  1.00  0.00     0.023 A 
ATOM     93  C   UNL     1      14.464  -9.739  -1.935  1.00  0.00     0.012 A 
ATOM     94  C   UNL     1      14.966  -9.601   0.442  1.00  0.00     0.148 A 
ATOM     95  C   UNL     1      15.549 -10.596  -2.120  1.00  0.00     0.002 A 
ATOM     96  C   UNL     1      16.076 -10.410   0.241  1.00  0.00     0.091 A 
ATOM     97  F   UNL     1      14.640  -9.137   1.657  1.00  0.00    -0.205 F 
ATOM     98  C   UNL     1      16.361 -10.920  -1.036  1.00  0.00     0.022 A 
BRANCH  96  99
ATOM     99  S   UNL     1      17.237 -10.795   1.556  1.00  0.00     0.127 S 
ATOM    100  O   UNL     1      16.966 -12.213   1.787  1.00  0.00    -0.237 OA
ATOM    101  O   UNL     1      18.526 -10.515   0.922  1.00  0.00    -0.237 OA
ATOM    102  O   UNL     1      16.902  -9.908   2.662  1.00  0.00    -0.744 OA
ENDBRANCH  96  99
ENDBRANCH  69  92
ENDBRANCH  43  44
ENDBRANCH  35  38
ENDBRANCH  33  34
ENDBRANCH  32  33
ENDBRANCH   1  32
TORSDOF 20
