REMARK SMILES C[C@H](C(=O)NCCCCNC(=O)c1ccc(-c2c3nc(c(-c4cccc(S(=O)(=O)[O-])c4F)c4ccc([nH]4)c(-c4cccc(S(=O)(=O)[O-])c4F)c4nc(c(-c5cccc(S(=O)(=O)[O-])c5F)c5ccc2[nH]5)C=C4)C=C3)cc1)c1cccc(C(=O)c2ccccc2)c1
REMARK SMILES IDX 7 1 6 2 5 3 3 4 4 5 2 7 1 8 76 9 77 10 89 11 78 12 80 13
REMARK SMILES IDX 79 14 81 15 82 16 83 17 84 18 88 19 85 20 87 21 86 22 8 23
REMARK SMILES IDX 9 24 10 25 11 26 12 28 13 29 14 30 75 31 15 32 74 33 16 34
REMARK SMILES IDX 17 35 18 36 68 37 19 38 73 39 67 40 69 41 20 42 72 43 66 44
REMARK SMILES IDX 65 45 21 47 53 48 33 49 52 50 34 51 37 52 51 53 70 54 35 55
REMARK SMILES IDX 36 56 50 58 71 59 38 60 22 61 23 62 31 63 24 64 26 65 32 66
REMARK SMILES IDX 25 67 27 68 28 69 29 70 30 71 54 72 55 73 63 74 56 75 58 76
REMARK SMILES IDX 64 77 57 78 59 79 60 80 61 81 62 82 39 83 40 84 48 85 41 86
REMARK SMILES IDX 43 87 49 88 42 89 44 90 45 91 46 92 47 93
REMARK H PARENT 5 6 10 27 69 46 37 57
REMARK Flexibility Score: inf
ROOT
ATOM      1  C   UNL     1      -2.051   0.925  -1.167  1.00  0.00     0.023 C 
ENDROOT
BRANCH   1   2
ATOM      2  C   UNL     1      -1.083  -0.249  -1.325  1.00  0.00     0.116 C 
BRANCH   2   3
ATOM      3  N   UNL     1       0.261   0.133  -0.943  1.00  0.00    -0.356 N 
ATOM      4  C   UNL     1       0.914   0.088   0.248  1.00  0.00     0.227 C 
ATOM      5  O   UNL     1       2.023   0.638   0.265  1.00  0.00    -0.274 OA
ATOM      6  H   UNL     1       0.802   0.491  -1.684  1.00  0.00     0.163 HD
BRANCH   4   7
ATOM      7  C   UNL     1       0.431  -0.710   1.473  1.00  0.00     0.105 C 
ATOM      8  C   UNL     1       1.158  -0.203   2.730  1.00  0.00     0.023 C 
BRANCH   7   9
ATOM      9  C   UNL     1      -1.061  -0.786   1.748  1.00  0.00    -0.035 A 
ATOM     10  C   UNL     1      -1.818   0.338   2.102  1.00  0.00     0.004 A 
ATOM     11  C   UNL     1      -1.715  -2.029   1.635  1.00  0.00     0.016 A 
ATOM     12  C   UNL     1      -3.203   0.238   2.261  1.00  0.00     0.001 A 
ATOM     13  C   UNL     1      -3.099  -2.142   1.822  1.00  0.00     0.023 A 
ATOM     14  C   UNL     1      -3.843  -0.993   2.110  1.00  0.00     0.012 A 
BRANCH  13  15
ATOM     15  C   UNL     1      -3.817  -3.438   1.649  1.00  0.00     0.193 C 
ATOM     16  O   UNL     1      -5.026  -3.446   1.433  1.00  0.00    -0.289 OA
BRANCH  15  17
ATOM     17  C   UNL     1      -3.099  -4.734   1.701  1.00  0.00     0.022 A 
ATOM     18  C   UNL     1      -3.372  -5.690   0.718  1.00  0.00     0.012 A 
ATOM     19  C   UNL     1      -2.174  -5.013   2.714  1.00  0.00     0.012 A 
ATOM     20  C   UNL     1      -2.685  -6.905   0.720  1.00  0.00     0.001 A 
ATOM     21  C   UNL     1      -1.486  -6.228   2.709  1.00  0.00     0.001 A 
ATOM     22  C   UNL     1      -1.737  -7.168   1.709  1.00  0.00     0.000 A 
ENDBRANCH  15  17
ENDBRANCH  13  15
ENDBRANCH   7   9
ENDBRANCH   4   7
ENDBRANCH   2   3
ENDBRANCH   1   2
BRANCH   1  23
ATOM     23  C   UNL     1      -2.005   1.948  -2.302  1.00  0.00     0.023 C 
BRANCH  23  24
ATOM     24  C   UNL     1      -2.364   1.398  -3.674  1.00  0.00     0.116 C 
BRANCH  24  25
ATOM     25  N   UNL     1      -3.671   0.760  -3.719  1.00  0.00    -0.352 N 
ATOM     26  C   UNL     1      -4.558   0.713  -4.768  1.00  0.00     0.251 C 
ATOM     27  H   UNL     1      -3.956   0.305  -2.894  1.00  0.00     0.163 HD
ATOM     28  O   UNL     1      -5.673   0.223  -4.612  1.00  0.00    -0.269 OA
BRANCH  26  29
ATOM     29  C   UNL     1      -4.169   1.290  -6.071  1.00  0.00     0.039 A 
ATOM     30  C   UNL     1      -5.069   2.127  -6.734  1.00  0.00     0.014 A 
ATOM     31  C   UNL     1      -2.910   1.032  -6.620  1.00  0.00     0.014 A 
ATOM     32  C   UNL     1      -4.686   2.742  -7.927  1.00  0.00     0.010 A 
ATOM     33  C   UNL     1      -2.499   1.715  -7.757  1.00  0.00     0.010 A 
ATOM     34  C   UNL     1      -3.389   2.560  -8.435  1.00  0.00    -0.014 A 
BRANCH  34  35
ATOM     35  C   UNL     1      -2.954   3.223  -9.689  1.00  0.00     0.031 A 
ATOM     36  C   UNL     1      -2.569   2.392 -10.884  1.00  0.00     0.074 A 
ATOM     37  C   UNL     1      -2.833   4.564  -9.729  1.00  0.00     0.049 A 
ATOM     38  N   UNL     1      -2.151   2.782 -12.059  1.00  0.00    -0.248 NA
ATOM     39  C   UNL     1      -2.627   0.928 -10.728  1.00  0.00     0.031 C 
ATOM     40  C   UNL     1      -3.086   5.472  -8.608  1.00  0.00     0.029 A 
ATOM     41  N   UNL     1      -2.448   5.397 -10.749  1.00  0.00    -0.354 N 
ATOM     42  C   UNL     1      -1.855   1.620 -12.762  1.00  0.00     0.074 A 
ATOM     43  C   UNL     1      -2.102   0.511 -11.870  1.00  0.00     0.031 C 
ATOM     44  C   UNL     1      -2.871   6.736  -9.008  1.00  0.00     0.029 A 
ATOM     45  C   UNL     1      -2.445   6.729 -10.404  1.00  0.00     0.049 A 
ATOM     46  H   UNL     1      -2.197   5.072 -11.644  1.00  0.00     0.167 HD
ATOM     47  C   UNL     1      -1.450   1.485 -14.047  1.00  0.00     0.034 A 
ATOM     48  C   UNL     1      -2.146   7.819 -11.136  1.00  0.00     0.034 A 
ATOM     49  C   UNL     1      -1.272   2.589 -14.950  1.00  0.00     0.049 A 
ATOM     50  C   UNL     1      -1.773   7.642 -12.584  1.00  0.00     0.074 A 
ATOM     51  C   UNL     1      -0.974   2.558 -16.300  1.00  0.00     0.029 A 
ATOM     52  N   UNL     1      -1.374   3.924 -14.591  1.00  0.00    -0.354 N 
ATOM     53  N   UNL     1      -1.674   6.537 -13.283  1.00  0.00    -0.248 NA
ATOM     54  C   UNL     1      -1.513   8.866 -13.356  1.00  0.00     0.031 C 
ATOM     55  C   UNL     1      -0.878   3.878 -16.755  1.00  0.00     0.029 A 
ATOM     56  C   UNL     1      -1.139   4.729 -15.692  1.00  0.00     0.049 A 
ATOM     57  H   UNL     1      -1.583   4.252 -13.687  1.00  0.00     0.167 HD
ATOM     58  C   UNL     1      -1.384   6.933 -14.584  1.00  0.00     0.074 A 
ATOM     59  C   UNL     1      -1.341   8.382 -14.578  1.00  0.00     0.031 C 
ATOM     60  C   UNL     1      -1.160   6.169 -15.681  1.00  0.00     0.034 A 
BRANCH  47  61
ATOM     61  C   UNL     1      -1.232   0.088 -14.567  1.00  0.00     0.023 A 
ATOM     62  C   UNL     1      -2.339  -0.760 -14.777  1.00  0.00     0.012 A 
ATOM     63  C   UNL     1       0.060  -0.374 -14.886  1.00  0.00     0.148 A 
ATOM     64  C   UNL     1      -2.162  -2.058 -15.255  1.00  0.00     0.002 A 
ATOM     65  C   UNL     1       0.224  -1.653 -15.408  1.00  0.00     0.091 A 
ATOM     66  F   UNL     1       1.104   0.435 -14.658  1.00  0.00    -0.205 F 
ATOM     67  C   UNL     1      -0.883  -2.500 -15.580  1.00  0.00     0.022 A 
BRANCH  65  68
ATOM     68  S   UNL     1       1.822  -2.284 -15.932  1.00  0.00     0.127 S 
ATOM     69  O   UNL     1       2.127  -3.237 -14.866  1.00  0.00    -0.237 OA
ATOM     70  O   UNL     1       1.504  -2.896 -17.223  1.00  0.00    -0.237 OA
ATOM     71  O   UNL     1       2.702  -1.127 -16.011  1.00  0.00    -0.744 OA
ENDBRANCH  65  68
ENDBRANCH  47  61
BRANCH  48  72
ATOM     72  C   UNL     1      -2.291   9.179 -10.544  1.00  0.00     0.023 A 
ATOM     73  C   UNL     1      -3.343  10.008 -10.982  1.00  0.00     0.012 A 
ATOM     74  C   UNL     1      -1.421   9.647  -9.541  1.00  0.00     0.148 A 
ATOM     75  C   UNL     1      -3.506  11.290 -10.457  1.00  0.00     0.002 A 
ATOM     76  C   UNL     1      -1.620  10.906  -8.985  1.00  0.00     0.091 A 
ATOM     77  F   UNL     1      -0.420   8.848  -9.145  1.00  0.00    -0.205 F 
ATOM     78  C   UNL     1      -2.652  11.735  -9.453  1.00  0.00     0.022 A 
BRANCH  76  79
ATOM     79  S   UNL     1      -0.648  11.513  -7.602  1.00  0.00     0.127 S 
ATOM     80  O   UNL     1       0.163  12.548  -8.238  1.00  0.00    -0.237 OA
ATOM     81  O   UNL     1      -1.686  12.012  -6.698  1.00  0.00    -0.237 OA
ATOM     82  O   UNL     1       0.081  10.357  -7.097  1.00  0.00    -0.744 OA
ENDBRANCH  76  79
ENDBRANCH  48  72
BRANCH  60  83
ATOM     83  C   UNL     1      -0.890   6.878 -16.982  1.00  0.00     0.023 A 
ATOM     84  C   UNL     1       0.343   7.529 -17.184  1.00  0.00     0.012 A 
ATOM     85  C   UNL     1      -1.831   6.837 -18.030  1.00  0.00     0.148 A 
ATOM     86  C   UNL     1       0.620   8.160 -18.396  1.00  0.00     0.002 A 
ATOM     87  C   UNL     1      -1.527   7.425 -19.252  1.00  0.00     0.091 A 
ATOM     88  F   UNL     1      -3.007   6.231 -17.812  1.00  0.00    -0.205 F 
ATOM     89  C   UNL     1      -0.308   8.098 -19.433  1.00  0.00     0.022 A 
BRANCH  87  90
ATOM     90  S   UNL     1      -2.623   7.302 -20.670  1.00  0.00     0.127 S 
ATOM     91  O   UNL     1      -3.228   8.632 -20.696  1.00  0.00    -0.237 OA
ATOM     92  O   UNL     1      -1.690   7.035 -21.765  1.00  0.00    -0.237 OA
ATOM     93  O   UNL     1      -3.532   6.202 -20.375  1.00  0.00    -0.744 OA
ENDBRANCH  87  90
ENDBRANCH  60  83
ENDBRANCH  34  35
ENDBRANCH  26  29
ENDBRANCH  24  25
ENDBRANCH  23  24
ENDBRANCH   1  23
TORSDOF 17
