REMARK SMILES Cc1cc(C)n2ncc(C(=O)N(C)CCCC(=O)NCCCCNC(=O)c3ccc(-c4c5nc(c(-c6cccc(S(=O)(=O)[O-])c6F)c6ccc([nH]6)c(-c6cccc(S(=O)(=O)[O-])c6F)c6nc(c(-c7cccc(S(=O)(=O)[O-])c7F)c7ccc4[nH]7)C=C6)C=C5)cc3)c2n1
REMARK SMILES IDX 20 1 19 2 17 3 18 4 16 6 15 7 14 8 12 9 13 10 10 11 11 12
REMARK SMILES IDX 9 13 1 14 2 15 3 16 91 17 4 18 90 19 5 20 6 21 7 22 8 23
REMARK SMILES IDX 21 24 22 25 23 26 24 27 25 28 26 30 27 31 28 32 89 33 29 34
REMARK SMILES IDX 88 35 30 36 31 37 32 38 82 39 33 40 87 41 81 42 83 43 34 44
REMARK SMILES IDX 86 45 80 46 79 47 35 49 67 50 47 51 66 52 48 53 51 54 65 55
REMARK SMILES IDX 84 56 49 57 50 58 64 60 85 61 52 62 36 63 37 64 45 65 38 66
REMARK SMILES IDX 40 67 46 68 39 69 41 70 42 71 43 72 44 73 68 74 69 75 77 76
REMARK SMILES IDX 70 77 72 78 78 79 71 80 73 81 74 82 75 83 76 84 53 85 54 86
REMARK SMILES IDX 62 87 55 88 57 89 63 90 56 91 58 92 59 93 60 94 61 95
REMARK H PARENT 19 5 24 29 83 48 51 59
REMARK Flexibility Score: inf
ROOT
ATOM      1  C   UNL     1       3.799   6.122  -0.777  1.00  0.00     0.116 C 
ENDROOT
BRANCH   1   2
ATOM      2  N   UNL     1       3.790   6.397   0.644  1.00  0.00    -0.356 N 
ATOM      3  C   UNL     1       2.749   6.747   1.450  1.00  0.00     0.220 C 
ATOM      4  O   UNL     1       3.005   7.231   2.555  1.00  0.00    -0.275 OA
ATOM      5  H   UNL     1       4.662   6.320   1.094  1.00  0.00     0.163 HD
BRANCH   3   6
ATOM      6  C   UNL     1       1.315   6.488   1.021  1.00  0.00     0.102 C 
BRANCH   6   7
ATOM      7  C   UNL     1       0.574   7.578   0.239  1.00  0.00     0.031 C 
BRANCH   7   8
ATOM      8  C   UNL     1       0.811   7.780  -1.265  1.00  0.00     0.120 C 
BRANCH   8   9
ATOM      9  N   UNL     1       0.536   6.770  -2.308  1.00  0.00    -0.342 N 
ATOM     10  C   UNL     1       0.801   7.258  -3.657  1.00  0.00     0.147 C 
BRANCH   9  11
ATOM     11  C   UNL     1      -0.068   5.532  -2.019  1.00  0.00     0.259 C 
ATOM     12  O   UNL     1      -0.544   5.329  -0.904  1.00  0.00    -0.269 OA
BRANCH  11  13
ATOM     13  C   UNL     1      -0.177   4.475  -3.030  1.00  0.00     0.104 A 
ATOM     14  C   UNL     1       0.624   0.422  -0.369  1.00  0.00     0.067 C 
ATOM     15  C   UNL     1       0.242   1.174  -1.608  1.00  0.00     0.042 A 
ATOM     16  C   UNL     1      -0.209   0.347  -2.769  1.00  0.00     0.047 A 
ATOM     17  N   UNL     1       0.346   2.471  -1.615  1.00  0.00    -0.233 NA
ATOM     18  C   UNL     1      -0.505   1.014  -3.897  1.00  0.00     0.043 A 
ATOM     19  C   UNL     1      -0.022   3.121  -2.758  1.00  0.00     0.168 A 
ATOM     20  C   UNL     1      -0.986   0.313  -5.129  1.00  0.00     0.067 C 
ATOM     21  N   UNL     1      -0.399   2.416  -3.909  1.00  0.00    -0.219 N 
ATOM     22  N   UNL     1      -0.671   3.269  -4.933  1.00  0.00    -0.174 NA
ATOM     23  C   UNL     1      -0.581   4.481  -4.380  1.00  0.00     0.151 A 
ENDBRANCH  11  13
ENDBRANCH   9  11
ENDBRANCH   8   9
ENDBRANCH   7   8
ENDBRANCH   6   7
ENDBRANCH   3   6
ENDBRANCH   1   2
BRANCH   1  24
ATOM     24  C   UNL     1       4.297   7.364  -1.533  1.00  0.00     0.023 C 
BRANCH  24  25
ATOM     25  C   UNL     1       5.821   7.487  -1.644  1.00  0.00     0.023 C 
BRANCH  25  26
ATOM     26  C   UNL     1       6.405   6.609  -2.739  1.00  0.00     0.116 C 
BRANCH  26  27
ATOM     27  N   UNL     1       6.013   7.041  -4.086  1.00  0.00    -0.352 N 
ATOM     28  C   UNL     1       6.227   6.368  -5.282  1.00  0.00     0.251 C 
ATOM     29  H   UNL     1       5.546   7.905  -4.148  1.00  0.00     0.163 HD
ATOM     30  O   UNL     1       6.140   6.912  -6.353  1.00  0.00    -0.269 OA
BRANCH  28  31
ATOM     31  C   UNL     1       6.556   4.932  -5.171  1.00  0.00     0.039 A 
ATOM     32  C   UNL     1       7.731   4.407  -5.718  1.00  0.00     0.014 A 
ATOM     33  C   UNL     1       5.720   4.168  -4.366  1.00  0.00     0.014 A 
ATOM     34  C   UNL     1       8.112   3.110  -5.370  1.00  0.00     0.010 A 
ATOM     35  C   UNL     1       6.180   2.962  -3.905  1.00  0.00     0.010 A 
ATOM     36  C   UNL     1       7.341   2.397  -4.445  1.00  0.00    -0.014 A 
BRANCH  36  37
ATOM     37  C   UNL     1       7.717   1.062  -3.977  1.00  0.00     0.031 A 
ATOM     38  C   UNL     1       8.971   0.922  -3.163  1.00  0.00     0.074 A 
ATOM     39  C   UNL     1       6.785   0.080  -3.977  1.00  0.00     0.049 A 
ATOM     40  N   UNL     1       9.925   0.052  -3.287  1.00  0.00    -0.248 NA
ATOM     41  C   UNL     1       9.197   1.889  -2.076  1.00  0.00     0.031 C 
ATOM     42  C   UNL     1       5.372   0.174  -4.388  1.00  0.00     0.029 A 
ATOM     43  N   UNL     1       6.844  -1.147  -3.399  1.00  0.00    -0.354 N 
ATOM     44  C   UNL     1      10.796   0.259  -2.209  1.00  0.00     0.074 A 
ATOM     45  C   UNL     1      10.352   1.466  -1.559  1.00  0.00     0.031 C 
ATOM     46  C   UNL     1       4.662  -0.792  -3.767  1.00  0.00     0.029 A 
ATOM     47  C   UNL     1       5.595  -1.690  -3.120  1.00  0.00     0.049 A 
ATOM     48  H   UNL     1       7.690  -1.609  -3.198  1.00  0.00     0.167 HD
ATOM     49  C   UNL     1      11.746  -0.643  -1.826  1.00  0.00     0.034 A 
ATOM     50  C   UNL     1       5.346  -2.781  -2.365  1.00  0.00     0.034 A 
ATOM     51  C   UNL     1      11.962  -1.656  -2.819  1.00  0.00     0.049 A 
ATOM     52  C   UNL     1       6.609  -3.536  -2.242  1.00  0.00     0.074 A 
ATOM     53  C   UNL     1      12.447  -1.677  -4.110  1.00  0.00     0.029 A 
ATOM     54  N   UNL     1      11.340  -2.865  -2.637  1.00  0.00    -0.354 N 
ATOM     55  N   UNL     1       7.213  -4.104  -3.247  1.00  0.00    -0.248 NA
ATOM     56  C   UNL     1       7.414  -3.330  -1.052  1.00  0.00     0.031 C 
ATOM     57  C   UNL     1      11.665  -2.666  -4.777  1.00  0.00     0.029 A 
ATOM     58  C   UNL     1      10.779  -3.206  -3.841  1.00  0.00     0.049 A 
ATOM     59  H   UNL     1      11.303  -3.387  -1.803  1.00  0.00     0.167 HD
ATOM     60  C   UNL     1       8.564  -3.941  -2.977  1.00  0.00     0.074 A 
ATOM     61  C   UNL     1       8.623  -3.576  -1.562  1.00  0.00     0.031 C 
ATOM     62  C   UNL     1       9.483  -3.836  -3.984  1.00  0.00     0.034 A 
BRANCH  49  63
ATOM     63  C   UNL     1      12.365  -0.752  -0.451  1.00  0.00     0.023 A 
ATOM     64  C   UNL     1      13.560  -1.496  -0.307  1.00  0.00     0.012 A 
ATOM     65  C   UNL     1      11.726  -0.339   0.738  1.00  0.00     0.148 A 
ATOM     66  C   UNL     1      14.089  -1.811   0.951  1.00  0.00     0.002 A 
ATOM     67  C   UNL     1      12.302  -0.578   1.984  1.00  0.00     0.091 A 
ATOM     68  F   UNL     1      10.496   0.184   0.678  1.00  0.00    -0.205 F 
ATOM     69  C   UNL     1      13.470  -1.335   2.099  1.00  0.00     0.022 A 
BRANCH  67  70
ATOM     70  S   UNL     1      11.596   0.106   3.489  1.00  0.00     0.127 S 
ATOM     71  O   UNL     1      10.909  -1.052   4.049  1.00  0.00    -0.237 OA
ATOM     72  O   UNL     1      12.792   0.529   4.221  1.00  0.00    -0.237 OA
ATOM     73  O   UNL     1      10.757   1.211   3.040  1.00  0.00    -0.744 OA
ENDBRANCH  67  70
ENDBRANCH  49  63
BRANCH  50  74
ATOM     74  C   UNL     1       4.196  -3.064  -1.490  1.00  0.00     0.023 A 
ATOM     75  C   UNL     1       3.691  -4.371  -1.404  1.00  0.00     0.012 A 
ATOM     76  C   UNL     1       3.820  -2.116  -0.513  1.00  0.00     0.148 A 
ATOM     77  C   UNL     1       2.844  -4.737  -0.353  1.00  0.00     0.002 A 
ATOM     78  C   UNL     1       3.013  -2.500   0.553  1.00  0.00     0.091 A 
ATOM     79  F   UNL     1       4.325  -0.878  -0.599  1.00  0.00    -0.205 F 
ATOM     80  C   UNL     1       2.519  -3.808   0.632  1.00  0.00     0.022 A 
BRANCH  78  81
ATOM     81  S   UNL     1       2.646  -1.415   1.940  1.00  0.00     0.127 S 
ATOM     82  O   UNL     1       1.187  -1.505   2.001  1.00  0.00    -0.237 OA
ATOM     83  O   UNL     1       3.349  -2.083   3.031  1.00  0.00    -0.237 OA
ATOM     84  O   UNL     1       3.162  -0.108   1.560  1.00  0.00    -0.744 OA
ENDBRANCH  78  81
ENDBRANCH  50  74
BRANCH  62  85
ATOM     85  C   UNL     1       9.020  -4.087  -5.405  1.00  0.00     0.023 A 
ATOM     86  C   UNL     1       8.046  -3.271  -6.021  1.00  0.00     0.012 A 
ATOM     87  C   UNL     1       9.716  -5.011  -6.202  1.00  0.00     0.148 A 
ATOM     88  C   UNL     1       7.760  -3.380  -7.385  1.00  0.00     0.002 A 
ATOM     89  C   UNL     1       9.465  -5.084  -7.570  1.00  0.00     0.091 A 
ATOM     90  F   UNL     1      10.646  -5.782  -5.617  1.00  0.00    -0.205 F 
ATOM     91  C   UNL     1       8.482  -4.277  -8.164  1.00  0.00     0.022 A 
BRANCH  89  92
ATOM     92  S   UNL     1      10.461  -6.113  -8.653  1.00  0.00     0.127 S 
ATOM     93  O   UNL     1       9.589  -7.266  -8.868  1.00  0.00    -0.237 OA
ATOM     94  O   UNL     1      10.641  -5.257  -9.828  1.00  0.00    -0.237 OA
ATOM     95  O   UNL     1      11.693  -6.379  -7.922  1.00  0.00    -0.744 OA
ENDBRANCH  89  92
ENDBRANCH  62  85
ENDBRANCH  36  37
ENDBRANCH  28  31
ENDBRANCH  26  27
ENDBRANCH  25  26
ENDBRANCH  24  25
ENDBRANCH   1  24
TORSDOF 19
