REMARK SMILES C[N@H+]1Cc2ccccc2C[C@@H]1C(=O)NCCC(=O)NCC(=O)NCCCCNC(=O)c1ccc(-c2c3nc(c(-c4cccc(S(=O)(=O)[O-])c4F)c4ccc([nH]4)c(-c4cccc(S(=O)(=O)[O-])c4F)c4nc(c(-c5cccc(S(=O)(=O)[O-])c5F)c5ccc2[nH]5)C=C4)C=C3)cc1
REMARK SMILES IDX 24 1 23 2 21 3 22 4 20 6 19 7 17 8 18 9 16 11 15 12 14 13
REMARK SMILES IDX 12 14 13 15 11 17 1 18 2 19 3 20 4 22 10 23 5 24 9 25 6 26
REMARK SMILES IDX 8 27 7 28 25 29 26 30 27 31 28 32 29 33 30 35 31 36 32 37
REMARK SMILES IDX 93 38 33 39 92 40 34 41 35 42 36 43 86 44 37 45 91 46 85 47
REMARK SMILES IDX 87 48 38 49 90 50 84 51 83 52 39 54 71 55 51 56 70 57 52 58
REMARK SMILES IDX 55 59 69 60 88 61 53 62 54 63 68 65 89 66 56 67 40 68 41 69
REMARK SMILES IDX 49 70 42 71 44 72 50 73 43 74 45 75 46 76 47 77 48 78 72 79
REMARK SMILES IDX 73 80 81 81 74 82 76 83 82 84 75 85 77 86 78 87 79 88 80 89
REMARK SMILES IDX 57 90 58 91 66 92 59 93 61 94 67 95 60 96 62 97 63 98 64 99
REMARK SMILES IDX 65 100
REMARK H PARENT 23 5 19 10 14 16 2 21 28 34 87 53 55 64
REMARK Flexibility Score: inf
ROOT
ATOM      1  C   UNL     1      -4.868   4.245   2.447  1.00  0.00     0.116 C 
ENDROOT
BRANCH   1   2
ATOM      2  N   UNL     1      -5.933   3.646   1.662  1.00  0.00    -0.355 N 
ATOM      3  C   UNL     1      -6.349   3.815   0.376  1.00  0.00     0.239 C 
ATOM      4  O   UNL     1      -7.271   3.086  -0.008  1.00  0.00    -0.273 OA
ATOM      5  H   UNL     1      -6.461   2.982   2.161  1.00  0.00     0.163 HD
BRANCH   3   6
ATOM      6  C   UNL     1      -5.632   4.718  -0.646  1.00  0.00     0.216 C 
BRANCH   6   7
ATOM      7  N   UNL     1      -4.944   5.897  -0.152  1.00  0.00    -0.347 N 
ATOM      8  C   UNL     1      -3.619   6.202  -0.158  1.00  0.00     0.222 C 
ATOM      9  O   UNL     1      -3.255   7.238   0.403  1.00  0.00    -0.275 OA
ATOM     10  H   UNL     1      -5.527   6.581   0.250  1.00  0.00     0.164 HD
BRANCH   8  11
ATOM     11  C   UNL     1      -2.608   5.274  -0.794  1.00  0.00     0.121 C 
BRANCH  11  12
ATOM     12  C   UNL     1      -2.051   4.250   0.197  1.00  0.00     0.126 C 
BRANCH  12  13
ATOM     13  N   UNL     1      -2.809   3.004   0.216  1.00  0.00    -0.350 N 
ATOM     14  C   UNL     1      -2.695   2.002  -0.705  1.00  0.00     0.278 C 
ATOM     15  O   UNL     1      -3.651   1.830  -1.469  1.00  0.00    -0.268 OA
ATOM     16  H   UNL     1      -3.453   2.876   0.949  1.00  0.00     0.163 HD
BRANCH  14  17
ATOM     17  C   UNL     1      -1.519   1.001  -0.654  1.00  0.00     0.278 C 
ATOM     18  C   UNL     1      -3.166  -0.736  -0.005  1.00  0.00     0.333 C 
ATOM     19  N   UNL     1      -1.829  -0.175   0.217  1.00  0.00    -0.323 N 
ATOM     20  C   UNL     1      -0.826  -1.235  -0.029  1.00  0.00     0.299 C 
ATOM     21  H   UNL     1      -1.800   0.160   1.181  1.00  0.00     0.348 HD
ATOM     22  C   UNL     1       0.609  -0.753   0.006  1.00  0.00     0.010 A 
ATOM     23  C   UNL     1      -0.202   1.621  -0.171  1.00  0.00     0.111 C 
ATOM     24  C   UNL     1       1.657  -1.683   0.071  1.00  0.00     0.010 A 
ATOM     25  C   UNL     1       0.914   0.614  -0.087  1.00  0.00    -0.033 A 
ATOM     26  C   UNL     1       2.985  -1.254   0.081  1.00  0.00     0.001 A 
ATOM     27  C   UNL     1       2.248   1.040  -0.048  1.00  0.00     0.004 A 
ATOM     28  C   UNL     1       3.280   0.107   0.032  1.00  0.00     0.000 A 
ENDBRANCH  14  17
ENDBRANCH  12  13
ENDBRANCH  11  12
ENDBRANCH   8  11
ENDBRANCH   6   7
ENDBRANCH   3   6
ENDBRANCH   1   2
BRANCH   1  29
ATOM     29  C   UNL     1      -5.364   4.906   3.725  1.00  0.00     0.023 C 
BRANCH  29  30
ATOM     30  C   UNL     1      -5.726   3.929   4.841  1.00  0.00     0.023 C 
BRANCH  30  31
ATOM     31  C   UNL     1      -4.622   2.957   5.249  1.00  0.00     0.116 C 
BRANCH  31  32
ATOM     32  N   UNL     1      -3.386   3.612   5.669  1.00  0.00    -0.352 N 
ATOM     33  C   UNL     1      -2.640   3.386   6.803  1.00  0.00     0.251 C 
ATOM     34  H   UNL     1      -3.042   4.306   5.062  1.00  0.00     0.163 HD
ATOM     35  O   UNL     1      -1.662   4.079   7.061  1.00  0.00    -0.269 OA
BRANCH  33  36
ATOM     36  C   UNL     1      -3.067   2.319   7.731  1.00  0.00     0.039 A 
ATOM     37  C   UNL     1      -3.334   2.644   9.063  1.00  0.00     0.014 A 
ATOM     38  C   UNL     1      -3.308   1.031   7.247  1.00  0.00     0.014 A 
ATOM     39  C   UNL     1      -3.946   1.698   9.888  1.00  0.00     0.010 A 
ATOM     40  C   UNL     1      -3.987   0.121   8.047  1.00  0.00     0.010 A 
ATOM     41  C   UNL     1      -4.328   0.450   9.370  1.00  0.00    -0.014 A 
BRANCH  41  42
ATOM     42  C   UNL     1      -5.124  -0.520  10.165  1.00  0.00     0.031 A 
ATOM     43  C   UNL     1      -4.567  -1.884  10.460  1.00  0.00     0.074 A 
ATOM     44  C   UNL     1      -6.396  -0.223  10.501  1.00  0.00     0.049 A 
ATOM     45  N   UNL     1      -5.154  -2.912  11.016  1.00  0.00    -0.248 NA
ATOM     46  C   UNL     1      -3.179  -2.136  10.041  1.00  0.00     0.031 C 
ATOM     47  C   UNL     1      -7.080   1.037  10.203  1.00  0.00     0.029 A 
ATOM     48  N   UNL     1      -7.351  -0.974  11.140  1.00  0.00    -0.354 N 
ATOM     49  C   UNL     1      -4.229  -3.946  10.965  1.00  0.00     0.074 A 
ATOM     50  C   UNL     1      -3.052  -3.429  10.299  1.00  0.00     0.031 C 
ATOM     51  C   UNL     1      -8.339   0.975  10.665  1.00  0.00     0.029 A 
ATOM     52  C   UNL     1      -8.564  -0.337  11.262  1.00  0.00     0.049 A 
ATOM     53  H   UNL     1      -7.183  -1.883  11.479  1.00  0.00     0.167 HD
ATOM     54  C   UNL     1      -4.334  -5.205  11.454  1.00  0.00     0.034 A 
ATOM     55  C   UNL     1      -9.728  -0.763  11.792  1.00  0.00     0.034 A 
ATOM     56  C   UNL     1      -5.476  -5.694  12.176  1.00  0.00     0.049 A 
ATOM     57  C   UNL     1      -9.802  -2.146  12.382  1.00  0.00     0.074 A 
ATOM     58  C   UNL     1      -5.639  -6.915  12.805  1.00  0.00     0.029 A 
ATOM     59  N   UNL     1      -6.652  -4.985  12.367  1.00  0.00    -0.354 N 
ATOM     60  N   UNL     1      -8.864  -3.058  12.463  1.00  0.00    -0.248 NA
ATOM     61  C   UNL     1     -11.084  -2.547  12.979  1.00  0.00     0.031 C 
ATOM     62  C   UNL     1      -6.918  -6.946  13.374  1.00  0.00     0.029 A 
ATOM     63  C   UNL     1      -7.548  -5.741  13.104  1.00  0.00     0.049 A 
ATOM     64  H   UNL     1      -6.825  -4.076  12.029  1.00  0.00     0.167 HD
ATOM     65  C   UNL     1      -9.428  -4.125  13.152  1.00  0.00     0.074 A 
ATOM     66  C   UNL     1     -10.787  -3.740  13.476  1.00  0.00     0.031 C 
ATOM     67  C   UNL     1      -8.876  -5.321  13.473  1.00  0.00     0.034 A 
BRANCH  54  68
ATOM     68  C   UNL     1      -3.147  -6.113  11.279  1.00  0.00     0.023 A 
ATOM     69  C   UNL     1      -1.982  -5.884  12.041  1.00  0.00     0.012 A 
ATOM     70  C   UNL     1      -3.182  -7.198  10.383  1.00  0.00     0.148 A 
ATOM     71  C   UNL     1      -0.858  -6.692  11.882  1.00  0.00     0.002 A 
ATOM     72  C   UNL     1      -2.071  -8.025  10.261  1.00  0.00     0.091 A 
ATOM     73  F   UNL     1      -4.285  -7.387   9.643  1.00  0.00    -0.205 F 
ATOM     74  C   UNL     1      -0.905  -7.767  10.999  1.00  0.00     0.022 A 
BRANCH  72  75
ATOM     75  S   UNL     1      -2.078  -9.475   9.199  1.00  0.00     0.127 S 
ATOM     76  O   UNL     1      -1.432  -8.963   7.992  1.00  0.00    -0.237 OA
ATOM     77  O   UNL     1      -1.272 -10.430   9.961  1.00  0.00    -0.237 OA
ATOM     78  O   UNL     1      -3.479  -9.849   9.063  1.00  0.00    -0.744 OA
ENDBRANCH  72  75
ENDBRANCH  54  68
BRANCH  55  79
ATOM     79  C   UNL     1     -10.886   0.170  11.879  1.00  0.00     0.023 A 
ATOM     80  C   UNL     1     -11.237   0.700  13.136  1.00  0.00     0.012 A 
ATOM     81  C   UNL     1     -11.602   0.577  10.736  1.00  0.00     0.148 A 
ATOM     82  C   UNL     1     -12.293   1.603  13.258  1.00  0.00     0.002 A 
ATOM     83  C   UNL     1     -12.623   1.514  10.859  1.00  0.00     0.091 A 
ATOM     84  F   UNL     1     -11.257   0.054   9.552  1.00  0.00    -0.205 F 
ATOM     85  C   UNL     1     -12.979   2.018  12.120  1.00  0.00     0.022 A 
BRANCH  83  86
ATOM     86  S   UNL     1     -13.482   2.202   9.438  1.00  0.00     0.127 S 
ATOM     87  O   UNL     1     -14.822   1.645   9.601  1.00  0.00    -0.237 OA
ATOM     88  O   UNL     1     -13.376   3.640   9.691  1.00  0.00    -0.237 OA
ATOM     89  O   UNL     1     -12.743   1.742   8.271  1.00  0.00    -0.744 OA
ENDBRANCH  83  86
ENDBRANCH  55  79
BRANCH  67  90
ATOM     90  C   UNL     1      -9.722  -6.298  14.243  1.00  0.00     0.023 A 
ATOM     91  C   UNL     1     -10.742  -7.008  13.581  1.00  0.00     0.012 A 
ATOM     92  C   UNL     1      -9.451  -6.576  15.597  1.00  0.00     0.148 A 
ATOM     93  C   UNL     1     -11.495  -7.965  14.260  1.00  0.00     0.002 A 
ATOM     94  C   UNL     1     -10.178  -7.561  16.257  1.00  0.00     0.091 A 
ATOM     95  F   UNL     1      -8.492  -5.873  16.217  1.00  0.00    -0.205 F 
ATOM     96  C   UNL     1     -11.205  -8.251  15.592  1.00  0.00     0.022 A 
BRANCH  94  97
ATOM     97  S   UNL     1      -9.806  -8.055  17.944  1.00  0.00     0.127 S 
ATOM     98  O   UNL     1     -10.871  -7.389  18.692  1.00  0.00    -0.237 OA
ATOM     99  O   UNL     1      -9.925  -9.512  17.880  1.00  0.00    -0.237 OA
ATOM    100  O   UNL     1      -8.456  -7.575  18.208  1.00  0.00    -0.744 OA
ENDBRANCH  94  97
ENDBRANCH  67  90
ENDBRANCH  41  42
ENDBRANCH  33  36
ENDBRANCH  31  32
ENDBRANCH  30  31
ENDBRANCH  29  30
ENDBRANCH   1  29
TORSDOF 19
