REMARK SMILES CCCN1CCC[C@@]2(CCN(c3ccc(C(=O)NCCCCNC(=O)c4ccc(-c5c6nc(c(-c7cccc(S(=O)(=O)[O-])c7F)c7ccc([nH]7)c(-c7cccc(S(=O)(=O)[O-])c7F)c7nc(c(-c8cccc(S(=O)(=O)[O-])c8F)c8ccc5[nH]8)C=C7)C=C6)cc4)cn3)C2)C1=O
REMARK SMILES IDX 20 1 19 2 18 3 16 4 17 5 15 7 12 8 13 9 90 10 14 11 89 12
REMARK SMILES IDX 11 13 4 14 5 15 92 16 6 17 8 18 93 19 7 20 9 21 91 22 10 23
REMARK SMILES IDX 3 24 2 25 1 26 21 27 22 28 23 29 24 30 25 32 26 33 27 34
REMARK SMILES IDX 88 35 28 36 87 37 29 38 30 39 31 40 81 41 32 42 86 43 80 44
REMARK SMILES IDX 82 45 33 46 85 47 79 48 78 49 34 51 66 52 46 53 65 54 47 55
REMARK SMILES IDX 50 56 64 57 83 58 48 59 49 60 63 62 84 63 51 64 35 65 36 66
REMARK SMILES IDX 44 67 37 68 39 69 45 70 38 71 40 72 41 73 42 74 43 75 67 76
REMARK SMILES IDX 68 77 76 78 69 79 71 80 77 81 70 82 72 83 73 84 74 85 75 86
REMARK SMILES IDX 52 87 53 88 61 89 54 90 56 91 62 92 55 93 57 94 58 95 59 96
REMARK SMILES IDX 60 97
REMARK H PARENT 18 6 23 31 82 50 50 61
REMARK Flexibility Score: inf
ROOT
ATOM      1  C   UNL     1       6.817   6.511  -2.862  1.00  0.00     0.023 C 
ENDROOT
BRANCH   1   2
ATOM      2  C   UNL     1       6.960   4.987  -2.879  1.00  0.00     0.116 C 
BRANCH   2   3
ATOM      3  N   UNL     1       7.935   4.540  -1.904  1.00  0.00    -0.352 N 
ATOM      4  C   UNL     1       7.822   4.147  -0.593  1.00  0.00     0.252 C 
ATOM      5  O   UNL     1       8.843   3.748  -0.032  1.00  0.00    -0.269 OA
ATOM      6  H   UNL     1       8.857   4.511  -2.248  1.00  0.00     0.163 HD
BRANCH   4   7
ATOM      7  C   UNL     1       6.548   4.152   0.174  1.00  0.00     0.058 A 
ATOM      8  C   UNL     1       4.293   3.963   1.804  1.00  0.00     0.128 A 
ATOM      9  C   UNL     1       4.253   4.718   0.638  1.00  0.00     0.048 A 
ATOM     10  N   UNL     1       5.423   3.342   2.187  1.00  0.00    -0.239 NA
ATOM     11  C   UNL     1       5.389   4.840  -0.158  1.00  0.00     0.019 A 
ATOM     12  C   UNL     1       6.508   3.434   1.366  1.00  0.00     0.127 A 
BRANCH   8  13
ATOM     13  N   UNL     1       3.154   3.873   2.569  1.00  0.00    -0.356 N 
ATOM     14  N   UNL     1       0.344   0.587   2.706  1.00  0.00    -0.342 N 
ATOM     15  C   UNL     1      -1.019   1.022   2.443  1.00  0.00     0.119 C 
ATOM     16  C   UNL     1       1.152   1.368   3.530  1.00  0.00     0.230 C 
ATOM     17  C   UNL     1      -1.062   2.465   1.976  1.00  0.00     0.023 C 
ATOM     18  C   UNL     1       1.095   2.874   3.242  1.00  0.00     0.069 C 
ATOM     19  O   UNL     1       1.942   0.877   4.333  1.00  0.00    -0.274 OA
ATOM     20  C   UNL     1      -0.344   3.350   2.989  1.00  0.00     0.021 C 
ATOM     21  C   UNL     1       1.756   3.680   4.380  1.00  0.00     0.040 C 
ATOM     22  C   UNL     1       2.015   3.142   2.021  1.00  0.00     0.135 C 
ATOM     23  C   UNL     1       3.237   3.698   4.004  1.00  0.00     0.119 C 
BRANCH  14  24
ATOM     24  C   UNL     1       0.700  -0.816   2.504  1.00  0.00     0.119 C 
BRANCH  24  25
ATOM     25  C   UNL     1       0.545  -1.286   1.053  1.00  0.00     0.018 C 
ATOM     26  C   UNL     1       1.258  -0.391   0.047  1.00  0.00     0.006 C 
ENDBRANCH  24  25
ENDBRANCH  14  24
ENDBRANCH   8  13
ENDBRANCH   4   7
ENDBRANCH   2   3
ENDBRANCH   1   2
BRANCH   1  27
ATOM     27  C   UNL     1       7.861   7.256  -3.697  1.00  0.00     0.023 C 
BRANCH  27  28
ATOM     28  C   UNL     1       7.814   6.967  -5.194  1.00  0.00     0.116 C 
BRANCH  28  29
ATOM     29  N   UNL     1       6.520   7.248  -5.799  1.00  0.00    -0.352 N 
ATOM     30  C   UNL     1       6.249   7.622  -7.096  1.00  0.00     0.251 C 
ATOM     31  H   UNL     1       5.739   7.159  -5.205  1.00  0.00     0.163 HD
ATOM     32  O   UNL     1       5.111   7.915  -7.430  1.00  0.00    -0.269 OA
BRANCH  30  33
ATOM     33  C   UNL     1       7.364   7.706  -8.064  1.00  0.00     0.039 A 
ATOM     34  C   UNL     1       7.527   8.881  -8.800  1.00  0.00     0.014 A 
ATOM     35  C   UNL     1       8.266   6.649  -8.205  1.00  0.00     0.014 A 
ATOM     36  C   UNL     1       8.640   9.023  -9.633  1.00  0.00     0.010 A 
ATOM     37  C   UNL     1       9.407   6.819  -8.984  1.00  0.00     0.010 A 
ATOM     38  C   UNL     1       9.607   8.007  -9.704  1.00  0.00    -0.014 A 
BRANCH  38  39
ATOM     39  C   UNL     1      10.846   8.174 -10.504  1.00  0.00     0.031 A 
ATOM     40  C   UNL     1      11.120   7.268 -11.673  1.00  0.00     0.074 A 
ATOM     41  C   UNL     1      11.775   9.068 -10.108  1.00  0.00     0.049 A 
ATOM     42  N   UNL     1      12.174   7.218 -12.445  1.00  0.00    -0.248 NA
ATOM     43  C   UNL     1      10.091   6.266 -12.001  1.00  0.00     0.031 C 
ATOM     44  C   UNL     1      11.670   9.936  -8.932  1.00  0.00     0.029 A 
ATOM     45  N   UNL     1      13.009   9.370 -10.631  1.00  0.00    -0.354 N 
ATOM     46  C   UNL     1      11.960   6.154 -13.313  1.00  0.00     0.074 A 
ATOM     47  C   UNL     1      10.682   5.574 -12.965  1.00  0.00     0.031 C 
ATOM     48  C   UNL     1      12.794  10.663  -8.819  1.00  0.00     0.029 A 
ATOM     49  C   UNL     1      13.707  10.301  -9.897  1.00  0.00     0.049 A 
ATOM     50  H   UNL     1      13.360   8.958 -11.453  1.00  0.00     0.167 HD
ATOM     51  C   UNL     1      12.745   5.718 -14.325  1.00  0.00     0.034 A 
ATOM     52  C   UNL     1      14.947  10.801 -10.070  1.00  0.00     0.034 A 
ATOM     53  C   UNL     1      13.978   6.344 -14.716  1.00  0.00     0.049 A 
ATOM     54  C   UNL     1      15.758  10.351 -11.256  1.00  0.00     0.074 A 
ATOM     55  C   UNL     1      14.775   6.061 -15.811  1.00  0.00     0.029 A 
ATOM     56  N   UNL     1      14.597   7.372 -14.024  1.00  0.00    -0.354 N 
ATOM     57  N   UNL     1      15.443   9.486 -12.190  1.00  0.00    -0.248 NA
ATOM     58  C   UNL     1      17.078  10.975 -11.438  1.00  0.00     0.031 C 
ATOM     59  C   UNL     1      15.887   6.907 -15.772  1.00  0.00     0.029 A 
ATOM     60  C   UNL     1      15.773   7.728 -14.662  1.00  0.00     0.049 A 
ATOM     61  H   UNL     1      14.252   7.788 -13.201  1.00  0.00     0.167 HD
ATOM     62  C   UNL     1      16.505   9.491 -13.087  1.00  0.00     0.074 A 
ATOM     63  C   UNL     1      17.462  10.462 -12.598  1.00  0.00     0.031 C 
ATOM     64  C   UNL     1      16.682   8.745 -14.204  1.00  0.00     0.034 A 
BRANCH  51  65
ATOM     65  C   UNL     1      12.273   4.540 -15.135  1.00  0.00     0.023 A 
ATOM     66  C   UNL     1      11.225   4.711 -16.061  1.00  0.00     0.012 A 
ATOM     67  C   UNL     1      12.933   3.299 -15.055  1.00  0.00     0.148 A 
ATOM     68  C   UNL     1      10.827   3.658 -16.883  1.00  0.00     0.002 A 
ATOM     69  C   UNL     1      12.559   2.266 -15.906  1.00  0.00     0.091 A 
ATOM     70  F   UNL     1      13.915   3.154 -14.153  1.00  0.00    -0.205 F 
ATOM     71  C   UNL     1      11.501   2.441 -16.814  1.00  0.00     0.022 A 
BRANCH  69  72
ATOM     72  S   UNL     1      13.412   0.686 -15.953  1.00  0.00     0.127 S 
ATOM     73  O   UNL     1      12.388  -0.217 -15.430  1.00  0.00    -0.237 OA
ATOM     74  O   UNL     1      13.691   0.531 -17.381  1.00  0.00    -0.237 OA
ATOM     75  O   UNL     1      14.592   0.840 -15.114  1.00  0.00    -0.744 OA
ENDBRANCH  69  72
ENDBRANCH  51  65
BRANCH  52  76
ATOM     76  C   UNL     1      15.479  11.833  -9.135  1.00  0.00     0.023 A 
ATOM     77  C   UNL     1      15.656  13.154  -9.592  1.00  0.00     0.012 A 
ATOM     78  C   UNL     1      15.809  11.520  -7.803  1.00  0.00     0.148 A 
ATOM     79  C   UNL     1      16.192  14.133  -8.754  1.00  0.00     0.002 A 
ATOM     80  C   UNL     1      16.290  12.513  -6.957  1.00  0.00     0.091 A 
ATOM     81  F   UNL     1      15.652  10.255  -7.387  1.00  0.00    -0.205 F 
ATOM     82  C   UNL     1      16.500  13.815  -7.435  1.00  0.00     0.022 A 
BRANCH  80  83
ATOM     83  S   UNL     1      16.580  12.210  -5.210  1.00  0.00     0.127 S 
ATOM     84  O   UNL     1      18.025  12.009  -5.175  1.00  0.00    -0.237 OA
ATOM     85  O   UNL     1      16.116  13.456  -4.597  1.00  0.00    -0.237 OA
ATOM     86  O   UNL     1      15.760  11.049  -4.885  1.00  0.00    -0.744 OA
ENDBRANCH  80  83
ENDBRANCH  52  76
BRANCH  64  87
ATOM     87  C   UNL     1      17.935   8.969 -15.008  1.00  0.00     0.023 A 
ATOM     88  C   UNL     1      19.169   8.496 -14.522  1.00  0.00     0.012 A 
ATOM     89  C   UNL     1      17.874   9.569 -16.281  1.00  0.00     0.148 A 
ATOM     90  C   UNL     1      20.331   8.643 -15.280  1.00  0.00     0.002 A 
ATOM     91  C   UNL     1      19.027   9.669 -17.050  1.00  0.00     0.091 A 
ATOM     92  F   UNL     1      16.693  10.030 -16.716  1.00  0.00    -0.205 F 
ATOM     93  C   UNL     1      20.258   9.217 -16.547  1.00  0.00     0.022 A 
BRANCH  91  94
ATOM     94  S   UNL     1      19.005  10.304 -18.731  1.00  0.00     0.127 S 
ATOM     95  O   UNL     1      19.586  11.634 -18.555  1.00  0.00    -0.237 OA
ATOM     96  O   UNL     1      19.864   9.351 -19.436  1.00  0.00    -0.237 OA
ATOM     97  O   UNL     1      17.610  10.278 -19.148  1.00  0.00    -0.744 OA
ENDBRANCH  91  94
ENDBRANCH  64  87
ENDBRANCH  38  39
ENDBRANCH  30  33
ENDBRANCH  28  29
ENDBRANCH  27  28
ENDBRANCH   1  27
TORSDOF 17
