REMARK SMILES CCCC[C@@H](C(=O)NCCCCNC(=O)c1ccc(-c2c3nc(c(-c4cccc(S(=O)(=O)[O-])c4F)c4ccc([nH]4)c(-c4cccc(S(=O)(=O)[O-])c4F)c4nc(c(-c5cccc(S(=O)(=O)[O-])c5F)c5ccc2[nH]5)C=C4)C=C3)cc1)C1(O)Cc2ccccc2C1
REMARK SMILES IDX 10 1 9 2 8 3 6 4 7 5 5 7 4 8 3 9 2 10 1 11 79 12 81 13 88 14
REMARK SMILES IDX 82 15 87 16 83 17 86 18 84 19 85 20 80 21 11 23 12 24 13 25
REMARK SMILES IDX 14 26 15 28 16 29 17 30 78 31 18 32 77 33 19 34 20 35 21 36
REMARK SMILES IDX 71 37 22 38 76 39 70 40 72 41 23 42 75 43 69 44 68 45 24 47
REMARK SMILES IDX 56 48 36 49 55 50 37 51 40 52 54 53 73 54 38 55 39 56 53 58
REMARK SMILES IDX 74 59 41 60 25 61 26 62 34 63 27 64 29 65 35 66 28 67 30 68
REMARK SMILES IDX 31 69 32 70 33 71 57 72 58 73 66 74 59 75 61 76 67 77 60 78
REMARK SMILES IDX 62 79 63 80 64 81 65 82 42 83 43 84 51 85 44 86 46 87 52 88
REMARK SMILES IDX 45 89 47 90 48 91 49 92 50 93
REMARK H PARENT 8 6 80 22 13 27 72 46 40 57
REMARK Flexibility Score: inf
ROOT
ATOM      1  C   UNL     1       0.609   1.313   4.281  1.00  0.00     0.023 C 
ENDROOT
BRANCH   1   2
ATOM      2  C   UNL     1      -0.710   0.982   3.588  1.00  0.00     0.116 C 
BRANCH   2   3
ATOM      3  N   UNL     1      -1.485   2.163   3.322  1.00  0.00    -0.356 N 
ATOM      4  C   UNL     1      -1.797   2.778   2.161  1.00  0.00     0.226 C 
ATOM      5  O   UNL     1      -2.927   3.280   2.186  1.00  0.00    -0.275 OA
ATOM      6  H   UNL     1      -1.853   2.598   4.125  1.00  0.00     0.163 HD
BRANCH   4   7
ATOM      7  C   UNL     1      -0.968   2.763   0.849  1.00  0.00     0.111 C 
BRANCH   7   8
ATOM      8  C   UNL     1       0.554   2.409   0.856  1.00  0.00     0.016 C 
BRANCH   8   9
ATOM      9  C   UNL     1       1.192   1.021   0.960  1.00  0.00     0.001 C 
BRANCH   9  10
ATOM     10  C   UNL     1       0.530  -0.162   0.272  1.00  0.00    -0.003 C 
ATOM     11  C   UNL     1       1.078  -0.386  -1.125  1.00  0.00     0.004 C 
ENDBRANCH   9  10
ENDBRANCH   8   9
ENDBRANCH   7   8
BRANCH   7  12
ATOM     12  C   UNL     1      -1.099   4.183   0.058  1.00  0.00     0.084 C 
ATOM     13  C   UNL     1      -2.336   5.130   0.292  1.00  0.00     0.072 C 
ATOM     14  C   UNL     1       0.065   5.173   0.391  1.00  0.00     0.072 C 
ATOM     15  C   UNL     1      -1.879   5.938   1.477  1.00  0.00    -0.042 A 
ATOM     16  C   UNL     1      -0.490   5.847   1.599  1.00  0.00    -0.042 A 
ATOM     17  C   UNL     1      -2.625   6.629   2.414  1.00  0.00     0.004 A 
ATOM     18  C   UNL     1       0.171   6.297   2.726  1.00  0.00     0.004 A 
ATOM     19  C   UNL     1      -1.964   7.124   3.542  1.00  0.00     0.000 A 
ATOM     20  C   UNL     1      -0.584   6.922   3.717  1.00  0.00     0.000 A 
BRANCH  12  21
ATOM     21  O   UNL     1      -1.047   3.879  -1.353  1.00  0.00    -0.388 OA
ATOM     22  H   UNL     1      -1.763   3.264  -1.579  1.00  0.00     0.211 HD
ENDBRANCH  12  21
ENDBRANCH   7  12
ENDBRANCH   4   7
ENDBRANCH   2   3
ENDBRANCH   1   2
BRANCH   1  23
ATOM     23  C   UNL     1       0.531   1.414   5.800  1.00  0.00     0.023 C 
BRANCH  23  24
ATOM     24  C   UNL     1       0.034   0.155   6.501  1.00  0.00     0.116 C 
BRANCH  24  25
ATOM     25  N   UNL     1       0.701  -1.075   6.083  1.00  0.00    -0.352 N 
ATOM     26  C   UNL     1       0.903  -2.218   6.822  1.00  0.00     0.251 C 
ATOM     27  H   UNL     1       1.047  -1.089   5.162  1.00  0.00     0.163 HD
ATOM     28  O   UNL     1       1.535  -3.163   6.356  1.00  0.00    -0.269 OA
BRANCH  26  29
ATOM     29  C   UNL     1       0.389  -2.263   8.204  1.00  0.00     0.039 A 
ATOM     30  C   UNL     1       1.267  -2.568   9.245  1.00  0.00     0.014 A 
ATOM     31  C   UNL     1      -0.932  -1.892   8.468  1.00  0.00     0.014 A 
ATOM     32  C   UNL     1       0.840  -2.416  10.564  1.00  0.00     0.010 A 
ATOM     33  C   UNL     1      -1.322  -1.652   9.778  1.00  0.00     0.010 A 
ATOM     34  C   UNL     1      -0.442  -1.912  10.839  1.00  0.00    -0.014 A 
BRANCH  34  35
ATOM     35  C   UNL     1      -0.887  -1.635  12.227  1.00  0.00     0.031 A 
ATOM     36  C   UNL     1      -2.080  -2.358  12.789  1.00  0.00     0.074 A 
ATOM     37  C   UNL     1      -0.288  -0.657  12.937  1.00  0.00     0.049 A 
ATOM     38  N   UNL     1      -2.666  -2.203  13.947  1.00  0.00    -0.248 NA
ATOM     39  C   UNL     1      -2.725  -3.358  11.921  1.00  0.00     0.031 C 
ATOM     40  C   UNL     1       0.808   0.189  12.459  1.00  0.00     0.029 A 
ATOM     41  N   UNL     1      -0.538  -0.190  14.203  1.00  0.00    -0.354 N 
ATOM     42  C   UNL     1      -3.770  -3.046  13.927  1.00  0.00     0.074 A 
ATOM     43  C   UNL     1      -3.798  -3.679  12.628  1.00  0.00     0.031 C 
ATOM     44  C   UNL     1       1.144   1.062  13.423  1.00  0.00     0.029 A 
ATOM     45  C   UNL     1       0.277   0.853  14.578  1.00  0.00     0.049 A 
ATOM     46  H   UNL     1      -1.234  -0.567  14.788  1.00  0.00     0.167 HD
ATOM     47  C   UNL     1      -4.659  -3.303  14.915  1.00  0.00     0.034 A 
ATOM     48  C   UNL     1       0.322   1.556  15.726  1.00  0.00     0.034 A 
ATOM     49  C   UNL     1      -4.582  -2.728  16.229  1.00  0.00     0.049 A 
ATOM     50  C   UNL     1      -0.615   1.183  16.843  1.00  0.00     0.074 A 
ATOM     51  C   UNL     1      -5.363  -3.004  17.337  1.00  0.00     0.029 A 
ATOM     52  N   UNL     1      -3.662  -1.766  16.616  1.00  0.00    -0.354 N 
ATOM     53  N   UNL     1      -1.541   0.255  16.867  1.00  0.00    -0.248 NA
ATOM     54  C   UNL     1      -0.474   1.922  18.106  1.00  0.00     0.031 C 
ATOM     55  C   UNL     1      -4.916  -2.204  18.394  1.00  0.00     0.029 A 
ATOM     56  C   UNL     1      -3.851  -1.438  17.946  1.00  0.00     0.049 A 
ATOM     57  H   UNL     1      -2.974  -1.374  16.029  1.00  0.00     0.167 HD
ATOM     58  C   UNL     1      -2.069   0.275  18.153  1.00  0.00     0.074 A 
ATOM     59  C   UNL     1      -1.343   1.292  18.886  1.00  0.00     0.031 C 
ATOM     60  C   UNL     1      -3.076  -0.467  18.675  1.00  0.00     0.034 A 
BRANCH  47  61
ATOM     61  C   UNL     1      -5.742  -4.310  14.632  1.00  0.00     0.023 A 
ATOM     62  C   UNL     1      -5.405  -5.676  14.531  1.00  0.00     0.012 A 
ATOM     63  C   UNL     1      -7.088  -3.920  14.505  1.00  0.00     0.148 A 
ATOM     64  C   UNL     1      -6.383  -6.633  14.271  1.00  0.00     0.002 A 
ATOM     65  C   UNL     1      -8.065  -4.886  14.289  1.00  0.00     0.091 A 
ATOM     66  F   UNL     1      -7.388  -2.615  14.579  1.00  0.00    -0.205 F 
ATOM     67  C   UNL     1      -7.714  -6.239  14.161  1.00  0.00     0.022 A 
BRANCH  65  68
ATOM     68  S   UNL     1      -9.815  -4.488  14.207  1.00  0.00     0.127 S 
ATOM     69  O   UNL     1     -10.082  -4.626  12.777  1.00  0.00    -0.237 OA
ATOM     70  O   UNL     1     -10.410  -5.533  15.042  1.00  0.00    -0.237 OA
ATOM     71  O   UNL     1      -9.944  -3.140  14.744  1.00  0.00    -0.744 OA
ENDBRANCH  65  68
ENDBRANCH  47  61
BRANCH  48  72
ATOM     72  C   UNL     1       1.357   2.612  15.913  1.00  0.00     0.023 A 
ATOM     73  C   UNL     1       2.434   2.369  16.788  1.00  0.00     0.012 A 
ATOM     74  C   UNL     1       1.306   3.831  15.210  1.00  0.00     0.148 A 
ATOM     75  C   UNL     1       3.424   3.332  16.985  1.00  0.00     0.002 A 
ATOM     76  C   UNL     1       2.324   4.766  15.371  1.00  0.00     0.091 A 
ATOM     77  F   UNL     1       0.268   4.051  14.390  1.00  0.00    -0.205 F 
ATOM     78  C   UNL     1       3.375   4.525  16.269  1.00  0.00     0.022 A 
BRANCH  76  79
ATOM     79  S   UNL     1       2.409   6.270  14.392  1.00  0.00     0.127 S 
ATOM     80  O   UNL     1       1.994   7.282  15.360  1.00  0.00    -0.237 OA
ATOM     81  O   UNL     1       3.824   6.315  14.020  1.00  0.00    -0.237 OA
ATOM     82  O   UNL     1       1.505   6.052  13.269  1.00  0.00    -0.744 OA
ENDBRANCH  76  79
ENDBRANCH  48  72
BRANCH  60  83
ATOM     83  C   UNL     1      -3.440  -0.234  20.116  1.00  0.00     0.023 A 
ATOM     84  C   UNL     1      -4.151   0.928  20.474  1.00  0.00     0.012 A 
ATOM     85  C   UNL     1      -3.152  -1.202  21.098  1.00  0.00     0.148 A 
ATOM     86  C   UNL     1      -4.548   1.136  21.794  1.00  0.00     0.002 A 
ATOM     87  C   UNL     1      -3.590  -1.009  22.403  1.00  0.00     0.091 A 
ATOM     88  F   UNL     1      -2.455  -2.290  20.741  1.00  0.00    -0.205 F 
ATOM     89  C   UNL     1      -4.279   0.163  22.755  1.00  0.00     0.022 A 
BRANCH  87  90
ATOM     90  S   UNL     1      -3.368  -2.254  23.678  1.00  0.00     0.127 S 
ATOM     91  O   UNL     1      -2.245  -1.708  24.437  1.00  0.00    -0.237 OA
ATOM     92  O   UNL     1      -4.652  -2.219  24.379  1.00  0.00    -0.237 OA
ATOM     93  O   UNL     1      -3.104  -3.501  22.972  1.00  0.00    -0.744 OA
ENDBRANCH  87  90
ENDBRANCH  60  83
ENDBRANCH  34  35
ENDBRANCH  26  29
ENDBRANCH  24  25
ENDBRANCH  23  24
ENDBRANCH   1  23
TORSDOF 19
