REMARK SMILES Cc1cnc(NC(=O)[C@H]2[C@H]3CC[C@H](CC3)[C@H]2C(=O)NCCCCNC(=O)c2ccc(-c3c4nc(c(-c5cccc(S(=O)(=O)[O-])c5F)c5ccc([nH]5)c(-c5cccc(S(=O)(=O)[O-])c5F)c5nc(c(-c6cccc(S(=O)(=O)[O-])c6F)c6ccc3[nH]6)C=C5)C=C4)cc2)s1
REMARK SMILES IDX 22 1 21 2 20 3 19 4 17 5 18 6 16 8 9 9 10 10 15 11 11 12
REMARK SMILES IDX 13 13 14 14 12 15 7 16 6 17 8 19 5 20 1 21 2 22 3 23 90 24
REMARK SMILES IDX 4 25 23 26 24 27 25 28 26 30 27 31 28 32 89 33 29 34 88 35
REMARK SMILES IDX 30 36 31 37 32 38 82 39 33 40 87 41 81 42 83 43 34 44 86 45
REMARK SMILES IDX 80 46 79 47 35 49 67 50 47 51 66 52 48 53 51 54 65 55 84 56
REMARK SMILES IDX 49 57 50 58 64 60 85 61 52 62 36 63 37 64 45 65 38 66 40 67
REMARK SMILES IDX 46 68 39 69 41 70 42 71 43 72 44 73 68 74 69 75 77 76 70 77
REMARK SMILES IDX 72 78 78 79 71 80 73 81 74 82 75 83 76 84 53 85 54 86 62 87
REMARK SMILES IDX 55 88 57 89 63 90 56 91 58 92 59 93 60 94 61 95
REMARK H PARENT 19 7 6 18 24 29 83 48 51 59
REMARK Flexibility Score: inf
ROOT
ATOM      1  C   UNL     1      -5.891   1.989   2.666  1.00  0.00     0.023 C 
ENDROOT
BRANCH   1   2
ATOM      2  C   UNL     1      -4.907   2.703   1.755  1.00  0.00     0.023 C 
BRANCH   2   3
ATOM      3  C   UNL     1      -3.524   2.958   2.331  1.00  0.00     0.116 C 
BRANCH   3   4
ATOM      4  N   UNL     1      -2.648   1.820   2.419  1.00  0.00    -0.356 N 
ATOM      5  C   UNL     1      -1.311   1.742   2.188  1.00  0.00     0.224 C 
ATOM      6  O   UNL     1      -0.727   0.751   2.643  1.00  0.00    -0.275 OA
ATOM      7  H   UNL     1      -3.079   0.976   2.686  1.00  0.00     0.163 HD
BRANCH   5   8
ATOM      8  C   UNL     1      -0.485   2.796   1.419  1.00  0.00     0.094 C 
ATOM      9  C   UNL     1      -0.984   3.423   0.095  1.00  0.00     0.094 C 
ATOM     10  C   UNL     1      -0.944   4.987   0.219  1.00  0.00     0.002 C 
ATOM     11  C   UNL     1      -1.515   5.571   1.531  1.00  0.00     0.005 C 
ATOM     12  C   UNL     1       0.557   5.360   0.256  1.00  0.00     0.005 C 
ATOM     13  C   UNL     1       0.178   3.885   2.300  1.00  0.00     0.002 C 
ATOM     14  C   UNL     1      -0.850   4.923   2.753  1.00  0.00     0.005 C 
ATOM     15  C   UNL     1       1.234   4.625   1.432  1.00  0.00     0.005 C 
BRANCH   9  16
ATOM     16  C   UNL     1      -2.219   2.803  -0.568  1.00  0.00     0.230 C 
ATOM     17  N   UNL     1      -2.288   1.465  -0.850  1.00  0.00    -0.302 N 
ATOM     18  H   UNL     1      -3.176   1.145  -1.127  1.00  0.00     0.172 HD
ATOM     19  O   UNL     1      -3.201   3.507  -0.825  1.00  0.00    -0.274 OA
BRANCH  17  20
ATOM     20  C   UNL     1      -1.315   0.501  -0.808  1.00  0.00     0.189 A 
ATOM     21  C   UNL     1       2.212  -0.965  -0.373  1.00  0.00     0.058 C 
ATOM     22  C   UNL     1       0.776  -0.664  -0.592  1.00  0.00     0.023 A 
ATOM     23  C   UNL     1      -0.353  -1.393  -0.273  1.00  0.00     0.128 A 
ATOM     24  S   UNL     1       0.287   0.807  -1.314  1.00  0.00    -0.102 S 
ATOM     25  N   UNL     1      -1.559  -0.747  -0.493  1.00  0.00    -0.228 NA
ENDBRANCH  17  20
ENDBRANCH   9  16
ENDBRANCH   5   8
ENDBRANCH   3   4
ENDBRANCH   2   3
ENDBRANCH   1   2
BRANCH   1  26
ATOM     26  C   UNL     1      -5.917   2.456   4.112  1.00  0.00     0.116 C 
BRANCH  26  27
ATOM     27  N   UNL     1      -6.124   3.890   4.285  1.00  0.00    -0.352 N 
ATOM     28  C   UNL     1      -6.927   4.534   5.203  1.00  0.00     0.251 C 
ATOM     29  H   UNL     1      -5.627   4.473   3.667  1.00  0.00     0.163 HD
ATOM     30  O   UNL     1      -7.015   5.753   5.214  1.00  0.00    -0.269 OA
BRANCH  28  31
ATOM     31  C   UNL     1      -7.723   3.713   6.139  1.00  0.00     0.039 A 
ATOM     32  C   UNL     1      -9.104   3.912   6.208  1.00  0.00     0.014 A 
ATOM     33  C   UNL     1      -7.118   2.676   6.850  1.00  0.00     0.014 A 
ATOM     34  C   UNL     1      -9.890   3.011   6.928  1.00  0.00     0.010 A 
ATOM     35  C   UNL     1      -7.913   1.722   7.470  1.00  0.00     0.010 A 
ATOM     36  C   UNL     1      -9.306   1.885   7.529  1.00  0.00    -0.014 A 
BRANCH  36  37
ATOM     37  C   UNL     1     -10.119   0.873   8.250  1.00  0.00     0.031 A 
ATOM     38  C   UNL     1      -9.847   0.605   9.707  1.00  0.00     0.074 A 
ATOM     39  C   UNL     1     -11.019   0.124   7.582  1.00  0.00     0.049 A 
ATOM     40  N   UNL     1     -10.375  -0.293  10.495  1.00  0.00    -0.248 NA
ATOM     41  C   UNL     1      -8.806   1.426  10.351  1.00  0.00     0.031 C 
ATOM     42  C   UNL     1     -11.301   0.210   6.146  1.00  0.00     0.029 A 
ATOM     43  N   UNL     1     -11.847  -0.880   8.020  1.00  0.00    -0.354 N 
ATOM     44  C   UNL     1      -9.694  -0.185  11.701  1.00  0.00     0.074 A 
ATOM     45  C   UNL     1      -8.682   0.832  11.527  1.00  0.00     0.031 C 
ATOM     46  C   UNL     1     -12.244  -0.692   5.827  1.00  0.00     0.029 A 
ATOM     47  C   UNL     1     -12.621  -1.433   7.026  1.00  0.00     0.049 A 
ATOM     48  H   UNL     1     -11.883  -1.176   8.958  1.00  0.00     0.167 HD
ATOM     49  C   UNL     1      -9.917  -0.838  12.866  1.00  0.00     0.034 A 
ATOM     50  C   UNL     1     -13.538  -2.420   7.082  1.00  0.00     0.034 A 
ATOM     51  C   UNL     1     -10.981  -1.782  13.059  1.00  0.00     0.049 A 
ATOM     52  C   UNL     1     -13.851  -3.047   8.414  1.00  0.00     0.074 A 
ATOM     53  C   UNL     1     -11.364  -2.423  14.222  1.00  0.00     0.029 A 
ATOM     54  N   UNL     1     -11.844  -2.209  12.061  1.00  0.00    -0.354 N 
ATOM     55  N   UNL     1     -13.308  -2.813   9.584  1.00  0.00    -0.248 NA
ATOM     56  C   UNL     1     -14.937  -4.038   8.445  1.00  0.00     0.031 C 
ATOM     57  C   UNL     1     -12.462  -3.239  13.928  1.00  0.00     0.029 A 
ATOM     58  C   UNL     1     -12.768  -3.094  12.583  1.00  0.00     0.049 A 
ATOM     59  H   UNL     1     -11.804  -1.923  11.120  1.00  0.00     0.167 HD
ATOM     60  C   UNL     1     -14.012  -3.591  10.496  1.00  0.00     0.074 A 
ATOM     61  C   UNL     1     -15.033  -4.292   9.744  1.00  0.00     0.031 C 
ATOM     62  C   UNL     1     -13.823  -3.725  11.832  1.00  0.00     0.034 A 
BRANCH  49  63
ATOM     63  C   UNL     1      -9.037  -0.486  14.037  1.00  0.00     0.023 A 
ATOM     64  C   UNL     1      -9.171   0.777  14.650  1.00  0.00     0.012 A 
ATOM     65  C   UNL     1      -8.098  -1.404  14.546  1.00  0.00     0.148 A 
ATOM     66  C   UNL     1      -8.354   1.141  15.718  1.00  0.00     0.002 A 
ATOM     67  C   UNL     1      -7.320  -1.052  15.643  1.00  0.00     0.091 A 
ATOM     68  F   UNL     1      -7.965  -2.591  13.936  1.00  0.00    -0.205 F 
ATOM     69  C   UNL     1      -7.436   0.223  16.221  1.00  0.00     0.022 A 
BRANCH  67  70
ATOM     70  S   UNL     1      -6.168  -2.196  16.413  1.00  0.00     0.127 S 
ATOM     71  O   UNL     1      -4.883  -1.683  15.942  1.00  0.00    -0.237 OA
ATOM     72  O   UNL     1      -6.424  -1.981  17.838  1.00  0.00    -0.237 OA
ATOM     73  O   UNL     1      -6.537  -3.518  15.928  1.00  0.00    -0.744 OA
ENDBRANCH  67  70
ENDBRANCH  49  63
BRANCH  50  74
ATOM     74  C   UNL     1     -14.306  -2.792   5.859  1.00  0.00     0.023 A 
ATOM     75  C   UNL     1     -15.661  -2.418   5.761  1.00  0.00     0.012 A 
ATOM     76  C   UNL     1     -13.704  -3.476   4.786  1.00  0.00     0.148 A 
ATOM     77  C   UNL     1     -16.413  -2.747   4.633  1.00  0.00     0.002 A 
ATOM     78  C   UNL     1     -14.445  -3.757   3.642  1.00  0.00     0.091 A 
ATOM     79  F   UNL     1     -12.417  -3.830   4.900  1.00  0.00    -0.205 F 
ATOM     80  C   UNL     1     -15.803  -3.408   3.570  1.00  0.00     0.022 A 
BRANCH  78  81
ATOM     81  S   UNL     1     -13.714  -4.492   2.175  1.00  0.00     0.127 S 
ATOM     82  O   UNL     1     -14.280  -5.838   2.200  1.00  0.00    -0.237 OA
ATOM     83  O   UNL     1     -14.229  -3.626   1.113  1.00  0.00    -0.237 OA
ATOM     84  O   UNL     1     -12.273  -4.406   2.372  1.00  0.00    -0.744 OA
ENDBRANCH  78  81
ENDBRANCH  50  74
BRANCH  62  85
ATOM     85  C   UNL     1     -14.767  -4.622  12.586  1.00  0.00     0.023 A 
ATOM     86  C   UNL     1     -14.656  -6.020  12.461  1.00  0.00     0.012 A 
ATOM     87  C   UNL     1     -15.707  -4.079  13.484  1.00  0.00     0.148 A 
ATOM     88  C   UNL     1     -15.487  -6.864  13.196  1.00  0.00     0.002 A 
ATOM     89  C   UNL     1     -16.500  -4.927  14.248  1.00  0.00     0.091 A 
ATOM     90  F   UNL     1     -15.813  -2.745  13.573  1.00  0.00    -0.205 F 
ATOM     91  C   UNL     1     -16.398  -6.319  14.098  1.00  0.00     0.022 A 
BRANCH  89  92
ATOM     92  S   UNL     1     -17.626  -4.303  15.501  1.00  0.00     0.127 S 
ATOM     93  O   UNL     1     -18.911  -4.369  14.807  1.00  0.00    -0.237 OA
ATOM     94  O   UNL     1     -17.466  -5.276  16.582  1.00  0.00    -0.237 OA
ATOM     95  O   UNL     1     -17.151  -2.965  15.826  1.00  0.00    -0.744 OA
ENDBRANCH  89  92
ENDBRANCH  62  85
ENDBRANCH  36  37
ENDBRANCH  28  31
ENDBRANCH  26  27
ENDBRANCH   1  26
TORSDOF 16
