REMARK SMILES CC[C@@H](C)c1ccccc1NC(=O)[C@@H]1[C@@H](C(=O)NCCCCNC(=O)c2ccc(-c3c4nc(c(-c5cccc(S(=O)(=O)[O-])c5F)c5ccc([nH]5)c(-c5cccc(S(=O)(=O)[O-])c5F)c5nc(c(-c6cccc(S(=O)(=O)[O-])c6F)c6ccc3[nH]6)C=C5)C=C4)cc2)[C@@H]2C=C[C@H]1C2
REMARK SMILES IDX 20 1 19 2 18 3 16 4 17 5 15 7 14 8 92 9 89 10 91 11 93 12
REMARK SMILES IDX 90 13 12 14 11 15 13 17 10 18 5 19 6 20 7 21 9 22 8 23 3 24
REMARK SMILES IDX 4 25 2 26 1 27 21 28 22 29 23 30 24 31 25 33 26 34 27 35
REMARK SMILES IDX 88 36 28 37 87 38 29 39 30 40 31 41 81 42 32 43 86 44 80 45
REMARK SMILES IDX 82 46 33 47 85 48 79 49 78 50 34 52 66 53 46 54 65 55 47 56
REMARK SMILES IDX 50 57 64 58 83 59 48 60 49 61 63 63 84 64 51 65 35 66 36 67
REMARK SMILES IDX 44 68 37 69 39 70 45 71 38 72 40 73 41 74 42 75 43 76 67 77
REMARK SMILES IDX 68 78 76 79 69 80 71 81 77 82 70 83 72 84 73 85 74 86 75 87
REMARK SMILES IDX 52 88 53 89 61 90 54 91 56 92 62 93 55 94 57 95 58 96 59 97
REMARK SMILES IDX 60 98
REMARK H PARENT 18 6 11 16 23 32 82 51 50 62
REMARK Flexibility Score: inf
ROOT
ATOM      1  C   UNL     1      -2.794   8.489   7.087  1.00  0.00     0.023 C 
ENDROOT
BRANCH   1   2
ATOM      2  C   UNL     1      -2.108   7.204   6.650  1.00  0.00     0.116 C 
BRANCH   2   3
ATOM      3  N   UNL     1      -2.662   6.595   5.465  1.00  0.00    -0.356 N 
ATOM      4  C   UNL     1      -2.194   5.598   4.677  1.00  0.00     0.224 C 
ATOM      5  O   UNL     1      -3.019   5.083   3.911  1.00  0.00    -0.275 OA
ATOM      6  H   UNL     1      -3.527   6.967   5.181  1.00  0.00     0.163 HD
BRANCH   4   7
ATOM      7  C   UNL     1      -0.730   5.155   4.577  1.00  0.00     0.098 C 
ATOM      8  C   UNL     1      -0.674   3.599   4.647  1.00  0.00     0.099 C 
ATOM      9  C   UNL     1       0.337   3.324   5.799  1.00  0.00     0.025 C 
ATOM     10  C   UNL     1       0.326   5.544   5.644  1.00  0.00     0.025 C 
ATOM     11  C   UNL     1       1.715   3.723   5.346  1.00  0.00    -0.027 C 
ATOM     12  C   UNL     1       0.050   4.506   6.732  1.00  0.00     0.017 C 
ATOM     13  C   UNL     1       1.710   5.057   5.248  1.00  0.00    -0.027 C 
BRANCH   8  14
ATOM     14  C   UNL     1      -0.440   2.648   3.480  1.00  0.00     0.228 C 
ATOM     15  N   UNL     1       0.040   2.818   2.232  1.00  0.00    -0.326 N 
ATOM     16  H   UNL     1      -0.050   1.970   1.741  1.00  0.00     0.169 HD
ATOM     17  O   UNL     1      -0.736   1.454   3.705  1.00  0.00    -0.274 OA
BRANCH  15  18
ATOM     18  C   UNL     1       0.622   3.773   1.381  1.00  0.00     0.044 A 
ATOM     19  C   UNL     1       0.804   3.515  -0.004  1.00  0.00    -0.022 A 
ATOM     20  C   UNL     1       1.052   4.638  -0.844  1.00  0.00     0.006 A 
ATOM     21  C   UNL     1       1.213   5.929  -0.349  1.00  0.00     0.000 A 
ATOM     22  C   UNL     1       1.025   5.017   1.850  1.00  0.00     0.026 A 
ATOM     23  C   UNL     1       1.268   6.106   1.014  1.00  0.00     0.002 A 
BRANCH  19  24
ATOM     24  C   UNL     1       0.971   2.137  -0.697  1.00  0.00     0.018 C 
ATOM     25  C   UNL     1       0.134   2.022  -1.986  1.00  0.00     0.013 C 
BRANCH  24  26
ATOM     26  C   UNL     1       0.833   0.843   0.139  1.00  0.00     0.005 C 
ATOM     27  C   UNL     1       1.401  -0.413  -0.515  1.00  0.00     0.004 C 
ENDBRANCH  24  26
ENDBRANCH  19  24
ENDBRANCH  15  18
ENDBRANCH   8  14
ENDBRANCH   4   7
ENDBRANCH   2   3
ENDBRANCH   1   2
BRANCH   1  28
ATOM     28  C   UNL     1      -4.277   8.382   7.410  1.00  0.00     0.023 C 
BRANCH  28  29
ATOM     29  C   UNL     1      -4.686   7.157   8.215  1.00  0.00     0.116 C 
BRANCH  29  30
ATOM     30  N   UNL     1      -3.954   7.009   9.469  1.00  0.00    -0.352 N 
ATOM     31  C   UNL     1      -4.426   7.015  10.762  1.00  0.00     0.251 C 
ATOM     32  H   UNL     1      -2.982   6.888   9.377  1.00  0.00     0.163 HD
ATOM     33  O   UNL     1      -3.658   6.961  11.710  1.00  0.00    -0.269 OA
BRANCH  31  34
ATOM     34  C   UNL     1      -5.879   7.139  10.973  1.00  0.00     0.039 A 
ATOM     35  C   UNL     1      -6.361   8.213  11.723  1.00  0.00     0.014 A 
ATOM     36  C   UNL     1      -6.751   6.271  10.314  1.00  0.00     0.014 A 
ATOM     37  C   UNL     1      -7.730   8.480  11.724  1.00  0.00     0.010 A 
ATOM     38  C   UNL     1      -8.097   6.597  10.239  1.00  0.00     0.010 A 
ATOM     39  C   UNL     1      -8.599   7.709  10.935  1.00  0.00    -0.014 A 
BRANCH  39  40
ATOM     40  C   UNL     1     -10.034   8.055  10.792  1.00  0.00     0.031 A 
ATOM     41  C   UNL     1     -11.083   7.063  11.212  1.00  0.00     0.074 A 
ATOM     42  C   UNL     1     -10.388   9.199  10.173  1.00  0.00     0.049 A 
ATOM     43  N   UNL     1     -12.379   7.123  11.064  1.00  0.00    -0.248 NA
ATOM     44  C   UNL     1     -10.608   5.822  11.848  1.00  0.00     0.031 C 
ATOM     45  C   UNL     1      -9.460  10.198   9.636  1.00  0.00     0.029 A 
ATOM     46  N   UNL     1     -11.627   9.701   9.859  1.00  0.00    -0.354 N 
ATOM     47  C   UNL     1     -12.869   5.914  11.541  1.00  0.00     0.074 A 
ATOM     48  C   UNL     1     -11.729   5.124  11.949  1.00  0.00     0.031 C 
ATOM     49  C   UNL     1     -10.160  11.192   9.066  1.00  0.00     0.029 A 
ATOM     50  C   UNL     1     -11.584  10.889   9.167  1.00  0.00     0.049 A 
ATOM     51  H   UNL     1     -12.468   9.252  10.106  1.00  0.00     0.167 HD
ATOM     52  C   UNL     1     -14.154   5.511  11.664  1.00  0.00     0.034 A 
ATOM     53  C   UNL     1     -12.580  11.646   8.665  1.00  0.00     0.034 A 
ATOM     54  C   UNL     1     -15.285   6.327  11.322  1.00  0.00     0.049 A 
ATOM     55  C   UNL     1     -14.004  11.202   8.871  1.00  0.00     0.074 A 
ATOM     56  C   UNL     1     -16.628   6.058  11.511  1.00  0.00     0.029 A 
ATOM     57  N   UNL     1     -15.205   7.574  10.721  1.00  0.00    -0.354 N 
ATOM     58  N   UNL     1     -14.454  10.132   9.480  1.00  0.00    -0.248 NA
ATOM     59  C   UNL     1     -15.059  12.084   8.350  1.00  0.00     0.031 C 
ATOM     60  C   UNL     1     -17.362   7.140  11.014  1.00  0.00     0.029 A 
ATOM     61  C   UNL     1     -16.474   8.086  10.526  1.00  0.00     0.049 A 
ATOM     62  H   UNL     1     -14.368   8.027  10.470  1.00  0.00     0.167 HD
ATOM     63  C   UNL     1     -15.840  10.226   9.445  1.00  0.00     0.074 A 
ATOM     64  C   UNL     1     -16.156  11.470   8.772  1.00  0.00     0.031 C 
ATOM     65  C   UNL     1     -16.768   9.354   9.909  1.00  0.00     0.034 A 
BRANCH  52  66
ATOM     66  C   UNL     1     -14.403   4.152  12.260  1.00  0.00     0.023 A 
ATOM     67  C   UNL     1     -14.176   3.949  13.637  1.00  0.00     0.012 A 
ATOM     68  C   UNL     1     -14.900   3.092  11.477  1.00  0.00     0.148 A 
ATOM     69  C   UNL     1     -14.405   2.703  14.219  1.00  0.00     0.002 A 
ATOM     70  C   UNL     1     -15.168   1.865  12.074  1.00  0.00     0.091 A 
ATOM     71  F   UNL     1     -15.085   3.297  10.165  1.00  0.00    -0.205 F 
ATOM     72  C   UNL     1     -14.910   1.666  13.440  1.00  0.00     0.022 A 
BRANCH  70  73
ATOM     73  S   UNL     1     -15.892   0.490  11.173  1.00  0.00     0.127 S 
ATOM     74  O   UNL     1     -14.749  -0.413  11.046  1.00  0.00    -0.237 OA
ATOM     75  O   UNL     1     -16.932   0.031  12.095  1.00  0.00    -0.237 OA
ATOM     76  O   UNL     1     -16.393   1.049   9.925  1.00  0.00    -0.744 OA
ENDBRANCH  70  73
ENDBRANCH  52  66
BRANCH  53  77
ATOM     77  C   UNL     1     -12.269  12.938   7.990  1.00  0.00     0.023 A 
ATOM     78  C   UNL     1     -12.593  14.146   8.639  1.00  0.00     0.012 A 
ATOM     79  C   UNL     1     -11.630  12.984   6.736  1.00  0.00     0.148 A 
ATOM     80  C   UNL     1     -12.313  15.375   8.040  1.00  0.00     0.002 A 
ATOM     81  C   UNL     1     -11.307  14.212   6.168  1.00  0.00     0.091 A 
ATOM     82  F   UNL     1     -11.342  11.825   6.127  1.00  0.00    -0.205 F 
ATOM     83  C   UNL     1     -11.662  15.408   6.811  1.00  0.00     0.022 A 
BRANCH  81  84
ATOM     84  S   UNL     1     -10.351  14.347   4.653  1.00  0.00     0.127 S 
ATOM     85  O   UNL     1     -11.370  14.755   3.690  1.00  0.00    -0.237 OA
ATOM     86  O   UNL     1      -9.378  15.385   4.998  1.00  0.00    -0.237 OA
ATOM     87  O   UNL     1      -9.766  13.029   4.443  1.00  0.00    -0.744 OA
ENDBRANCH  81  84
ENDBRANCH  53  77
BRANCH  65  88
ATOM     88  C   UNL     1     -18.218   9.716   9.735  1.00  0.00     0.023 A 
ATOM     89  C   UNL     1     -18.813   9.608   8.463  1.00  0.00     0.012 A 
ATOM     90  C   UNL     1     -19.011  10.067  10.846  1.00  0.00     0.148 A 
ATOM     91  C   UNL     1     -20.173   9.866   8.295  1.00  0.00     0.002 A 
ATOM     92  C   UNL     1     -20.374  10.278  10.678  1.00  0.00     0.091 A 
ATOM     93  F   UNL     1     -18.419  10.181  12.044  1.00  0.00    -0.205 F 
ATOM     94  C   UNL     1     -20.954  10.187   9.402  1.00  0.00     0.022 A 
BRANCH  92  95
ATOM     95  S   UNL     1     -21.474  10.602  12.060  1.00  0.00     0.127 S 
ATOM     96  O   UNL     1     -21.775  12.021  11.875  1.00  0.00    -0.237 OA
ATOM     97  O   UNL     1     -22.593   9.700  11.786  1.00  0.00    -0.237 OA
ATOM     98  O   UNL     1     -20.717  10.275  13.261  1.00  0.00    -0.744 OA
ENDBRANCH  92  95
ENDBRANCH  65  88
ENDBRANCH  39  40
ENDBRANCH  31  34
ENDBRANCH  29  30
ENDBRANCH  28  29
ENDBRANCH   1  28
TORSDOF 18
