REMARK SMILES O=C(NCCCCNC(=O)[C@H]1[C@H]2CC[C@H](CC2)[C@@H]1C(=O)Nc1sc2c(c1C(=O)N1CCCCC1)CCCC2)c1ccc(-c2c3nc(c(-c4cccc(S(=O)(=O)[O-])c4F)c4ccc([nH]4)c(-c4cccc(S(=O)(=O)[O-])c4F)c4nc(c(-c5cccc(S(=O)(=O)[O-])c5F)c5ccc2[nH]5)C=C4)C=C3)cc1
REMARK SMILES IDX 5 1 4 2 3 3 1 4 2 5 39 7 40 8 101 9 41 10 100 11 42 12 43 13
REMARK SMILES IDX 44 14 94 15 45 16 99 17 93 18 95 19 46 20 98 21 92 22 91 23
REMARK SMILES IDX 47 25 79 26 59 27 78 28 60 29 63 30 77 31 96 32 61 33 62 34
REMARK SMILES IDX 76 36 97 37 64 38 48 39 49 40 57 41 50 42 52 43 58 44 51 45
REMARK SMILES IDX 53 46 54 47 55 48 56 49 80 50 81 51 89 52 82 53 84 54 90 55
REMARK SMILES IDX 83 56 85 57 86 58 87 59 88 60 65 61 66 62 74 63 67 64 69 65
REMARK SMILES IDX 75 66 68 67 70 68 71 69 72 70 73 71 6 72 7 73 8 74 9 75
REMARK SMILES IDX 10 77 11 78 12 79 18 80 13 81 17 82 15 83 14 84 16 85 19 86
REMARK SMILES IDX 20 87 21 88 22 90 23 91 26 92 24 93 25 94 38 95 35 96 37 97
REMARK SMILES IDX 36 98 27 99 28 100 29 101 30 102 34 103 31 104 33 105 32 106
REMARK H PARENT 3 6 95 24 63 35 8 76 21 89
REMARK Flexibility Score: inf
ROOT
ATOM      1  C   UNL     1       4.698   2.673   0.716  1.00  0.00     0.023 C 
ENDROOT
BRANCH   1   2
ATOM      2  C   UNL     1       4.432   1.175   0.703  1.00  0.00     0.116 C 
BRANCH   2   3
ATOM      3  N   UNL     1       3.011   0.875   0.739  1.00  0.00    -0.352 N 
ATOM      4  O   UNL     1       1.068   0.068  -0.069  1.00  0.00    -0.269 OA
ATOM      5  C   UNL     1       2.295   0.063  -0.104  1.00  0.00     0.251 C 
ATOM      6  H   UNL     1       2.498   1.309   1.458  1.00  0.00     0.163 HD
BRANCH   5   7
ATOM      7  C   UNL     1       3.021  -0.800  -1.058  1.00  0.00     0.039 A 
ATOM      8  C   UNL     1       4.112  -1.562  -0.628  1.00  0.00     0.014 A 
ATOM      9  C   UNL     1       2.604  -0.849  -2.390  1.00  0.00     0.014 A 
ATOM     10  C   UNL     1       4.847  -2.298  -1.550  1.00  0.00     0.010 A 
ATOM     11  C   UNL     1       3.297  -1.652  -3.299  1.00  0.00     0.010 A 
ATOM     12  C   UNL     1       4.427  -2.377  -2.887  1.00  0.00    -0.014 A 
BRANCH  12  13
ATOM     13  C   UNL     1       5.086  -3.341  -3.801  1.00  0.00     0.031 A 
ATOM     14  C   UNL     1       5.836  -2.887  -5.019  1.00  0.00     0.074 A 
ATOM     15  C   UNL     1       4.947  -4.655  -3.532  1.00  0.00     0.049 A 
ATOM     16  N   UNL     1       6.433  -3.614  -5.928  1.00  0.00    -0.248 NA
ATOM     17  C   UNL     1       5.926  -1.438  -5.259  1.00  0.00     0.031 C 
ATOM     18  C   UNL     1       4.188  -5.206  -2.404  1.00  0.00     0.029 A 
ATOM     19  N   UNL     1       5.407  -5.765  -4.193  1.00  0.00    -0.354 N 
ATOM     20  C   UNL     1       6.928  -2.722  -6.870  1.00  0.00     0.074 A 
ATOM     21  C   UNL     1       6.573  -1.393  -6.418  1.00  0.00     0.031 C 
ATOM     22  C   UNL     1       4.230  -6.544  -2.454  1.00  0.00     0.029 A 
ATOM     23  C   UNL     1       4.965  -6.947  -3.646  1.00  0.00     0.049 A 
ATOM     24  H   UNL     1       5.995  -5.720  -4.981  1.00  0.00     0.167 HD
ATOM     25  C   UNL     1       7.618  -2.994  -8.003  1.00  0.00     0.034 A 
ATOM     26  C   UNL     1       5.097  -8.216  -4.075  1.00  0.00     0.034 A 
ATOM     27  C   UNL     1       7.997  -4.319  -8.419  1.00  0.00     0.049 A 
ATOM     28  C   UNL     1       5.875  -8.476  -5.331  1.00  0.00     0.074 A 
ATOM     29  C   UNL     1       8.800  -4.686  -9.486  1.00  0.00     0.029 A 
ATOM     30  N   UNL     1       7.580  -5.493  -7.812  1.00  0.00    -0.354 N 
ATOM     31  N   UNL     1       6.497  -7.621  -6.106  1.00  0.00    -0.248 NA
ATOM     32  C   UNL     1       5.990  -9.875  -5.763  1.00  0.00     0.031 C 
ATOM     33  C   UNL     1       8.833  -6.082  -9.549  1.00  0.00     0.029 A 
ATOM     34  C   UNL     1       8.075  -6.585  -8.505  1.00  0.00     0.049 A 
ATOM     35  H   UNL     1       7.015  -5.543  -7.008  1.00  0.00     0.167 HD
ATOM     36  C   UNL     1       7.087  -8.378  -7.109  1.00  0.00     0.074 A 
ATOM     37  C   UNL     1       6.782  -9.764  -6.821  1.00  0.00     0.031 C 
ATOM     38  C   UNL     1       7.796  -7.961  -8.185  1.00  0.00     0.034 A 
BRANCH  25  39
ATOM     39  C   UNL     1       8.045  -1.847  -8.880  1.00  0.00     0.023 A 
ATOM     40  C   UNL     1       9.137  -1.043  -8.499  1.00  0.00     0.012 A 
ATOM     41  C   UNL     1       7.449  -1.654 -10.143  1.00  0.00     0.148 A 
ATOM     42  C   UNL     1       9.624  -0.057  -9.358  1.00  0.00     0.002 A 
ATOM     43  C   UNL     1       7.964  -0.695 -11.008  1.00  0.00     0.091 A 
ATOM     44  F   UNL     1       6.402  -2.421 -10.479  1.00  0.00    -0.205 F 
ATOM     45  C   UNL     1       9.047   0.107 -10.615  1.00  0.00     0.022 A 
BRANCH  43  46
ATOM     46  S   UNL     1       7.345  -0.459 -12.679  1.00  0.00     0.127 S 
ATOM     47  O   UNL     1       6.756   0.877 -12.588  1.00  0.00    -0.237 OA
ATOM     48  O   UNL     1       8.572  -0.530 -13.473  1.00  0.00    -0.237 OA
ATOM     49  O   UNL     1       6.399  -1.539 -12.917  1.00  0.00    -0.744 OA
ENDBRANCH  43  46
ENDBRANCH  25  39
BRANCH  26  50
ATOM     50  C   UNL     1       4.470  -9.328  -3.309  1.00  0.00     0.023 A 
ATOM     51  C   UNL     1       5.285 -10.266  -2.648  1.00  0.00     0.012 A 
ATOM     52  C   UNL     1       3.069  -9.445  -3.212  1.00  0.00     0.148 A 
ATOM     53  C   UNL     1       4.715 -11.319  -1.932  1.00  0.00     0.002 A 
ATOM     54  C   UNL     1       2.510 -10.460  -2.446  1.00  0.00     0.091 A 
ATOM     55  F   UNL     1       2.308  -8.555  -3.864  1.00  0.00    -0.205 F 
ATOM     56  C   UNL     1       3.330 -11.409  -1.821  1.00  0.00     0.022 A 
BRANCH  54  57
ATOM     57  S   UNL     1       0.743 -10.552  -2.136  1.00  0.00     0.127 S 
ATOM     58  O   UNL     1       0.334 -11.616  -3.048  1.00  0.00    -0.237 OA
ATOM     59  O   UNL     1       0.698 -10.906  -0.717  1.00  0.00    -0.237 OA
ATOM     60  O   UNL     1       0.230  -9.221  -2.433  1.00  0.00    -0.744 OA
ENDBRANCH  54  57
ENDBRANCH  26  50
BRANCH  38  61
ATOM     61  C   UNL     1       8.296  -9.016  -9.135  1.00  0.00     0.023 A 
ATOM     62  C   UNL     1       7.385  -9.668  -9.989  1.00  0.00     0.012 A 
ATOM     63  C   UNL     1       9.670  -9.309  -9.232  1.00  0.00     0.148 A 
ATOM     64  C   UNL     1       7.829 -10.618 -10.906  1.00  0.00     0.002 A 
ATOM     65  C   UNL     1      10.112 -10.221 -10.182  1.00  0.00     0.091 A 
ATOM     66  F   UNL     1      10.517  -8.688  -8.399  1.00  0.00    -0.205 F 
ATOM     67  C   UNL     1       9.192 -10.885 -11.011  1.00  0.00     0.022 A 
BRANCH  65  68
ATOM     68  S   UNL     1      11.853 -10.565 -10.456  1.00  0.00     0.127 S 
ATOM     69  O   UNL     1      11.961 -11.946  -9.988  1.00  0.00    -0.237 OA
ATOM     70  O   UNL     1      11.976 -10.401 -11.905  1.00  0.00    -0.237 OA
ATOM     71  O   UNL     1      12.588  -9.584  -9.669  1.00  0.00    -0.744 OA
ENDBRANCH  65  68
ENDBRANCH  38  61
ENDBRANCH  12  13
ENDBRANCH   5   7
ENDBRANCH   2   3
ENDBRANCH   1   2
BRANCH   1  72
ATOM     72  C   UNL     1       4.204   3.398   1.973  1.00  0.00     0.023 C 
BRANCH  72  73
ATOM     73  C   UNL     1       4.686   2.782   3.290  1.00  0.00     0.116 C 
BRANCH  73  74
ATOM     74  N   UNL     1       6.133   2.758   3.322  1.00  0.00    -0.356 N 
ATOM     75  C   UNL     1       6.975   3.608   3.961  1.00  0.00     0.224 C 
ATOM     76  H   UNL     1       6.562   2.030   2.816  1.00  0.00     0.163 HD
ATOM     77  O   UNL     1       8.086   3.776   3.457  1.00  0.00    -0.275 OA
BRANCH  75  78
ATOM     78  C   UNL     1       6.569   4.221   5.299  1.00  0.00     0.094 C 
ATOM     79  C   UNL     1       7.669   3.827   6.342  1.00  0.00     0.002 C 
ATOM     80  C   UNL     1       6.400   5.775   5.226  1.00  0.00     0.094 C 
ATOM     81  C   UNL     1       9.033   4.502   6.058  1.00  0.00     0.005 C 
ATOM     82  C   UNL     1       7.204   4.354   7.698  1.00  0.00     0.005 C 
ATOM     83  C   UNL     1       7.404   6.410   6.216  1.00  0.00     0.002 C 
ATOM     84  C   UNL     1       8.822   5.990   5.749  1.00  0.00     0.005 C 
ATOM     85  C   UNL     1       7.282   5.875   7.661  1.00  0.00     0.005 C 
BRANCH  80  86
ATOM     86  C   UNL     1       4.890   6.148   5.143  1.00  0.00     0.229 C 
ATOM     87  O   UNL     1       4.299   5.851   4.090  1.00  0.00    -0.274 OA
ATOM     88  N   UNL     1       4.078   6.569   6.148  1.00  0.00    -0.317 N 
ATOM     89  H   UNL     1       3.127   6.349   6.023  1.00  0.00     0.170 HD
BRANCH  88  90
ATOM     90  C   UNL     1       4.354   7.248   7.306  1.00  0.00     0.108 A 
ATOM     91  S   UNL     1       5.214   8.707   7.196  1.00  0.00    -0.122 S 
ATOM     92  C   UNL     1       3.897   6.982   8.599  1.00  0.00     0.078 A 
ATOM     93  C   UNL     1       5.595   8.599   8.846  1.00  0.00     0.011 A 
ATOM     94  C   UNL     1       4.751   7.729   9.525  1.00  0.00    -0.019 A 
ATOM     95  C   UNL     1       6.808   9.266   9.416  1.00  0.00     0.047 C 
ATOM     96  C   UNL     1       4.958   7.482  10.992  1.00  0.00     0.037 C 
ATOM     97  C   UNL     1       7.280   8.484  10.650  1.00  0.00     0.006 C 
ATOM     98  C   UNL     1       6.117   8.274  11.617  1.00  0.00     0.005 C 
BRANCH  92  99
ATOM     99  C   UNL     1       2.943   5.868   8.819  1.00  0.00     0.257 C 
ATOM    100  O   UNL     1       2.415   5.294   7.863  1.00  0.00    -0.269 OA
ATOM    101  N   UNL     1       2.758   5.377  10.108  1.00  0.00    -0.339 N 
ATOM    102  C   UNL     1       2.614   3.932  10.241  1.00  0.00     0.120 C 
ATOM    103  C   UNL     1       2.022   6.137  11.110  1.00  0.00     0.120 C 
ATOM    104  C   UNL     1       3.143   3.483  11.596  1.00  0.00     0.022 C 
ATOM    105  C   UNL     1       2.439   5.732  12.528  1.00  0.00     0.022 C 
ATOM    106  C   UNL     1       2.428   4.215  12.732  1.00  0.00     0.004 C 
ENDBRANCH  92  99
ENDBRANCH  88  90
ENDBRANCH  80  86
ENDBRANCH  75  78
ENDBRANCH  73  74
ENDBRANCH  72  73
ENDBRANCH   1  72
TORSDOF 17
