REMARK SMILES Cc1sc(NC(=O)[C@@H]2[C@@H](C(=O)NCCCCNC(=O)c3ccc(-c4c5nc(c(-c6cccc(S(=O)(=O)[O-])c6F)c6ccc([nH]6)c(-c6cccc(S(=O)(=O)[O-])c6F)c6nc(c(-c7cccc(S(=O)(=O)[O-])c7F)c7ccc4[nH]7)C=C6)C=C5)cc3)[C@@H]3C=C[C@H]2C3)c(C#N)c1C
REMARK SMILES IDX 14 1 13 2 12 3 10 4 11 5 9 7 8 8 86 9 83 10 85 11 87 12
REMARK SMILES IDX 84 13 6 14 5 15 7 17 4 18 1 19 2 20 3 21 91 22 88 23 92 24
REMARK SMILES IDX 89 25 90 26 15 27 16 28 17 29 18 30 19 32 20 33 21 34 82 35
REMARK SMILES IDX 22 36 81 37 23 38 24 39 25 40 75 41 26 42 80 43 74 44 76 45
REMARK SMILES IDX 27 46 79 47 73 48 72 49 28 51 60 52 40 53 59 54 41 55 44 56
REMARK SMILES IDX 58 57 77 58 42 59 43 60 57 62 78 63 45 64 29 65 30 66 38 67
REMARK SMILES IDX 31 68 33 69 39 70 32 71 34 72 35 73 36 74 37 75 61 76 62 77
REMARK SMILES IDX 70 78 63 79 65 80 71 81 64 82 66 83 67 84 68 85 69 86 46 87
REMARK SMILES IDX 47 88 55 89 48 90 50 91 56 92 49 93 51 94 52 95 53 96 54 97
REMARK H PARENT 12 6 5 16 17 31 76 50 44 61
REMARK Flexibility Score: inf
ROOT
ATOM      1  C   UNL     1      -3.761  -2.911   4.306  1.00  0.00     0.023 C 
ENDROOT
BRANCH   1   2
ATOM      2  C   UNL     1      -3.751  -1.489   4.888  1.00  0.00     0.116 C 
BRANCH   2   3
ATOM      3  N   UNL     1      -3.308  -1.447   6.272  1.00  0.00    -0.356 N 
ATOM      4  C   UNL     1      -2.191  -1.030   6.926  1.00  0.00     0.224 C 
ATOM      5  O   UNL     1      -2.112  -1.397   8.107  1.00  0.00    -0.275 OA
ATOM      6  H   UNL     1      -3.984  -1.810   6.889  1.00  0.00     0.163 HD
BRANCH   4   7
ATOM      7  C   UNL     1      -0.978  -0.323   6.307  1.00  0.00     0.098 C 
ATOM      8  C   UNL     1      -1.154   0.490   4.971  1.00  0.00     0.099 C 
ATOM      9  C   UNL     1      -0.303  -0.400   4.014  1.00  0.00     0.025 C 
ATOM     10  C   UNL     1       0.107  -1.386   5.956  1.00  0.00     0.025 C 
ATOM     11  C   UNL     1       1.149  -0.150   4.304  1.00  0.00    -0.027 C 
ATOM     12  C   UNL     1      -0.368  -1.815   4.588  1.00  0.00     0.017 C 
ATOM     13  C   UNL     1       1.393  -0.721   5.494  1.00  0.00    -0.027 C 
BRANCH   8  14
ATOM     14  C   UNL     1      -0.767   1.974   5.138  1.00  0.00     0.229 C 
ATOM     15  N   UNL     1      -0.605   2.893   4.139  1.00  0.00    -0.316 N 
ATOM     16  H   UNL     1      -0.659   3.828   4.444  1.00  0.00     0.170 HD
ATOM     17  O   UNL     1      -0.605   2.450   6.268  1.00  0.00    -0.274 OA
BRANCH  15  18
ATOM     18  C   UNL     1      -0.381   2.759   2.789  1.00  0.00     0.113 A 
ATOM     19  C   UNL     1       0.589   0.328   0.050  1.00  0.00     0.057 C 
ATOM     20  C   UNL     1       0.212   1.565   0.789  1.00  0.00     0.008 A 
ATOM     21  S   UNL     1      -1.152   1.593   1.832  1.00  0.00    -0.122 S 
ATOM     22  C   UNL     1       0.773   2.834   0.765  1.00  0.00    -0.017 A 
ATOM     23  C   UNL     1       0.363   3.569   1.946  1.00  0.00     0.090 A 
ATOM     24  C   UNL     1       1.750   3.324  -0.253  1.00  0.00     0.047 C 
BRANCH  23  25
ATOM     25  C   UNL     1       0.838   4.868   2.293  1.00  0.00     0.103 C 
ATOM     26  N   UNL     1       1.242   5.939   2.536  1.00  0.00    -0.192 NA
ENDBRANCH  23  25
ENDBRANCH  15  18
ENDBRANCH   8  14
ENDBRANCH   4   7
ENDBRANCH   2   3
ENDBRANCH   1   2
BRANCH   1  27
ATOM     27  C   UNL     1      -5.027  -3.733   4.521  1.00  0.00     0.023 C 
BRANCH  27  28
ATOM     28  C   UNL     1      -6.268  -3.104   3.918  1.00  0.00     0.116 C 
BRANCH  28  29
ATOM     29  N   UNL     1      -6.208  -2.941   2.454  1.00  0.00    -0.352 N 
ATOM     30  C   UNL     1      -7.211  -2.449   1.622  1.00  0.00     0.251 C 
ATOM     31  H   UNL     1      -5.368  -3.209   2.017  1.00  0.00     0.163 HD
ATOM     32  O   UNL     1      -7.227  -2.658   0.417  1.00  0.00    -0.269 OA
BRANCH  30  33
ATOM     33  C   UNL     1      -8.190  -1.546   2.238  1.00  0.00     0.039 A 
ATOM     34  C   UNL     1      -9.583  -1.581   2.085  1.00  0.00     0.014 A 
ATOM     35  C   UNL     1      -7.609  -0.652   3.106  1.00  0.00     0.014 A 
ATOM     36  C   UNL     1     -10.345  -0.699   2.862  1.00  0.00     0.010 A 
ATOM     37  C   UNL     1      -8.389  -0.343   4.155  1.00  0.00     0.010 A 
ATOM     38  C   UNL     1      -9.686  -0.012   3.875  1.00  0.00    -0.014 A 
BRANCH  38  39
ATOM     39  C   UNL     1     -10.222   0.892   4.867  1.00  0.00     0.031 A 
ATOM     40  C   UNL     1     -11.157   0.208   5.797  1.00  0.00     0.074 A 
ATOM     41  C   UNL     1      -9.596   2.081   5.082  1.00  0.00     0.049 A 
ATOM     42  N   UNL     1     -12.449   0.231   5.747  1.00  0.00    -0.248 NA
ATOM     43  C   UNL     1     -10.633  -0.846   6.691  1.00  0.00     0.031 C 
ATOM     44  C   UNL     1      -8.402   2.653   4.425  1.00  0.00     0.029 A 
ATOM     45  N   UNL     1      -9.837   3.014   6.031  1.00  0.00    -0.354 N 
ATOM     46  C   UNL     1     -12.857  -0.538   6.833  1.00  0.00     0.074 A 
ATOM     47  C   UNL     1     -11.762  -1.418   7.118  1.00  0.00     0.031 C 
ATOM     48  C   UNL     1      -7.908   3.679   5.162  1.00  0.00     0.029 A 
ATOM     49  C   UNL     1      -8.826   3.947   6.252  1.00  0.00     0.049 A 
ATOM     50  H   UNL     1     -10.681   3.033   6.538  1.00  0.00     0.167 HD
ATOM     51  C   UNL     1     -13.867  -0.113   7.643  1.00  0.00     0.034 A 
ATOM     52  C   UNL     1      -8.757   4.832   7.286  1.00  0.00     0.034 A 
ATOM     53  C   UNL     1     -14.553   1.007   7.036  1.00  0.00     0.049 A 
ATOM     54  C   UNL     1     -10.131   4.926   7.845  1.00  0.00     0.074 A 
ATOM     55  C   UNL     1     -15.222   1.216   5.848  1.00  0.00     0.029 A 
ATOM     56  N   UNL     1     -14.181   2.252   7.490  1.00  0.00    -0.354 N 
ATOM     57  N   UNL     1     -11.138   5.388   7.152  1.00  0.00    -0.248 NA
ATOM     58  C   UNL     1     -10.473   4.002   8.917  1.00  0.00     0.031 C 
ATOM     59  C   UNL     1     -14.793   2.506   5.412  1.00  0.00     0.029 A 
ATOM     60  C   UNL     1     -13.986   3.066   6.405  1.00  0.00     0.049 A 
ATOM     61  H   UNL     1     -14.073   2.513   8.433  1.00  0.00     0.167 HD
ATOM     62  C   UNL     1     -12.159   4.473   7.377  1.00  0.00     0.074 A 
ATOM     63  C   UNL     1     -11.710   3.675   8.525  1.00  0.00     0.031 C 
ATOM     64  C   UNL     1     -13.091   4.204   6.412  1.00  0.00     0.034 A 
BRANCH  51  65
ATOM     65  C   UNL     1     -13.972  -0.356   9.139  1.00  0.00     0.023 A 
ATOM     66  C   UNL     1     -15.164   0.081   9.760  1.00  0.00     0.012 A 
ATOM     67  C   UNL     1     -12.903  -0.709   9.997  1.00  0.00     0.148 A 
ATOM     68  C   UNL     1     -15.259   0.240  11.146  1.00  0.00     0.002 A 
ATOM     69  C   UNL     1     -13.021  -0.606  11.379  1.00  0.00     0.091 A 
ATOM     70  F   UNL     1     -11.712  -1.037   9.497  1.00  0.00    -0.205 F 
ATOM     71  C   UNL     1     -14.185  -0.100  11.957  1.00  0.00     0.022 A 
BRANCH  69  72
ATOM     72  S   UNL     1     -11.671  -1.050  12.483  1.00  0.00     0.127 S 
ATOM     73  O   UNL     1     -11.284   0.257  13.005  1.00  0.00    -0.237 OA
ATOM     74  O   UNL     1     -12.350  -1.925  13.439  1.00  0.00    -0.237 OA
ATOM     75  O   UNL     1     -10.683  -1.724  11.651  1.00  0.00    -0.744 OA
ENDBRANCH  69  72
ENDBRANCH  51  65
BRANCH  52  76
ATOM     76  C   UNL     1      -7.566   5.269   8.069  1.00  0.00     0.023 A 
ATOM     77  C   UNL     1      -7.603   6.434   8.866  1.00  0.00     0.012 A 
ATOM     78  C   UNL     1      -6.491   4.375   8.266  1.00  0.00     0.148 A 
ATOM     79  C   UNL     1      -6.611   6.689   9.830  1.00  0.00     0.002 A 
ATOM     80  C   UNL     1      -5.511   4.630   9.223  1.00  0.00     0.091 A 
ATOM     81  F   UNL     1      -6.484   3.225   7.580  1.00  0.00    -0.205 F 
ATOM     82  C   UNL     1      -5.569   5.784  10.014  1.00  0.00     0.022 A 
BRANCH  80  83
ATOM     83  S   UNL     1      -4.161   3.482   9.531  1.00  0.00     0.127 S 
ATOM     84  O   UNL     1      -3.002   4.371   9.461  1.00  0.00    -0.237 OA
ATOM     85  O   UNL     1      -4.485   2.997  10.870  1.00  0.00    -0.237 OA
ATOM     86  O   UNL     1      -4.240   2.496   8.460  1.00  0.00    -0.744 OA
ENDBRANCH  80  83
ENDBRANCH  52  76
BRANCH  64  87
ATOM     87  C   UNL     1     -13.081   5.050   5.158  1.00  0.00     0.023 A 
ATOM     88  C   UNL     1     -12.068   4.984   4.173  1.00  0.00     0.012 A 
ATOM     89  C   UNL     1     -14.232   5.799   4.884  1.00  0.00     0.148 A 
ATOM     90  C   UNL     1     -12.195   5.667   2.957  1.00  0.00     0.002 A 
ATOM     91  C   UNL     1     -14.374   6.442   3.661  1.00  0.00     0.091 A 
ATOM     92  F   UNL     1     -15.194   5.831   5.817  1.00  0.00    -0.205 F 
ATOM     93  C   UNL     1     -13.355   6.389   2.697  1.00  0.00     0.022 A 
BRANCH  91  94
ATOM     94  S   UNL     1     -15.894   7.282   3.223  1.00  0.00     0.127 S 
ATOM     95  O   UNL     1     -15.475   8.682   3.216  1.00  0.00    -0.237 OA
ATOM     96  O   UNL     1     -16.188   6.722   1.903  1.00  0.00    -0.237 OA
ATOM     97  O   UNL     1     -16.864   6.927   4.251  1.00  0.00    -0.744 OA
ENDBRANCH  91  94
ENDBRANCH  64  87
ENDBRANCH  38  39
ENDBRANCH  30  33
ENDBRANCH  28  29
ENDBRANCH  27  28
ENDBRANCH   1  27
TORSDOF 17
