REMARK SMILES COc1cc([C@@H]2CC(NCCCCNC(=O)c3ccc(-c4c5nc(c(-c6cccc(S(=O)(=O)[O-])c6F)c6ccc([nH]6)c(-c6cccc(S(=O)(=O)[O-])c6F)c6nc(c(-c7cccc(S(=O)(=O)[O-])c7F)c7ccc4[nH]7)C=C6)C=C5)cc3)=[NH+]c3c(C(=O)[O-])cn(-c4ccc(Cl)cc4)c32)cc(OC)c1O
REMARK SMILES IDX 12 1 11 2 10 3 9 4 6 5 7 6 95 7 8 8 81 9 87 10 80 11 82 12
REMARK SMILES IDX 86 13 5 16 3 17 4 18 100 19 97 20 96 21 2 22 1 23 101 24
REMARK SMILES IDX 98 26 99 27 88 28 89 29 94 30 90 31 93 32 91 33 92 34 83 35
REMARK SMILES IDX 84 36 85 37 13 38 14 39 15 40 16 42 17 43 18 44 79 45 19 46
REMARK SMILES IDX 78 47 20 48 21 49 22 50 72 51 23 52 77 53 71 54 73 55 24 56
REMARK SMILES IDX 76 57 70 58 69 59 25 61 57 62 37 63 56 64 38 65 41 66 55 67
REMARK SMILES IDX 74 68 39 69 40 70 54 72 75 73 42 74 26 75 27 76 35 77 28 78
REMARK SMILES IDX 30 79 36 80 29 81 31 82 32 83 33 84 34 85 58 86 59 87 67 88
REMARK SMILES IDX 60 89 62 90 68 91 61 92 63 93 64 94 65 95 66 96 43 97 44 98
REMARK SMILES IDX 52 99 45 100 47 101 53 102 46 103 48 104 49 105 50 106
REMARK SMILES IDX 51 107
REMARK H PARENT 9 14 80 15 101 25 14 41 73 60 41 71
REMARK Flexibility Score: inf
ROOT
ATOM      1  C   UNL     1       3.915  -7.889   6.689  1.00  0.00     0.025 C 
ENDROOT
BRANCH   1   2
ATOM      2  C   UNL     1       2.418  -8.228   6.695  1.00  0.00     0.048 C 
BRANCH   2   3
ATOM      3  C   UNL     1       1.509  -7.230   7.416  1.00  0.00     0.233 C 
BRANCH   3   4
ATOM      4  N   UNL     1       1.525  -5.927   6.773  1.00  0.00    -0.278 N 
ATOM      5  C   UNL     1      -0.515  -3.376   4.753  1.00  0.00     0.083 C 
ATOM      6  C   UNL     1       0.511  -3.894   5.783  1.00  0.00     0.142 C 
ATOM      7  C   UNL     1      -1.696  -4.293   4.725  1.00  0.00     0.078 A 
ATOM      8  C   UNL     1       0.434  -5.395   6.106  1.00  0.00     0.248 C 
ATOM      9  C   UNL     1      -1.710  -5.534   5.306  1.00  0.00     0.155 A 
ATOM     10  N   UNL     1      -2.985  -4.024   4.302  1.00  0.00    -0.315 N 
ATOM     11  N   UNL     1      -0.598  -6.152   5.860  1.00  0.00    -0.243 N 
ATOM     12  C   UNL     1      -3.020  -6.053   5.311  1.00  0.00     0.062 A 
ATOM     13  C   UNL     1      -3.795  -5.066   4.718  1.00  0.00     0.106 A 
ATOM     14  H   UNL     1       2.353  -5.396   6.813  1.00  0.00     0.304 HD
ATOM     15  H   UNL     1      -0.589  -7.117   6.057  1.00  0.00     0.312 HD
BRANCH   5  16
ATOM     16  C   UNL     1       0.123  -3.147   3.392  1.00  0.00    -0.031 A 
ATOM     17  C   UNL     1       0.751  -1.586   1.613  1.00  0.00     0.164 A 
ATOM     18  C   UNL     1       0.270  -1.839   2.904  1.00  0.00     0.055 A 
ATOM     19  C   UNL     1       1.144  -2.667   0.809  1.00  0.00     0.200 A 
ATOM     20  C   UNL     1       1.029  -3.986   1.284  1.00  0.00     0.164 A 
ATOM     21  C   UNL     1       0.528  -4.208   2.575  1.00  0.00     0.055 A 
BRANCH  17  22
ATOM     22  O   UNL     1       0.784  -0.249   1.318  1.00  0.00    -0.493 OA
ATOM     23  C   UNL     1       0.850   0.174  -0.034  1.00  0.00     0.278 C 
ENDBRANCH  17  22
BRANCH  19  24
ATOM     24  O   UNL     1       1.701  -2.436  -0.419  1.00  0.00    -0.502 OA
ATOM     25  H   UNL     1       1.780  -1.559  -0.740  1.00  0.00     0.293 HD
ENDBRANCH  19  24
BRANCH  20  26
ATOM     26  O   UNL     1       1.363  -5.155   0.653  1.00  0.00    -0.493 OA
ATOM     27  C   UNL     1       1.870  -5.098  -0.669  1.00  0.00     0.278 C 
ENDBRANCH  20  26
ENDBRANCH   5  16
BRANCH  10  28
ATOM     28  C   UNL     1      -3.464  -2.930   3.542  1.00  0.00     0.046 A 
ATOM     29  C   UNL     1      -2.876  -2.623   2.313  1.00  0.00     0.028 A 
ATOM     30  C   UNL     1      -4.586  -2.217   3.979  1.00  0.00     0.028 A 
ATOM     31  C   UNL     1      -3.356  -1.556   1.552  1.00  0.00     0.022 A 
ATOM     32  C   UNL     1      -5.065  -1.148   3.216  1.00  0.00     0.022 A 
ATOM     33  C   UNL     1      -4.444  -0.817   2.011  1.00  0.00     0.041 A 
ATOM     34  Cl  UNL     1      -5.037   0.496   1.070  1.00  0.00    -0.084 Cl
ENDBRANCH  10  28
BRANCH  12  35
ATOM     35  C   UNL     1      -3.550  -7.306   5.818  1.00  0.00     0.077 C 
ATOM     36  O   UNL     1      -4.702  -7.678   5.700  1.00  0.00    -0.545 OA
ATOM     37  O   UNL     1      -2.663  -8.097   6.467  1.00  0.00    -0.545 OA
ENDBRANCH  12  35
ENDBRANCH   3   4
ENDBRANCH   2   3
ENDBRANCH   1   2
BRANCH   1  38
ATOM     38  C   UNL     1       4.548  -7.768   8.070  1.00  0.00     0.116 C 
BRANCH  38  39
ATOM     39  N   UNL     1       4.562  -9.031   8.808  1.00  0.00    -0.352 N 
ATOM     40  C   UNL     1       5.028  -9.257  10.089  1.00  0.00     0.251 C 
ATOM     41  H   UNL     1       4.196  -9.814   8.335  1.00  0.00     0.163 HD
ATOM     42  O   UNL     1       5.346 -10.384  10.453  1.00  0.00    -0.269 OA
BRANCH  40  43
ATOM     43  C   UNL     1       5.136  -8.116  11.018  1.00  0.00     0.039 A 
ATOM     44  C   UNL     1       6.241  -7.969  11.862  1.00  0.00     0.014 A 
ATOM     45  C   UNL     1       4.114  -7.169  11.013  1.00  0.00     0.014 A 
ATOM     46  C   UNL     1       6.350  -6.815  12.634  1.00  0.00     0.010 A 
ATOM     47  C   UNL     1       4.289  -5.974  11.665  1.00  0.00     0.010 A 
ATOM     48  C   UNL     1       5.380  -5.807  12.513  1.00  0.00    -0.014 A 
BRANCH  48  49
ATOM     49  C   UNL     1       5.574  -4.507  13.153  1.00  0.00     0.031 A 
ATOM     50  C   UNL     1       6.851  -3.829  12.788  1.00  0.00     0.074 A 
ATOM     51  C   UNL     1       4.589  -3.856  13.812  1.00  0.00     0.049 A 
ATOM     52  N   UNL     1       7.850  -3.549  13.560  1.00  0.00    -0.248 NA
ATOM     53  C   UNL     1       7.108  -3.560  11.364  1.00  0.00     0.031 C 
ATOM     54  C   UNL     1       3.183  -4.258  13.948  1.00  0.00     0.029 A 
ATOM     55  N   UNL     1       4.595  -2.610  14.362  1.00  0.00    -0.354 N 
ATOM     56  C   UNL     1       8.748  -2.837  12.765  1.00  0.00     0.074 A 
ATOM     57  C   UNL     1       8.351  -3.076  11.404  1.00  0.00     0.031 C 
ATOM     58  C   UNL     1       2.438  -3.181  14.281  1.00  0.00     0.029 A 
ATOM     59  C   UNL     1       3.325  -2.068  14.553  1.00  0.00     0.049 A 
ATOM     60  H   UNL     1       5.423  -2.135  14.603  1.00  0.00     0.167 HD
ATOM     61  C   UNL     1       9.560  -1.883  13.302  1.00  0.00     0.034 A 
ATOM     62  C   UNL     1       3.026  -0.782  14.860  1.00  0.00     0.034 A 
ATOM     63  C   UNL     1       9.645  -2.018  14.737  1.00  0.00     0.049 A 
ATOM     64  C   UNL     1       4.255  -0.173  15.416  1.00  0.00     0.074 A 
ATOM     65  C   UNL     1       9.982  -3.037  15.607  1.00  0.00     0.029 A 
ATOM     66  N   UNL     1       8.965  -1.095  15.493  1.00  0.00    -0.354 N 
ATOM     67  N   UNL     1       4.782  -0.521  16.555  1.00  0.00    -0.248 NA
ATOM     68  C   UNL     1       5.133   0.538  14.504  1.00  0.00     0.031 C 
ATOM     69  C   UNL     1       9.062  -2.910  16.690  1.00  0.00     0.029 A 
ATOM     70  C   UNL     1       8.276  -1.781  16.456  1.00  0.00     0.049 A 
ATOM     71  H   UNL     1       8.972  -0.119  15.366  1.00  0.00     0.167 HD
ATOM     72  C   UNL     1       6.149  -0.505  16.313  1.00  0.00     0.074 A 
ATOM     73  C   UNL     1       6.306   0.266  15.080  1.00  0.00     0.031 C 
ATOM     74  C   UNL     1       6.988  -1.363  16.964  1.00  0.00     0.034 A 
BRANCH  61  75
ATOM     75  C   UNL     1       9.956  -0.588  12.612  1.00  0.00     0.023 A 
ATOM     76  C   UNL     1      10.854   0.260  13.304  1.00  0.00     0.012 A 
ATOM     77  C   UNL     1       9.297  -0.028  11.492  1.00  0.00     0.148 A 
ATOM     78  C   UNL     1      11.017   1.606  12.957  1.00  0.00     0.002 A 
ATOM     79  C   UNL     1       9.526   1.287  11.100  1.00  0.00     0.091 A 
ATOM     80  F   UNL     1       8.338  -0.708  10.862  1.00  0.00    -0.205 F 
ATOM     81  C   UNL     1      10.354   2.121  11.852  1.00  0.00     0.022 A 
BRANCH  79  82
ATOM     82  S   UNL     1       8.736   1.985   9.642  1.00  0.00     0.127 S 
ATOM     83  O   UNL     1       7.752   2.879  10.244  1.00  0.00    -0.237 OA
ATOM     84  O   UNL     1       9.862   2.650   8.985  1.00  0.00    -0.237 OA
ATOM     85  O   UNL     1       8.203   0.848   8.902  1.00  0.00    -0.744 OA
ENDBRANCH  79  82
ENDBRANCH  61  75
BRANCH  62  86
ATOM     86  C   UNL     1       1.850   0.051  14.513  1.00  0.00     0.023 A 
ATOM     87  C   UNL     1       1.612   1.238  15.238  1.00  0.00     0.012 A 
ATOM     88  C   UNL     1       1.154  -0.137  13.299  1.00  0.00     0.148 A 
ATOM     89  C   UNL     1       0.755   2.229  14.744  1.00  0.00     0.002 A 
ATOM     90  C   UNL     1       0.300   0.850  12.813  1.00  0.00     0.091 A 
ATOM     91  F   UNL     1       1.403  -1.236  12.574  1.00  0.00    -0.205 F 
ATOM     92  C   UNL     1       0.110   2.042  13.525  1.00  0.00     0.022 A 
BRANCH  90  93
ATOM     93  S   UNL     1      -0.540   0.694  11.230  1.00  0.00     0.127 S 
ATOM     94  O   UNL     1      -1.903   1.110  11.564  1.00  0.00    -0.237 OA
ATOM     95  O   UNL     1       0.202   1.638  10.399  1.00  0.00    -0.237 OA
ATOM     96  O   UNL     1      -0.418  -0.709  10.853  1.00  0.00    -0.744 OA
ENDBRANCH  90  93
ENDBRANCH  62  86
BRANCH  74  97
ATOM     97  C   UNL     1       6.456  -2.126  18.151  1.00  0.00     0.023 A 
ATOM     98  C   UNL     1       5.373  -3.026  18.061  1.00  0.00     0.012 A 
ATOM     99  C   UNL     1       7.172  -2.049  19.358  1.00  0.00     0.148 A 
ATOM    100  C   UNL     1       4.997  -3.808  19.158  1.00  0.00     0.002 A 
ATOM    101  C   UNL     1       6.827  -2.862  20.430  1.00  0.00     0.091 A 
ATOM    102  F   UNL     1       8.200  -1.189  19.432  1.00  0.00    -0.205 F 
ATOM    103  C   UNL     1       5.733  -3.736  20.338  1.00  0.00     0.022 A 
BRANCH 101 104
ATOM    104  S   UNL     1       7.816  -2.898  21.925  1.00  0.00     0.127 S 
ATOM    105  O   UNL     1       7.014  -2.091  22.841  1.00  0.00    -0.237 OA
ATOM    106  O   UNL     1       7.857  -4.326  22.244  1.00  0.00    -0.237 OA
ATOM    107  O   UNL     1       9.111  -2.337  21.559  1.00  0.00    -0.744 OA
ENDBRANCH 101 104
ENDBRANCH  74  97
ENDBRANCH  48  49
ENDBRANCH  40  43
ENDBRANCH  38  39
ENDBRANCH   1  38
TORSDOF 19
