REMARK SMILES C[NH2+][C@@]1(C(=O)NCCCCNC(=O)c2ccc(-c3c4nc(c(-c5cccc(S(=O)(=O)[O-])c5F)c5ccc([nH]5)c(-c5cccc(S(=O)(=O)[O-])c5F)c5nc(c(-c6cccc(S(=O)(=O)[O-])c6F)c6ccc3[nH]6)C=C5)C=C4)cc2)CC[C@@H](OC2CCC2)C1
REMARK SMILES IDX 9 1 8 2 7 3 6 4 4 5 5 6 3 8 77 9 85 10 78 11 79 12 2 13 1 14
REMARK SMILES IDX 80 17 81 18 82 19 84 20 83 21 10 22 11 23 12 24 13 26 14 27
REMARK SMILES IDX 15 28 76 29 16 30 75 31 17 32 18 33 19 34 69 35 20 36 74 37
REMARK SMILES IDX 68 38 70 39 21 40 73 41 67 42 66 43 22 45 54 46 34 47 53 48
REMARK SMILES IDX 35 49 38 50 52 51 71 52 36 53 37 54 51 56 72 57 39 58 23 59
REMARK SMILES IDX 24 60 32 61 25 62 27 63 33 64 26 65 28 66 29 67 30 68 31 69
REMARK SMILES IDX 55 70 56 71 64 72 57 73 59 74 65 75 58 76 60 77 61 78 62 79
REMARK SMILES IDX 63 80 40 81 41 82 49 83 42 84 44 85 50 86 43 87 45 88 46 89
REMARK SMILES IDX 47 90 48 91
REMARK H PARENT 6 7 2 15 2 16 11 25 70 44 38 55
REMARK Flexibility Score: inf
ROOT
ATOM      1  C   UNL     1      -5.389  -2.982   1.988  1.00  0.00     0.023 C 
ENDROOT
BRANCH   1   2
ATOM      2  C   UNL     1      -4.518  -2.659   0.775  1.00  0.00     0.023 C 
BRANCH   2   3
ATOM      3  C   UNL     1      -3.803  -1.312   0.854  1.00  0.00     0.116 C 
BRANCH   3   4
ATOM      4  N   UNL     1      -2.475  -1.426   1.400  1.00  0.00    -0.351 N 
ATOM      5  C   UNL     1      -1.239  -1.380   0.831  1.00  0.00     0.281 C 
ATOM      6  O   UNL     1      -0.315  -1.614   1.621  1.00  0.00    -0.268 OA
ATOM      7  H   UNL     1      -2.458  -1.564   2.375  1.00  0.00     0.163 HD
BRANCH   5   8
ATOM      8  C   UNL     1      -0.986  -1.090  -0.712  1.00  0.00     0.177 C 
ATOM      9  C   UNL     1      -1.636   0.201  -1.258  1.00  0.00     0.082 C 
ATOM     10  C   UNL     1      -1.553  -2.247  -1.563  1.00  0.00     0.111 C 
ATOM     11  C   UNL     1      -2.732  -0.172  -2.255  1.00  0.00     0.039 C 
ATOM     12  C   UNL     1      -2.631  -1.672  -2.476  1.00  0.00     0.125 C 
BRANCH   8  13
ATOM     13  N   UNL     1       0.490  -1.063  -0.968  1.00  0.00    -0.336 N 
ATOM     14  C   UNL     1       1.224   0.021  -0.324  1.00  0.00     0.331 C 
ATOM     15  H   UNL     1       0.881  -1.946  -0.638  1.00  0.00     0.346 HD
ATOM     16  H   UNL     1       0.595  -0.913  -1.971  1.00  0.00     0.346 HD
ENDBRANCH   8  13
BRANCH  12  17
ATOM     17  O   UNL     1      -2.607  -2.118  -3.823  1.00  0.00    -0.375 OA
BRANCH  17  18
ATOM     18  C   UNL     1      -1.662  -1.755  -4.851  1.00  0.00     0.118 C 
ATOM     19  C   UNL     1      -1.069  -0.339  -4.990  1.00  0.00     0.032 C 
ATOM     20  C   UNL     1      -0.212  -2.284  -4.803  1.00  0.00     0.032 C 
ATOM     21  C   UNL     1       0.219  -0.990  -5.520  1.00  0.00     0.005 C 
ENDBRANCH  17  18
ENDBRANCH  12  17
ENDBRANCH   5   8
ENDBRANCH   3   4
ENDBRANCH   2   3
ENDBRANCH   1   2
BRANCH   1  22
ATOM     22  C   UNL     1      -6.459  -1.945   2.316  1.00  0.00     0.116 C 
BRANCH  22  23
ATOM     23  N   UNL     1      -7.326  -1.600   1.196  1.00  0.00    -0.352 N 
ATOM     24  C   UNL     1      -8.619  -1.123   1.261  1.00  0.00     0.251 C 
ATOM     25  H   UNL     1      -6.948  -1.720   0.295  1.00  0.00     0.163 HD
ATOM     26  O   UNL     1      -9.274  -0.920   0.251  1.00  0.00    -0.269 OA
BRANCH  24  27
ATOM     27  C   UNL     1      -9.204  -0.914   2.601  1.00  0.00     0.039 A 
ATOM     28  C   UNL     1     -10.327  -1.655   2.970  1.00  0.00     0.014 A 
ATOM     29  C   UNL     1      -8.545  -0.099   3.524  1.00  0.00     0.014 A 
ATOM     30  C   UNL     1     -10.744  -1.643   4.302  1.00  0.00     0.010 A 
ATOM     31  C   UNL     1      -8.917  -0.148   4.861  1.00  0.00     0.010 A 
ATOM     32  C   UNL     1     -10.013  -0.927   5.265  1.00  0.00    -0.014 A 
BRANCH  32  33
ATOM     33  C   UNL     1     -10.356  -0.998   6.707  1.00  0.00     0.031 A 
ATOM     34  C   UNL     1     -10.770   0.246   7.442  1.00  0.00     0.074 A 
ATOM     35  C   UNL     1     -10.181  -2.154   7.378  1.00  0.00     0.049 A 
ATOM     36  N   UNL     1     -11.030   0.403   8.713  1.00  0.00    -0.248 NA
ATOM     37  C   UNL     1     -10.868   1.485   6.652  1.00  0.00     0.031 C 
ATOM     38  C   UNL     1      -9.682  -3.404   6.799  1.00  0.00     0.029 A 
ATOM     39  N   UNL     1     -10.372  -2.458   8.703  1.00  0.00    -0.354 N 
ATOM     40  C   UNL     1     -11.275   1.760   8.883  1.00  0.00     0.074 A 
ATOM     41  C   UNL     1     -11.100   2.388   7.593  1.00  0.00     0.031 C 
ATOM     42  C   UNL     1      -9.611  -4.339   7.761  1.00  0.00     0.029 A 
ATOM     43  C   UNL     1     -10.040  -3.753   9.028  1.00  0.00     0.049 A 
ATOM     44  H   UNL     1     -10.716  -1.810   9.360  1.00  0.00     0.167 HD
ATOM     45  C   UNL     1     -11.648   2.419  10.005  1.00  0.00     0.034 A 
ATOM     46  C   UNL     1     -10.079  -4.396  10.212  1.00  0.00     0.034 A 
ATOM     47  C   UNL     1     -11.894   1.779  11.267  1.00  0.00     0.049 A 
ATOM     48  C   UNL     1     -10.588  -3.662  11.423  1.00  0.00     0.074 A 
ATOM     49  C   UNL     1     -12.389   2.337  12.432  1.00  0.00     0.029 A 
ATOM     50  N   UNL     1     -11.669   0.437  11.529  1.00  0.00    -0.354 N 
ATOM     51  N   UNL     1     -10.992  -2.419  11.524  1.00  0.00    -0.248 NA
ATOM     52  C   UNL     1     -10.687  -4.428  12.675  1.00  0.00     0.031 C 
ATOM     53  C   UNL     1     -12.459   1.330  13.402  1.00  0.00     0.029 A 
ATOM     54  C   UNL     1     -12.014   0.145  12.836  1.00  0.00     0.049 A 
ATOM     55  H   UNL     1     -11.316  -0.213  10.880  1.00  0.00     0.167 HD
ATOM     56  C   UNL     1     -11.421  -2.262  12.836  1.00  0.00     0.074 A 
ATOM     57  C   UNL     1     -11.250  -3.544  13.488  1.00  0.00     0.031 C 
ATOM     58  C   UNL     1     -11.897  -1.151  13.451  1.00  0.00     0.034 A 
BRANCH  45  59
ATOM     59  C   UNL     1     -11.889   3.900   9.894  1.00  0.00     0.023 A 
ATOM     60  C   UNL     1     -13.038   4.363   9.220  1.00  0.00     0.012 A 
ATOM     61  C   UNL     1     -11.014   4.829  10.489  1.00  0.00     0.148 A 
ATOM     62  C   UNL     1     -13.295   5.729   9.110  1.00  0.00     0.002 A 
ATOM     63  C   UNL     1     -11.299   6.187  10.410  1.00  0.00     0.091 A 
ATOM     64  F   UNL     1      -9.913   4.371  11.102  1.00  0.00    -0.205 F 
ATOM     65  C   UNL     1     -12.432   6.639   9.713  1.00  0.00     0.022 A 
BRANCH  63  66
ATOM     66  S   UNL     1     -10.287   7.434  11.216  1.00  0.00     0.127 S 
ATOM     67  O   UNL     1      -9.581   8.021  10.078  1.00  0.00    -0.237 OA
ATOM     68  O   UNL     1     -11.293   8.305  11.824  1.00  0.00    -0.237 OA
ATOM     69  O   UNL     1      -9.454   6.715  12.170  1.00  0.00    -0.744 OA
ENDBRANCH  63  66
ENDBRANCH  45  59
BRANCH  46  70
ATOM     70  C   UNL     1      -9.714  -5.839  10.286  1.00  0.00     0.023 A 
ATOM     71  C   UNL     1     -10.731  -6.795  10.473  1.00  0.00     0.012 A 
ATOM     72  C   UNL     1      -8.383  -6.274  10.135  1.00  0.00     0.148 A 
ATOM     73  C   UNL     1     -10.428  -8.155  10.536  1.00  0.00     0.002 A 
ATOM     74  C   UNL     1      -8.094  -7.634  10.149  1.00  0.00     0.091 A 
ATOM     75  F   UNL     1      -7.426  -5.349   9.973  1.00  0.00    -0.205 F 
ATOM     76  C   UNL     1      -9.112  -8.576  10.363  1.00  0.00     0.022 A 
BRANCH  74  77
ATOM     77  S   UNL     1      -6.448  -8.268   9.804  1.00  0.00     0.127 S 
ATOM     78  O   UNL     1      -5.995  -8.662  11.134  1.00  0.00    -0.237 OA
ATOM     79  O   UNL     1      -6.733  -9.379   8.894  1.00  0.00    -0.237 OA
ATOM     80  O   UNL     1      -5.729  -7.162   9.186  1.00  0.00    -0.744 OA
ENDBRANCH  74  77
ENDBRANCH  46  70
BRANCH  58  81
ATOM     81  C   UNL     1     -12.294  -1.268  14.898  1.00  0.00     0.023 A 
ATOM     82  C   UNL     1     -11.295  -1.337  15.889  1.00  0.00     0.012 A 
ATOM     83  C   UNL     1     -13.648  -1.217  15.281  1.00  0.00     0.148 A 
ATOM     84  C   UNL     1     -11.639  -1.375  17.239  1.00  0.00     0.002 A 
ATOM     85  C   UNL     1     -13.982  -1.212  16.631  1.00  0.00     0.091 A 
ATOM     86  F   UNL     1     -14.585  -1.174  14.322  1.00  0.00    -0.205 F 
ATOM     87  C   UNL     1     -12.979  -1.300  17.610  1.00  0.00     0.022 A 
BRANCH  85  88
ATOM     88  S   UNL     1     -15.677  -1.022  17.195  1.00  0.00     0.127 S 
ATOM     89  O   UNL     1     -16.022  -2.392  17.569  1.00  0.00    -0.237 OA
ATOM     90  O   UNL     1     -15.532  -0.100  18.323  1.00  0.00    -0.237 OA
ATOM     91  O   UNL     1     -16.412  -0.474  16.063  1.00  0.00    -0.744 OA
ENDBRANCH  85  88
ENDBRANCH  58  81
ENDBRANCH  32  33
ENDBRANCH  24  27
ENDBRANCH  22  23
ENDBRANCH   1  22
TORSDOF 17
