REMARK SMILES Cc1c(C(=O)NCCCCNC(=O)c2ccc(-c3c4nc(c(-c5cccc(S(=O)(=O)[O-])c5F)c5ccc([nH]5)c(-c5cccc(S(=O)(=O)[O-])c5F)c5nc(c(-c6cccc(S(=O)(=O)[O-])c6F)c6ccc3[nH]6)C=C5)C=C4)cc2)ccc2c1N[C@@H](c1ccc(S(=O)(=O)N3CCOCC3)cc1)[C@@H]1CC=C[C@H]21
REMARK SMILES IDX 8 1 7 2 6 3 4 4 5 5 3 7 1 8 2 9 80 10 77 11 79 12 81 13
REMARK SMILES IDX 78 14 102 15 82 16 98 18 101 19 99 20 100 21 83 22 84 23
REMARK SMILES IDX 97 24 85 25 96 26 86 27 87 28 88 29 89 30 90 31 91 32 95 33
REMARK SMILES IDX 92 34 94 35 93 36 9 37 10 38 11 39 12 40 13 42 14 43 15 44
REMARK SMILES IDX 76 45 16 46 75 47 17 48 18 49 19 50 69 51 20 52 74 53 68 54
REMARK SMILES IDX 70 55 21 56 73 57 67 58 66 59 22 61 54 62 34 63 53 64 35 65
REMARK SMILES IDX 38 66 52 67 71 68 36 69 37 70 51 72 72 73 39 74 23 75 24 76
REMARK SMILES IDX 32 77 25 78 27 79 33 80 26 81 28 82 29 83 30 84 31 85 55 86
REMARK SMILES IDX 56 87 64 88 57 89 59 90 65 91 58 92 60 93 61 94 62 95 63 96
REMARK SMILES IDX 40 97 41 98 49 99 42 100 44 101 50 102 43 103 45 104 46 105
REMARK SMILES IDX 47 106 48 107
REMARK H PARENT 6 6 81 17 11 41 70 60 38 71
REMARK Flexibility Score: inf
ROOT
ATOM      1  C   UNL     1       0.712  -1.107   3.092  1.00  0.00     0.023 C 
ENDROOT
BRANCH   1   2
ATOM      2  C   UNL     1       1.062  -1.050   1.611  1.00  0.00     0.116 C 
BRANCH   2   3
ATOM      3  N   UNL     1       2.011  -2.046   1.146  1.00  0.00    -0.352 N 
ATOM      4  C   UNL     1       2.216  -2.516  -0.135  1.00  0.00     0.251 C 
ATOM      5  O   UNL     1       3.100  -3.340  -0.352  1.00  0.00    -0.269 OA
ATOM      6  H   UNL     1       2.587  -2.440   1.840  1.00  0.00     0.163 HD
BRANCH   4   7
ATOM      7  C   UNL     1       1.318  -2.109  -1.248  1.00  0.00     0.044 A 
ATOM      8  C   UNL     1       1.775   0.395  -1.047  1.00  0.00     0.047 C 
ATOM      9  C   UNL     1       0.965  -0.783  -1.526  1.00  0.00    -0.015 A 
ATOM     10  C   UNL     1      -0.132  -0.541  -2.373  1.00  0.00     0.042 A 
ATOM     11  C   UNL     1       0.802  -3.139  -2.047  1.00  0.00     0.014 A 
ATOM     12  C   UNL     1      -0.584  -1.548  -3.232  1.00  0.00    -0.017 A 
ATOM     13  N   UNL     1      -0.696   0.723  -2.403  1.00  0.00    -0.377 N 
ATOM     14  C   UNL     1      -0.099  -2.851  -3.072  1.00  0.00     0.007 A 
ATOM     15  C   UNL     1      -1.505  -1.204  -4.373  1.00  0.00     0.049 C 
ATOM     16  C   UNL     1      -1.938   0.958  -3.121  1.00  0.00     0.114 C 
ATOM     17  H   UNL     1      -0.253   1.468  -1.934  1.00  0.00     0.161 HD
ATOM     18  C   UNL     1      -1.846   0.306  -4.521  1.00  0.00     0.031 C 
ATOM     19  C   UNL     1      -2.874  -1.829  -4.312  1.00  0.00    -0.023 C 
ATOM     20  C   UNL     1      -3.174   0.264  -5.303  1.00  0.00     0.034 C 
ATOM     21  C   UNL     1      -3.797  -1.014  -4.839  1.00  0.00    -0.030 C 
BRANCH  16  22
ATOM     22  C   UNL     1      -2.194   2.465  -3.110  1.00  0.00    -0.025 A 
ATOM     23  C   UNL     1      -1.182   3.419  -2.865  1.00  0.00     0.007 A 
ATOM     24  C   UNL     1      -3.501   2.930  -3.270  1.00  0.00     0.007 A 
ATOM     25  C   UNL     1      -1.471   4.786  -2.775  1.00  0.00     0.022 A 
ATOM     26  C   UNL     1      -3.779   4.292  -3.233  1.00  0.00     0.022 A 
ATOM     27  C   UNL     1      -2.778   5.221  -2.974  1.00  0.00     0.082 A 
BRANCH  27  28
ATOM     28  S   UNL     1      -3.127   6.962  -2.900  1.00  0.00     0.243 S 
ATOM     29  O   UNL     1      -3.181   7.310  -1.493  1.00  0.00    -0.207 OA
ATOM     30  O   UNL     1      -2.209   7.604  -3.811  1.00  0.00    -0.207 OA
BRANCH  28  31
ATOM     31  N   UNL     1      -4.670   7.126  -3.533  1.00  0.00    -0.193 NA
ATOM     32  C   UNL     1      -5.883   7.056  -2.694  1.00  0.00     0.131 C 
ATOM     33  C   UNL     1      -4.902   7.279  -4.979  1.00  0.00     0.131 C 
ATOM     34  C   UNL     1      -6.951   6.137  -3.309  1.00  0.00     0.177 C 
ATOM     35  C   UNL     1      -5.952   6.276  -5.459  1.00  0.00     0.177 C 
ATOM     36  O   UNL     1      -7.168   6.389  -4.704  1.00  0.00    -0.379 OA
ENDBRANCH  28  31
ENDBRANCH  27  28
ENDBRANCH  16  22
ENDBRANCH   4   7
ENDBRANCH   2   3
ENDBRANCH   1   2
BRANCH   1  37
ATOM     37  C   UNL     1       1.884  -0.956   4.062  1.00  0.00     0.023 C 
BRANCH  37  38
ATOM     38  C   UNL     1       2.912   0.123   3.729  1.00  0.00     0.116 C 
BRANCH  38  39
ATOM     39  N   UNL     1       2.380   1.481   3.772  1.00  0.00    -0.352 N 
ATOM     40  C   UNL     1       2.629   2.490   4.675  1.00  0.00     0.251 C 
ATOM     41  H   UNL     1       1.750   1.709   3.050  1.00  0.00     0.163 HD
ATOM     42  O   UNL     1       2.033   3.559   4.596  1.00  0.00    -0.269 OA
BRANCH  40  43
ATOM     43  C   UNL     1       3.587   2.252   5.773  1.00  0.00     0.039 A 
ATOM     44  C   UNL     1       3.147   2.391   7.091  1.00  0.00     0.014 A 
ATOM     45  C   UNL     1       4.885   1.814   5.499  1.00  0.00     0.014 A 
ATOM     46  C   UNL     1       3.977   1.982   8.137  1.00  0.00     0.010 A 
ATOM     47  C   UNL     1       5.680   1.339   6.537  1.00  0.00     0.010 A 
ATOM     48  C   UNL     1       5.227   1.404   7.863  1.00  0.00    -0.014 A 
BRANCH  48  49
ATOM     49  C   UNL     1       6.061   0.835   8.951  1.00  0.00     0.031 A 
ATOM     50  C   UNL     1       7.392   1.447   9.280  1.00  0.00     0.074 A 
ATOM     51  C   UNL     1       5.650  -0.278   9.593  1.00  0.00     0.049 A 
ATOM     52  N   UNL     1       8.264   1.076  10.181  1.00  0.00    -0.248 NA
ATOM     53  C   UNL     1       7.810   2.613   8.483  1.00  0.00     0.031 C 
ATOM     54  C   UNL     1       4.414  -1.012   9.310  1.00  0.00     0.029 A 
ATOM     55  N   UNL     1       6.235  -0.995  10.607  1.00  0.00    -0.354 N 
ATOM     56  C   UNL     1       9.339   1.943  10.044  1.00  0.00     0.074 A 
ATOM     57  C   UNL     1       9.029   2.839   8.952  1.00  0.00     0.031 C 
ATOM     58  C   UNL     1       4.325  -2.062  10.143  1.00  0.00     0.029 A 
ATOM     59  C   UNL     1       5.502  -2.088  11.007  1.00  0.00     0.049 A 
ATOM     60  H   UNL     1       7.099  -0.750  11.010  1.00  0.00     0.167 HD
ATOM     61  C   UNL     1      10.465   2.015  10.788  1.00  0.00     0.034 A 
ATOM     62  C   UNL     1       5.742  -3.000  11.970  1.00  0.00     0.034 A 
ATOM     63  C   UNL     1      10.746   1.167  11.911  1.00  0.00     0.049 A 
ATOM     64  C   UNL     1       6.982  -2.873  12.812  1.00  0.00     0.074 A 
ATOM     65  C   UNL     1      11.822   1.224  12.779  1.00  0.00     0.029 A 
ATOM     66  N   UNL     1       9.947   0.115  12.325  1.00  0.00    -0.354 N 
ATOM     67  N   UNL     1       7.919  -1.958  12.757  1.00  0.00    -0.248 NA
ATOM     68  C   UNL     1       7.185  -3.879  13.864  1.00  0.00     0.031 C 
ATOM     69  C   UNL     1      11.672   0.203  13.721  1.00  0.00     0.029 A 
ATOM     70  C   UNL     1      10.504  -0.486  13.438  1.00  0.00     0.049 A 
ATOM     71  H   UNL     1       9.108  -0.164  11.891  1.00  0.00     0.167 HD
ATOM     72  C   UNL     1       8.807  -2.261  13.782  1.00  0.00     0.074 A 
ATOM     73  C   UNL     1       8.294  -3.439  14.448  1.00  0.00     0.031 C 
ATOM     74  C   UNL     1       9.951  -1.624  14.127  1.00  0.00     0.034 A 
BRANCH  61  75
ATOM     75  C   UNL     1      11.443   3.110  10.470  1.00  0.00     0.023 A 
ATOM     76  C   UNL     1      11.160   4.420  10.905  1.00  0.00     0.012 A 
ATOM     77  C   UNL     1      12.661   2.837   9.822  1.00  0.00     0.148 A 
ATOM     78  C   UNL     1      12.071   5.450  10.686  1.00  0.00     0.002 A 
ATOM     79  C   UNL     1      13.578   3.864   9.633  1.00  0.00     0.091 A 
ATOM     80  F   UNL     1      12.898   1.585   9.406  1.00  0.00    -0.205 F 
ATOM     81  C   UNL     1      13.282   5.171  10.059  1.00  0.00     0.022 A 
BRANCH  79  82
ATOM     82  S   UNL     1      15.188   3.607   8.881  1.00  0.00     0.127 S 
ATOM     83  O   UNL     1      15.070   4.395   7.654  1.00  0.00    -0.237 OA
ATOM     84  O   UNL     1      16.088   4.174   9.885  1.00  0.00    -0.237 OA
ATOM     85  O   UNL     1      15.318   2.171   8.683  1.00  0.00    -0.744 OA
ENDBRANCH  79  82
ENDBRANCH  61  75
BRANCH  62  86
ATOM     86  C   UNL     1       4.729  -4.053  12.252  1.00  0.00     0.023 A 
ATOM     87  C   UNL     1       3.897  -3.912  13.380  1.00  0.00     0.012 A 
ATOM     88  C   UNL     1       4.541  -5.149  11.388  1.00  0.00     0.148 A 
ATOM     89  C   UNL     1       2.902  -4.850  13.651  1.00  0.00     0.002 A 
ATOM     90  C   UNL     1       3.524  -6.062  11.645  1.00  0.00     0.091 A 
ATOM     91  F   UNL     1       5.345  -5.260  10.322  1.00  0.00    -0.205 F 
ATOM     92  C   UNL     1       2.710  -5.920  12.781  1.00  0.00     0.022 A 
BRANCH  90  93
ATOM     93  S   UNL     1       3.132  -7.421  10.537  1.00  0.00     0.127 S 
ATOM     94  O   UNL     1       3.403  -8.583  11.381  1.00  0.00    -0.237 OA
ATOM     95  O   UNL     1       1.716  -7.179  10.259  1.00  0.00    -0.237 OA
ATOM     96  O   UNL     1       4.012  -7.264   9.389  1.00  0.00    -0.744 OA
ENDBRANCH  90  93
ENDBRANCH  62  86
BRANCH  74  97
ATOM     97  C   UNL     1      10.745  -2.157  15.286  1.00  0.00     0.023 A 
ATOM     98  C   UNL     1      11.611  -3.247  15.079  1.00  0.00     0.012 A 
ATOM     99  C   UNL     1      10.759  -1.476  16.519  1.00  0.00     0.148 A 
ATOM    100  C   UNL     1      12.486  -3.652  16.086  1.00  0.00     0.002 A 
ATOM    101  C   UNL     1      11.656  -1.865  17.506  1.00  0.00     0.091 A 
ATOM    102  F   UNL     1       9.920  -0.444  16.687  1.00  0.00    -0.205 F 
ATOM    103  C   UNL     1      12.518  -2.954  17.291  1.00  0.00     0.022 A 
BRANCH 101 104
ATOM    104  S   UNL     1      11.834  -0.980  19.059  1.00  0.00     0.127 S 
ATOM    105  O   UNL     1      11.407  -1.990  20.027  1.00  0.00    -0.237 OA
ATOM    106  O   UNL     1      13.266  -0.681  19.081  1.00  0.00    -0.237 OA
ATOM    107  O   UNL     1      10.968   0.187  18.963  1.00  0.00    -0.744 OA
ENDBRANCH 101 104
ENDBRANCH  74  97
ENDBRANCH  48  49
ENDBRANCH  40  43
ENDBRANCH  38  39
ENDBRANCH  37  38
ENDBRANCH   1  37
TORSDOF 17
