REMARK SMILES NS(=O)(=O)c1ccc(-n2nc(C(=O)NCCCCNC(=O)c3ccc(-c4c5nc(c(-c6cccc(S(=O)(=O)[O-])c6F)c6ccc([nH]6)c(-c6cccc(S(=O)(=O)[O-])c6F)c6nc(c(-c7cccc(S(=O)(=O)[O-])c7F)c7ccc4[nH]7)C=C6)C=C5)cc3)c(Cl)c2-c2ccc(Cl)cc2)cc1
REMARK SMILES IDX 16 1 15 2 14 3 12 4 13 5 11 7 9 8 10 9 87 10 85 11 86 12
REMARK SMILES IDX 8 13 5 14 6 15 96 16 7 17 95 18 2 19 3 20 4 21 1 22 88 25
REMARK SMILES IDX 89 26 94 27 90 28 93 29 91 30 92 31 17 32 18 33 19 34 20 35
REMARK SMILES IDX 21 37 22 38 23 39 84 40 24 41 83 42 25 43 26 44 27 45 77 46
REMARK SMILES IDX 28 47 82 48 76 49 78 50 29 51 81 52 75 53 74 54 30 56 62 57
REMARK SMILES IDX 42 58 61 59 43 60 46 61 60 62 79 63 44 64 45 65 59 67 80 68
REMARK SMILES IDX 47 69 31 70 32 71 40 72 33 73 35 74 41 75 34 76 36 77 37 78
REMARK SMILES IDX 38 79 39 80 63 81 64 82 72 83 65 84 67 85 73 86 66 87 68 88
REMARK SMILES IDX 69 89 70 90 71 91 48 92 49 93 57 94 50 95 52 96 58 97 51 98
REMARK SMILES IDX 53 99 54 100 55 101 56 102
REMARK H PARENT 14 6 1 23 1 24 19 36 78 55 46 66
REMARK Flexibility Score: inf
ROOT
ATOM      1  C   UNL     1       6.303  -3.312 -10.813  1.00  0.00     0.023 C 
ENDROOT
BRANCH   1   2
ATOM      2  C   UNL     1       5.012  -2.473 -10.855  1.00  0.00     0.116 C 
BRANCH   2   3
ATOM      3  N   UNL     1       3.839  -3.292 -10.589  1.00  0.00    -0.351 N 
ATOM      4  C   UNL     1       3.068  -3.530  -9.467  1.00  0.00     0.273 C 
ATOM      5  O   UNL     1       2.129  -4.315  -9.631  1.00  0.00    -0.267 OA
ATOM      6  H   UNL     1       3.526  -3.784 -11.382  1.00  0.00     0.163 HD
BRANCH   4   7
ATOM      7  C   UNL     1       3.293  -2.869  -8.160  1.00  0.00     0.169 A 
ATOM      8  N   UNL     1       2.725  -2.009  -6.255  1.00  0.00    -0.231 N 
ATOM      9  N   UNL     1       2.261  -2.755  -7.283  1.00  0.00    -0.160 NA
ATOM     10  C   UNL     1       4.044  -1.647  -6.436  1.00  0.00     0.094 A 
ATOM     11  C   UNL     1       4.459  -2.395  -7.521  1.00  0.00     0.100 A 
ATOM     12  Cl  UNL     1       6.100  -2.722  -7.820  1.00  0.00    -0.079 Cl
BRANCH   8  13
ATOM     13  C   UNL     1       1.986  -1.859  -5.053  1.00  0.00     0.065 A 
ATOM     14  C   UNL     1       0.968  -1.682  -2.468  1.00  0.00     0.082 A 
ATOM     15  C   UNL     1       0.951  -2.912  -3.137  1.00  0.00     0.024 A 
ATOM     16  C   UNL     1       1.438  -0.530  -3.107  1.00  0.00     0.024 A 
ATOM     17  C   UNL     1       1.430  -2.997  -4.449  1.00  0.00     0.030 A 
ATOM     18  C   UNL     1       1.965  -0.624  -4.395  1.00  0.00     0.030 A 
BRANCH  14  19
ATOM     19  S   UNL     1       0.506  -1.636  -0.761  1.00  0.00     0.238 S 
ATOM     20  O   UNL     1       1.191  -2.700  -0.068  1.00  0.00    -0.207 OA
ATOM     21  O   UNL     1      -0.923  -1.432  -0.666  1.00  0.00    -0.207 OA
BRANCH  19  22
ATOM     22  N   UNL     1       1.208  -0.222  -0.176  1.00  0.00    -0.225 NA
ATOM     23  H   UNL     1       0.988  -0.118   0.814  1.00  0.00     0.137 HD
ATOM     24  H   UNL     1       0.843   0.578  -0.692  1.00  0.00     0.137 HD
ENDBRANCH  19  22
ENDBRANCH  14  19
ENDBRANCH   8  13
BRANCH  10  25
ATOM     25  C   UNL     1       4.932  -0.952  -5.509  1.00  0.00     0.002 A 
ATOM     26  C   UNL     1       5.467   0.284  -5.896  1.00  0.00     0.012 A 
ATOM     27  C   UNL     1       5.470  -1.633  -4.411  1.00  0.00     0.012 A 
ATOM     28  C   UNL     1       6.574   0.806  -5.228  1.00  0.00     0.021 A 
ATOM     29  C   UNL     1       6.579  -1.110  -3.745  1.00  0.00     0.021 A 
ATOM     30  C   UNL     1       7.138   0.096  -4.170  1.00  0.00     0.041 A 
ATOM     31  Cl  UNL     1       8.569   0.681  -3.416  1.00  0.00    -0.084 Cl
ENDBRANCH  10  25
ENDBRANCH   4   7
ENDBRANCH   2   3
ENDBRANCH   1   2
BRANCH   1  32
ATOM     32  C   UNL     1       6.757  -3.964 -12.120  1.00  0.00     0.023 C 
BRANCH  32  33
ATOM     33  C   UNL     1       7.342  -2.989 -13.133  1.00  0.00     0.116 C 
BRANCH  33  34
ATOM     34  N   UNL     1       8.567  -2.334 -12.661  1.00  0.00    -0.352 N 
ATOM     35  C   UNL     1       9.236  -1.281 -13.254  1.00  0.00     0.251 C 
ATOM     36  H   UNL     1       8.956  -2.686 -11.828  1.00  0.00     0.163 HD
ATOM     37  O   UNL     1      10.418  -1.063 -13.015  1.00  0.00    -0.269 OA
BRANCH  35  38
ATOM     38  C   UNL     1       8.487  -0.413 -14.177  1.00  0.00     0.039 A 
ATOM     39  C   UNL     1       9.010  -0.055 -15.422  1.00  0.00     0.014 A 
ATOM     40  C   UNL     1       7.205  -0.022 -13.793  1.00  0.00     0.014 A 
ATOM     41  C   UNL     1       8.190   0.621 -16.322  1.00  0.00     0.010 A 
ATOM     42  C   UNL     1       6.359   0.526 -14.724  1.00  0.00     0.010 A 
ATOM     43  C   UNL     1       6.854   0.882 -15.977  1.00  0.00    -0.014 A 
BRANCH  43  44
ATOM     44  C   UNL     1       5.912   1.374 -16.980  1.00  0.00     0.031 A 
ATOM     45  C   UNL     1       5.806   0.511 -18.190  1.00  0.00     0.074 A 
ATOM     46  C   UNL     1       5.043   2.379 -16.734  1.00  0.00     0.049 A 
ATOM     47  N   UNL     1       6.173   0.796 -19.396  1.00  0.00    -0.248 NA
ATOM     48  C   UNL     1       5.395  -0.892 -18.014  1.00  0.00     0.031 C 
ATOM     49  C   UNL     1       4.832   3.086 -15.463  1.00  0.00     0.029 A 
ATOM     50  N   UNL     1       4.051   2.881 -17.521  1.00  0.00    -0.354 N 
ATOM     51  C   UNL     1       5.792  -0.298 -20.173  1.00  0.00     0.074 A 
ATOM     52  C   UNL     1       5.548  -1.372 -19.250  1.00  0.00     0.031 C 
ATOM     53  C   UNL     1       3.636   3.712 -15.488  1.00  0.00     0.029 A 
ATOM     54  C   UNL     1       3.081   3.599 -16.822  1.00  0.00     0.049 A 
ATOM     55  H   UNL     1       4.021   2.748 -18.496  1.00  0.00     0.167 HD
ATOM     56  C   UNL     1       5.434  -0.139 -21.479  1.00  0.00     0.034 A 
ATOM     57  C   UNL     1       1.884   4.030 -17.292  1.00  0.00     0.034 A 
ATOM     58  C   UNL     1       5.844   1.156 -21.967  1.00  0.00     0.049 A 
ATOM     59  C   UNL     1       1.979   4.047 -18.766  1.00  0.00     0.074 A 
ATOM     60  C   UNL     1       7.041   1.832 -22.086  1.00  0.00     0.029 A 
ATOM     61  N   UNL     1       4.857   2.106 -22.063  1.00  0.00    -0.354 N 
ATOM     62  N   UNL     1       2.757   4.857 -19.426  1.00  0.00    -0.248 NA
ATOM     63  C   UNL     1       1.520   2.879 -19.497  1.00  0.00     0.031 C 
ATOM     64  C   UNL     1       6.726   3.190 -21.786  1.00  0.00     0.029 A 
ATOM     65  C   UNL     1       5.348   3.285 -21.579  1.00  0.00     0.049 A 
ATOM     66  H   UNL     1       3.950   1.962 -22.420  1.00  0.00     0.167 HD
ATOM     67  C   UNL     1       3.268   4.071 -20.449  1.00  0.00     0.074 A 
ATOM     68  C   UNL     1       2.374   2.918 -20.523  1.00  0.00     0.031 C 
ATOM     69  C   UNL     1       4.531   4.284 -20.924  1.00  0.00     0.034 A 
BRANCH  56  70
ATOM     70  C   UNL     1       4.362  -0.935 -22.208  1.00  0.00     0.023 A 
ATOM     71  C   UNL     1       4.159  -0.627 -23.575  1.00  0.00     0.012 A 
ATOM     72  C   UNL     1       3.371  -1.730 -21.589  1.00  0.00     0.148 A 
ATOM     73  C   UNL     1       2.997  -1.005 -24.257  1.00  0.00     0.002 A 
ATOM     74  C   UNL     1       2.252  -2.170 -22.291  1.00  0.00     0.091 A 
ATOM     75  F   UNL     1       3.422  -1.976 -20.279  1.00  0.00    -0.205 F 
ATOM     76  C   UNL     1       2.041  -1.778 -23.614  1.00  0.00     0.022 A 
BRANCH  74  77
ATOM     77  S   UNL     1       1.004  -3.213 -21.524  1.00  0.00     0.127 S 
ATOM     78  O   UNL     1      -0.119  -2.287 -21.411  1.00  0.00    -0.237 OA
ATOM     79  O   UNL     1       0.842  -4.267 -22.526  1.00  0.00    -0.237 OA
ATOM     80  O   UNL     1       1.586  -3.668 -20.268  1.00  0.00    -0.744 OA
ENDBRANCH  74  77
ENDBRANCH  56  70
BRANCH  57  81
ATOM     81  C   UNL     1       0.590   4.224 -16.597  1.00  0.00     0.023 A 
ATOM     82  C   UNL     1      -0.402   5.038 -17.182  1.00  0.00     0.012 A 
ATOM     83  C   UNL     1       0.216   3.387 -15.524  1.00  0.00     0.148 A 
ATOM     84  C   UNL     1      -1.730   4.987 -16.743  1.00  0.00     0.002 A 
ATOM     85  C   UNL     1      -1.105   3.343 -15.087  1.00  0.00     0.091 A 
ATOM     86  F   UNL     1       1.135   2.566 -14.997  1.00  0.00    -0.205 F 
ATOM     87  C   UNL     1      -2.084   4.132 -15.704  1.00  0.00     0.022 A 
BRANCH  85  88
ATOM     88  S   UNL     1      -1.641   2.240 -13.773  1.00  0.00     0.127 S 
ATOM     89  O   UNL     1      -2.403   3.144 -12.912  1.00  0.00    -0.237 OA
ATOM     90  O   UNL     1      -2.446   1.267 -14.507  1.00  0.00    -0.237 OA
ATOM     91  O   UNL     1      -0.420   1.722 -13.168  1.00  0.00    -0.744 OA
ENDBRANCH  85  88
ENDBRANCH  57  81
BRANCH  69  92
ATOM     92  C   UNL     1       5.228   5.564 -20.539  1.00  0.00     0.023 A 
ATOM     93  C   UNL     1       5.567   5.882 -19.207  1.00  0.00     0.012 A 
ATOM     94  C   UNL     1       5.702   6.386 -21.574  1.00  0.00     0.148 A 
ATOM     95  C   UNL     1       6.346   7.007 -18.916  1.00  0.00     0.002 A 
ATOM     96  C   UNL     1       6.519   7.471 -21.286  1.00  0.00     0.091 A 
ATOM     97  F   UNL     1       5.369   6.070 -22.835  1.00  0.00    -0.205 F 
ATOM     98  C   UNL     1       6.835   7.792 -19.957  1.00  0.00     0.022 A 
BRANCH  96  99
ATOM     99  S   UNL     1       7.283   8.434 -22.592  1.00  0.00     0.127 S 
ATOM    100  O   UNL     1       6.486   9.659 -22.574  1.00  0.00    -0.237 OA
ATOM    101  O   UNL     1       8.655   8.588 -22.107  1.00  0.00    -0.237 OA
ATOM    102  O   UNL     1       7.169   7.628 -23.802  1.00  0.00    -0.744 OA
ENDBRANCH  96  99
ENDBRANCH  69  92
ENDBRANCH  43  44
ENDBRANCH  35  38
ENDBRANCH  33  34
ENDBRANCH  32  33
ENDBRANCH   1  32
TORSDOF 18
