REMARK SMILES Cc1nc(-c2ccc3c(c2)CCN3S(=O)(=O)c2ccc(F)c(C(=O)NCCCCNC(=O)c3ccc(-c4c5nc(c(-c6cccc(S(=O)(=O)[O-])c6F)c6ccc([nH]6)c(-c6cccc(S(=O)(=O)[O-])c6F)c6nc(c(-c7cccc(S(=O)(=O)[O-])c7F)c7ccc4[nH]7)C=C6)C=C5)cc3)c2)cs1
REMARK SMILES IDX 27 1 26 2 25 3 23 4 24 5 22 7 17 8 18 9 96 10 19 11 20 12
REMARK SMILES IDX 21 13 14 14 15 15 16 16 13 17 5 18 6 19 10 20 7 21 9 22 8 23
REMARK SMILES IDX 11 24 12 25 4 26 1 27 2 28 3 29 98 30 97 31 28 32 29 33
REMARK SMILES IDX 30 34 31 35 32 37 33 38 34 39 95 40 35 41 94 42 36 43 37 44
REMARK SMILES IDX 38 45 88 46 39 47 93 48 87 49 89 50 40 51 92 52 86 53 85 54
REMARK SMILES IDX 41 56 73 57 53 58 72 59 54 60 57 61 71 62 90 63 55 64 56 65
REMARK SMILES IDX 70 67 91 68 58 69 42 70 43 71 51 72 44 73 46 74 52 75 45 76
REMARK SMILES IDX 47 77 48 78 49 79 50 80 74 81 75 82 83 83 76 84 78 85 84 86
REMARK SMILES IDX 77 87 79 88 80 89 81 90 82 91 59 92 60 93 68 94 61 95 63 96
REMARK SMILES IDX 69 97 62 98 64 99 65 100 66 101 67 102
REMARK H PARENT 25 6 30 36 89 55 57 66
REMARK Flexibility Score: inf
ROOT
ATOM      1  C   UNL     1       0.067  -8.734  -7.271  1.00  0.00     0.023 C 
ENDROOT
BRANCH   1   2
ATOM      2  C   UNL     1       0.027  -7.960  -5.963  1.00  0.00     0.116 C 
BRANCH   2   3
ATOM      3  N   UNL     1       0.152  -8.757  -4.756  1.00  0.00    -0.352 N 
ATOM      4  C   UNL     1       0.916  -8.583  -3.622  1.00  0.00     0.254 C 
ATOM      5  O   UNL     1       0.764  -9.382  -2.696  1.00  0.00    -0.269 OA
ATOM      6  H   UNL     1      -0.408  -9.566  -4.745  1.00  0.00     0.163 HD
BRANCH   4   7
ATOM      7  C   UNL     1       1.971  -7.540  -3.477  1.00  0.00     0.076 A 
ATOM      8  C   UNL     1       4.029  -6.820  -2.412  1.00  0.00     0.089 A 
ATOM      9  C   UNL     1       4.132  -5.741  -3.298  1.00  0.00     0.025 A 
ATOM     10  C   UNL     1       3.014  -7.775  -2.557  1.00  0.00     0.039 A 
ATOM     11  C   UNL     1       3.066  -5.466  -4.139  1.00  0.00     0.041 A 
ATOM     12  C   UNL     1       1.956  -6.308  -4.136  1.00  0.00     0.136 A 
ATOM     13  F   UNL     1       0.836  -5.814  -4.681  1.00  0.00    -0.206 F 
BRANCH   8  14
ATOM     14  S   UNL     1       5.148  -6.841  -1.035  1.00  0.00     0.264 S 
ATOM     15  O   UNL     1       6.344  -6.150  -1.476  1.00  0.00    -0.201 OA
ATOM     16  O   UNL     1       5.245  -8.205  -0.552  1.00  0.00    -0.201 OA
BRANCH  14  17
ATOM     17  N   UNL     1       4.425  -5.911   0.218  1.00  0.00    -0.266 N 
ATOM     18  C   UNL     1       2.086  -2.386   0.075  1.00  0.00     0.001 A 
ATOM     19  C   UNL     1       1.759  -3.430  -0.802  1.00  0.00     0.012 A 
ATOM     20  C   UNL     1       3.153  -2.558   0.967  1.00  0.00     0.016 A 
ATOM     21  C   UNL     1       2.493  -4.621  -0.811  1.00  0.00     0.028 A 
ATOM     22  C   UNL     1       3.887  -3.747   0.918  1.00  0.00    -0.021 A 
ATOM     23  C   UNL     1       3.616  -4.745  -0.016  1.00  0.00     0.055 A 
ATOM     24  C   UNL     1       4.884  -4.226   1.925  1.00  0.00     0.060 C 
ATOM     25  C   UNL     1       5.437  -5.497   1.262  1.00  0.00     0.140 C 
BRANCH  18  26
ATOM     26  C   UNL     1       1.223  -1.216   0.107  1.00  0.00     0.081 A 
ATOM     27  C   UNL     1      -2.209   0.026  -0.009  1.00  0.00     0.079 C 
ATOM     28  C   UNL     1      -0.736  -0.180   0.048  1.00  0.00     0.090 A 
ATOM     29  N   UNL     1      -0.152  -1.357   0.008  1.00  0.00    -0.242 NA
ATOM     30  S   UNL     1       0.331   1.163   0.168  1.00  0.00    -0.127 S 
ATOM     31  C   UNL     1       1.669   0.087   0.189  1.00  0.00     0.095 A 
ENDBRANCH  18  26
ENDBRANCH  14  17
ENDBRANCH   8  14
ENDBRANCH   4   7
ENDBRANCH   2   3
ENDBRANCH   1   2
BRANCH   1  32
ATOM     32  C   UNL     1      -1.118  -9.635  -7.573  1.00  0.00     0.023 C 
BRANCH  32  33
ATOM     33  C   UNL     1      -2.495  -8.997  -7.444  1.00  0.00     0.116 C 
BRANCH  33  34
ATOM     34  N   UNL     1      -2.669  -7.787  -8.241  1.00  0.00    -0.352 N 
ATOM     35  C   UNL     1      -3.662  -7.471  -9.141  1.00  0.00     0.251 C 
ATOM     36  H   UNL     1      -1.977  -7.098  -8.117  1.00  0.00     0.163 HD
ATOM     37  O   UNL     1      -3.601  -6.430  -9.788  1.00  0.00    -0.269 OA
BRANCH  35  38
ATOM     38  C   UNL     1      -4.781  -8.414  -9.352  1.00  0.00     0.039 A 
ATOM     39  C   UNL     1      -5.127  -8.777 -10.656  1.00  0.00     0.014 A 
ATOM     40  C   UNL     1      -5.446  -8.982  -8.263  1.00  0.00     0.014 A 
ATOM     41  C   UNL     1      -6.078  -9.779 -10.863  1.00  0.00     0.010 A 
ATOM     42  C   UNL     1      -6.321 -10.044  -8.470  1.00  0.00     0.010 A 
ATOM     43  C   UNL     1      -6.647 -10.455  -9.770  1.00  0.00    -0.014 A 
BRANCH  43  44
ATOM     44  C   UNL     1      -7.569 -11.605  -9.965  1.00  0.00     0.031 A 
ATOM     45  C   UNL     1      -8.975 -11.548  -9.430  1.00  0.00     0.074 A 
ATOM     46  C   UNL     1      -7.114 -12.737 -10.542  1.00  0.00     0.049 A 
ATOM     47  N   UNL     1      -9.898 -12.474  -9.446  1.00  0.00    -0.248 NA
ATOM     48  C   UNL     1      -9.392 -10.301  -8.767  1.00  0.00     0.031 C 
ATOM     49  C   UNL     1      -5.749 -12.950 -11.026  1.00  0.00     0.029 A 
ATOM     50  N   UNL     1      -7.744 -13.932 -10.796  1.00  0.00    -0.354 N 
ATOM     51  C   UNL     1     -10.984 -11.939  -8.765  1.00  0.00     0.074 A 
ATOM     52  C   UNL     1     -10.598 -10.620  -8.319  1.00  0.00     0.031 C 
ATOM     53  C   UNL     1      -5.646 -14.192 -11.525  1.00  0.00     0.029 A 
ATOM     54  C   UNL     1      -6.923 -14.880 -11.363  1.00  0.00     0.049 A 
ATOM     55  H   UNL     1      -8.693 -14.095 -10.591  1.00  0.00     0.167 HD
ATOM     56  C   UNL     1     -12.203 -12.486  -8.556  1.00  0.00     0.034 A 
ATOM     57  C   UNL     1      -7.163 -16.163 -11.704  1.00  0.00     0.034 A 
ATOM     58  C   UNL     1     -12.602 -13.776  -9.047  1.00  0.00     0.049 A 
ATOM     59  C   UNL     1      -8.542 -16.730 -11.500  1.00  0.00     0.074 A 
ATOM     60  C   UNL     1     -13.850 -14.369  -8.974  1.00  0.00     0.029 A 
ATOM     61  N   UNL     1     -11.767 -14.674  -9.691  1.00  0.00    -0.354 N 
ATOM     62  N   UNL     1      -9.603 -16.149 -10.997  1.00  0.00    -0.248 NA
ATOM     63  C   UNL     1      -8.769 -18.115 -11.939  1.00  0.00     0.031 C 
ATOM     64  C   UNL     1     -13.760 -15.643  -9.538  1.00  0.00     0.029 A 
ATOM     65  C   UNL     1     -12.468 -15.825 -10.005  1.00  0.00     0.049 A 
ATOM     66  H   UNL     1     -10.817 -14.517  -9.894  1.00  0.00     0.167 HD
ATOM     67  C   UNL     1     -10.629 -17.082 -11.086  1.00  0.00     0.074 A 
ATOM     68  C   UNL     1     -10.068 -18.262 -11.711  1.00  0.00     0.031 C 
ATOM     69  C   UNL     1     -11.916 -16.975 -10.674  1.00  0.00     0.034 A 
BRANCH  56  70
ATOM     70  C   UNL     1     -13.231 -11.677  -7.809  1.00  0.00     0.023 A 
ATOM     71  C   UNL     1     -13.831 -10.566  -8.435  1.00  0.00     0.012 A 
ATOM     72  C   UNL     1     -13.688 -12.090  -6.542  1.00  0.00     0.148 A 
ATOM     73  C   UNL     1     -14.860  -9.868  -7.805  1.00  0.00     0.002 A 
ATOM     74  C   UNL     1     -14.748 -11.421  -5.943  1.00  0.00     0.091 A 
ATOM     75  F   UNL     1     -13.089 -13.138  -5.958  1.00  0.00    -0.205 F 
ATOM     76  C   UNL     1     -15.328 -10.305  -6.568  1.00  0.00     0.022 A 
BRANCH  74  77
ATOM     77  S   UNL     1     -15.489 -11.959  -4.398  1.00  0.00     0.127 S 
ATOM     78  O   UNL     1     -15.170 -10.839  -3.513  1.00  0.00    -0.237 OA
ATOM     79  O   UNL     1     -16.902 -12.069  -4.759  1.00  0.00    -0.237 OA
ATOM     80  O   UNL     1     -14.844 -13.220  -4.057  1.00  0.00    -0.744 OA
ENDBRANCH  74  77
ENDBRANCH  56  70
BRANCH  57  81
ATOM     81  C   UNL     1      -6.080 -16.977 -12.327  1.00  0.00     0.023 A 
ATOM     82  C   UNL     1      -6.172 -17.337 -13.685  1.00  0.00     0.012 A 
ATOM     83  C   UNL     1      -4.936 -17.352 -11.595  1.00  0.00     0.148 A 
ATOM     84  C   UNL     1      -5.158 -18.075 -14.297  1.00  0.00     0.002 A 
ATOM     85  C   UNL     1      -3.902 -18.034 -12.226  1.00  0.00     0.091 A 
ATOM     86  F   UNL     1      -4.872 -17.012 -10.300  1.00  0.00    -0.205 F 
ATOM     87  C   UNL     1      -4.018 -18.412 -13.572  1.00  0.00     0.022 A 
BRANCH  85  88
ATOM     88  S   UNL     1      -2.337 -18.380 -11.413  1.00  0.00     0.127 S 
ATOM     89  O   UNL     1      -2.370 -19.836 -11.309  1.00  0.00    -0.237 OA
ATOM     90  O   UNL     1      -1.375 -17.851 -12.381  1.00  0.00    -0.237 OA
ATOM     91  O   UNL     1      -2.379 -17.655 -10.151  1.00  0.00    -0.744 OA
ENDBRANCH  85  88
ENDBRANCH  57  81
BRANCH  69  92
ATOM     92  C   UNL     1     -12.840 -18.143 -10.902  1.00  0.00     0.023 A 
ATOM     93  C   UNL     1     -12.706 -19.306 -10.121  1.00  0.00     0.012 A 
ATOM     94  C   UNL     1     -13.921 -18.032 -11.801  1.00  0.00     0.148 A 
ATOM     95  C   UNL     1     -13.622 -20.350 -10.243  1.00  0.00     0.002 A 
ATOM     96  C   UNL     1     -14.860 -19.052 -11.877  1.00  0.00     0.091 A 
ATOM     97  F   UNL     1     -14.021 -16.921 -12.545  1.00  0.00    -0.205 F 
ATOM     98  C   UNL     1     -14.706 -20.217 -11.108  1.00  0.00     0.022 A 
BRANCH  96  99
ATOM     99  S   UNL     1     -16.347 -18.924 -12.878  1.00  0.00     0.127 S 
ATOM    100  O   UNL     1     -16.096 -19.925 -13.913  1.00  0.00    -0.237 OA
ATOM    101  O   UNL     1     -17.394 -19.284 -11.922  1.00  0.00    -0.237 OA
ATOM    102  O   UNL     1     -16.401 -17.546 -13.348  1.00  0.00    -0.744 OA
ENDBRANCH  96  99
ENDBRANCH  69  92
ENDBRANCH  43  44
ENDBRANCH  35  38
ENDBRANCH  33  34
ENDBRANCH  32  33
ENDBRANCH   1  32
TORSDOF 17
