REMARK SMILES COc1ccc(C)cc1[C@@H](C)NC(=O)CC1(C(=O)NCCCCNC(=O)c2ccc(-c3c4nc(c(-c5cccc(S(=O)(=O)[O-])c5F)c5ccc([nH]5)c(-c5cccc(S(=O)(=O)[O-])c5F)c5nc(c(-c6cccc(S(=O)(=O)[O-])c6F)c6ccc3[nH]6)C=C5)C=C4)cc2)CCCC1
REMARK SMILES IDX 20 1 19 2 17 3 18 4 16 6 90 7 93 8 91 9 92 10 15 11 13 12
REMARK SMILES IDX 12 13 14 15 10 16 11 17 9 18 3 19 4 20 5 21 8 22 6 23 7 24
REMARK SMILES IDX 2 25 1 26 21 27 22 28 23 29 24 30 25 31 26 33 27 34 28 35
REMARK SMILES IDX 89 36 29 37 88 38 30 39 31 40 32 41 82 42 33 43 87 44 81 45
REMARK SMILES IDX 83 46 34 47 86 48 80 49 79 50 35 52 67 53 47 54 66 55 48 56
REMARK SMILES IDX 51 57 65 58 84 59 49 60 50 61 64 63 85 64 52 65 36 66 37 67
REMARK SMILES IDX 45 68 38 69 40 70 46 71 39 72 41 73 42 74 43 75 44 76 68 77
REMARK SMILES IDX 69 78 77 79 70 80 72 81 78 82 71 83 73 84 74 85 75 86 76 87
REMARK SMILES IDX 53 88 54 89 62 90 55 91 57 92 63 93 56 94 58 95 59 96 60 97
REMARK SMILES IDX 61 98
REMARK H PARENT 19 5 12 14 24 32 83 51 51 62
REMARK Flexibility Score: inf
ROOT
ATOM      1  C   UNL     1       2.240   2.197   2.060  1.00  0.00     0.116 C 
ENDROOT
BRANCH   1   2
ATOM      2  N   UNL     1       1.362   2.244   3.209  1.00  0.00    -0.356 N 
ATOM      3  C   UNL     1       0.026   2.371   3.372  1.00  0.00     0.226 C 
ATOM      4  O   UNL     1      -0.317   2.659   4.527  1.00  0.00    -0.274 OA
ATOM      5  H   UNL     1       1.845   2.166   4.063  1.00  0.00     0.163 HD
BRANCH   3   6
ATOM      6  C   UNL     1      -1.037   2.317   2.246  1.00  0.00     0.058 C 
ATOM      7  C   UNL     1      -0.756   1.439   1.027  1.00  0.00     0.017 C 
ATOM      8  C   UNL     1      -1.190   3.730   1.630  1.00  0.00     0.017 C 
ATOM      9  C   UNL     1      -0.471   2.309  -0.188  1.00  0.00     0.001 C 
ATOM     10  C   UNL     1      -0.426   3.732   0.312  1.00  0.00     0.001 C 
BRANCH   6  11
ATOM     11  C   UNL     1      -2.389   1.853   2.884  1.00  0.00     0.117 C 
BRANCH  11  12
ATOM     12  C   UNL     1      -2.380   0.829   4.018  1.00  0.00     0.221 C 
ATOM     13  N   UNL     1      -1.941  -0.446   3.899  1.00  0.00    -0.349 N 
ATOM     14  H   UNL     1      -1.795  -0.879   4.771  1.00  0.00     0.164 HD
ATOM     15  O   UNL     1      -2.873   1.131   5.113  1.00  0.00    -0.275 OA
BRANCH  13  16
ATOM     16  C   UNL     1      -1.633  -1.332   2.771  1.00  0.00     0.113 C 
ATOM     17  C   UNL     1      -2.699  -2.427   2.674  1.00  0.00     0.036 C 
BRANCH  16  18
ATOM     18  C   UNL     1      -0.244  -1.932   2.925  1.00  0.00     0.016 A 
ATOM     19  C   UNL     1       0.733  -1.829   1.913  1.00  0.00     0.124 A 
ATOM     20  C   UNL     1       2.050  -2.183   2.200  1.00  0.00     0.047 A 
ATOM     21  C   UNL     1       2.375  -2.759   3.427  1.00  0.00     0.007 A 
ATOM     22  C   UNL     1       0.091  -2.611   4.117  1.00  0.00     0.013 A 
ATOM     23  C   UNL     1       1.389  -3.062   4.356  1.00  0.00    -0.051 A 
ATOM     24  C   UNL     1       1.712  -3.915   5.547  1.00  0.00     0.044 C 
BRANCH  19  25
ATOM     25  O   UNL     1       0.312  -1.407   0.677  1.00  0.00    -0.496 OA
ATOM     26  C   UNL     1       1.296  -1.315  -0.352  1.00  0.00     0.278 C 
ENDBRANCH  19  25
ENDBRANCH  16  18
ENDBRANCH  13  16
ENDBRANCH  11  12
ENDBRANCH   6  11
ENDBRANCH   3   6
ENDBRANCH   1   2
BRANCH   1  27
ATOM     27  C   UNL     1       2.898   3.558   1.797  1.00  0.00     0.023 C 
BRANCH  27  28
ATOM     28  C   UNL     1       3.973   3.974   2.799  1.00  0.00     0.023 C 
BRANCH  28  29
ATOM     29  C   UNL     1       5.175   3.050   2.797  1.00  0.00     0.116 C 
BRANCH  29  30
ATOM     30  N   UNL     1       6.060   3.208   1.660  1.00  0.00    -0.352 N 
ATOM     31  C   UNL     1       7.184   2.485   1.289  1.00  0.00     0.251 C 
ATOM     32  H   UNL     1       5.825   3.947   1.053  1.00  0.00     0.163 HD
ATOM     33  O   UNL     1       7.884   2.947   0.400  1.00  0.00    -0.269 OA
BRANCH  31  34
ATOM     34  C   UNL     1       7.451   1.118   1.830  1.00  0.00     0.039 A 
ATOM     35  C   UNL     1       8.224   0.232   1.061  1.00  0.00     0.014 A 
ATOM     36  C   UNL     1       6.790   0.624   2.946  1.00  0.00     0.014 A 
ATOM     37  C   UNL     1       8.122  -1.145   1.265  1.00  0.00     0.010 A 
ATOM     38  C   UNL     1       6.550  -0.723   3.045  1.00  0.00     0.010 A 
ATOM     39  C   UNL     1       7.188  -1.609   2.177  1.00  0.00    -0.014 A 
BRANCH  39  40
ATOM     40  C   UNL     1       6.809  -2.991   2.399  1.00  0.00     0.031 A 
ATOM     41  C   UNL     1       7.272  -3.653   3.634  1.00  0.00     0.074 A 
ATOM     42  C   UNL     1       5.746  -3.467   1.714  1.00  0.00     0.049 A 
ATOM     43  N   UNL     1       6.938  -4.845   3.972  1.00  0.00    -0.248 NA
ATOM     44  C   UNL     1       8.148  -3.003   4.600  1.00  0.00     0.031 C 
ATOM     45  C   UNL     1       4.816  -4.510   2.136  1.00  0.00     0.029 A 
ATOM     46  N   UNL     1       5.362  -3.193   0.398  1.00  0.00    -0.354 N 
ATOM     47  C   UNL     1       7.295  -5.026   5.288  1.00  0.00     0.074 A 
ATOM     48  C   UNL     1       8.131  -3.892   5.597  1.00  0.00     0.031 C 
ATOM     49  C   UNL     1       4.118  -4.934   1.073  1.00  0.00     0.029 A 
ATOM     50  C   UNL     1       4.795  -4.390  -0.085  1.00  0.00     0.049 A 
ATOM     51  H   UNL     1       5.466  -2.343  -0.088  1.00  0.00     0.167 HD
ATOM     52  C   UNL     1       6.718  -6.059   5.964  1.00  0.00     0.034 A 
ATOM     53  C   UNL     1       5.388  -5.158  -1.050  1.00  0.00     0.034 A 
ATOM     54  C   UNL     1       5.925  -6.902   5.045  1.00  0.00     0.049 A 
ATOM     55  C   UNL     1       5.718  -6.578  -0.587  1.00  0.00     0.074 A 
ATOM     56  C   UNL     1       4.574  -7.109   4.816  1.00  0.00     0.029 A 
ATOM     57  N   UNL     1       6.583  -7.520   3.992  1.00  0.00    -0.354 N 
ATOM     58  N   UNL     1       5.509  -7.045   0.615  1.00  0.00    -0.248 NA
ATOM     59  C   UNL     1       6.389  -7.557  -1.437  1.00  0.00     0.031 C 
ATOM     60  C   UNL     1       4.437  -7.867   3.612  1.00  0.00     0.029 A 
ATOM     61  C   UNL     1       5.703  -8.142   3.126  1.00  0.00     0.049 A 
ATOM     62  H   UNL     1       7.560  -7.516   3.875  1.00  0.00     0.167 HD
ATOM     63  C   UNL     1       6.138  -8.255   0.769  1.00  0.00     0.074 A 
ATOM     64  C   UNL     1       6.640  -8.550  -0.564  1.00  0.00     0.031 C 
ATOM     65  C   UNL     1       6.253  -8.874   1.990  1.00  0.00     0.034 A 
BRANCH  52  66
ATOM     66  C   UNL     1       6.684  -6.260   7.474  1.00  0.00     0.023 A 
ATOM     67  C   UNL     1       5.838  -7.285   7.959  1.00  0.00     0.012 A 
ATOM     68  C   UNL     1       7.345  -5.499   8.467  1.00  0.00     0.148 A 
ATOM     69  C   UNL     1       5.598  -7.491   9.322  1.00  0.00     0.002 A 
ATOM     70  C   UNL     1       7.100  -5.693   9.831  1.00  0.00     0.091 A 
ATOM     71  F   UNL     1       8.241  -4.578   8.124  1.00  0.00    -0.205 F 
ATOM     72  C   UNL     1       6.216  -6.682  10.261  1.00  0.00     0.022 A 
BRANCH  70  73
ATOM     73  S   UNL     1       7.856  -4.671  11.112  1.00  0.00     0.127 S 
ATOM     74  O   UNL     1       6.683  -4.059  11.740  1.00  0.00    -0.237 OA
ATOM     75  O   UNL     1       8.541  -5.662  11.941  1.00  0.00    -0.237 OA
ATOM     76  O   UNL     1       8.734  -3.728  10.431  1.00  0.00    -0.744 OA
ENDBRANCH  70  73
ENDBRANCH  52  66
BRANCH  53  77
ATOM     77  C   UNL     1       6.230  -4.349  -1.986  1.00  0.00     0.023 A 
ATOM     78  C   UNL     1       5.570  -3.361  -2.757  1.00  0.00     0.012 A 
ATOM     79  C   UNL     1       7.618  -4.238  -1.783  1.00  0.00     0.148 A 
ATOM     80  C   UNL     1       6.248  -2.217  -3.183  1.00  0.00     0.002 A 
ATOM     81  C   UNL     1       8.287  -3.097  -2.218  1.00  0.00     0.091 A 
ATOM     82  F   UNL     1       8.243  -5.194  -1.085  1.00  0.00    -0.205 F 
ATOM     83  C   UNL     1       7.597  -2.068  -2.880  1.00  0.00     0.022 A 
BRANCH  81  84
ATOM     84  S   UNL     1      10.017  -2.821  -1.811  1.00  0.00     0.127 S 
ATOM     85  O   UNL     1      10.682  -3.356  -2.994  1.00  0.00    -0.237 OA
ATOM     86  O   UNL     1      10.077  -1.366  -1.668  1.00  0.00    -0.237 OA
ATOM     87  O   UNL     1      10.218  -3.545  -0.565  1.00  0.00    -0.744 OA
ENDBRANCH  81  84
ENDBRANCH  53  77
BRANCH  65  88
ATOM     88  C   UNL     1       6.956 -10.206   2.243  1.00  0.00     0.023 A 
ATOM     89  C   UNL     1       7.034 -11.199   1.249  1.00  0.00     0.012 A 
ATOM     90  C   UNL     1       7.484 -10.557   3.519  1.00  0.00     0.148 A 
ATOM     91  C   UNL     1       7.697 -12.415   1.465  1.00  0.00     0.002 A 
ATOM     92  C   UNL     1       8.107 -11.781   3.745  1.00  0.00     0.091 A 
ATOM     93  F   UNL     1       7.368  -9.717   4.550  1.00  0.00    -0.205 F 
ATOM     94  C   UNL     1       8.243 -12.703   2.708  1.00  0.00     0.022 A 
BRANCH  92  95
ATOM     95  S   UNL     1       8.733 -12.264   5.364  1.00  0.00     0.127 S 
ATOM     96  O   UNL     1       7.817 -13.348   5.718  1.00  0.00    -0.237 OA
ATOM     97  O   UNL     1      10.093 -12.695   5.043  1.00  0.00    -0.237 OA
ATOM     98  O   UNL     1       8.650 -11.080   6.206  1.00  0.00    -0.744 OA
ENDBRANCH  92  95
ENDBRANCH  65  88
ENDBRANCH  39  40
ENDBRANCH  31  34
ENDBRANCH  29  30
ENDBRANCH  28  29
ENDBRANCH  27  28
ENDBRANCH   1  27
TORSDOF 19
