REMARK SMILES C[C@H](C(=O)NCCCCNC(=O)c1ccc(-c2c3nc(c(-c4cccc(S(=O)(=O)[O-])c4F)c4ccc([nH]4)c(-c4cccc(S(=O)(=O)[O-])c4F)c4nc(c(-c5cccc(S(=O)(=O)[O-])c5F)c5ccc2[nH]5)C=C4)C=C3)cc1)[C@@H](C)[N@@H+](C)CCC[NH+](C)C
REMARK SMILES IDX 6 1 5 2 3 3 4 4 2 6 1 7 76 8 77 9 78 10 79 11 80 13 81 14
REMARK SMILES IDX 82 15 83 16 84 17 85 18 7 20 8 21 9 22 10 23 11 24 12 26
REMARK SMILES IDX 13 27 14 28 75 29 15 30 74 31 16 32 17 33 18 34 68 35 19 36
REMARK SMILES IDX 73 37 67 38 69 39 20 40 72 41 66 42 65 43 21 45 53 46 33 47
REMARK SMILES IDX 52 48 34 49 37 50 51 51 70 52 35 53 36 54 50 56 71 57 38 58
REMARK SMILES IDX 22 59 23 60 31 61 24 62 26 63 32 64 25 65 27 66 28 67 29 68
REMARK SMILES IDX 30 69 54 70 55 71 63 72 56 73 58 74 64 75 57 76 59 77 60 78
REMARK SMILES IDX 61 79 62 80 39 81 40 82 48 83 41 84 43 85 49 86 42 87 44 88
REMARK SMILES IDX 45 89 46 90 47 91
REMARK H PARENT 5 5 78 12 83 19 10 25 69 44 37 55
REMARK Flexibility Score: inf
ROOT
ATOM      1  C   UNL     1      -1.022  -1.214  -1.679  1.00  0.00     0.116 C 
ENDROOT
BRANCH   1   2
ATOM      2  N   UNL     1       0.296  -0.910  -1.174  1.00  0.00    -0.356 N 
ATOM      3  C   UNL     1       0.756   0.173  -0.504  1.00  0.00     0.228 C 
ATOM      4  O   UNL     1       1.875   0.062   0.011  1.00  0.00    -0.275 OA
ATOM      5  H   UNL     1       0.972  -1.605  -1.344  1.00  0.00     0.163 HD
BRANCH   3   6
ATOM      6  C   UNL     1       0.040   1.520  -0.451  1.00  0.00     0.133 C 
ATOM      7  C   UNL     1       0.285   2.260  -1.774  1.00  0.00     0.024 C 
BRANCH   6   8
ATOM      8  C   UNL     1      -1.444   1.647   0.011  1.00  0.00     0.192 C 
ATOM      9  C   UNL     1      -2.082   0.452   0.726  1.00  0.00     0.076 C 
BRANCH   8  10
ATOM     10  N   UNL     1      -1.718   2.942   0.684  1.00  0.00    -0.334 N 
ATOM     11  C   UNL     1      -3.131   3.301   0.727  1.00  0.00     0.332 C 
ATOM     12  H   UNL     1      -1.252   3.560   0.019  1.00  0.00     0.348 HD
BRANCH  10  13
ATOM     13  C   UNL     1      -0.978   3.310   1.905  1.00  0.00     0.268 C 
BRANCH  13  14
ATOM     14  C   UNL     1      -1.241   2.649   3.276  1.00  0.00     0.123 C 
BRANCH  14  15
ATOM     15  C   UNL     1      -0.662   1.258   3.601  1.00  0.00     0.267 C 
BRANCH  15  16
ATOM     16  N   UNL     1       0.767   1.028   3.854  1.00  0.00    -0.340 N 
ATOM     17  C   UNL     1       1.101  -0.373   3.546  1.00  0.00     0.332 C 
ATOM     18  C   UNL     1       1.707   1.905   3.176  1.00  0.00     0.332 C 
ATOM     19  H   UNL     1       0.882   1.251   4.843  1.00  0.00     0.347 HD
ENDBRANCH  15  16
ENDBRANCH  14  15
ENDBRANCH  13  14
ENDBRANCH  10  13
ENDBRANCH   8  10
ENDBRANCH   6   8
ENDBRANCH   3   6
ENDBRANCH   1   2
BRANCH   1  20
ATOM     20  C   UNL     1      -1.028  -2.147  -2.882  1.00  0.00     0.023 C 
BRANCH  20  21
ATOM     21  C   UNL     1      -0.292  -3.476  -2.699  1.00  0.00     0.023 C 
BRANCH  21  22
ATOM     22  C   UNL     1      -0.666  -4.280  -1.457  1.00  0.00     0.116 C 
BRANCH  22  23
ATOM     23  N   UNL     1      -2.051  -4.734  -1.463  1.00  0.00    -0.352 N 
ATOM     24  C   UNL     1      -2.562  -6.002  -1.638  1.00  0.00     0.251 C 
ATOM     25  H   UNL     1      -2.723  -4.028  -1.321  1.00  0.00     0.163 HD
ATOM     26  O   UNL     1      -3.768  -6.170  -1.754  1.00  0.00    -0.269 OA
BRANCH  24  27
ATOM     27  C   UNL     1      -1.640  -7.157  -1.718  1.00  0.00     0.039 A 
ATOM     28  C   UNL     1      -1.748  -8.044  -2.792  1.00  0.00     0.014 A 
ATOM     29  C   UNL     1      -0.647  -7.334  -0.754  1.00  0.00     0.014 A 
ATOM     30  C   UNL     1      -0.789  -9.049  -2.958  1.00  0.00     0.010 A 
ATOM     31  C   UNL     1       0.350  -8.280  -0.966  1.00  0.00     0.010 A 
ATOM     32  C   UNL     1       0.299  -9.139  -2.076  1.00  0.00    -0.014 A 
BRANCH  32  33
ATOM     33  C   UNL     1       1.425 -10.084  -2.295  1.00  0.00     0.031 A 
ATOM     34  C   UNL     1       1.760 -11.107  -1.246  1.00  0.00     0.074 A 
ATOM     35  C   UNL     1       2.247  -9.910  -3.350  1.00  0.00     0.049 A 
ATOM     36  N   UNL     1       2.808 -11.881  -1.150  1.00  0.00    -0.248 NA
ATOM     37  C   UNL     1       0.806 -11.245  -0.132  1.00  0.00     0.031 C 
ATOM     38  C   UNL     1       2.083  -8.895  -4.392  1.00  0.00     0.029 A 
ATOM     39  N   UNL     1       3.417 -10.547  -3.688  1.00  0.00    -0.354 N 
ATOM     40  C   UNL     1       2.676 -12.549   0.061  1.00  0.00     0.074 A 
ATOM     41  C   UNL     1       1.454 -12.074   0.673  1.00  0.00     0.031 C 
ATOM     42  C   UNL     1       3.123  -8.960  -5.238  1.00  0.00     0.029 A 
ATOM     43  C   UNL     1       4.046  -9.994  -4.780  1.00  0.00     0.049 A 
ATOM     44  H   UNL     1       3.770 -11.323  -3.197  1.00  0.00     0.167 HD
ATOM     45  C   UNL     1       3.485 -13.488   0.605  1.00  0.00     0.034 A 
ATOM     46  C   UNL     1       5.244 -10.266  -5.337  1.00  0.00     0.034 A 
ATOM     47  C   UNL     1       4.664 -14.003  -0.036  1.00  0.00     0.049 A 
ATOM     48  C   UNL     1       6.090 -11.367  -4.759  1.00  0.00     0.074 A 
ATOM     49  C   UNL     1       5.483 -15.040   0.373  1.00  0.00     0.029 A 
ATOM     50  N   UNL     1       5.198 -13.514  -1.219  1.00  0.00    -0.354 N 
ATOM     51  N   UNL     1       5.864 -12.109  -3.703  1.00  0.00    -0.248 NA
ATOM     52  C   UNL     1       7.336 -11.694  -5.467  1.00  0.00     0.031 C 
ATOM     53  C   UNL     1       6.521 -15.168  -0.555  1.00  0.00     0.029 A 
ATOM     54  C   UNL     1       6.338 -14.224  -1.553  1.00  0.00     0.049 A 
ATOM     55  H   UNL     1       4.820 -12.772  -1.744  1.00  0.00     0.167 HD
ATOM     56  C   UNL     1       6.918 -13.012  -3.636  1.00  0.00     0.074 A 
ATOM     57  C   UNL     1       7.778 -12.733  -4.768  1.00  0.00     0.031 C 
ATOM     58  C   UNL     1       7.155 -13.977  -2.714  1.00  0.00     0.034 A 
BRANCH  45  59
ATOM     59  C   UNL     1       3.089 -14.054   1.944  1.00  0.00     0.023 A 
ATOM     60  C   UNL     1       1.965 -14.900   2.038  1.00  0.00     0.012 A 
ATOM     61  C   UNL     1       3.840 -13.774   3.102  1.00  0.00     0.148 A 
ATOM     62  C   UNL     1       1.565 -15.417   3.269  1.00  0.00     0.002 A 
ATOM     63  C   UNL     1       3.462 -14.331   4.319  1.00  0.00     0.091 A 
ATOM     64  F   UNL     1       4.892 -12.948   3.002  1.00  0.00    -0.205 F 
ATOM     65  C   UNL     1       2.318 -15.140   4.407  1.00  0.00     0.022 A 
BRANCH  63  66
ATOM     66  S   UNL     1       4.423 -14.093   5.818  1.00  0.00     0.127 S 
ATOM     67  O   UNL     1       3.656 -13.051   6.498  1.00  0.00    -0.237 OA
ATOM     68  O   UNL     1       4.350 -15.412   6.449  1.00  0.00    -0.237 OA
ATOM     69  O   UNL     1       5.756 -13.713   5.373  1.00  0.00    -0.744 OA
ENDBRANCH  63  66
ENDBRANCH  45  59
BRANCH  46  70
ATOM     70  C   UNL     1       5.674  -9.510  -6.547  1.00  0.00     0.023 A 
ATOM     71  C   UNL     1       5.651 -10.148  -7.802  1.00  0.00     0.012 A 
ATOM     72  C   UNL     1       6.026  -8.148  -6.473  1.00  0.00     0.148 A 
ATOM     73  C   UNL     1       5.989  -9.448  -8.961  1.00  0.00     0.002 A 
ATOM     74  C   UNL     1       6.308  -7.443  -7.637  1.00  0.00     0.091 A 
ATOM     75  F   UNL     1       6.045  -7.563  -5.267  1.00  0.00    -0.205 F 
ATOM     76  C   UNL     1       6.305  -8.094  -8.880  1.00  0.00     0.022 A 
BRANCH  74  77
ATOM     77  S   UNL     1       6.587  -5.668  -7.650  1.00  0.00     0.127 S 
ATOM     78  O   UNL     1       7.990  -5.588  -8.047  1.00  0.00    -0.237 OA
ATOM     79  O   UNL     1       5.632  -5.223  -8.666  1.00  0.00    -0.237 OA
ATOM     80  O   UNL     1       6.286  -5.210  -6.301  1.00  0.00    -0.744 OA
ENDBRANCH  74  77
ENDBRANCH  46  70
BRANCH  58  81
ATOM     81  C   UNL     1       8.372 -14.845  -2.896  1.00  0.00     0.023 A 
ATOM     82  C   UNL     1       9.649 -14.331  -2.599  1.00  0.00     0.012 A 
ATOM     83  C   UNL     1       8.237 -16.201  -3.252  1.00  0.00     0.148 A 
ATOM     84  C   UNL     1      10.776 -15.150  -2.670  1.00  0.00     0.002 A 
ATOM     85  C   UNL     1       9.357 -17.023  -3.277  1.00  0.00     0.091 A 
ATOM     86  F   UNL     1       7.014 -16.665  -3.550  1.00  0.00    -0.205 F 
ATOM     87  C   UNL     1      10.629 -16.497  -2.995  1.00  0.00     0.022 A 
BRANCH  85  88
ATOM     88  S   UNL     1       9.250 -18.789  -3.589  1.00  0.00     0.127 S 
ATOM     89  O   UNL     1       9.831 -18.891  -4.927  1.00  0.00    -0.237 OA
ATOM     90  O   UNL     1      10.080 -19.345  -2.520  1.00  0.00    -0.237 OA
ATOM     91  O   UNL     1       7.837 -19.129  -3.495  1.00  0.00    -0.744 OA
ENDBRANCH  85  88
ENDBRANCH  58  81
ENDBRANCH  32  33
ENDBRANCH  24  27
ENDBRANCH  22  23
ENDBRANCH  21  22
ENDBRANCH  20  21
ENDBRANCH   1  20
TORSDOF 20
