REMARK SMILES C[C@@]1(Oc2c[nH]c3ccc(Br)c(Cl)c23)O[C@@H](C(=O)NCCCCNC(=O)c2ccc(-c3c4nc(c(-c5cccc(S(=O)(=O)[O-])c5F)c5ccc([nH]5)c(-c5cccc(S(=O)(=O)[O-])c5F)c5nc(c(-c6cccc(S(=O)(=O)[O-])c6F)c6ccc3[nH]6)C=C5)C=C4)cc2)[C@@](C)(O)[C@@](C)(O)[C@@]1(C)O
REMARK SMILES IDX 22 1 21 2 20 3 19 4 17 5 18 6 16 8 1 9 2 10 15 11 96 12
REMARK SMILES IDX 93 13 97 14 90 15 94 16 91 17 3 18 4 19 5 20 14 21 6 22 7 23
REMARK SMILES IDX 12 24 8 26 10 27 13 28 9 29 11 30 98 31 95 33 92 35 23 37
REMARK SMILES IDX 24 38 25 39 26 41 27 42 28 43 89 44 29 45 88 46 30 47 31 48
REMARK SMILES IDX 32 49 82 50 33 51 87 52 81 53 83 54 34 55 86 56 80 57 79 58
REMARK SMILES IDX 35 60 67 61 47 62 66 63 48 64 51 65 65 66 84 67 49 68 50 69
REMARK SMILES IDX 64 71 85 72 52 73 36 74 37 75 45 76 38 77 40 78 46 79 39 80
REMARK SMILES IDX 41 81 42 82 43 83 44 84 68 85 69 86 77 87 70 88 72 89 78 90
REMARK SMILES IDX 71 91 73 92 74 93 75 94 76 95 53 96 54 97 62 98 55 99 57 100
REMARK SMILES IDX 63 101 56 102 58 103 59 104 60 105 61 106
REMARK H PARENT 19 7 6 25 98 32 95 34 92 36 24 40 83 59 51 70
REMARK Flexibility Score: inf
ROOT
ATOM      1  C   UNL     1       0.973  -3.265  -2.927  1.00  0.00     0.023 C 
ENDROOT
BRANCH   1   2
ATOM      2  C   UNL     1       0.606  -1.785  -2.875  1.00  0.00     0.023 C 
BRANCH   2   3
ATOM      3  C   UNL     1       1.410  -0.904  -1.900  1.00  0.00     0.116 C 
BRANCH   3   4
ATOM      4  N   UNL     1       2.102   0.259  -2.506  1.00  0.00    -0.354 N 
ATOM      5  C   UNL     1       2.282   1.586  -2.192  1.00  0.00     0.252 C 
ATOM      6  O   UNL     1       3.350   2.051  -2.626  1.00  0.00    -0.272 OA
ATOM      7  H   UNL     1       2.548   0.020  -3.350  1.00  0.00     0.163 HD
BRANCH   5   8
ATOM      8  C   UNL     1       1.256   2.602  -1.485  1.00  0.00     0.246 C 
ATOM      9  C   UNL     1       1.348   0.545   0.777  1.00  0.00     0.094 C 
ATOM     10  C   UNL     1       0.253   1.583   0.456  1.00  0.00     0.240 C 
ATOM     11  O   UNL     1       0.965   2.690  -0.089  1.00  0.00    -0.322 OA
ATOM     12  C   UNL     1      -1.070   1.260  -0.472  1.00  0.00     0.158 C 
ATOM     13  C   UNL     1      -1.021   1.671  -2.034  1.00  0.00     0.128 C 
ATOM     14  C   UNL     1      -2.293   2.015   0.101  1.00  0.00     0.053 C 
ATOM     15  C   UNL     1      -0.049   2.848  -2.300  1.00  0.00     0.129 C 
ATOM     16  C   UNL     1      -2.421   1.863  -2.681  1.00  0.00     0.049 C 
ATOM     17  C   UNL     1      -0.637   4.232  -1.953  1.00  0.00     0.049 C 
BRANCH  10  18
ATOM     18  O   UNL     1      -0.239   1.670   1.842  1.00  0.00    -0.457 OA
BRANCH  18  19
ATOM     19  C   UNL     1      -0.339   2.879   2.419  1.00  0.00     0.150 A 
ATOM     20  C   UNL     1       0.642   3.827   2.541  1.00  0.00     0.130 A 
ATOM     21  C   UNL     1      -1.522   3.365   3.040  1.00  0.00     0.061 A 
ATOM     22  N   UNL     1       0.038   4.955   3.035  1.00  0.00    -0.358 N 
ATOM     23  C   UNL     1      -1.321   4.741   3.162  1.00  0.00     0.051 A 
ATOM     24  C   UNL     1      -2.796   2.841   3.348  1.00  0.00     0.068 A 
ATOM     25  H   UNL     1       0.503   5.792   3.264  1.00  0.00     0.166 HD
ATOM     26  C   UNL     1      -2.380   5.628   3.375  1.00  0.00     0.028 A 
ATOM     27  C   UNL     1      -3.882   3.708   3.444  1.00  0.00     0.037 A 
ATOM     28  Cl  UNL     1      -2.890   1.138   3.571  1.00  0.00    -0.082 Cl
ATOM     29  C   UNL     1      -3.673   5.087   3.426  1.00  0.00     0.019 A 
ATOM     30  Br  UNL     1      -5.670   3.069   3.489  1.00  0.00    -0.049 Br
ENDBRANCH  18  19
ENDBRANCH  10  18
BRANCH  12  31
ATOM     31  O   UNL     1      -1.438  -0.130  -0.334  1.00  0.00    -0.380 OA
ATOM     32  H   UNL     1      -0.721  -0.689  -0.672  1.00  0.00     0.211 HD
ENDBRANCH  12  31
BRANCH  13  33
ATOM     33  O   UNL     1      -0.594   0.596  -2.885  1.00  0.00    -0.384 OA
ATOM     34  H   UNL     1       0.300   0.319  -2.632  1.00  0.00     0.211 HD
ENDBRANCH  13  33
BRANCH  15  35
ATOM     35  O   UNL     1       0.264   2.921  -3.710  1.00  0.00    -0.384 OA
ATOM     36  H   UNL     1       0.642   2.076  -4.002  1.00  0.00     0.211 HD
ENDBRANCH  15  35
ENDBRANCH   5   8
ENDBRANCH   3   4
ENDBRANCH   2   3
ENDBRANCH   1   2
BRANCH   1  37
ATOM     37  C   UNL     1       0.868  -3.997  -1.597  1.00  0.00     0.116 C 
BRANCH  37  38
ATOM     38  N   UNL     1      -0.495  -4.135  -1.095  1.00  0.00    -0.352 N 
ATOM     39  C   UNL     1      -0.868  -4.811   0.057  1.00  0.00     0.251 C 
ATOM     40  H   UNL     1      -1.212  -3.712  -1.621  1.00  0.00     0.163 HD
ATOM     41  O   UNL     1      -2.003  -5.184   0.254  1.00  0.00    -0.269 OA
BRANCH  39  42
ATOM     42  C   UNL     1       0.194  -5.045   1.055  1.00  0.00     0.039 A 
ATOM     43  C   UNL     1       0.504  -6.338   1.479  1.00  0.00     0.014 A 
ATOM     44  C   UNL     1       0.929  -3.936   1.480  1.00  0.00     0.014 A 
ATOM     45  C   UNL     1       1.620  -6.521   2.288  1.00  0.00     0.010 A 
ATOM     46  C   UNL     1       2.076  -4.128   2.216  1.00  0.00     0.010 A 
ATOM     47  C   UNL     1       2.409  -5.415   2.638  1.00  0.00    -0.014 A 
BRANCH  47  48
ATOM     48  C   UNL     1       3.646  -5.613   3.381  1.00  0.00     0.031 A 
ATOM     49  C   UNL     1       4.698  -6.417   2.696  1.00  0.00     0.074 A 
ATOM     50  C   UNL     1       3.911  -4.948   4.524  1.00  0.00     0.049 A 
ATOM     51  N   UNL     1       5.129  -7.595   3.015  1.00  0.00    -0.248 NA
ATOM     52  C   UNL     1       5.273  -5.888   1.450  1.00  0.00     0.031 C 
ATOM     53  C   UNL     1       3.130  -3.877   5.153  1.00  0.00     0.029 A 
ATOM     54  N   UNL     1       5.024  -5.010   5.300  1.00  0.00    -0.354 N 
ATOM     55  C   UNL     1       6.181  -7.863   2.140  1.00  0.00     0.074 A 
ATOM     56  C   UNL     1       6.115  -6.864   1.104  1.00  0.00     0.031 C 
ATOM     57  C   UNL     1       3.898  -3.239   6.063  1.00  0.00     0.029 A 
ATOM     58  C   UNL     1       5.149  -3.958   6.200  1.00  0.00     0.049 A 
ATOM     59  H   UNL     1       5.685  -5.737   5.231  1.00  0.00     0.167 HD
ATOM     60  C   UNL     1       7.172  -8.747   2.445  1.00  0.00     0.034 A 
ATOM     61  C   UNL     1       6.233  -3.690   6.964  1.00  0.00     0.034 A 
ATOM     62  C   UNL     1       6.851  -9.546   3.595  1.00  0.00     0.049 A 
ATOM     63  C   UNL     1       6.987  -4.961   7.078  1.00  0.00     0.074 A 
ATOM     64  C   UNL     1       5.868 -10.457   3.919  1.00  0.00     0.029 A 
ATOM     65  N   UNL     1       7.418  -9.155   4.783  1.00  0.00    -0.354 N 
ATOM     66  N   UNL     1       6.530  -6.025   7.678  1.00  0.00    -0.248 NA
ATOM     67  C   UNL     1       8.120  -5.178   6.193  1.00  0.00     0.031 C 
ATOM     68  C   UNL     1       5.585 -10.214   5.296  1.00  0.00     0.029 A 
ATOM     69  C   UNL     1       6.439  -9.201   5.738  1.00  0.00     0.049 A 
ATOM     70  H   UNL     1       8.356  -8.889   4.921  1.00  0.00     0.167 HD
ATOM     71  C   UNL     1       7.021  -7.085   6.929  1.00  0.00     0.074 A 
ATOM     72  C   UNL     1       8.092  -6.511   6.120  1.00  0.00     0.031 C 
ATOM     73  C   UNL     1       6.328  -8.256   6.829  1.00  0.00     0.034 A 
BRANCH  60  74
ATOM     74  C   UNL     1       8.586  -8.669   1.931  1.00  0.00     0.023 A 
ATOM     75  C   UNL     1       9.409  -9.810   2.059  1.00  0.00     0.012 A 
ATOM     76  C   UNL     1       9.217  -7.456   1.577  1.00  0.00     0.148 A 
ATOM     77  C   UNL     1      10.791  -9.743   1.850  1.00  0.00     0.002 A 
ATOM     78  C   UNL     1      10.577  -7.412   1.292  1.00  0.00     0.091 A 
ATOM     79  F   UNL     1       8.531  -6.309   1.645  1.00  0.00    -0.205 F 
ATOM     80  C   UNL     1      11.375  -8.547   1.450  1.00  0.00     0.022 A 
BRANCH  78  81
ATOM     81  S   UNL     1      11.361  -5.900   0.724  1.00  0.00     0.127 S 
ATOM     82  O   UNL     1      12.039  -5.448   1.935  1.00  0.00    -0.237 OA
ATOM     83  O   UNL     1      12.243  -6.396  -0.333  1.00  0.00    -0.237 OA
ATOM     84  O   UNL     1      10.268  -5.063   0.243  1.00  0.00    -0.744 OA
ENDBRANCH  78  81
ENDBRANCH  60  74
BRANCH  61  85
ATOM     85  C   UNL     1       6.800  -2.396   7.415  1.00  0.00     0.023 A 
ATOM     86  C   UNL     1       7.786  -2.403   8.424  1.00  0.00     0.012 A 
ATOM     87  C   UNL     1       6.616  -1.207   6.674  1.00  0.00     0.148 A 
ATOM     88  C   UNL     1       8.611  -1.293   8.638  1.00  0.00     0.002 A 
ATOM     89  C   UNL     1       7.432  -0.100   6.901  1.00  0.00     0.091 A 
ATOM     90  F   UNL     1       5.715  -1.190   5.683  1.00  0.00    -0.205 F 
ATOM     91  C   UNL     1       8.444  -0.147   7.868  1.00  0.00     0.022 A 
BRANCH  89  92
ATOM     92  S   UNL     1       7.280   1.412   5.937  1.00  0.00     0.127 S 
ATOM     93  O   UNL     1       7.409   2.447   6.965  1.00  0.00    -0.237 OA
ATOM     94  O   UNL     1       8.418   1.309   5.028  1.00  0.00    -0.237 OA
ATOM     95  O   UNL     1       5.962   1.352   5.317  1.00  0.00    -0.744 OA
ENDBRANCH  89  92
ENDBRANCH  61  85
BRANCH  73  96
ATOM     96  C   UNL     1       5.160  -8.468   7.757  1.00  0.00     0.023 A 
ATOM     97  C   UNL     1       3.955  -7.749   7.611  1.00  0.00     0.012 A 
ATOM     98  C   UNL     1       5.202  -9.560   8.639  1.00  0.00     0.148 A 
ATOM     99  C   UNL     1       2.814  -8.113   8.332  1.00  0.00     0.002 A 
ATOM    100  C   UNL     1       4.056  -9.943   9.324  1.00  0.00     0.091 A 
ATOM    101  F   UNL     1       6.354 -10.239   8.745  1.00  0.00    -0.205 F 
ATOM    102  C   UNL     1       2.861  -9.220   9.177  1.00  0.00     0.022 A 
BRANCH 100 103
ATOM    103  S   UNL     1       4.005 -11.425  10.335  1.00  0.00     0.127 S 
ATOM    104  O   UNL     1       3.764 -10.878  11.669  1.00  0.00    -0.237 OA
ATOM    105  O   UNL     1       2.873 -12.152   9.758  1.00  0.00    -0.237 OA
ATOM    106  O   UNL     1       5.294 -12.082  10.160  1.00  0.00    -0.744 OA
ENDBRANCH 100 103
ENDBRANCH  73  96
ENDBRANCH  47  48
ENDBRANCH  39  42
ENDBRANCH  37  38
ENDBRANCH   1  37
TORSDOF 19
