REMARK SMILES Cc1c([C@H]2[C@H](C(=O)NCCCCNC(=O)c3ccc(-c4c5nc(c(-c6cccc(S(=O)(=O)[O-])c6F)c6ccc([nH]6)c(-c6cccc(S(=O)(=O)[O-])c6F)c6nc(c(-c7cccc(S(=O)(=O)[O-])c7F)c7ccc4[nH]7)C=C6)C=C5)cc3)OCC(=O)N2CC(C)C)cnn1C
REMARK SMILES IDX 11 1 10 2 9 3 8 4 6 5 7 6 5 8 4 9 83 10 79 11 81 12 80 13
REMARK SMILES IDX 82 14 3 15 1 16 2 17 90 18 88 19 89 20 91 21 84 22 85 23
REMARK SMILES IDX 86 24 87 25 12 26 13 27 14 28 15 30 16 31 17 32 78 33 18 34
REMARK SMILES IDX 77 35 19 36 20 37 21 38 71 39 22 40 76 41 70 42 72 43 23 44
REMARK SMILES IDX 75 45 69 46 68 47 24 49 56 50 36 51 55 52 37 53 40 54 54 55
REMARK SMILES IDX 73 56 38 57 39 58 53 60 74 61 41 62 25 63 26 64 34 65 27 66
REMARK SMILES IDX 29 67 35 68 28 69 30 70 31 71 32 72 33 73 57 74 58 75 66 76
REMARK SMILES IDX 59 77 61 78 67 79 60 80 62 81 63 82 64 83 65 84 42 85 43 86
REMARK SMILES IDX 51 87 44 88 46 89 52 90 45 91 47 92 48 93 49 94 50 95
REMARK H PARENT 8 7 13 29 72 48 40 59
REMARK Flexibility Score: inf
ROOT
ATOM      1  C   UNL     1      -5.149  -1.463   2.552  1.00  0.00     0.023 C 
ENDROOT
BRANCH   1   2
ATOM      2  C   UNL     1      -3.739  -1.855   2.118  1.00  0.00     0.023 C 
BRANCH   2   3
ATOM      3  C   UNL     1      -3.600  -3.312   1.685  1.00  0.00     0.116 C 
BRANCH   3   4
ATOM      4  N   UNL     1      -3.954  -3.499   0.301  1.00  0.00    -0.354 N 
ATOM      5  C   UNL     1      -3.247  -4.011  -0.739  1.00  0.00     0.251 C 
ATOM      6  O   UNL     1      -3.828  -4.039  -1.831  1.00  0.00    -0.272 OA
ATOM      7  H   UNL     1      -4.864  -3.206   0.070  1.00  0.00     0.163 HD
BRANCH   5   8
ATOM      8  C   UNL     1      -1.781  -4.504  -0.635  1.00  0.00     0.234 C 
ATOM      9  C   UNL     1      -0.774  -3.373  -0.278  1.00  0.00     0.157 C 
ATOM     10  N   UNL     1      -0.331  -3.380   1.126  1.00  0.00    -0.330 N 
ATOM     11  O   UNL     1      -1.500  -5.766  -0.050  1.00  0.00    -0.356 OA
ATOM     12  C   UNL     1      -0.252  -4.566   1.847  1.00  0.00     0.249 C 
ATOM     13  C   UNL     1      -1.075  -5.739   1.289  1.00  0.00     0.261 C 
ATOM     14  O   UNL     1       0.291  -4.641   2.949  1.00  0.00    -0.272 OA
BRANCH   9  15
ATOM     15  C   UNL     1       0.420  -3.452  -1.200  1.00  0.00     0.019 A 
ATOM     16  C   UNL     1      -0.595  -2.433  -3.380  1.00  0.00     0.067 C 
ATOM     17  C   UNL     1       0.458  -3.061  -2.535  1.00  0.00     0.040 A 
ATOM     18  N   UNL     1       1.686  -3.451  -3.004  1.00  0.00    -0.273 N 
ATOM     19  C   UNL     1       1.701  -4.003  -0.969  1.00  0.00     0.141 A 
ATOM     20  N   UNL     1       2.475  -3.982  -2.054  1.00  0.00    -0.181 NA
ATOM     21  C   UNL     1       2.148  -3.430  -4.372  1.00  0.00     0.174 C 
ENDBRANCH   9  15
BRANCH  10  22
ATOM     22  C   UNL     1      -0.135  -2.117   1.845  1.00  0.00     0.123 C 
BRANCH  22  23
ATOM     23  C   UNL     1       1.320  -1.661   2.033  1.00  0.00     0.002 C 
ATOM     24  C   UNL     1       1.775  -0.763   0.883  1.00  0.00     0.009 C 
ATOM     25  C   UNL     1       1.442  -0.877   3.347  1.00  0.00     0.009 C 
ENDBRANCH  22  23
ENDBRANCH  10  22
ENDBRANCH   5   8
ENDBRANCH   3   4
ENDBRANCH   2   3
ENDBRANCH   1   2
BRANCH   1  26
ATOM     26  C   UNL     1      -5.751  -2.343   3.642  1.00  0.00     0.116 C 
BRANCH  26  27
ATOM     27  N   UNL     1      -4.900  -2.503   4.814  1.00  0.00    -0.352 N 
ATOM     28  C   UNL     1      -5.299  -2.701   6.122  1.00  0.00     0.251 C 
ATOM     29  H   UNL     1      -3.929  -2.466   4.656  1.00  0.00     0.163 HD
ATOM     30  O   UNL     1      -4.496  -2.746   7.030  1.00  0.00    -0.269 OA
BRANCH  28  31
ATOM     31  C   UNL     1      -6.751  -2.807   6.377  1.00  0.00     0.039 A 
ATOM     32  C   UNL     1      -7.356  -1.872   7.218  1.00  0.00     0.014 A 
ATOM     33  C   UNL     1      -7.511  -3.737   5.667  1.00  0.00     0.014 A 
ATOM     34  C   UNL     1      -8.748  -1.817   7.281  1.00  0.00     0.010 A 
ATOM     35  C   UNL     1      -8.895  -3.626   5.670  1.00  0.00     0.010 A 
ATOM     36  C   UNL     1      -9.527  -2.662   6.471  1.00  0.00    -0.014 A 
BRANCH  36  37
ATOM     37  C   UNL     1     -11.005  -2.543   6.424  1.00  0.00     0.031 A 
ATOM     38  C   UNL     1     -11.862  -3.703   6.845  1.00  0.00     0.074 A 
ATOM     39  C   UNL     1     -11.569  -1.439   5.893  1.00  0.00     0.049 A 
ATOM     40  N   UNL     1     -13.162  -3.826   6.796  1.00  0.00    -0.248 NA
ATOM     41  C   UNL     1     -11.164  -4.898   7.351  1.00  0.00     0.031 C 
ATOM     42  C   UNL     1     -10.839  -0.289   5.353  1.00  0.00     0.029 A 
ATOM     43  N   UNL     1     -12.888  -1.117   5.691  1.00  0.00    -0.354 N 
ATOM     44  C   UNL     1     -13.434  -5.122   7.218  1.00  0.00     0.074 A 
ATOM     45  C   UNL     1     -12.163  -5.758   7.484  1.00  0.00     0.031 C 
ATOM     46  C   UNL     1     -11.720   0.613   4.888  1.00  0.00     0.029 A 
ATOM     47  C   UNL     1     -13.073   0.099   5.076  1.00  0.00     0.049 A 
ATOM     48  H   UNL     1     -13.632  -1.703   5.962  1.00  0.00     0.167 HD
ATOM     49  C   UNL     1     -14.635  -5.717   7.405  1.00  0.00     0.034 A 
ATOM     50  C   UNL     1     -14.206   0.729   4.708  1.00  0.00     0.034 A 
ATOM     51  C   UNL     1     -15.895  -5.056   7.212  1.00  0.00     0.049 A 
ATOM     52  C   UNL     1     -15.530   0.081   5.010  1.00  0.00     0.074 A 
ATOM     53  C   UNL     1     -17.166  -5.531   7.483  1.00  0.00     0.029 A 
ATOM     54  N   UNL     1     -16.044  -3.775   6.705  1.00  0.00    -0.354 N 
ATOM     55  N   UNL     1     -15.770  -1.076   5.579  1.00  0.00    -0.248 NA
ATOM     56  C   UNL     1     -16.740   0.839   4.659  1.00  0.00     0.031 C 
ATOM     57  C   UNL     1     -18.085  -4.536   7.134  1.00  0.00     0.029 A 
ATOM     58  C   UNL     1     -17.386  -3.440   6.654  1.00  0.00     0.049 A 
ATOM     59  H   UNL     1     -15.305  -3.190   6.422  1.00  0.00     0.167 HD
ATOM     60  C   UNL     1     -17.153  -1.170   5.683  1.00  0.00     0.074 A 
ATOM     61  C   UNL     1     -17.698   0.057   5.139  1.00  0.00     0.031 C 
ATOM     62  C   UNL     1     -17.906  -2.188   6.168  1.00  0.00     0.034 A 
BRANCH  49  63
ATOM     63  C   UNL     1     -14.636  -7.132   7.917  1.00  0.00     0.023 A 
ATOM     64  C   UNL     1     -14.277  -7.381   9.258  1.00  0.00     0.012 A 
ATOM     65  C   UNL     1     -15.030  -8.205   7.096  1.00  0.00     0.148 A 
ATOM     66  C   UNL     1     -14.273  -8.680   9.764  1.00  0.00     0.002 A 
ATOM     67  C   UNL     1     -15.065  -9.493   7.620  1.00  0.00     0.091 A 
ATOM     68  F   UNL     1     -15.342  -7.953   5.817  1.00  0.00    -0.205 F 
ATOM     69  C   UNL     1     -14.677  -9.733   8.949  1.00  0.00     0.022 A 
BRANCH  67  70
ATOM     70  S   UNL     1     -15.642 -10.905   6.670  1.00  0.00     0.127 S 
ATOM     71  O   UNL     1     -14.386 -11.587   6.363  1.00  0.00    -0.237 OA
ATOM     72  O   UNL     1     -16.493 -11.601   7.636  1.00  0.00    -0.237 OA
ATOM     73  O   UNL     1     -16.354 -10.351   5.527  1.00  0.00    -0.744 OA
ENDBRANCH  67  70
ENDBRANCH  49  63
BRANCH  50  74
ATOM     74  C   UNL     1     -14.137   2.088   4.100  1.00  0.00     0.023 A 
ATOM     75  C   UNL     1     -14.548   3.201   4.861  1.00  0.00     0.012 A 
ATOM     76  C   UNL     1     -13.638   2.293   2.800  1.00  0.00     0.148 A 
ATOM     77  C   UNL     1     -14.490   4.489   4.328  1.00  0.00     0.002 A 
ATOM     78  C   UNL     1     -13.535   3.585   2.294  1.00  0.00     0.091 A 
ATOM     79  F   UNL     1     -13.265   1.222   2.085  1.00  0.00    -0.205 F 
ATOM     80  C   UNL     1     -13.975   4.682   3.050  1.00  0.00     0.022 A 
BRANCH  78  81
ATOM     81  S   UNL     1     -12.758   3.933   0.711  1.00  0.00     0.127 S 
ATOM     82  O   UNL     1     -13.914   4.211  -0.136  1.00  0.00    -0.237 OA
ATOM     83  O   UNL     1     -11.930   5.098   1.026  1.00  0.00    -0.237 OA
ATOM     84  O   UNL     1     -11.998   2.735   0.381  1.00  0.00    -0.744 OA
ENDBRANCH  78  81
ENDBRANCH  50  74
BRANCH  62  85
ATOM     85  C   UNL     1     -19.401  -2.017   6.162  1.00  0.00     0.023 A 
ATOM     86  C   UNL     1     -20.107  -2.127   4.949  1.00  0.00     0.012 A 
ATOM     87  C   UNL     1     -20.111  -1.839   7.366  1.00  0.00     0.148 A 
ATOM     88  C   UNL     1     -21.498  -2.039   4.930  1.00  0.00     0.002 A 
ATOM     89  C   UNL     1     -21.500  -1.796   7.344  1.00  0.00     0.091 A 
ATOM     90  F   UNL     1     -19.418  -1.715   8.507  1.00  0.00    -0.205 F 
ATOM     91  C   UNL     1     -22.195  -1.887   6.127  1.00  0.00     0.022 A 
BRANCH  89  92
ATOM     92  S   UNL     1     -22.477  -1.696   8.849  1.00  0.00     0.127 S 
ATOM     93  O   UNL     1     -22.884  -0.292   8.847  1.00  0.00    -0.237 OA
ATOM     94  O   UNL     1     -23.558  -2.646   8.585  1.00  0.00    -0.237 OA
ATOM     95  O   UNL     1     -21.582  -2.090   9.929  1.00  0.00    -0.744 OA
ENDBRANCH  89  92
ENDBRANCH  62  85
ENDBRANCH  36  37
ENDBRANCH  28  31
ENDBRANCH  26  27
ENDBRANCH   1  26
TORSDOF 17
