REMARK SMILES Cc1ccc(-c2csc(NC(=O)[C@H]3[C@@H](C(=O)NCCCCNC(=O)c4ccc(-c5c6nc(c(-c7cccc(S(=O)(=O)[O-])c7F)c7ccc([nH]7)c(-c7cccc(S(=O)(=O)[O-])c7F)c7nc(c(-c8cccc(S(=O)(=O)[O-])c8F)c8ccc5[nH]8)C=C7)C=C6)cc4)[C@H]4C=C[C@@H]3C4)c2C(=O)NC2CC2)cc1
REMARK SMILES IDX 19 1 18 2 17 3 15 4 16 5 14 7 13 8 91 9 88 10 90 11 92 12
REMARK SMILES IDX 89 13 11 14 10 15 12 17 9 18 6 19 7 20 93 21 8 22 5 23 1 24
REMARK SMILES IDX 2 25 3 26 101 27 4 28 100 29 94 30 95 31 96 32 97 34 98 35
REMARK SMILES IDX 99 36 20 37 21 38 22 39 23 40 24 42 25 43 26 44 87 45 27 46
REMARK SMILES IDX 86 47 28 48 29 49 30 50 80 51 31 52 85 53 79 54 81 55 32 56
REMARK SMILES IDX 84 57 78 58 77 59 33 61 65 62 45 63 64 64 46 65 49 66 63 67
REMARK SMILES IDX 82 68 47 69 48 70 62 72 83 73 50 74 34 75 35 76 43 77 36 78
REMARK SMILES IDX 38 79 44 80 37 81 39 82 40 83 41 84 42 85 66 86 67 87 75 88
REMARK SMILES IDX 68 89 70 90 76 91 69 92 71 93 72 94 73 95 74 96 51 97 52 98
REMARK SMILES IDX 60 99 53 100 55 101 61 102 54 103 56 104 57 105 58 106
REMARK SMILES IDX 59 107
REMARK H PARENT 17 6 10 16 96 33 22 41 81 60 49 71
REMARK Flexibility Score: inf
ROOT
ATOM      1  C   UNL     1      -3.768   0.121   0.646  1.00  0.00     0.023 C 
ENDROOT
BRANCH   1   2
ATOM      2  C   UNL     1      -4.383   1.456   0.204  1.00  0.00     0.116 C 
BRANCH   2   3
ATOM      3  N   UNL     1      -5.121   1.324  -1.040  1.00  0.00    -0.356 N 
ATOM      4  C   UNL     1      -6.451   1.127  -1.272  1.00  0.00     0.224 C 
ATOM      5  O   UNL     1      -6.804   0.910  -2.432  1.00  0.00    -0.275 OA
ATOM      6  H   UNL     1      -4.569   1.387  -1.853  1.00  0.00     0.163 HD
BRANCH   4   7
ATOM      7  C   UNL     1      -7.437   1.315  -0.123  1.00  0.00     0.098 C 
ATOM      8  C   UNL     1      -8.620   0.290   0.074  1.00  0.00     0.099 C 
ATOM      9  C   UNL     1      -9.856   1.225  -0.059  1.00  0.00     0.025 C 
ATOM     10  C   UNL     1      -8.180   2.674  -0.308  1.00  0.00     0.025 C 
ATOM     11  C   UNL     1      -9.963   1.772  -1.455  1.00  0.00    -0.027 C 
ATOM     12  C   UNL     1      -9.345   2.486   0.658  1.00  0.00     0.017 C 
ATOM     13  C   UNL     1      -8.976   2.667  -1.596  1.00  0.00    -0.027 C 
BRANCH   8  14
ATOM     14  C   UNL     1      -8.515  -0.984  -0.765  1.00  0.00     0.229 C 
ATOM     15  N   UNL     1      -9.613  -1.676  -1.187  1.00  0.00    -0.317 N 
ATOM     16  H   UNL     1      -9.478  -2.205  -2.007  1.00  0.00     0.170 HD
ATOM     17  O   UNL     1      -7.411  -1.477  -1.024  1.00  0.00    -0.274 OA
BRANCH  15  18
ATOM     18  C   UNL     1     -10.882  -1.752  -0.649  1.00  0.00     0.108 A 
ATOM     19  C   UNL     1     -13.182  -1.894  -0.365  1.00  0.00     0.007 A 
ATOM     20  C   UNL     1     -12.730  -1.574   0.906  1.00  0.00     0.076 A 
ATOM     21  C   UNL     1     -12.075  -2.077  -1.306  1.00  0.00     0.082 A 
ATOM     22  S   UNL     1     -11.046  -1.669   1.040  1.00  0.00    -0.125 S 
BRANCH  19  23
ATOM     23  C   UNL     1     -14.627  -2.046  -0.494  1.00  0.00    -0.017 A 
ATOM     24  C   UNL     1     -18.682  -3.186  -1.308  1.00  0.00     0.044 C 
ATOM     25  C   UNL     1     -17.336  -2.674  -0.890  1.00  0.00    -0.051 A 
ATOM     26  C   UNL     1     -16.565  -3.437  -0.012  1.00  0.00     0.004 A 
ATOM     27  C   UNL     1     -16.775  -1.525  -1.472  1.00  0.00     0.004 A 
ATOM     28  C   UNL     1     -15.232  -3.105   0.206  1.00  0.00     0.009 A 
ATOM     29  C   UNL     1     -15.421  -1.206  -1.275  1.00  0.00     0.009 A 
ENDBRANCH  19  23
BRANCH  21  30
ATOM     30  C   UNL     1     -12.006  -2.307  -2.759  1.00  0.00     0.255 C 
ATOM     31  O   UNL     1     -11.302  -1.561  -3.453  1.00  0.00    -0.269 OA
ATOM     32  N   UNL     1     -12.522  -3.364  -3.472  1.00  0.00    -0.349 N 
ATOM     33  H   UNL     1     -12.240  -3.313  -4.414  1.00  0.00     0.164 HD
BRANCH  32  34
ATOM     34  C   UNL     1     -13.339  -4.504  -3.261  1.00  0.00     0.082 C 
ATOM     35  C   UNL     1     -13.889  -5.012  -1.980  1.00  0.00     0.027 C 
ATOM     36  C   UNL     1     -14.786  -4.291  -2.954  1.00  0.00     0.027 C 
ENDBRANCH  32  34
ENDBRANCH  21  30
ENDBRANCH  15  18
ENDBRANCH   8  14
ENDBRANCH   4   7
ENDBRANCH   2   3
ENDBRANCH   1   2
BRANCH   1  37
ATOM     37  C   UNL     1      -2.861  -0.551  -0.391  1.00  0.00     0.023 C 
BRANCH  37  38
ATOM     38  C   UNL     1      -1.699   0.306  -0.871  1.00  0.00     0.116 C 
BRANCH  38  39
ATOM     39  N   UNL     1      -0.504   0.220  -0.053  1.00  0.00    -0.352 N 
ATOM     40  C   UNL     1       0.731   0.815  -0.248  1.00  0.00     0.251 C 
ATOM     41  H   UNL     1      -0.582  -0.340   0.753  1.00  0.00     0.163 HD
ATOM     42  O   UNL     1       1.698   0.356   0.363  1.00  0.00    -0.269 OA
BRANCH  40  43
ATOM     43  C   UNL     1       0.858   2.063  -1.049  1.00  0.00     0.039 A 
ATOM     44  C   UNL     1       1.705   3.067  -0.557  1.00  0.00     0.014 A 
ATOM     45  C   UNL     1      -0.008   2.354  -2.098  1.00  0.00     0.014 A 
ATOM     46  C   UNL     1       1.480   4.399  -0.903  1.00  0.00     0.010 A 
ATOM     47  C   UNL     1      -0.303   3.669  -2.369  1.00  0.00     0.010 A 
ATOM     48  C   UNL     1       0.389   4.688  -1.710  1.00  0.00    -0.014 A 
BRANCH  48  49
ATOM     49  C   UNL     1      -0.171   6.010  -1.919  1.00  0.00     0.031 A 
ATOM     50  C   UNL     1       0.232   6.804  -3.090  1.00  0.00     0.074 A 
ATOM     51  C   UNL     1      -1.272   6.331  -1.203  1.00  0.00     0.049 A 
ATOM     52  N   UNL     1      -0.003   8.064  -3.219  1.00  0.00    -0.248 NA
ATOM     53  C   UNL     1       0.940   6.219  -4.223  1.00  0.00     0.031 C 
ATOM     54  C   UNL     1      -2.299   7.301  -1.553  1.00  0.00     0.029 A 
ATOM     55  N   UNL     1      -1.604   5.935   0.098  1.00  0.00    -0.354 N 
ATOM     56  C   UNL     1       0.233   8.381  -4.539  1.00  0.00     0.074 A 
ATOM     57  C   UNL     1       0.901   7.228  -5.099  1.00  0.00     0.031 C 
ATOM     58  C   UNL     1      -2.978   7.629  -0.443  1.00  0.00     0.029 A 
ATOM     59  C   UNL     1      -2.279   7.023   0.677  1.00  0.00     0.049 A 
ATOM     60  H   UNL     1      -1.405   5.069   0.521  1.00  0.00     0.167 HD
ATOM     61  C   UNL     1      -0.329   9.505  -5.066  1.00  0.00     0.034 A 
ATOM     62  C   UNL     1      -1.831   7.691   1.781  1.00  0.00     0.034 A 
ATOM     63  C   UNL     1      -1.124  10.215  -4.057  1.00  0.00     0.049 A 
ATOM     64  C   UNL     1      -1.572   9.165   1.516  1.00  0.00     0.074 A 
ATOM     65  C   UNL     1      -2.478  10.206  -3.757  1.00  0.00     0.029 A 
ATOM     66  N   UNL     1      -0.489  10.825  -2.984  1.00  0.00    -0.354 N 
ATOM     67  N   UNL     1      -1.628   9.717   0.335  1.00  0.00    -0.248 NA
ATOM     68  C   UNL     1      -1.207  10.130   2.549  1.00  0.00     0.031 C 
ATOM     69  C   UNL     1      -2.647  10.761  -2.463  1.00  0.00     0.029 A 
ATOM     70  C   UNL     1      -1.401  11.127  -1.982  1.00  0.00     0.049 A 
ATOM     71  H   UNL     1       0.475  11.017  -2.939  1.00  0.00     0.167 HD
ATOM     72  C   UNL     1      -1.190  11.015   0.396  1.00  0.00     0.074 A 
ATOM     73  C   UNL     1      -1.021  11.247   1.821  1.00  0.00     0.031 C 
ATOM     74  C   UNL     1      -0.953  11.748  -0.739  1.00  0.00     0.034 A 
BRANCH  61  75
ATOM     75  C   UNL     1      -0.458   9.760  -6.555  1.00  0.00     0.023 A 
ATOM     76  C   UNL     1      -1.601  10.465  -6.996  1.00  0.00     0.012 A 
ATOM     77  C   UNL     1       0.433   9.323  -7.561  1.00  0.00     0.148 A 
ATOM     78  C   UNL     1      -1.904  10.640  -8.349  1.00  0.00     0.002 A 
ATOM     79  C   UNL     1       0.101   9.443  -8.916  1.00  0.00     0.091 A 
ATOM     80  F   UNL     1       1.636   8.847  -7.215  1.00  0.00    -0.205 F 
ATOM     81  C   UNL     1      -1.070  10.098  -9.311  1.00  0.00     0.022 A 
BRANCH  79  82
ATOM     82  S   UNL     1       1.078   8.687 -10.228  1.00  0.00     0.127 S 
ATOM     83  O   UNL     1       0.051   8.026 -11.039  1.00  0.00    -0.237 OA
ATOM     84  O   UNL     1       1.700   9.844 -10.867  1.00  0.00    -0.237 OA
ATOM     85  O   UNL     1       1.988   7.762  -9.564  1.00  0.00    -0.744 OA
ENDBRANCH  79  82
ENDBRANCH  61  75
BRANCH  62  86
ATOM     86  C   UNL     1      -1.065   6.824   2.724  1.00  0.00     0.023 A 
ATOM     87  C   UNL     1      -1.789   5.781   3.352  1.00  0.00     0.012 A 
ATOM     88  C   UNL     1       0.336   6.730   2.650  1.00  0.00     0.148 A 
ATOM     89  C   UNL     1      -1.151   4.604   3.747  1.00  0.00     0.002 A 
ATOM     90  C   UNL     1       0.964   5.550   3.044  1.00  0.00     0.091 A 
ATOM     91  F   UNL     1       1.018   7.748   2.110  1.00  0.00    -0.205 F 
ATOM     92  C   UNL     1       0.219   4.472   3.552  1.00  0.00     0.022 A 
BRANCH  90  93
ATOM     93  S   UNL     1       2.725   5.292   2.783  1.00  0.00     0.127 S 
ATOM     94  O   UNL     1       3.271   5.666   4.083  1.00  0.00    -0.237 OA
ATOM     95  O   UNL     1       2.792   3.864   2.477  1.00  0.00    -0.237 OA
ATOM     96  O   UNL     1       3.065   6.158   1.664  1.00  0.00    -0.744 OA
ENDBRANCH  90  93
ENDBRANCH  62  86
BRANCH  74  97
ATOM     97  C   UNL     1      -0.269  13.107  -0.814  1.00  0.00     0.023 A 
ATOM     98  C   UNL     1       0.508  13.627   0.236  1.00  0.00     0.012 A 
ATOM     99  C   UNL     1      -0.272  13.857  -2.024  1.00  0.00     0.148 A 
ATOM    100  C   UNL     1       1.202  14.839   0.120  1.00  0.00     0.002 A 
ATOM    101  C   UNL     1       0.517  14.995  -2.174  1.00  0.00     0.091 A 
ATOM    102  F   UNL     1      -1.066  13.492  -3.040  1.00  0.00    -0.205 F 
ATOM    103  C   UNL     1       1.230  15.510  -1.093  1.00  0.00     0.022 A 
BRANCH 101 104
ATOM    104  S   UNL     1       0.772  15.738  -3.794  1.00  0.00     0.127 S 
ATOM    105  O   UNL     1      -0.254  16.778  -3.817  1.00  0.00    -0.237 OA
ATOM    106  O   UNL     1       2.144  16.240  -3.697  1.00  0.00    -0.237 OA
ATOM    107  O   UNL     1       0.605  14.643  -4.739  1.00  0.00    -0.744 OA
ENDBRANCH 101 104
ENDBRANCH  74  97
ENDBRANCH  48  49
ENDBRANCH  40  43
ENDBRANCH  38  39
ENDBRANCH  37  38
ENDBRANCH   1  37
TORSDOF 19
