REMARK SMILES CCc1ccsc1C(=O)N(CC(=O)NCCCCNC(=O)c1ccc(-c2c3nc(c(-c4cccc(S(=O)(=O)[O-])c4F)c4ccc([nH]4)c(-c4cccc(S(=O)(=O)[O-])c4F)c4nc(c(-c5cccc(S(=O)(=O)[O-])c5F)c5ccc2[nH]5)C=C4)C=C3)cc1)c1ccccc1N
REMARK SMILES IDX 16 1 15 2 14 3 12 4 13 5 11 7 10 8 8 9 9 10 7 11 3 12 4 13
REMARK SMILES IDX 5 14 6 15 2 16 1 17 85 18 86 19 90 20 87 21 89 22 88 23
REMARK SMILES IDX 91 24 17 27 18 28 19 29 20 30 21 32 22 33 23 34 84 35 24 36
REMARK SMILES IDX 83 37 25 38 26 39 27 40 77 41 28 42 82 43 76 44 78 45 29 46
REMARK SMILES IDX 81 47 75 48 74 49 30 51 62 52 42 53 61 54 43 55 46 56 60 57
REMARK SMILES IDX 79 58 44 59 45 60 59 62 80 63 47 64 31 65 32 66 40 67 33 68
REMARK SMILES IDX 35 69 41 70 34 71 36 72 37 73 38 74 39 75 63 76 64 77 72 78
REMARK SMILES IDX 65 79 67 80 73 81 66 82 68 83 69 84 70 85 71 86 48 87 49 88
REMARK SMILES IDX 57 89 50 90 52 91 58 92 51 93 53 94 54 95 55 96 56 97
REMARK H PARENT 14 6 91 25 91 26 19 31 78 50 46 61
REMARK Flexibility Score: inf
ROOT
ATOM      1  C   UNL     1      -0.155  -0.124   3.573  1.00  0.00     0.023 C 
ENDROOT
BRANCH   1   2
ATOM      2  C   UNL     1      -0.512  -0.237   2.097  1.00  0.00     0.116 C 
BRANCH   2   3
ATOM      3  N   UNL     1      -0.482   1.028   1.403  1.00  0.00    -0.355 N 
ATOM      4  C   UNL     1       0.458   1.554   0.573  1.00  0.00     0.240 C 
ATOM      5  O   UNL     1       0.134   2.568  -0.057  1.00  0.00    -0.273 OA
ATOM      6  H   UNL     1      -1.268   1.602   1.554  1.00  0.00     0.163 HD
BRANCH   4   7
ATOM      7  C   UNL     1       1.804   0.871   0.268  1.00  0.00     0.226 C 
BRANCH   7   8
ATOM      8  N   UNL     1       2.538   0.200   1.318  1.00  0.00    -0.296 N 
BRANCH   8   9
ATOM      9  C   UNL     1       2.629  -1.198   1.493  1.00  0.00     0.269 C 
ATOM     10  O   UNL     1       3.261  -1.547   2.507  1.00  0.00    -0.268 OA
BRANCH   9  11
ATOM     11  C   UNL     1       2.020  -2.303   0.637  1.00  0.00     0.096 A 
ATOM     12  C   UNL     1       1.060  -2.615  -0.369  1.00  0.00    -0.025 A 
ATOM     13  C   UNL     1       0.883  -4.078  -0.453  1.00  0.00     0.016 A 
ATOM     14  C   UNL     1       1.678  -4.826   0.358  1.00  0.00     0.066 A 
ATOM     15  S   UNL     1       2.783  -3.852   1.152  1.00  0.00    -0.138 S 
BRANCH  12  16
ATOM     16  C   UNL     1       0.021  -1.918  -1.256  1.00  0.00     0.034 C 
ATOM     17  C   UNL     1       0.227  -0.644  -2.029  1.00  0.00     0.009 C 
ENDBRANCH  12  16
ENDBRANCH   9  11
ENDBRANCH   8   9
BRANCH   8  18
ATOM     18  C   UNL     1       3.391   1.121   2.072  1.00  0.00     0.068 A 
ATOM     19  C   UNL     1       2.840   2.345   2.508  1.00  0.00     0.028 A 
ATOM     20  C   UNL     1       4.789   0.931   2.224  1.00  0.00     0.056 A 
ATOM     21  C   UNL     1       3.638   3.390   2.976  1.00  0.00     0.002 A 
ATOM     22  C   UNL     1       5.581   2.021   2.635  1.00  0.00     0.028 A 
ATOM     23  C   UNL     1       5.015   3.239   3.007  1.00  0.00     0.002 A 
BRANCH  20  24
ATOM     24  N   UNL     1       5.462  -0.220   1.784  1.00  0.00    -0.397 N 
ATOM     25  H   UNL     1       4.950  -1.007   1.488  1.00  0.00     0.156 HD
ATOM     26  H   UNL     1       6.446  -0.240   1.772  1.00  0.00     0.156 HD
ENDBRANCH  20  24
ENDBRANCH   8  18
ENDBRANCH   7   8
ENDBRANCH   4   7
ENDBRANCH   2   3
ENDBRANCH   1   2
BRANCH   1  27
ATOM     27  C   UNL     1      -1.247   0.522   4.425  1.00  0.00     0.023 C 
BRANCH  27  28
ATOM     28  C   UNL     1      -2.603  -0.172   4.369  1.00  0.00     0.116 C 
BRANCH  28  29
ATOM     29  N   UNL     1      -2.559  -1.560   4.812  1.00  0.00    -0.352 N 
ATOM     30  C   UNL     1      -3.446  -2.222   5.628  1.00  0.00     0.251 C 
ATOM     31  H   UNL     1      -1.796  -2.090   4.487  1.00  0.00     0.163 HD
ATOM     32  O   UNL     1      -3.207  -3.365   6.009  1.00  0.00    -0.269 OA
BRANCH  30  33
ATOM     33  C   UNL     1      -4.674  -1.529   6.070  1.00  0.00     0.039 A 
ATOM     34  C   UNL     1      -4.985  -1.509   7.431  1.00  0.00     0.014 A 
ATOM     35  C   UNL     1      -5.479  -0.851   5.150  1.00  0.00     0.014 A 
ATOM     36  C   UNL     1      -6.066  -0.747   7.878  1.00  0.00     0.010 A 
ATOM     37  C   UNL     1      -6.504  -0.029   5.607  1.00  0.00     0.010 A 
ATOM     38  C   UNL     1      -6.810   0.034   6.975  1.00  0.00    -0.014 A 
BRANCH  38  39
ATOM     39  C   UNL     1      -7.885   0.942   7.452  1.00  0.00     0.031 A 
ATOM     40  C   UNL     1      -9.306   0.748   6.995  1.00  0.00     0.074 A 
ATOM     41  C   UNL     1      -7.567   1.997   8.229  1.00  0.00     0.049 A 
ATOM     42  N   UNL     1     -10.366   1.461   7.279  1.00  0.00    -0.248 NA
ATOM     43  C   UNL     1      -9.570  -0.374   6.080  1.00  0.00     0.031 C 
ATOM     44  C   UNL     1      -6.213   2.353   8.662  1.00  0.00     0.029 A 
ATOM     45  N   UNL     1      -8.355   2.984   8.770  1.00  0.00    -0.354 N 
ATOM     46  C   UNL     1     -11.409   0.902   6.551  1.00  0.00     0.074 A 
ATOM     47  C   UNL     1     -10.851  -0.193   5.788  1.00  0.00     0.031 C 
ATOM     48  C   UNL     1      -6.265   3.472   9.401  1.00  0.00     0.029 A 
ATOM     49  C   UNL     1      -7.648   3.933   9.472  1.00  0.00     0.049 A 
ATOM     50  H   UNL     1      -9.333   3.009   8.666  1.00  0.00     0.167 HD
ATOM     51  C   UNL     1     -12.717   1.250   6.538  1.00  0.00     0.034 A 
ATOM     52  C   UNL     1      -8.062   5.056  10.092  1.00  0.00     0.034 A 
ATOM     53  C   UNL     1     -13.278   2.309   7.333  1.00  0.00     0.049 A 
ATOM     54  C   UNL     1      -9.531   5.385  10.106  1.00  0.00     0.074 A 
ATOM     55  C   UNL     1     -14.608   2.665   7.472  1.00  0.00     0.029 A 
ATOM     56  N   UNL     1     -12.544   3.192   8.108  1.00  0.00    -0.354 N 
ATOM     57  N   UNL     1     -10.528   4.732   9.561  1.00  0.00    -0.248 NA
ATOM     58  C   UNL     1      -9.937   6.584  10.854  1.00  0.00     0.031 C 
ATOM     59  C   UNL     1     -14.675   3.786   8.305  1.00  0.00     0.029 A 
ATOM     60  C   UNL     1     -13.391   4.104   8.715  1.00  0.00     0.049 A 
ATOM     61  H   UNL     1     -11.566   3.174   8.213  1.00  0.00     0.167 HD
ATOM     62  C   UNL     1     -11.679   5.420   9.925  1.00  0.00     0.074 A 
ATOM     63  C   UNL     1     -11.258   6.524  10.762  1.00  0.00     0.031 C 
ATOM     64  C   UNL     1     -12.967   5.171   9.584  1.00  0.00     0.034 A 
BRANCH  51  65
ATOM     65  C   UNL     1     -13.652   0.449   5.670  1.00  0.00     0.023 A 
ATOM     66  C   UNL     1     -13.988  -0.870   6.035  1.00  0.00     0.012 A 
ATOM     67  C   UNL     1     -14.264   1.032   4.542  1.00  0.00     0.148 A 
ATOM     68  C   UNL     1     -14.895  -1.608   5.276  1.00  0.00     0.002 A 
ATOM     69  C   UNL     1     -15.203   0.307   3.818  1.00  0.00     0.091 A 
ATOM     70  F   UNL     1     -13.917   2.280   4.200  1.00  0.00    -0.205 F 
ATOM     71  C   UNL     1     -15.511  -1.016   4.177  1.00  0.00     0.022 A 
BRANCH  69  72
ATOM     72  S   UNL     1     -16.114   1.005   2.437  1.00  0.00     0.127 S 
ATOM     73  O   UNL     1     -15.579   0.236   1.313  1.00  0.00    -0.237 OA
ATOM     74  O   UNL     1     -17.497   0.686   2.790  1.00  0.00    -0.237 OA
ATOM     75  O   UNL     1     -15.800   2.426   2.422  1.00  0.00    -0.744 OA
ENDBRANCH  69  72
ENDBRANCH  51  65
BRANCH  52  76
ATOM     76  C   UNL     1      -7.079   5.931  10.793  1.00  0.00     0.023 A 
ATOM     77  C   UNL     1      -7.101   6.020  12.198  1.00  0.00     0.012 A 
ATOM     78  C   UNL     1      -6.117   6.666  10.074  1.00  0.00     0.148 A 
ATOM     79  C   UNL     1      -6.212   6.858  12.872  1.00  0.00     0.002 A 
ATOM     80  C   UNL     1      -5.195   7.452  10.755  1.00  0.00     0.091 A 
ATOM     81  F   UNL     1      -6.119   6.578   8.736  1.00  0.00    -0.205 F 
ATOM     82  C   UNL     1      -5.253   7.566  12.152  1.00  0.00     0.022 A 
BRANCH  80  83
ATOM     83  S   UNL     1      -3.844   8.289   9.918  1.00  0.00     0.127 S 
ATOM     84  O   UNL     1      -4.262   9.686   9.998  1.00  0.00    -0.237 OA
ATOM     85  O   UNL     1      -2.701   7.938  10.762  1.00  0.00    -0.237 OA
ATOM     86  O   UNL     1      -3.798   7.715   8.580  1.00  0.00    -0.744 OA
ENDBRANCH  80  83
ENDBRANCH  52  76
BRANCH  64  87
ATOM     87  C   UNL     1     -14.028   6.085  10.141  1.00  0.00     0.023 A 
ATOM     88  C   UNL     1     -14.135   7.408   9.668  1.00  0.00     0.012 A 
ATOM     89  C   UNL     1     -14.958   5.612  11.087  1.00  0.00     0.148 A 
ATOM     90  C   UNL     1     -15.128   8.257  10.156  1.00  0.00     0.002 A 
ATOM     91  C   UNL     1     -15.977   6.447  11.529  1.00  0.00     0.091 A 
ATOM     92  F   UNL     1     -14.830   4.356  11.538  1.00  0.00    -0.205 F 
ATOM     93  C   UNL     1     -16.055   7.774  11.077  1.00  0.00     0.022 A 
BRANCH  91  94
ATOM     94  S   UNL     1     -17.273   5.881  12.637  1.00  0.00     0.127 S 
ATOM     95  O   UNL     1     -16.919   6.562  13.882  1.00  0.00    -0.237 OA
ATOM     96  O   UNL     1     -18.481   6.388  11.986  1.00  0.00    -0.237 OA
ATOM     97  O   UNL     1     -17.168   4.428  12.669  1.00  0.00    -0.744 OA
ENDBRANCH  91  94
ENDBRANCH  64  87
ENDBRANCH  38  39
ENDBRANCH  30  33
ENDBRANCH  28  29
ENDBRANCH  27  28
ENDBRANCH   1  27
TORSDOF 20
