REMARK SMILES CCC[NH2+][C@]1(C(=O)NCCCCNC(=O)c2ccc(-c3c4nc(c(-c5cccc(S(=O)(=O)[O-])c5F)c5ccc([nH]5)c(-c5cccc(S(=O)(=O)[O-])c5F)c5nc(c(-c6cccc(S(=O)(=O)[O-])c6F)c6ccc3[nH]6)C=C5)C=C4)cc2)CCC[C@H](n2ccc(C)n2)C1
REMARK SMILES IDX 10 1 9 2 8 3 6 4 7 5 5 7 79 8 89 9 80 10 82 11 81 12 4 13
REMARK SMILES IDX 3 16 2 17 1 18 83 19 84 20 88 21 85 22 86 23 87 24 11 25
REMARK SMILES IDX 12 26 13 27 14 28 15 30 16 31 17 32 78 33 18 34 77 35 19 36
REMARK SMILES IDX 20 37 21 38 71 39 22 40 76 41 70 42 72 43 23 44 75 45 69 46
REMARK SMILES IDX 68 47 24 49 56 50 36 51 55 52 37 53 40 54 54 55 73 56 38 57
REMARK SMILES IDX 39 58 53 60 74 61 41 62 25 63 26 64 34 65 27 66 29 67 35 68
REMARK SMILES IDX 28 69 30 70 31 71 32 72 33 73 57 74 58 75 66 76 59 77 61 78
REMARK SMILES IDX 67 79 60 80 62 81 63 82 64 83 65 84 42 85 43 86 51 87 44 88
REMARK SMILES IDX 46 89 52 90 45 91 47 92 48 93 49 94 50 95
REMARK H PARENT 8 6 4 14 4 15 13 29 72 48 40 59
REMARK Flexibility Score: inf
ROOT
ATOM      1  C   UNL     1      -1.996   4.043  -0.685  1.00  0.00     0.023 C 
ENDROOT
BRANCH   1   2
ATOM      2  C   UNL     1      -0.579   3.688  -0.243  1.00  0.00     0.116 C 
BRANCH   2   3
ATOM      3  N   UNL     1      -0.090   2.472  -0.859  1.00  0.00    -0.351 N 
ATOM      4  C   UNL     1       0.570   2.195  -2.011  1.00  0.00     0.281 C 
ATOM      5  O   UNL     1       0.862   0.999  -2.166  1.00  0.00    -0.268 OA
ATOM      6  H   UNL     1      -0.279   1.668  -0.323  1.00  0.00     0.163 HD
BRANCH   4   7
ATOM      7  C   UNL     1       0.926   3.232  -3.143  1.00  0.00     0.177 C 
ATOM      8  C   UNL     1       0.695   4.726  -2.869  1.00  0.00     0.079 C 
ATOM      9  C   UNL     1       2.459   3.029  -3.399  1.00  0.00     0.106 C 
ATOM     10  C   UNL     1       1.265   5.651  -3.945  1.00  0.00     0.009 C 
ATOM     11  C   UNL     1       3.095   3.969  -4.454  1.00  0.00     0.114 C 
ATOM     12  C   UNL     1       2.767   5.427  -4.083  1.00  0.00     0.028 C 
BRANCH   7  13
ATOM     13  N   UNL     1       0.221   2.836  -4.386  1.00  0.00    -0.334 N 
ATOM     14  H   UNL     1       0.439   3.534  -5.097  1.00  0.00     0.347 HD
ATOM     15  H   UNL     1       0.555   1.893  -4.585  1.00  0.00     0.347 HD
BRANCH  13  16
ATOM     16  C   UNL     1      -1.229   2.711  -4.327  1.00  0.00     0.261 C 
BRANCH  16  17
ATOM     17  C   UNL     1      -1.766   2.151  -5.652  1.00  0.00     0.058 C 
ATOM     18  C   UNL     1      -1.517   0.658  -5.821  1.00  0.00     0.010 C 
ENDBRANCH  16  17
ENDBRANCH  13  16
ENDBRANCH   7  13
BRANCH  11  19
ATOM     19  N   UNL     1       2.781   3.632  -5.846  1.00  0.00    -0.269 N 
ATOM     20  C   UNL     1       2.791   4.470  -6.930  1.00  0.00     0.109 A 
ATOM     21  N   UNL     1       2.528   2.352  -6.200  1.00  0.00    -0.178 NA
ATOM     22  C   UNL     1       2.302   3.740  -7.985  1.00  0.00     0.045 A 
ATOM     23  C   UNL     1       2.112   2.441  -7.469  1.00  0.00     0.059 A 
ATOM     24  C   UNL     1       1.533   1.268  -8.161  1.00  0.00     0.069 C 
ENDBRANCH  11  19
ENDBRANCH   4   7
ENDBRANCH   2   3
ENDBRANCH   1   2
BRANCH   1  25
ATOM     25  C   UNL     1      -3.102   3.419   0.168  1.00  0.00     0.023 C 
BRANCH  25  26
ATOM     26  C   UNL     1      -3.046   3.752   1.657  1.00  0.00     0.116 C 
BRANCH  26  27
ATOM     27  N   UNL     1      -2.962   5.178   1.944  1.00  0.00    -0.352 N 
ATOM     28  C   UNL     1      -3.327   5.819   3.110  1.00  0.00     0.251 C 
ATOM     29  H   UNL     1      -2.605   5.749   1.226  1.00  0.00     0.163 HD
ATOM     30  O   UNL     1      -3.271   7.034   3.208  1.00  0.00    -0.269 OA
BRANCH  28  31
ATOM     31  C   UNL     1      -3.835   4.990   4.221  1.00  0.00     0.039 A 
ATOM     32  C   UNL     1      -5.137   5.201   4.680  1.00  0.00     0.014 A 
ATOM     33  C   UNL     1      -3.060   3.939   4.715  1.00  0.00     0.014 A 
ATOM     34  C   UNL     1      -5.698   4.297   5.584  1.00  0.00     0.010 A 
ATOM     35  C   UNL     1      -3.641   3.009   5.566  1.00  0.00     0.010 A 
ATOM     36  C   UNL     1      -4.968   3.172   5.998  1.00  0.00    -0.014 A 
BRANCH  36  37
ATOM     37  C   UNL     1      -5.565   2.126   6.864  1.00  0.00     0.031 A 
ATOM     38  C   UNL     1      -4.987   1.873   8.227  1.00  0.00     0.074 A 
ATOM     39  C   UNL     1      -6.526   1.320   6.370  1.00  0.00     0.049 A 
ATOM     40  N   UNL     1      -5.256   0.912   9.070  1.00  0.00    -0.248 NA
ATOM     41  C   UNL     1      -3.944   2.805   8.688  1.00  0.00     0.031 C 
ATOM     42  C   UNL     1      -7.110   1.420   5.030  1.00  0.00     0.029 A 
ATOM     43  N   UNL     1      -7.150   0.230   6.922  1.00  0.00    -0.354 N 
ATOM     44  C   UNL     1      -4.381   1.090  10.135  1.00  0.00     0.074 A 
ATOM     45  C   UNL     1      -3.560   2.239   9.823  1.00  0.00     0.031 C 
ATOM     46  C   UNL     1      -8.000   0.428   4.863  1.00  0.00     0.029 A 
ATOM     47  C   UNL     1      -8.028  -0.396   6.067  1.00  0.00     0.049 A 
ATOM     48  H   UNL     1      -6.985  -0.076   7.844  1.00  0.00     0.167 HD
ATOM     49  C   UNL     1      -4.290   0.377  11.282  1.00  0.00     0.034 A 
ATOM     50  C   UNL     1      -8.763  -1.514   6.232  1.00  0.00     0.034 A 
ATOM     51  C   UNL     1      -5.155  -0.720  11.615  1.00  0.00     0.049 A 
ATOM     52  C   UNL     1      -8.690  -2.248   7.544  1.00  0.00     0.074 A 
ATOM     53  C   UNL     1      -5.210  -1.444  12.792  1.00  0.00     0.029 A 
ATOM     54  N   UNL     1      -6.120  -1.248  10.772  1.00  0.00    -0.354 N 
ATOM     55  N   UNL     1      -7.967  -1.971   8.602  1.00  0.00    -0.248 NA
ATOM     56  C   UNL     1      -9.556  -3.426   7.700  1.00  0.00     0.031 C 
ATOM     57  C   UNL     1      -6.209  -2.414  12.660  1.00  0.00     0.029 A 
ATOM     58  C   UNL     1      -6.779  -2.287  11.403  1.00  0.00     0.049 A 
ATOM     59  H   UNL     1      -6.308  -0.931   9.859  1.00  0.00     0.167 HD
ATOM     60  C   UNL     1      -8.318  -2.914   9.561  1.00  0.00     0.074 A 
ATOM     61  C   UNL     1      -9.328  -3.763   8.963  1.00  0.00     0.031 C 
ATOM     62  C   UNL     1      -7.835  -3.073  10.818  1.00  0.00     0.034 A 
BRANCH  49  63
ATOM     63  C   UNL     1      -3.261   0.809  12.291  1.00  0.00     0.023 A 
ATOM     64  C   UNL     1      -3.479   1.984  13.038  1.00  0.00     0.012 A 
ATOM     65  C   UNL     1      -2.111   0.034  12.537  1.00  0.00     0.148 A 
ATOM     66  C   UNL     1      -2.553   2.400  13.993  1.00  0.00     0.002 A 
ATOM     67  C   UNL     1      -1.212   0.434  13.519  1.00  0.00     0.091 A 
ATOM     68  F   UNL     1      -1.908  -1.065  11.797  1.00  0.00    -0.205 F 
ATOM     69  C   UNL     1      -1.426   1.621  14.240  1.00  0.00     0.022 A 
BRANCH  67  70
ATOM     70  S   UNL     1       0.231  -0.541  13.958  1.00  0.00     0.127 S 
ATOM     71  O   UNL     1       1.306   0.219  13.322  1.00  0.00    -0.237 OA
ATOM     72  O   UNL     1       0.220  -0.474  15.420  1.00  0.00    -0.237 OA
ATOM     73  O   UNL     1      -0.008  -1.871  13.413  1.00  0.00    -0.744 OA
ENDBRANCH  67  70
ENDBRANCH  49  63
BRANCH  50  74
ATOM     74  C   UNL     1      -9.691  -1.959   5.154  1.00  0.00     0.023 A 
ATOM     75  C   UNL     1     -11.079  -1.810   5.342  1.00  0.00     0.012 A 
ATOM     76  C   UNL     1      -9.216  -2.486   3.938  1.00  0.00     0.148 A 
ATOM     77  C   UNL     1     -11.979  -2.203   4.351  1.00  0.00     0.002 A 
ATOM     78  C   UNL     1     -10.116  -2.828   2.934  1.00  0.00     0.091 A 
ATOM     79  F   UNL     1      -7.893  -2.635   3.782  1.00  0.00    -0.205 F 
ATOM     80  C   UNL     1     -11.498  -2.701   3.143  1.00  0.00     0.022 A 
BRANCH  78  81
ATOM     81  S   UNL     1      -9.576  -3.353   1.302  1.00  0.00     0.127 S 
ATOM     82  O   UNL     1      -9.817  -4.792   1.355  1.00  0.00    -0.237 OA
ATOM     83  O   UNL     1     -10.480  -2.608   0.425  1.00  0.00    -0.237 OA
ATOM     84  O   UNL     1      -8.181  -2.941   1.207  1.00  0.00    -0.744 OA
ENDBRANCH  78  81
ENDBRANCH  50  74
BRANCH  62  85
ATOM     85  C   UNL     1      -8.413  -4.176  11.661  1.00  0.00     0.023 A 
ATOM     86  C   UNL     1      -8.018  -5.508  11.430  1.00  0.00     0.012 A 
ATOM     87  C   UNL     1      -9.252  -3.879  12.752  1.00  0.00     0.148 A 
ATOM     88  C   UNL     1      -8.461  -6.531  12.266  1.00  0.00     0.002 A 
ATOM     89  C   UNL     1      -9.656  -4.898  13.606  1.00  0.00     0.091 A 
ATOM     90  F   UNL     1      -9.630  -2.606  12.941  1.00  0.00    -0.205 F 
ATOM     91  C   UNL     1      -9.267  -6.225  13.361  1.00  0.00     0.022 A 
BRANCH  89  92
ATOM     92  S   UNL     1     -10.616  -4.585  15.092  1.00  0.00     0.127 S 
ATOM     93  O   UNL     1     -11.926  -5.117  14.718  1.00  0.00    -0.237 OA
ATOM     94  O   UNL     1      -9.902  -5.374  16.097  1.00  0.00    -0.237 OA
ATOM     95  O   UNL     1     -10.565  -3.145  15.307  1.00  0.00    -0.744 OA
ENDBRANCH  89  92
ENDBRANCH  62  85
ENDBRANCH  36  37
ENDBRANCH  28  31
ENDBRANCH  26  27
ENDBRANCH  25  26
ENDBRANCH   1  25
TORSDOF 18
