REMARK SMILES CC[C@@H](C(=O)NCCCCNC(=O)c1ccc(-c2c3nc(c(-c4cccc(S(=O)(=O)[O-])c4F)c4ccc([nH]4)c(-c4cccc(S(=O)(=O)[O-])c4F)c4nc(c(-c5cccc(S(=O)(=O)[O-])c5F)c5ccc2[nH]5)C=C4)C=C3)cc1)N1C(=O)/C(=C/C(C)=C/c2ccccc2)SC1=S
REMARK SMILES IDX 8 1 7 2 6 3 4 4 5 5 3 7 2 8 1 9 77 10 78 11 92 12 79 13
REMARK SMILES IDX 80 14 91 15 93 16 81 17 82 18 83 19 84 20 85 21 86 22 90 23
REMARK SMILES IDX 87 24 89 25 88 26 9 27 10 28 11 29 12 30 13 32 14 33 15 34
REMARK SMILES IDX 76 35 16 36 75 37 17 38 18 39 19 40 69 41 20 42 74 43 68 44
REMARK SMILES IDX 70 45 21 46 73 47 67 48 66 49 22 51 54 52 34 53 53 54 35 55
REMARK SMILES IDX 38 56 52 57 71 58 36 59 37 60 51 62 72 63 39 64 23 65 24 66
REMARK SMILES IDX 32 67 25 68 27 69 33 70 26 71 28 72 29 73 30 74 31 75 55 76
REMARK SMILES IDX 56 77 64 78 57 79 59 80 65 81 58 82 60 83 61 84 62 85 63 86
REMARK SMILES IDX 40 87 41 88 49 89 42 90 44 91 50 92 43 93 45 94 46 95 47 96
REMARK SMILES IDX 48 97
REMARK H PARENT 6 6 11 31 70 50 38 61
REMARK Flexibility Score: inf
ROOT
ATOM      1  C   UNL     1       0.859  -2.001  -0.977  1.00  0.00     0.023 C 
ENDROOT
BRANCH   1   2
ATOM      2  C   UNL     1       1.668  -0.901  -1.659  1.00  0.00     0.116 C 
BRANCH   2   3
ATOM      3  N   UNL     1       0.855  -0.119  -2.564  1.00  0.00    -0.354 N 
ATOM      4  C   UNL     1       0.478   1.188  -2.505  1.00  0.00     0.243 C 
ATOM      5  O   UNL     1      -0.060   1.649  -3.517  1.00  0.00    -0.273 OA
ATOM      6  H   UNL     1       0.521  -0.611  -3.348  1.00  0.00     0.163 HD
BRANCH   4   7
ATOM      7  C   UNL     1       0.769   2.062  -1.254  1.00  0.00     0.181 C 
BRANCH   7   8
ATOM      8  C   UNL     1      -0.050   1.733   0.013  1.00  0.00     0.032 C 
ATOM      9  C   UNL     1       0.676   0.907   1.067  1.00  0.00     0.006 C 
ENDBRANCH   7   8
BRANCH   7  10
ATOM     10  N   UNL     1       0.543   3.469  -1.677  1.00  0.00    -0.280 N 
ATOM     11  C   UNL     1      -0.761   3.912  -1.869  1.00  0.00     0.266 C 
ATOM     12  C   UNL     1       1.538   4.375  -1.968  1.00  0.00     0.149 C 
ATOM     13  O   UNL     1      -1.784   3.288  -1.618  1.00  0.00    -0.268 OA
ATOM     14  C   UNL     1      -0.771   5.320  -2.343  1.00  0.00     0.080 C 
ATOM     15  S   UNL     1       0.835   5.872  -2.569  1.00  0.00    -0.054 SA
ATOM     16  S   UNL     1       3.186   4.207  -1.757  1.00  0.00    -0.052 S 
ATOM     17  C   UNL     1      -1.932   5.977  -2.485  1.00  0.00     0.024 C 
BRANCH  17  18
ATOM     18  C   UNL     1      -2.184   7.370  -2.840  1.00  0.00    -0.049 C 
ATOM     19  C   UNL     1      -3.385   7.570  -3.731  1.00  0.00     0.044 C 
ATOM     20  C   UNL     1      -1.455   8.375  -2.318  1.00  0.00     0.011 C 
BRANCH  20  21
ATOM     21  C   UNL     1      -1.668   9.814  -2.497  1.00  0.00    -0.025 A 
ATOM     22  C   UNL     1      -0.628  10.599  -3.007  1.00  0.00     0.008 A 
ATOM     23  C   UNL     1      -2.844  10.432  -2.060  1.00  0.00     0.008 A 
ATOM     24  C   UNL     1      -0.763  11.987  -3.079  1.00  0.00     0.001 A 
ATOM     25  C   UNL     1      -2.978  11.820  -2.132  1.00  0.00     0.001 A 
ATOM     26  C   UNL     1      -1.936  12.597  -2.637  1.00  0.00     0.000 A 
ENDBRANCH  20  21
ENDBRANCH  17  18
ENDBRANCH   7  10
ENDBRANCH   4   7
ENDBRANCH   2   3
ENDBRANCH   1   2
BRANCH   1  27
ATOM     27  C   UNL     1       0.430  -3.151  -1.883  1.00  0.00     0.023 C 
BRANCH  27  28
ATOM     28  C   UNL     1       1.563  -3.893  -2.576  1.00  0.00     0.116 C 
BRANCH  28  29
ATOM     29  N   UNL     1       2.527  -4.479  -1.651  1.00  0.00    -0.352 N 
ATOM     30  C   UNL     1       3.076  -5.742  -1.688  1.00  0.00     0.251 C 
ATOM     31  H   UNL     1       2.820  -3.902  -0.909  1.00  0.00     0.163 HD
ATOM     32  O   UNL     1       3.809  -6.137  -0.787  1.00  0.00    -0.269 OA
BRANCH  30  33
ATOM     33  C   UNL     1       2.729  -6.623  -2.820  1.00  0.00     0.039 A 
ATOM     34  C   UNL     1       2.148  -7.867  -2.565  1.00  0.00     0.014 A 
ATOM     35  C   UNL     1       2.871  -6.153  -4.127  1.00  0.00     0.014 A 
ATOM     36  C   UNL     1       1.621  -8.607  -3.627  1.00  0.00     0.010 A 
ATOM     37  C   UNL     1       2.273  -6.851  -5.167  1.00  0.00     0.010 A 
ATOM     38  C   UNL     1       1.636  -8.080  -4.928  1.00  0.00    -0.014 A 
BRANCH  38  39
ATOM     39  C   UNL     1       0.993  -8.773  -6.073  1.00  0.00     0.031 A 
ATOM     40  C   UNL     1       1.833  -9.170  -7.255  1.00  0.00     0.074 A 
ATOM     41  C   UNL     1      -0.348  -8.906  -6.117  1.00  0.00     0.049 A 
ATOM     42  N   UNL     1       1.456  -9.593  -8.432  1.00  0.00    -0.248 NA
ATOM     43  C   UNL     1       3.292  -9.027  -7.107  1.00  0.00     0.031 C 
ATOM     44  C   UNL     1      -1.279  -8.491  -5.065  1.00  0.00     0.029 A 
ATOM     45  N   UNL     1      -1.165  -9.393  -7.108  1.00  0.00    -0.354 N 
ATOM     46  C   UNL     1       2.620  -9.702  -9.183  1.00  0.00     0.074 A 
ATOM     47  C   UNL     1       3.714  -9.280  -8.336  1.00  0.00     0.031 C 
ATOM     48  C   UNL     1      -2.537  -8.735  -5.468  1.00  0.00     0.029 A 
ATOM     49  C   UNL     1      -2.507  -9.290  -6.817  1.00  0.00     0.049 A 
ATOM     50  H   UNL     1      -0.824  -9.778  -7.947  1.00  0.00     0.167 HD
ATOM     51  C   UNL     1       2.770 -10.142 -10.454  1.00  0.00     0.034 A 
ATOM     52  C   UNL     1      -3.589  -9.597  -7.561  1.00  0.00     0.034 A 
ATOM     53  C   UNL     1       1.691 -10.642 -11.259  1.00  0.00     0.049 A 
ATOM     54  C   UNL     1      -3.389 -10.163  -8.942  1.00  0.00     0.074 A 
ATOM     55  C   UNL     1       1.750 -11.208 -12.519  1.00  0.00     0.029 A 
ATOM     56  N   UNL     1       0.359 -10.648 -10.877  1.00  0.00    -0.354 N 
ATOM     57  N   UNL     1      -2.269 -10.394  -9.582  1.00  0.00    -0.248 NA
ATOM     58  C   UNL     1      -4.597 -10.541  -9.691  1.00  0.00     0.031 C 
ATOM     59  C   UNL     1       0.451 -11.560 -12.899  1.00  0.00     0.029 A 
ATOM     60  C   UNL     1      -0.414 -11.216 -11.872  1.00  0.00     0.049 A 
ATOM     61  H   UNL     1       0.015 -10.299 -10.023  1.00  0.00     0.167 HD
ATOM     62  C   UNL     1      -2.633 -10.978 -10.790  1.00  0.00     0.074 A 
ATOM     63  C   UNL     1      -4.078 -11.079 -10.787  1.00  0.00     0.031 C 
ATOM     64  C   UNL     1      -1.844 -11.379 -11.816  1.00  0.00     0.034 A 
BRANCH  51  65
ATOM     65  C   UNL     1       4.162 -10.169 -11.023  1.00  0.00     0.023 A 
ATOM     66  C   UNL     1       5.077 -11.140 -10.566  1.00  0.00     0.012 A 
ATOM     67  C   UNL     1       4.554  -9.272 -12.035  1.00  0.00     0.148 A 
ATOM     68  C   UNL     1       6.371 -11.194 -11.080  1.00  0.00     0.002 A 
ATOM     69  C   UNL     1       5.833  -9.360 -12.573  1.00  0.00     0.091 A 
ATOM     70  F   UNL     1       3.680  -8.339 -12.439  1.00  0.00    -0.205 F 
ATOM     71  C   UNL     1       6.745 -10.312 -12.089  1.00  0.00     0.022 A 
BRANCH  69  72
ATOM     72  S   UNL     1       6.382  -8.316 -13.928  1.00  0.00     0.127 S 
ATOM     73  O   UNL     1       7.251  -7.365 -13.235  1.00  0.00    -0.237 OA
ATOM     74  O   UNL     1       7.085  -9.268 -14.789  1.00  0.00    -0.237 OA
ATOM     75  O   UNL     1       5.173  -7.754 -14.512  1.00  0.00    -0.744 OA
ENDBRANCH  69  72
ENDBRANCH  51  65
BRANCH  52  76
ATOM     76  C   UNL     1      -4.956  -9.451  -6.984  1.00  0.00     0.023 A 
ATOM     77  C   UNL     1      -5.681 -10.611  -6.645  1.00  0.00     0.012 A 
ATOM     78  C   UNL     1      -5.529  -8.188  -6.738  1.00  0.00     0.148 A 
ATOM     79  C   UNL     1      -6.961 -10.518  -6.097  1.00  0.00     0.002 A 
ATOM     80  C   UNL     1      -6.785  -8.102  -6.146  1.00  0.00     0.091 A 
ATOM     81  F   UNL     1      -4.833  -7.096  -7.081  1.00  0.00    -0.205 F 
ATOM     82  C   UNL     1      -7.509  -9.265  -5.838  1.00  0.00     0.022 A 
BRANCH  80  83
ATOM     83  S   UNL     1      -7.510  -6.531  -5.660  1.00  0.00     0.127 S 
ATOM     84  O   UNL     1      -8.517  -6.331  -6.698  1.00  0.00    -0.237 OA
ATOM     85  O   UNL     1      -8.046  -6.838  -4.333  1.00  0.00    -0.237 OA
ATOM     86  O   UNL     1      -6.404  -5.582  -5.651  1.00  0.00    -0.744 OA
ENDBRANCH  80  83
ENDBRANCH  52  76
BRANCH  64  87
ATOM     87  C   UNL     1      -2.505 -12.010 -13.011  1.00  0.00     0.023 A 
ATOM     88  C   UNL     1      -3.165 -11.196 -13.950  1.00  0.00     0.012 A 
ATOM     89  C   UNL     1      -2.366 -13.390 -13.260  1.00  0.00     0.148 A 
ATOM     90  C   UNL     1      -3.691 -11.750 -15.117  1.00  0.00     0.002 A 
ATOM     91  C   UNL     1      -2.854 -13.927 -14.444  1.00  0.00     0.091 A 
ATOM     92  F   UNL     1      -1.748 -14.146 -12.341  1.00  0.00    -0.205 F 
ATOM     93  C   UNL     1      -3.523 -13.110 -15.371  1.00  0.00     0.022 A 
BRANCH  91  94
ATOM     94  S   UNL     1      -2.601 -15.647 -14.898  1.00  0.00     0.127 S 
ATOM     95  O   UNL     1      -3.944 -16.200 -14.727  1.00  0.00    -0.237 OA
ATOM     96  O   UNL     1      -2.157 -15.540 -16.288  1.00  0.00    -0.237 OA
ATOM     97  O   UNL     1      -1.593 -16.159 -13.980  1.00  0.00    -0.744 OA
ENDBRANCH  91  94
ENDBRANCH  64  87
ENDBRANCH  38  39
ENDBRANCH  30  33
ENDBRANCH  28  29
ENDBRANCH  27  28
ENDBRANCH   1  27
TORSDOF 18
