REMARK SMILES Cc1ccc(-c2ccc(/C=C(\C#N)C3N=c4ccccc4=N3)o2)cc1C(=O)NCCCCNC(=O)c1ccc(-c2c3nc(c(-c4cccc(S(=O)(=O)[O-])c4F)c4ccc([nH]4)c(-c4cccc(S(=O)(=O)[O-])c4F)c4nc(c(-c5cccc(S(=O)(=O)[O-])c5F)c5ccc2[nH]5)C=C4)C=C3)cc1
REMARK SMILES IDX 30 1 29 2 28 3 26 4 27 5 25 7 1 8 2 9 3 10 4 11 24 12 5 13
REMARK SMILES IDX 6 14 7 15 23 16 8 17 9 18 10 19 11 20 12 21 13 22 14 23
REMARK SMILES IDX 15 24 22 25 16 26 21 27 17 28 20 29 18 30 19 31 31 32 32 33
REMARK SMILES IDX 33 34 34 35 35 37 36 38 37 39 98 40 38 41 97 42 39 43 40 44
REMARK SMILES IDX 41 45 91 46 42 47 96 48 90 49 92 50 43 51 95 52 89 53 88 54
REMARK SMILES IDX 44 56 76 57 56 58 75 59 57 60 60 61 74 62 93 63 58 64 59 65
REMARK SMILES IDX 73 67 94 68 61 69 45 70 46 71 54 72 47 73 49 74 55 75 48 76
REMARK SMILES IDX 50 77 51 78 52 79 53 80 77 81 78 82 86 83 79 84 81 85 87 86
REMARK SMILES IDX 80 87 82 88 83 89 84 90 85 91 62 92 63 93 71 94 64 95 66 96
REMARK SMILES IDX 72 97 65 98 67 99 68 100 69 101 70 102
REMARK H PARENT 28 6 33 36 92 55 60 66
REMARK Flexibility Score: inf
ROOT
ATOM      1  C   UNL     1       3.968   1.400  -1.291  1.00  0.00     0.023 C 
ENDROOT
BRANCH   1   2
ATOM      2  C   UNL     1       3.438   1.747   0.105  1.00  0.00     0.116 C 
BRANCH   2   3
ATOM      3  N   UNL     1       2.226   2.511  -0.013  1.00  0.00    -0.352 N 
ATOM      4  C   UNL     1       0.918   2.196  -0.246  1.00  0.00     0.251 C 
ATOM      5  O   UNL     1       0.221   3.183  -0.520  1.00  0.00    -0.269 OA
ATOM      6  H   UNL     1       2.371   3.478   0.099  1.00  0.00     0.163 HD
BRANCH   4   7
ATOM      7  C   UNL     1       0.234   0.846  -0.140  1.00  0.00     0.043 A 
ATOM      8  C   UNL     1       2.043  -0.987  -0.636  1.00  0.00     0.045 C 
ATOM      9  C   UNL     1       0.700  -0.490  -0.199  1.00  0.00    -0.038 A 
ATOM     10  C   UNL     1      -0.199  -1.554   0.062  1.00  0.00     0.005 A 
ATOM     11  C   UNL     1      -1.561  -1.348   0.192  1.00  0.00     0.012 A 
ATOM     12  C   UNL     1      -1.172   1.009  -0.021  1.00  0.00     0.026 A 
ATOM     13  C   UNL     1      -2.063  -0.064   0.074  1.00  0.00     0.018 A 
BRANCH  13  14
ATOM     14  C   UNL     1      -3.487   0.139  -0.050  1.00  0.00     0.134 A 
ATOM     15  C   UNL     1      -4.284   0.762  -0.980  1.00  0.00     0.051 A 
ATOM     16  O   UNL     1      -4.249  -0.461   0.891  1.00  0.00    -0.457 OA
ATOM     17  C   UNL     1      -5.615   0.502  -0.577  1.00  0.00     0.051 A 
ATOM     18  C   UNL     1      -5.569  -0.238   0.600  1.00  0.00     0.128 A 
BRANCH  18  19
ATOM     19  C   UNL     1      -6.649  -0.710   1.393  1.00  0.00     0.066 C 
ATOM     20  C   UNL     1      -6.517  -1.425   2.529  1.00  0.00     0.080 C 
BRANCH  20  21
ATOM     21  C   UNL     1      -5.251  -1.823   3.079  1.00  0.00     0.099 C 
ATOM     22  N   UNL     1      -4.273  -2.197   3.562  1.00  0.00    -0.193 NA
ENDBRANCH  20  21
BRANCH  20  23
ATOM     23  C   UNL     1      -7.748  -1.867   3.280  1.00  0.00     0.263 C 
ATOM     24  N   UNL     1      -7.895  -3.345   3.191  1.00  0.00    -0.251 NA
ATOM     25  N   UNL     1      -7.698  -1.427   4.699  1.00  0.00    -0.251 NA
ATOM     26  C   UNL     1      -7.883  -3.700   4.429  1.00  0.00     0.086 A 
ATOM     27  C   UNL     1      -7.765  -2.541   5.341  1.00  0.00     0.086 A 
ATOM     28  C   UNL     1      -7.982  -5.051   4.987  1.00  0.00     0.030 A 
ATOM     29  C   UNL     1      -7.755  -2.764   6.789  1.00  0.00     0.030 A 
ATOM     30  C   UNL     1      -7.973  -5.167   6.322  1.00  0.00     0.002 A 
ATOM     31  C   UNL     1      -7.862  -4.031   7.217  1.00  0.00     0.002 A 
ENDBRANCH  20  23
ENDBRANCH  18  19
ENDBRANCH  13  14
ENDBRANCH   4   7
ENDBRANCH   2   3
ENDBRANCH   1   2
BRANCH   1  32
ATOM     32  C   UNL     1       4.708   2.490  -2.073  1.00  0.00     0.023 C 
BRANCH  32  33
ATOM     33  C   UNL     1       6.056   2.863  -1.508  1.00  0.00     0.116 C 
BRANCH  33  34
ATOM     34  N   UNL     1       6.952   1.707  -1.469  1.00  0.00    -0.352 N 
ATOM     35  C   UNL     1       8.238   1.658  -0.968  1.00  0.00     0.251 C 
ATOM     36  H   UNL     1       6.597   0.868  -1.842  1.00  0.00     0.163 HD
ATOM     37  O   UNL     1       9.069   0.954  -1.526  1.00  0.00    -0.269 OA
BRANCH  35  38
ATOM     38  C   UNL     1       8.506   2.348   0.306  1.00  0.00     0.039 A 
ATOM     39  C   UNL     1       9.772   2.403   0.891  1.00  0.00     0.014 A 
ATOM     40  C   UNL     1       7.389   2.680   1.060  1.00  0.00     0.014 A 
ATOM     41  C   UNL     1       9.829   2.518   2.275  1.00  0.00     0.010 A 
ATOM     42  C   UNL     1       7.500   3.204   2.289  1.00  0.00     0.010 A 
ATOM     43  C   UNL     1       8.642   2.782   2.939  1.00  0.00    -0.014 A 
BRANCH  43  44
ATOM     44  C   UNL     1       8.346   2.595   4.337  1.00  0.00     0.031 A 
ATOM     45  C   UNL     1       8.603   3.771   5.160  1.00  0.00     0.074 A 
ATOM     46  C   UNL     1       7.389   1.652   4.548  1.00  0.00     0.049 A 
ATOM     47  N   UNL     1       8.440   3.820   6.426  1.00  0.00    -0.248 NA
ATOM     48  C   UNL     1       9.115   5.020   4.588  1.00  0.00     0.031 C 
ATOM     49  C   UNL     1       6.222   1.702   5.423  1.00  0.00     0.029 A 
ATOM     50  N   UNL     1       7.220   0.434   3.891  1.00  0.00    -0.354 N 
ATOM     51  C   UNL     1       8.414   5.162   6.744  1.00  0.00     0.074 A 
ATOM     52  C   UNL     1       9.069   5.823   5.650  1.00  0.00     0.031 C 
ATOM     53  C   UNL     1       5.631   0.489   5.448  1.00  0.00     0.029 A 
ATOM     54  C   UNL     1       6.479  -0.431   4.702  1.00  0.00     0.049 A 
ATOM     55  H   UNL     1       7.569   0.216   2.996  1.00  0.00     0.167 HD
ATOM     56  C   UNL     1       7.611   5.552   7.769  1.00  0.00     0.034 A 
ATOM     57  C   UNL     1       7.129  -1.504   5.259  1.00  0.00     0.034 A 
ATOM     58  C   UNL     1       6.981   4.356   8.376  1.00  0.00     0.049 A 
ATOM     59  C   UNL     1       7.474  -1.257   6.722  1.00  0.00     0.074 A 
ATOM     60  C   UNL     1       5.711   3.811   8.282  1.00  0.00     0.029 A 
ATOM     61  N   UNL     1       7.796   3.345   8.884  1.00  0.00    -0.354 N 
ATOM     62  N   UNL     1       7.303  -0.113   7.328  1.00  0.00    -0.248 NA
ATOM     63  C   UNL     1       7.986  -2.277   7.632  1.00  0.00     0.031 C 
ATOM     64  C   UNL     1       5.801   2.429   8.631  1.00  0.00     0.029 A 
ATOM     65  C   UNL     1       7.115   2.138   8.962  1.00  0.00     0.049 A 
ATOM     66  H   UNL     1       8.735   3.471   9.152  1.00  0.00     0.167 HD
ATOM     67  C   UNL     1       7.749  -0.174   8.614  1.00  0.00     0.074 A 
ATOM     68  C   UNL     1       8.111  -1.575   8.774  1.00  0.00     0.031 C 
ATOM     69  C   UNL     1       7.810   0.933   9.422  1.00  0.00     0.034 A 
BRANCH  56  70
ATOM     70  C   UNL     1       7.146   6.972   8.070  1.00  0.00     0.023 A 
ATOM     71  C   UNL     1       6.178   7.102   9.090  1.00  0.00     0.012 A 
ATOM     72  C   UNL     1       7.530   8.183   7.437  1.00  0.00     0.148 A 
ATOM     73  C   UNL     1       5.598   8.327   9.434  1.00  0.00     0.002 A 
ATOM     74  C   UNL     1       6.959   9.413   7.785  1.00  0.00     0.091 A 
ATOM     75  F   UNL     1       8.457   8.189   6.483  1.00  0.00    -0.205 F 
ATOM     76  C   UNL     1       5.984   9.485   8.778  1.00  0.00     0.022 A 
BRANCH  74  77
ATOM     77  S   UNL     1       7.420  10.971   6.993  1.00  0.00     0.127 S 
ATOM     78  O   UNL     1       6.137  11.435   6.461  1.00  0.00    -0.237 OA
ATOM     79  O   UNL     1       7.928  11.753   8.120  1.00  0.00    -0.237 OA
ATOM     80  O   UNL     1       8.412  10.648   5.975  1.00  0.00    -0.744 OA
ENDBRANCH  74  77
ENDBRANCH  56  70
BRANCH  57  81
ATOM     81  C   UNL     1       7.993  -2.192   4.236  1.00  0.00     0.023 A 
ATOM     82  C   UNL     1       7.303  -2.805   3.157  1.00  0.00     0.012 A 
ATOM     83  C   UNL     1       9.322  -1.777   4.037  1.00  0.00     0.148 A 
ATOM     84  C   UNL     1       7.845  -2.805   1.869  1.00  0.00     0.002 A 
ATOM     85  C   UNL     1       9.846  -1.756   2.744  1.00  0.00     0.091 A 
ATOM     86  F   UNL     1      10.015  -1.325   5.090  1.00  0.00    -0.205 F 
ATOM     87  C   UNL     1       9.091  -2.226   1.655  1.00  0.00     0.022 A 
BRANCH  85  88
ATOM     88  S   UNL     1      11.416  -0.959   2.377  1.00  0.00     0.127 S 
ATOM     89  O   UNL     1      12.316  -2.105   2.272  1.00  0.00    -0.237 OA
ATOM     90  O   UNL     1      11.146  -0.289   1.108  1.00  0.00    -0.237 OA
ATOM     91  O   UNL     1      11.664  -0.056   3.491  1.00  0.00    -0.744 OA
ENDBRANCH  85  88
ENDBRANCH  57  81
BRANCH  69  92
ATOM     92  C   UNL     1       8.538   0.986  10.751  1.00  0.00     0.023 A 
ATOM     93  C   UNL     1       9.553   0.073  11.091  1.00  0.00     0.012 A 
ATOM     94  C   UNL     1       8.326   2.065  11.650  1.00  0.00     0.148 A 
ATOM     95  C   UNL     1      10.256   0.168  12.296  1.00  0.00     0.002 A 
ATOM     96  C   UNL     1       9.131   2.238  12.767  1.00  0.00     0.091 A 
ATOM     97  F   UNL     1       7.319   2.926  11.444  1.00  0.00    -0.205 F 
ATOM     98  C   UNL     1      10.065   1.265  13.122  1.00  0.00     0.022 A 
BRANCH  96  99
ATOM     99  S   UNL     1       9.121   3.780  13.690  1.00  0.00     0.127 S 
ATOM    100  O   UNL     1       8.282   3.438  14.836  1.00  0.00    -0.237 OA
ATOM    101  O   UNL     1      10.540   3.961  14.004  1.00  0.00    -0.237 OA
ATOM    102  O   UNL     1       8.582   4.777  12.775  1.00  0.00    -0.744 OA
ENDBRANCH  96  99
ENDBRANCH  69  92
ENDBRANCH  43  44
ENDBRANCH  35  38
ENDBRANCH  33  34
ENDBRANCH  32  33
ENDBRANCH   1  32
TORSDOF 18
