REMARK SMILES C/C=C(\C)[C@H]1C(C)=C[C@H]2CC[C@@H](OS(=O)(=O)[O-])[C@@H](C)[C@H]2[C@H]1/C=C/C=C/C(=O)NCCCCNC(=O)c1ccc(-c2c3nc(c(-c4cccc(S(=O)(=O)[O-])c4F)c4ccc([nH]4)c(-c4cccc(S(=O)(=O)[O-])c4F)c4nc(c(-c5cccc(S(=O)(=O)[O-])c5F)c5ccc2[nH]5)C=C4)C=C3)cc1
REMARK SMILES IDX 30 1 29 2 28 3 26 4 27 5 25 7 24 8 23 9 22 10 21 11 5 12
REMARK SMILES IDX 6 13 7 14 8 15 20 16 9 17 18 18 10 19 12 20 19 21 11 22 3 23
REMARK SMILES IDX 1 24 2 25 4 26 13 27 14 28 15 29 16 30 17 31 31 32 32 33
REMARK SMILES IDX 33 34 34 35 35 37 36 38 37 39 98 40 38 41 97 42 39 43 40 44
REMARK SMILES IDX 41 45 91 46 42 47 96 48 90 49 92 50 43 51 95 52 89 53 88 54
REMARK SMILES IDX 44 56 76 57 56 58 75 59 57 60 60 61 74 62 93 63 58 64 59 65
REMARK SMILES IDX 73 67 94 68 61 69 45 70 46 71 54 72 47 73 49 74 55 75 48 76
REMARK SMILES IDX 50 77 51 78 52 79 53 80 77 81 78 82 86 83 79 84 81 85 87 86
REMARK SMILES IDX 80 87 82 88 83 89 84 90 85 91 62 92 63 93 71 94 64 95 66 96
REMARK SMILES IDX 72 97 65 98 67 99 68 100 69 101 70 102
REMARK H PARENT 28 6 33 36 92 55 60 66
REMARK Flexibility Score: inf
ROOT
ATOM      1  C   UNL     1      -0.099   2.719   1.929  1.00  0.00     0.023 C 
ENDROOT
BRANCH   1   2
ATOM      2  C   UNL     1      -0.924   3.665   1.050  1.00  0.00     0.116 C 
BRANCH   2   3
ATOM      3  N   UNL     1      -0.090   4.728   0.508  1.00  0.00    -0.353 N 
ATOM      4  C   UNL     1       0.405   4.997  -0.730  1.00  0.00     0.243 C 
ATOM      5  O   UNL     1       1.055   6.030  -0.893  1.00  0.00    -0.270 OA
ATOM      6  H   UNL     1       0.173   5.396   1.183  1.00  0.00     0.163 HD
BRANCH   4   7
ATOM      7  C   UNL     1       0.141   4.147  -1.920  1.00  0.00     0.071 C 
ATOM      8  C   UNL     1      -0.089   2.834  -1.883  1.00  0.00     0.005 C 
BRANCH   8   9
ATOM      9  C   UNL     1      -0.391   1.962  -2.996  1.00  0.00    -0.004 C 
ATOM     10  C   UNL     1      -1.065   0.838  -2.712  1.00  0.00    -0.022 C 
BRANCH  10  11
ATOM     11  C   UNL     1      -1.306  -0.379  -3.572  1.00  0.00     0.027 C 
ATOM     12  C   UNL     1      -0.678  -1.731  -2.976  1.00  0.00     0.047 C 
ATOM     13  C   UNL     1      -1.507  -2.987  -3.271  1.00  0.00    -0.069 C 
ATOM     14  C   UNL     1      -1.049  -4.315  -2.724  1.00  0.00     0.040 C 
ATOM     15  C   UNL     1      -2.570  -2.968  -4.099  1.00  0.00    -0.024 C 
ATOM     16  C   UNL     1      -2.804  -0.451  -3.998  1.00  0.00     0.009 C 
ATOM     17  C   UNL     1      -3.064  -1.740  -4.808  1.00  0.00     0.016 C 
ATOM     18  C   UNL     1      -3.885  -0.155  -2.903  1.00  0.00     0.021 C 
ATOM     19  C   UNL     1      -4.531  -1.863  -5.259  1.00  0.00     0.011 C 
ATOM     20  C   UNL     1      -5.297  -0.230  -3.524  1.00  0.00     0.141 C 
ATOM     21  C   UNL     1      -3.793  -0.992  -1.623  1.00  0.00     0.011 C 
ATOM     22  C   UNL     1      -5.543  -1.598  -4.153  1.00  0.00     0.034 C 
BRANCH  12  23
ATOM     23  C   UNL     1      -0.090  -1.605  -1.538  1.00  0.00    -0.070 C 
ATOM     24  C   UNL     1       1.616  -0.399  -0.046  1.00  0.00     0.035 C 
ATOM     25  C   UNL     1       0.992  -0.813  -1.341  1.00  0.00    -0.031 C 
ATOM     26  C   UNL     1      -0.747  -2.303  -0.377  1.00  0.00     0.040 C 
ENDBRANCH  12  23
BRANCH  20  27
ATOM     27  O   UNL     1      -6.271   0.012  -2.518  1.00  0.00    -0.276 OA
BRANCH  27  28
ATOM     28  S   UNL     1      -7.547   0.945  -2.870  1.00  0.00     0.217 S 
ATOM     29  O   UNL     1      -7.083   2.273  -3.209  1.00  0.00    -0.213 OA
ATOM     30  O   UNL     1      -8.432   0.217  -3.746  1.00  0.00    -0.213 OA
ATOM     31  O   UNL     1      -8.299   1.075  -1.454  1.00  0.00    -0.726 OA
ENDBRANCH  27  28
ENDBRANCH  20  27
ENDBRANCH  10  11
ENDBRANCH   8   9
ENDBRANCH   4   7
ENDBRANCH   2   3
ENDBRANCH   1   2
BRANCH   1  32
ATOM     32  C   UNL     1       0.141   3.235   3.351  1.00  0.00     0.023 C 
BRANCH  32  33
ATOM     33  C   UNL     1      -1.122   3.481   4.171  1.00  0.00     0.116 C 
BRANCH  33  34
ATOM     34  N   UNL     1      -1.965   2.301   4.300  1.00  0.00    -0.352 N 
ATOM     35  C   UNL     1      -2.724   1.908   5.377  1.00  0.00     0.251 C 
ATOM     36  H   UNL     1      -1.996   1.708   3.515  1.00  0.00     0.163 HD
ATOM     37  O   UNL     1      -3.286   0.817   5.368  1.00  0.00    -0.269 OA
BRANCH  35  38
ATOM     38  C   UNL     1      -2.827   2.794   6.556  1.00  0.00     0.039 A 
ATOM     39  C   UNL     1      -2.648   2.247   7.828  1.00  0.00     0.014 A 
ATOM     40  C   UNL     1      -3.064   4.163   6.405  1.00  0.00     0.014 A 
ATOM     41  C   UNL     1      -2.649   3.086   8.944  1.00  0.00     0.010 A 
ATOM     42  C   UNL     1      -2.974   5.007   7.508  1.00  0.00     0.010 A 
ATOM     43  C   UNL     1      -2.777   4.478   8.791  1.00  0.00    -0.014 A 
BRANCH  43  44
ATOM     44  C   UNL     1      -2.700   5.383   9.967  1.00  0.00     0.031 A 
ATOM     45  C   UNL     1      -3.873   6.250  10.343  1.00  0.00     0.074 A 
ATOM     46  C   UNL     1      -1.552   5.461  10.670  1.00  0.00     0.049 A 
ATOM     47  N   UNL     1      -3.992   7.082  11.345  1.00  0.00    -0.248 NA
ATOM     48  C   UNL     1      -5.057   6.195   9.469  1.00  0.00     0.031 C 
ATOM     49  C   UNL     1      -0.316   4.739  10.355  1.00  0.00     0.029 A 
ATOM     50  N   UNL     1      -1.231   6.190  11.787  1.00  0.00    -0.354 N 
ATOM     51  C   UNL     1      -5.247   7.664  11.209  1.00  0.00     0.074 A 
ATOM     52  C   UNL     1      -5.832   7.128  10.001  1.00  0.00     0.031 C 
ATOM     53  C   UNL     1       0.617   5.041  11.272  1.00  0.00     0.029 A 
ATOM     54  C   UNL     1       0.061   6.000  12.220  1.00  0.00     0.049 A 
ATOM     55  H   UNL     1      -1.867   6.793  12.237  1.00  0.00     0.167 HD
ATOM     56  C   UNL     1      -5.874   8.537  12.033  1.00  0.00     0.034 A 
ATOM     57  C   UNL     1       0.722   6.537  13.263  1.00  0.00     0.034 A 
ATOM     58  C   UNL     1      -5.300   9.048  13.249  1.00  0.00     0.049 A 
ATOM     59  C   UNL     1      -0.006   7.486  14.177  1.00  0.00     0.074 A 
ATOM     60  C   UNL     1      -5.879   9.880  14.190  1.00  0.00     0.029 A 
ATOM     61  N   UNL     1      -4.011   8.785  13.687  1.00  0.00    -0.354 N 
ATOM     62  N   UNL     1      -1.248   7.901  14.117  1.00  0.00    -0.248 NA
ATOM     63  C   UNL     1       0.747   8.010  15.325  1.00  0.00     0.031 C 
ATOM     64  C   UNL     1      -4.928  10.148  15.180  1.00  0.00     0.029 A 
ATOM     65  C   UNL     1      -3.772   9.447  14.879  1.00  0.00     0.049 A 
ATOM     66  H   UNL     1      -3.362   8.212  13.219  1.00  0.00     0.167 HD
ATOM     67  C   UNL     1      -1.437   8.700  15.239  1.00  0.00     0.074 A 
ATOM     68  C   UNL     1      -0.189   8.689  15.973  1.00  0.00     0.031 C 
ATOM     69  C   UNL     1      -2.540   9.389  15.623  1.00  0.00     0.034 A 
BRANCH  56  70
ATOM     70  C   UNL     1      -7.276   8.959  11.672  1.00  0.00     0.023 A 
ATOM     71  C   UNL     1      -8.329   8.024  11.757  1.00  0.00     0.012 A 
ATOM     72  C   UNL     1      -7.564  10.288  11.306  1.00  0.00     0.148 A 
ATOM     73  C   UNL     1      -9.637   8.393  11.447  1.00  0.00     0.002 A 
ATOM     74  C   UNL     1      -8.877  10.662  11.046  1.00  0.00     0.091 A 
ATOM     75  F   UNL     1      -6.549  11.159  11.212  1.00  0.00    -0.205 F 
ATOM     76  C   UNL     1      -9.912   9.713  11.103  1.00  0.00     0.022 A 
BRANCH  74  77
ATOM     77  S   UNL     1      -9.352  12.354  10.675  1.00  0.00     0.127 S 
ATOM     78  O   UNL     1      -9.772  12.242   9.279  1.00  0.00    -0.237 OA
ATOM     79  O   UNL     1     -10.443  12.580  11.623  1.00  0.00    -0.237 OA
ATOM     80  O   UNL     1      -8.165  13.165  10.905  1.00  0.00    -0.744 OA
ENDBRANCH  74  77
ENDBRANCH  56  70
BRANCH  57  81
ATOM     81  C   UNL     1       2.134   6.145  13.542  1.00  0.00     0.023 A 
ATOM     82  C   UNL     1       2.431   5.392  14.696  1.00  0.00     0.012 A 
ATOM     83  C   UNL     1       3.179   6.510  12.674  1.00  0.00     0.148 A 
ATOM     84  C   UNL     1       3.749   5.049  15.002  1.00  0.00     0.002 A 
ATOM     85  C   UNL     1       4.482   6.115  12.954  1.00  0.00     0.091 A 
ATOM     86  F   UNL     1       2.878   7.233  11.586  1.00  0.00    -0.205 F 
ATOM     87  C   UNL     1       4.772   5.403  14.128  1.00  0.00     0.022 A 
BRANCH  85  88
ATOM     88  S   UNL     1       5.843   6.414  11.822  1.00  0.00     0.127 S 
ATOM     89  O   UNL     1       6.629   7.404  12.553  1.00  0.00    -0.237 OA
ATOM     90  O   UNL     1       6.454   5.087  11.729  1.00  0.00    -0.237 OA
ATOM     91  O   UNL     1       5.231   6.880  10.585  1.00  0.00    -0.744 OA
ENDBRANCH  85  88
ENDBRANCH  57  81
BRANCH  69  92
ATOM     92  C   UNL     1      -2.467  10.152  16.921  1.00  0.00     0.023 A 
ATOM     93  C   UNL     1      -1.662  11.305  17.021  1.00  0.00     0.012 A 
ATOM     94  C   UNL     1      -3.241   9.752  18.029  1.00  0.00     0.148 A 
ATOM     95  C   UNL     1      -1.592  12.019  18.217  1.00  0.00     0.002 A 
ATOM     96  C   UNL     1      -3.210  10.501  19.198  1.00  0.00     0.091 A 
ATOM     97  F   UNL     1      -3.988   8.644  17.920  1.00  0.00    -0.205 F 
ATOM     98  C   UNL     1      -2.373  11.623  19.301  1.00  0.00     0.022 A 
BRANCH  96  99
ATOM     99  S   UNL     1      -4.257  10.127  20.608  1.00  0.00     0.127 S 
ATOM    100  O   UNL     1      -3.286   9.613  21.573  1.00  0.00    -0.237 OA
ATOM    101  O   UNL     1      -4.810  11.440  20.940  1.00  0.00    -0.237 OA
ATOM    102  O   UNL     1      -5.239   9.160  20.135  1.00  0.00    -0.744 OA
ENDBRANCH  96  99
ENDBRANCH  69  92
ENDBRANCH  43  44
ENDBRANCH  35  38
ENDBRANCH  33  34
ENDBRANCH  32  33
ENDBRANCH   1  32
TORSDOF 19
