REMARK SMILES CC[C@H](Oc1c(C)cc(Br)cc1N)C(=O)NCCCCNC(=O)c1ccc(-c2c3nc(c(-c4cccc(S(=O)(=O)[O-])c4F)c4ccc([nH]4)c(-c4cccc(S(=O)(=O)[O-])c4F)c4nc(c(-c5cccc(S(=O)(=O)[O-])c5F)c5ccc2[nH]5)C=C4)C=C3)cc1
REMARK SMILES IDX 18 1 17 2 16 3 14 4 15 5 3 7 2 8 1 9 4 10 5 11 6 12 12 13
REMARK SMILES IDX 7 14 8 15 11 16 9 17 10 18 13 19 19 22 20 23 21 24 22 25
REMARK SMILES IDX 23 27 24 28 25 29 86 30 26 31 85 32 27 33 28 34 29 35 79 36
REMARK SMILES IDX 30 37 84 38 78 39 80 40 31 41 83 42 77 43 76 44 32 46 64 47
REMARK SMILES IDX 44 48 63 49 45 50 48 51 62 52 81 53 46 54 47 55 61 57 82 58
REMARK SMILES IDX 49 59 33 60 34 61 42 62 35 63 37 64 43 65 36 66 38 67 39 68
REMARK SMILES IDX 40 69 41 70 65 71 66 72 74 73 67 74 69 75 75 76 68 77 70 78
REMARK SMILES IDX 71 79 72 80 73 81 50 82 51 83 59 84 52 85 54 86 60 87 53 88
REMARK SMILES IDX 55 89 56 90 57 91 58 92
REMARK H PARENT 16 6 13 20 13 21 21 26 80 45 48 56
REMARK Flexibility Score: inf
ROOT
ATOM      1  C   UNL     1      -2.607   2.538   1.016  1.00  0.00     0.023 C 
ENDROOT
BRANCH   1   2
ATOM      2  C   UNL     1      -1.758   3.408   0.087  1.00  0.00     0.116 C 
BRANCH   2   3
ATOM      3  N   UNL     1      -0.542   3.826   0.764  1.00  0.00    -0.353 N 
ATOM      4  C   UNL     1       0.690   3.226   0.766  1.00  0.00     0.261 C 
ATOM      5  O   UNL     1       1.542   3.646   1.553  1.00  0.00    -0.271 OA
ATOM      6  H   UNL     1      -0.613   4.653   1.294  1.00  0.00     0.163 HD
BRANCH   4   7
ATOM      7  C   UNL     1       1.043   2.149  -0.282  1.00  0.00     0.261 C 
BRANCH   7   8
ATOM      8  C   UNL     1       1.342   2.914  -1.587  1.00  0.00     0.052 C 
ATOM      9  C   UNL     1       2.656   2.494  -2.227  1.00  0.00     0.008 C 
ENDBRANCH   7   8
BRANCH   7  10
ATOM     10  O   UNL     1      -0.082   1.289  -0.465  1.00  0.00    -0.478 OA
BRANCH  10  11
ATOM     11  C   UNL     1       0.120  -0.059  -0.586  1.00  0.00     0.146 A 
ATOM     12  C   UNL     1      -0.036  -0.631  -1.863  1.00  0.00    -0.006 A 
ATOM     13  C   UNL     1       0.123  -0.863   0.572  1.00  0.00     0.076 A 
ATOM     14  C   UNL     1      -0.150   0.209  -3.101  1.00  0.00     0.048 C 
ATOM     15  C   UNL     1      -0.143  -2.023  -1.976  1.00  0.00     0.023 A 
ATOM     16  C   UNL     1       0.033  -2.252   0.426  1.00  0.00     0.045 A 
ATOM     17  C   UNL     1      -0.124  -2.821  -0.837  1.00  0.00     0.020 A 
ATOM     18  Br  UNL     1      -0.375  -4.688  -1.007  1.00  0.00    -0.051 Br
BRANCH  13  19
ATOM     19  N   UNL     1       0.270  -0.323   1.845  1.00  0.00    -0.396 N 
ATOM     20  H   UNL     1       0.335   0.653   1.961  1.00  0.00     0.156 HD
ATOM     21  H   UNL     1       0.310  -0.915   2.630  1.00  0.00     0.156 HD
ENDBRANCH  13  19
ENDBRANCH  10  11
ENDBRANCH   7  10
ENDBRANCH   4   7
ENDBRANCH   2   3
ENDBRANCH   1   2
BRANCH   1  22
ATOM     22  C   UNL     1      -3.472   3.358   1.977  1.00  0.00     0.023 C 
BRANCH  22  23
ATOM     23  C   UNL     1      -4.518   4.230   1.291  1.00  0.00     0.116 C 
BRANCH  23  24
ATOM     24  N   UNL     1      -5.453   3.471   0.473  1.00  0.00    -0.352 N 
ATOM     25  C   UNL     1      -6.782   3.744   0.242  1.00  0.00     0.251 C 
ATOM     26  H   UNL     1      -5.092   2.667   0.033  1.00  0.00     0.163 HD
ATOM     27  O   UNL     1      -7.487   2.970  -0.384  1.00  0.00    -0.269 OA
BRANCH  25  28
ATOM     28  C   UNL     1      -7.341   4.985   0.814  1.00  0.00     0.039 A 
ATOM     29  C   UNL     1      -8.428   4.894   1.684  1.00  0.00     0.014 A 
ATOM     30  C   UNL     1      -6.718   6.212   0.568  1.00  0.00     0.014 A 
ATOM     31  C   UNL     1      -8.850   6.034   2.367  1.00  0.00     0.010 A 
ATOM     32  C   UNL     1      -7.094   7.329   1.304  1.00  0.00     0.010 A 
ATOM     33  C   UNL     1      -8.161   7.250   2.211  1.00  0.00    -0.014 A 
BRANCH  33  34
ATOM     34  C   UNL     1      -8.527   8.435   3.024  1.00  0.00     0.031 A 
ATOM     35  C   UNL     1      -9.065   9.673   2.369  1.00  0.00     0.074 A 
ATOM     36  C   UNL     1      -8.306   8.415   4.354  1.00  0.00     0.049 A 
ATOM     37  N   UNL     1      -9.482  10.779   2.928  1.00  0.00    -0.248 NA
ATOM     38  C   UNL     1      -9.118   9.687   0.898  1.00  0.00     0.031 C 
ATOM     39  C   UNL     1      -7.685   7.310   5.087  1.00  0.00     0.029 A 
ATOM     40  N   UNL     1      -8.566   9.352   5.322  1.00  0.00    -0.354 N 
ATOM     41  C   UNL     1      -9.825  11.624   1.881  1.00  0.00     0.074 A 
ATOM     42  C   UNL     1      -9.521  10.925   0.653  1.00  0.00     0.031 C 
ATOM     43  C   UNL     1      -7.638   7.621   6.392  1.00  0.00     0.029 A 
ATOM     44  C   UNL     1      -8.211   8.950   6.588  1.00  0.00     0.049 A 
ATOM     45  H   UNL     1      -8.969  10.229   5.128  1.00  0.00     0.167 HD
ATOM     46  C   UNL     1     -10.387  12.854   1.938  1.00  0.00     0.034 A 
ATOM     47  C   UNL     1      -8.351   9.571   7.777  1.00  0.00     0.034 A 
ATOM     48  C   UNL     1     -10.733  13.518   3.164  1.00  0.00     0.049 A 
ATOM     49  C   UNL     1      -9.034  10.910   7.825  1.00  0.00     0.074 A 
ATOM     50  C   UNL     1     -11.406  14.715   3.329  1.00  0.00     0.029 A 
ATOM     51  N   UNL     1     -10.430  13.048   4.432  1.00  0.00    -0.354 N 
ATOM     52  N   UNL     1      -9.533  11.613   6.836  1.00  0.00    -0.248 NA
ATOM     53  C   UNL     1      -9.210  11.528   9.147  1.00  0.00     0.031 C 
ATOM     54  C   UNL     1     -11.492  14.978   4.699  1.00  0.00     0.029 A 
ATOM     55  C   UNL     1     -10.889  13.936   5.387  1.00  0.00     0.049 A 
ATOM     56  H   UNL     1      -9.957  12.206   4.624  1.00  0.00     0.167 HD
ATOM     57  C   UNL     1     -10.107  12.738   7.415  1.00  0.00     0.074 A 
ATOM     58  C   UNL     1      -9.906  12.619   8.845  1.00  0.00     0.031 C 
ATOM     59  C   UNL     1     -10.730  13.780   6.812  1.00  0.00     0.034 A 
BRANCH  46  60
ATOM     60  C   UNL     1     -10.738  13.523   0.637  1.00  0.00     0.023 A 
ATOM     61  C   UNL     1     -11.813  13.022  -0.126  1.00  0.00     0.012 A 
ATOM     62  C   UNL     1     -10.055  14.672   0.196  1.00  0.00     0.148 A 
ATOM     63  C   UNL     1     -12.181  13.632  -1.323  1.00  0.00     0.002 A 
ATOM     64  C   UNL     1     -10.457  15.302  -0.977  1.00  0.00     0.091 A 
ATOM     65  F   UNL     1      -9.019  15.121   0.920  1.00  0.00    -0.205 F 
ATOM     66  C   UNL     1     -11.511  14.777  -1.743  1.00  0.00     0.022 A 
BRANCH  64  67
ATOM     67  S   UNL     1      -9.706  16.828  -1.555  1.00  0.00     0.127 S 
ATOM     68  O   UNL     1      -8.855  16.346  -2.641  1.00  0.00    -0.237 OA
ATOM     69  O   UNL     1     -10.869  17.602  -1.990  1.00  0.00    -0.237 OA
ATOM     70  O   UNL     1      -9.007  17.386  -0.405  1.00  0.00    -0.744 OA
ENDBRANCH  64  67
ENDBRANCH  46  60
BRANCH  47  71
ATOM     71  C   UNL     1      -7.941   8.854   9.018  1.00  0.00     0.023 A 
ATOM     72  C   UNL     1      -8.935   8.324   9.861  1.00  0.00     0.012 A 
ATOM     73  C   UNL     1      -6.586   8.596   9.305  1.00  0.00     0.148 A 
ATOM     74  C   UNL     1      -8.590   7.553  10.972  1.00  0.00     0.002 A 
ATOM     75  C   UNL     1      -6.250   7.783  10.382  1.00  0.00     0.091 A 
ATOM     76  F   UNL     1      -5.656   9.113   8.490  1.00  0.00    -0.205 F 
ATOM     77  C   UNL     1      -7.250   7.271  11.224  1.00  0.00     0.022 A 
BRANCH  75  78
ATOM     78  S   UNL     1      -4.567   7.241  10.701  1.00  0.00     0.127 S 
ATOM     79  O   UNL     1      -4.293   7.860  11.996  1.00  0.00    -0.237 OA
ATOM     80  O   UNL     1      -4.723   5.786  10.733  1.00  0.00    -0.237 OA
ATOM     81  O   UNL     1      -3.772   7.738   9.587  1.00  0.00    -0.744 OA
ENDBRANCH  75  78
ENDBRANCH  47  71
BRANCH  59  82
ATOM     82  C   UNL     1     -11.260  14.895   7.674  1.00  0.00     0.023 A 
ATOM     83  C   UNL     1     -10.363  15.840   8.207  1.00  0.00     0.012 A 
ATOM     84  C   UNL     1     -12.648  15.101   7.809  1.00  0.00     0.148 A 
ATOM     85  C   UNL     1     -10.839  16.974   8.865  1.00  0.00     0.002 A 
ATOM     86  C   UNL     1     -13.116  16.256   8.425  1.00  0.00     0.091 A 
ATOM     87  F   UNL     1     -13.482  14.180   7.302  1.00  0.00    -0.205 F 
ATOM     88  C   UNL     1     -12.213  17.190   8.958  1.00  0.00     0.022 A 
BRANCH  86  89
ATOM     89  S   UNL     1     -14.861  16.677   8.498  1.00  0.00     0.127 S 
ATOM     90  O   UNL     1     -15.129  16.587   9.933  1.00  0.00    -0.237 OA
ATOM     91  O   UNL     1     -14.873  18.036   7.958  1.00  0.00    -0.237 OA
ATOM     92  O   UNL     1     -15.550  15.690   7.677  1.00  0.00    -0.744 OA
ENDBRANCH  86  89
ENDBRANCH  59  82
ENDBRANCH  33  34
ENDBRANCH  25  28
ENDBRANCH  23  24
ENDBRANCH  22  23
ENDBRANCH   1  22
TORSDOF 18
