REMARK SMILES CC(C)(CC(=O)NCCCCNC(=O)c1ccc(-c2c3nc(c(-c4cccc(S(=O)(=O)[O-])c4F)c4ccc([nH]4)c(-c4cccc(S(=O)(=O)[O-])c4F)c4nc(c(-c5cccc(S(=O)(=O)[O-])c5F)c5ccc2[nH]5)C=C4)C=C3)cc1)CC(=O)Nc1cccc(C(=O)NC2CC2)c1
REMARK SMILES IDX 8 1 7 2 5 3 6 4 4 6 2 7 1 8 3 9 78 10 79 11 80 12 81 13
REMARK SMILES IDX 82 15 83 16 93 17 84 18 86 19 85 20 87 21 88 22 89 23 90 25
REMARK SMILES IDX 91 26 92 27 9 28 10 29 11 30 12 31 13 32 14 34 15 35 16 36
REMARK SMILES IDX 77 37 17 38 76 39 18 40 19 41 20 42 70 43 21 44 75 45 69 46
REMARK SMILES IDX 71 47 22 48 74 49 68 50 67 51 23 53 55 54 35 55 54 56 36 57
REMARK SMILES IDX 39 58 53 59 72 60 37 61 38 62 52 64 73 65 40 66 24 67 25 68
REMARK SMILES IDX 33 69 26 70 28 71 34 72 27 73 29 74 30 75 31 76 32 77 56 78
REMARK SMILES IDX 57 79 65 80 58 81 60 82 66 83 59 84 61 85 62 86 63 87 64 88
REMARK SMILES IDX 41 89 42 90 50 91 43 92 45 93 51 94 44 95 46 96 47 97 48 98
REMARK SMILES IDX 49 99
REMARK H PARENT 7 5 81 14 89 24 12 33 71 52 39 63
REMARK Flexibility Score: inf
ROOT
ATOM      1  C   UNL     1      -0.431   1.202   2.022  1.00  0.00     0.116 C 
ENDROOT
BRANCH   1   2
ATOM      2  N   UNL     1      -1.163   1.576   0.838  1.00  0.00    -0.356 N 
ATOM      3  C   UNL     1      -0.819   1.308  -0.456  1.00  0.00     0.220 C 
ATOM      4  O   UNL     1      -1.376   1.975  -1.318  1.00  0.00    -0.275 OA
ATOM      5  H   UNL     1      -1.999   2.076   0.976  1.00  0.00     0.163 HD
BRANCH   3   6
ATOM      6  C   UNL     1       0.105   0.124  -0.743  1.00  0.00     0.107 C 
BRANCH   6   7
ATOM      7  C   UNL     1       1.238   0.188  -1.799  1.00  0.00    -0.018 C 
ATOM      8  C   UNL     1       2.299   1.214  -1.363  1.00  0.00     0.012 C 
ATOM      9  C   UNL     1       1.935  -1.206  -1.752  1.00  0.00     0.012 C 
BRANCH   7  10
ATOM     10  C   UNL     1       0.856   0.387  -3.290  1.00  0.00     0.107 C 
BRANCH  10  11
ATOM     11  C   UNL     1      -0.007   1.550  -3.708  1.00  0.00     0.224 C 
ATOM     12  O   UNL     1       0.524   2.652  -3.887  1.00  0.00    -0.275 OA
ATOM     13  N   UNL     1      -1.340   1.431  -3.978  1.00  0.00    -0.326 N 
ATOM     14  H   UNL     1      -1.687   2.190  -4.499  1.00  0.00     0.169 HD
BRANCH  13  15
ATOM     15  C   UNL     1      -2.337   0.475  -3.684  1.00  0.00     0.041 A 
ATOM     16  C   UNL     1      -3.665   0.883  -3.893  1.00  0.00     0.026 A 
ATOM     17  C   UNL     1      -2.131  -0.766  -3.095  1.00  0.00     0.040 A 
ATOM     18  C   UNL     1      -4.748   0.102  -3.464  1.00  0.00     0.003 A 
ATOM     19  C   UNL     1      -3.213  -1.521  -2.613  1.00  0.00     0.041 A 
ATOM     20  C   UNL     1      -4.524  -1.101  -2.801  1.00  0.00     0.014 A 
BRANCH  19  21
ATOM     21  C   UNL     1      -2.916  -2.756  -1.859  1.00  0.00     0.251 C 
ATOM     22  O   UNL     1      -3.098  -3.850  -2.375  1.00  0.00    -0.269 OA
ATOM     23  N   UNL     1      -2.370  -2.534  -0.608  1.00  0.00    -0.349 N 
ATOM     24  H   UNL     1      -2.452  -1.640  -0.205  1.00  0.00     0.164 HD
BRANCH  23  25
ATOM     25  C   UNL     1      -1.691  -3.560   0.120  1.00  0.00     0.082 C 
ATOM     26  C   UNL     1      -0.347  -4.034  -0.367  1.00  0.00     0.027 C 
ATOM     27  C   UNL     1      -0.444  -3.265   0.914  1.00  0.00     0.027 C 
ENDBRANCH  23  25
ENDBRANCH  19  21
ENDBRANCH  13  15
ENDBRANCH  10  11
ENDBRANCH   7  10
ENDBRANCH   6   7
ENDBRANCH   3   6
ENDBRANCH   1   2
BRANCH   1  28
ATOM     28  C   UNL     1       0.943   1.871   2.022  1.00  0.00     0.023 C 
BRANCH  28  29
ATOM     29  C   UNL     1       0.899   3.386   2.194  1.00  0.00     0.023 C 
BRANCH  29  30
ATOM     30  C   UNL     1       0.244   3.825   3.489  1.00  0.00     0.116 C 
BRANCH  30  31
ATOM     31  N   UNL     1       0.731   3.083   4.647  1.00  0.00    -0.352 N 
ATOM     32  C   UNL     1       0.814   3.514   5.950  1.00  0.00     0.251 C 
ATOM     33  H   UNL     1       1.037   2.164   4.475  1.00  0.00     0.163 HD
ATOM     34  O   UNL     1       1.318   2.830   6.815  1.00  0.00    -0.269 OA
BRANCH  32  35
ATOM     35  C   UNL     1       0.296   4.862   6.228  1.00  0.00     0.039 A 
ATOM     36  C   UNL     1       1.176   5.830   6.710  1.00  0.00     0.014 A 
ATOM     37  C   UNL     1      -1.009   5.179   5.846  1.00  0.00     0.014 A 
ATOM     38  C   UNL     1       0.749   7.152   6.767  1.00  0.00     0.010 A 
ATOM     39  C   UNL     1      -1.394   6.507   5.812  1.00  0.00     0.010 A 
ATOM     40  C   UNL     1      -0.527   7.500   6.292  1.00  0.00    -0.014 A 
BRANCH  40  41
ATOM     41  C   UNL     1      -0.995   8.902   6.321  1.00  0.00     0.031 A 
ATOM     42  C   UNL     1      -2.183   9.259   7.168  1.00  0.00     0.074 A 
ATOM     43  C   UNL     1      -0.409   9.818   5.527  1.00  0.00     0.049 A 
ATOM     44  N   UNL     1      -2.779  10.412   7.303  1.00  0.00    -0.248 NA
ATOM     45  C   UNL     1      -2.812   8.166   7.931  1.00  0.00     0.031 C 
ATOM     46  C   UNL     1       0.683   9.552   4.586  1.00  0.00     0.029 A 
ATOM     47  N   UNL     1      -0.667  11.154   5.367  1.00  0.00    -0.354 N 
ATOM     48  C   UNL     1      -3.873  10.174   8.124  1.00  0.00     0.074 A 
ATOM     49  C   UNL     1      -3.891   8.759   8.415  1.00  0.00     0.031 C 
ATOM     50  C   UNL     1       1.010  10.694   3.959  1.00  0.00     0.029 A 
ATOM     51  C   UNL     1       0.142  11.765   4.439  1.00  0.00     0.049 A 
ATOM     52  H   UNL     1      -1.366  11.631   5.871  1.00  0.00     0.167 HD
ATOM     53  C   UNL     1      -4.760  11.062   8.627  1.00  0.00     0.034 A 
ATOM     54  C   UNL     1       0.180  13.049   4.032  1.00  0.00     0.034 A 
ATOM     55  C   UNL     1      -4.685  12.475   8.389  1.00  0.00     0.049 A 
ATOM     56  C   UNL     1      -0.756  14.035   4.678  1.00  0.00     0.074 A 
ATOM     57  C   UNL     1      -5.455  13.483   8.937  1.00  0.00     0.029 A 
ATOM     58  N   UNL     1      -3.777  13.080   7.532  1.00  0.00    -0.354 N 
ATOM     59  N   UNL     1      -1.673  13.824   5.593  1.00  0.00    -0.248 NA
ATOM     60  C   UNL     1      -0.627  15.440   4.269  1.00  0.00     0.031 C 
ATOM     61  C   UNL     1      -5.019  14.700   8.401  1.00  0.00     0.029 A 
ATOM     62  C   UNL     1      -3.968  14.449   7.532  1.00  0.00     0.049 A 
ATOM     63  H   UNL     1      -3.098  12.604   7.002  1.00  0.00     0.167 HD
ATOM     64  C   UNL     1      -2.207  15.071   5.894  1.00  0.00     0.074 A 
ATOM     65  C   UNL     1      -1.494  16.035   5.078  1.00  0.00     0.031 C 
ATOM     66  C   UNL     1      -3.206  15.390   6.752  1.00  0.00     0.034 A 
BRANCH  53  67
ATOM     67  C   UNL     1      -5.834  10.531   9.538  1.00  0.00     0.023 A 
ATOM     68  C   UNL     1      -5.487  10.064  10.823  1.00  0.00     0.012 A 
ATOM     69  C   UNL     1      -7.183  10.511   9.137  1.00  0.00     0.148 A 
ATOM     70  C   UNL     1      -6.458   9.547  11.679  1.00  0.00     0.002 A 
ATOM     71  C   UNL     1      -8.152  10.038  10.014  1.00  0.00     0.091 A 
ATOM     72  F   UNL     1      -7.490  10.931   7.901  1.00  0.00    -0.205 F 
ATOM     73  C   UNL     1      -7.791   9.544  11.278  1.00  0.00     0.022 A 
BRANCH  71  74
ATOM     74  S   UNL     1      -9.904  10.062   9.619  1.00  0.00     0.127 S 
ATOM     75  O   UNL     1     -10.171   8.646   9.372  1.00  0.00    -0.237 OA
ATOM     76  O   UNL     1     -10.491  10.587  10.853  1.00  0.00    -0.237 OA
ATOM     77  O   UNL     1     -10.041  10.938   8.464  1.00  0.00    -0.744 OA
ENDBRANCH  71  74
ENDBRANCH  53  67
BRANCH  54  78
ATOM     78  C   UNL     1       1.201  13.484   3.039  1.00  0.00     0.023 A 
ATOM     79  C   UNL     1       2.284  14.276   3.468  1.00  0.00     0.012 A 
ATOM     80  C   UNL     1       1.135  13.083   1.691  1.00  0.00     0.148 A 
ATOM     81  C   UNL     1       3.268  14.686   2.567  1.00  0.00     0.002 A 
ATOM     82  C   UNL     1       2.145  13.453   0.809  1.00  0.00     0.091 A 
ATOM     83  F   UNL     1       0.093  12.336   1.301  1.00  0.00    -0.205 F 
ATOM     84  C   UNL     1       3.204  14.267   1.241  1.00  0.00     0.022 A 
BRANCH  82  85
ATOM     85  S   UNL     1       2.214  12.853  -0.883  1.00  0.00     0.127 S 
ATOM     86  O   UNL     1       1.877  14.056  -1.640  1.00  0.00    -0.237 OA
ATOM     87  O   UNL     1       3.609  12.424  -0.996  1.00  0.00    -0.237 OA
ATOM     88  O   UNL     1       1.246  11.767  -0.951  1.00  0.00    -0.744 OA
ENDBRANCH  82  85
ENDBRANCH  54  78
BRANCH  66  89
ATOM     89  C   UNL     1      -3.577  16.843   6.879  1.00  0.00     0.023 A 
ATOM     90  C   UNL     1      -4.301  17.469   5.846  1.00  0.00     0.012 A 
ATOM     91  C   UNL     1      -3.290  17.556   8.059  1.00  0.00     0.148 A 
ATOM     92  C   UNL     1      -4.713  18.794   5.976  1.00  0.00     0.002 A 
ATOM     93  C   UNL     1      -3.745  18.861   8.200  1.00  0.00     0.091 A 
ATOM     94  F   UNL     1      -2.582  16.946   9.021  1.00  0.00    -0.205 F 
ATOM     95  C   UNL     1      -4.447  19.485   7.156  1.00  0.00     0.022 A 
BRANCH  93  96
ATOM     96  S   UNL     1      -3.534  19.788   9.724  1.00  0.00     0.127 S 
ATOM     97  O   UNL     1      -2.468  20.721   9.360  1.00  0.00    -0.237 OA
ATOM     98  O   UNL     1      -4.850  20.404   9.899  1.00  0.00    -0.237 OA
ATOM     99  O   UNL     1      -3.189  18.807  10.744  1.00  0.00    -0.744 OA
ENDBRANCH  93  96
ENDBRANCH  66  89
ENDBRANCH  40  41
ENDBRANCH  32  35
ENDBRANCH  30  31
ENDBRANCH  29  30
ENDBRANCH  28  29
ENDBRANCH   1  28
TORSDOF 20
