REMARK SMILES Cc1cc(C(=O)NCCCCNC(=O)c2ccc(-c3c4nc(c(-c5cccc(S(=O)(=O)[O-])c5F)c5ccc([nH]5)c(-c5cccc(S(=O)(=O)[O-])c5F)c5nc(c(-c6cccc(S(=O)(=O)[O-])c6F)c6ccc3[nH]6)C=C5)C=C4)cc2)ccc1NS(=O)(=O)c1ccc(C#N)cc1C
REMARK SMILES IDX 9 1 8 2 7 3 5 4 6 5 4 7 1 8 2 9 3 10 80 11 79 12 78 13 81 14
REMARK SMILES IDX 82 16 83 17 84 18 85 19 86 20 92 21 87 22 91 23 93 24 88 25
REMARK SMILES IDX 89 26 90 27 10 28 11 29 12 30 13 31 14 33 15 34 16 35 77 36
REMARK SMILES IDX 17 37 76 38 18 39 19 40 20 41 70 42 21 43 75 44 69 45 71 46
REMARK SMILES IDX 22 47 74 48 68 49 67 50 23 52 55 53 35 54 54 55 36 56 39 57
REMARK SMILES IDX 53 58 72 59 37 60 38 61 52 63 73 64 40 65 24 66 25 67 33 68
REMARK SMILES IDX 26 69 28 70 34 71 27 72 29 73 30 74 31 75 32 76 56 77 57 78
REMARK SMILES IDX 65 79 58 80 60 81 66 82 59 83 61 84 62 85 63 86 64 87 41 88
REMARK SMILES IDX 42 89 50 90 43 91 45 92 51 93 44 94 46 95 47 96 48 97 49 98
REMARK H PARENT 7 6 81 15 12 32 71 51 39 62
REMARK Flexibility Score: inf
ROOT
ATOM      1  C   UNL     1      -4.551  -1.077  -1.463  1.00  0.00     0.023 C 
ENDROOT
BRANCH   1   2
ATOM      2  C   UNL     1      -3.868  -1.408  -0.124  1.00  0.00     0.116 C 
BRANCH   2   3
ATOM      3  N   UNL     1      -2.921  -2.506  -0.222  1.00  0.00    -0.352 N 
ATOM      4  C   UNL     1      -1.550  -2.506  -0.341  1.00  0.00     0.251 C 
ATOM      5  O   UNL     1      -0.944  -3.570  -0.230  1.00  0.00    -0.269 OA
ATOM      6  H   UNL     1      -3.329  -3.401  -0.198  1.00  0.00     0.163 HD
BRANCH   4   7
ATOM      7  C   UNL     1      -0.775  -1.248  -0.524  1.00  0.00     0.040 A 
ATOM      8  C   UNL     1       2.672   0.030   0.337  1.00  0.00     0.046 C 
ATOM      9  C   UNL     1       1.203   0.051   0.025  1.00  0.00    -0.026 A 
ATOM     10  C   UNL     1       0.514  -1.174   0.003  1.00  0.00     0.019 A 
ATOM     11  C   UNL     1       0.531   1.220  -0.371  1.00  0.00     0.052 A 
ATOM     12  C   UNL     1      -0.596   1.089  -1.164  1.00  0.00     0.028 A 
ATOM     13  C   UNL     1      -1.240  -0.145  -1.233  1.00  0.00     0.016 A 
BRANCH  11  14
ATOM     14  N   UNL     1       0.809   2.425   0.338  1.00  0.00    -0.279 N 
ATOM     15  H   UNL     1       1.494   2.355   1.041  1.00  0.00     0.180 HD
BRANCH  14  16
ATOM     16  S   UNL     1       0.130   3.937   0.140  1.00  0.00     0.262 S 
ATOM     17  O   UNL     1       0.674   4.729   1.224  1.00  0.00    -0.201 OA
ATOM     18  O   UNL     1       0.331   4.322  -1.242  1.00  0.00    -0.201 OA
BRANCH  16  19
ATOM     19  C   UNL     1      -1.653   3.891   0.401  1.00  0.00     0.090 A 
ATOM     20  C   UNL     1      -2.308   2.704   0.753  1.00  0.00     0.024 A 
ATOM     21  C   UNL     1      -2.417   5.010   0.003  1.00  0.00    -0.029 A 
ATOM     22  C   UNL     1      -3.675   2.551   0.476  1.00  0.00     0.021 A 
ATOM     23  C   UNL     1      -3.789   4.840  -0.257  1.00  0.00     0.024 A 
ATOM     24  C   UNL     1      -1.875   6.410  -0.102  1.00  0.00     0.046 C 
ATOM     25  C   UNL     1      -4.395   3.595  -0.103  1.00  0.00     0.052 A 
BRANCH  25  26
ATOM     26  C   UNL     1      -5.717   3.385  -0.624  1.00  0.00     0.099 C 
ATOM     27  N   UNL     1      -6.741   3.226  -1.132  1.00  0.00    -0.192 NA
ENDBRANCH  25  26
ENDBRANCH  16  19
ENDBRANCH  14  16
ENDBRANCH  11  14
ENDBRANCH   4   7
ENDBRANCH   2   3
ENDBRANCH   1   2
BRANCH   1  28
ATOM     28  C   UNL     1      -5.408  -2.185  -2.056  1.00  0.00     0.023 C 
BRANCH  28  29
ATOM     29  C   UNL     1      -6.608  -2.493  -1.204  1.00  0.00     0.116 C 
BRANCH  29  30
ATOM     30  N   UNL     1      -7.709  -1.585  -1.382  1.00  0.00    -0.352 N 
ATOM     31  C   UNL     1      -9.025  -1.786  -1.021  1.00  0.00     0.251 C 
ATOM     32  H   UNL     1      -7.499  -0.723  -1.809  1.00  0.00     0.163 HD
ATOM     33  O   UNL     1      -9.873  -1.095  -1.578  1.00  0.00    -0.269 OA
BRANCH  31  34
ATOM     34  C   UNL     1      -9.377  -2.667   0.138  1.00  0.00     0.039 A 
ATOM     35  C   UNL     1     -10.557  -2.331   0.812  1.00  0.00     0.014 A 
ATOM     36  C   UNL     1      -8.418  -3.422   0.804  1.00  0.00     0.014 A 
ATOM     37  C   UNL     1     -10.579  -2.355   2.196  1.00  0.00     0.010 A 
ATOM     38  C   UNL     1      -8.376  -3.352   2.163  1.00  0.00     0.010 A 
ATOM     39  C   UNL     1      -9.405  -2.694   2.833  1.00  0.00    -0.014 A 
BRANCH  39  40
ATOM     40  C   UNL     1      -9.111  -2.514   4.229  1.00  0.00     0.031 A 
ATOM     41  C   UNL     1      -9.412  -3.664   5.088  1.00  0.00     0.074 A 
ATOM     42  C   UNL     1      -8.160  -1.578   4.452  1.00  0.00     0.049 A 
ATOM     43  N   UNL     1      -9.212  -3.702   6.351  1.00  0.00    -0.248 NA
ATOM     44  C   UNL     1      -9.991  -4.901   4.557  1.00  0.00     0.031 C 
ATOM     45  C   UNL     1      -7.049  -1.603   5.393  1.00  0.00     0.029 A 
ATOM     46  N   UNL     1      -7.983  -0.361   3.812  1.00  0.00    -0.354 N 
ATOM     47  C   UNL     1      -9.244  -5.037   6.704  1.00  0.00     0.074 A 
ATOM     48  C   UNL     1      -9.923  -5.699   5.624  1.00  0.00     0.031 C 
ATOM     49  C   UNL     1      -6.481  -0.380   5.438  1.00  0.00     0.029 A 
ATOM     50  C   UNL     1      -7.323   0.522   4.665  1.00  0.00     0.049 A 
ATOM     51  H   UNL     1      -8.277  -0.153   2.896  1.00  0.00     0.167 HD
ATOM     52  C   UNL     1      -8.481  -5.429   7.761  1.00  0.00     0.034 A 
ATOM     53  C   UNL     1      -8.026   1.568   5.215  1.00  0.00     0.034 A 
ATOM     54  C   UNL     1      -7.859  -4.237   8.376  1.00  0.00     0.049 A 
ATOM     55  C   UNL     1      -8.354   1.341   6.686  1.00  0.00     0.074 A 
ATOM     56  C   UNL     1      -6.586  -3.696   8.298  1.00  0.00     0.029 A 
ATOM     57  N   UNL     1      -8.679  -3.227   8.877  1.00  0.00    -0.354 N 
ATOM     58  N   UNL     1      -8.169   0.208   7.308  1.00  0.00    -0.248 NA
ATOM     59  C   UNL     1      -8.873   2.370   7.582  1.00  0.00     0.031 C 
ATOM     60  C   UNL     1      -6.678  -2.315   8.644  1.00  0.00     0.029 A 
ATOM     61  C   UNL     1      -7.994  -2.022   8.964  1.00  0.00     0.049 A 
ATOM     62  H   UNL     1      -9.621  -3.352   9.135  1.00  0.00     0.167 HD
ATOM     63  C   UNL     1      -8.621   0.283   8.593  1.00  0.00     0.074 A 
ATOM     64  C   UNL     1      -8.991   1.684   8.735  1.00  0.00     0.031 C 
ATOM     65  C   UNL     1      -8.690  -0.814   9.411  1.00  0.00     0.034 A 
BRANCH  52  66
ATOM     66  C   UNL     1      -8.041  -6.850   8.100  1.00  0.00     0.023 A 
ATOM     67  C   UNL     1      -7.087  -6.972   9.136  1.00  0.00     0.012 A 
ATOM     68  C   UNL     1      -8.422  -8.067   7.477  1.00  0.00     0.148 A 
ATOM     69  C   UNL     1      -6.512  -8.195   9.501  1.00  0.00     0.002 A 
ATOM     70  C   UNL     1      -7.857  -9.295   7.848  1.00  0.00     0.091 A 
ATOM     71  F   UNL     1      -9.336  -8.076   6.511  1.00  0.00    -0.205 F 
ATOM     72  C   UNL     1      -6.893  -9.358   8.854  1.00  0.00     0.022 A 
BRANCH  70  73
ATOM     73  S   UNL     1      -8.306 -10.862   7.069  1.00  0.00     0.127 S 
ATOM     74  O   UNL     1      -7.018 -11.326   6.551  1.00  0.00    -0.237 OA
ATOM     75  O   UNL     1      -8.821 -11.635   8.199  1.00  0.00    -0.237 OA
ATOM     76  O   UNL     1      -9.292 -10.550   6.040  1.00  0.00    -0.744 OA
ENDBRANCH  70  73
ENDBRANCH  52  66
BRANCH  53  77
ATOM     77  C   UNL     1      -8.931   2.210   4.199  1.00  0.00     0.023 A 
ATOM     78  C   UNL     1      -8.288   2.834   3.102  1.00  0.00     0.012 A 
ATOM     79  C   UNL     1     -10.257   1.764   4.041  1.00  0.00     0.148 A 
ATOM     80  C   UNL     1      -8.869   2.814   1.833  1.00  0.00     0.002 A 
ATOM     81  C   UNL     1     -10.823   1.735   2.766  1.00  0.00     0.091 A 
ATOM     82  F   UNL     1     -10.909   1.304   5.116  1.00  0.00    -0.205 F 
ATOM     83  C   UNL     1     -10.108   2.207   1.654  1.00  0.00     0.022 A 
BRANCH  81  84
ATOM     84  S   UNL     1     -12.412   0.953   2.458  1.00  0.00     0.127 S 
ATOM     85  O   UNL     1     -13.310   2.103   2.421  1.00  0.00    -0.237 OA
ATOM     86  O   UNL     1     -12.209   0.304   1.164  1.00  0.00    -0.237 OA
ATOM     87  O   UNL     1     -12.605   0.028   3.565  1.00  0.00    -0.744 OA
ENDBRANCH  81  84
ENDBRANCH  53  77
BRANCH  65  88
ATOM     88  C   UNL     1      -9.430  -0.854  10.735  1.00  0.00     0.023 A 
ATOM     89  C   UNL     1     -10.449   0.061  11.056  1.00  0.00     0.012 A 
ATOM     90  C   UNL     1      -9.226  -1.923  11.646  1.00  0.00     0.148 A 
ATOM     91  C   UNL     1     -11.165  -0.021  12.254  1.00  0.00     0.002 A 
ATOM     92  C   UNL     1     -10.041  -2.084  12.759  1.00  0.00     0.091 A 
ATOM     93  F   UNL     1      -8.219  -2.788  11.456  1.00  0.00    -0.205 F 
ATOM     94  C   UNL     1     -10.980  -1.109  13.094  1.00  0.00     0.022 A 
BRANCH  92  95
ATOM     95  S   UNL     1     -10.036  -3.616  13.700  1.00  0.00     0.127 S 
ATOM     96  O   UNL     1      -9.194  -3.265  14.841  1.00  0.00    -0.237 OA
ATOM     97  O   UNL     1     -11.455  -3.788  14.017  1.00  0.00    -0.237 OA
ATOM     98  O   UNL     1      -9.502  -4.624  12.794  1.00  0.00    -0.744 OA
ENDBRANCH  92  95
ENDBRANCH  65  88
ENDBRANCH  39  40
ENDBRANCH  31  34
ENDBRANCH  29  30
ENDBRANCH  28  29
ENDBRANCH   1  28
TORSDOF 18
