REMARK SMILES O=C(NCCCCNC(=O)[C@@H](CO)NC(=O)c1ccc2noc(-c3ccccc3)c2c1)c1ccc(-c2c3nc(c(-c4cccc(S(=O)(=O)[O-])c4F)c4ccc([nH]4)c(-c4cccc(S(=O)(=O)[O-])c4F)c4nc(c(-c5cccc(S(=O)(=O)[O-])c5F)c5ccc2[nH]5)C=C4)C=C3)cc1
REMARK SMILES IDX 5 1 4 2 3 3 1 4 2 5 32 7 33 8 94 9 34 10 93 11 35 12 36 13
REMARK SMILES IDX 37 14 87 15 38 16 92 17 86 18 88 19 39 20 91 21 85 22 84 23
REMARK SMILES IDX 40 25 72 26 52 27 71 28 53 29 56 30 70 31 89 32 54 33 55 34
REMARK SMILES IDX 69 36 90 37 57 38 41 39 42 40 50 41 43 42 45 43 51 44 44 45
REMARK SMILES IDX 46 46 47 47 48 48 49 49 73 50 74 51 82 52 75 53 77 54 83 55
REMARK SMILES IDX 76 56 78 57 79 58 80 59 81 60 58 61 59 62 67 63 60 64 62 65
REMARK SMILES IDX 68 66 61 67 63 68 64 69 65 70 66 71 6 72 7 73 8 74 9 75
REMARK SMILES IDX 10 77 11 78 12 79 13 80 14 82 15 83 16 85 17 86 18 87 31 88
REMARK SMILES IDX 19 89 30 90 20 91 23 92 21 93 22 94 24 95 25 96 29 97 26 98
REMARK SMILES IDX 28 99 27 100
REMARK H PARENT 3 6 88 24 56 35 8 76 13 81 14 84
REMARK Flexibility Score: inf
ROOT
ATOM      1  C   UNL     1       4.926   0.897  -2.697  1.00  0.00     0.023 C 
ENDROOT
BRANCH   1   2
ATOM      2  C   UNL     1       4.492   0.392  -1.334  1.00  0.00     0.116 C 
BRANCH   2   3
ATOM      3  N   UNL     1       3.035   0.236  -1.203  1.00  0.00    -0.352 N 
ATOM      4  O   UNL     1       1.200  -0.513  -0.065  1.00  0.00    -0.269 OA
ATOM      5  C   UNL     1       2.317  -0.035  -0.041  1.00  0.00     0.251 C 
ATOM      6  H   UNL     1       2.509   0.334  -2.029  1.00  0.00     0.163 HD
BRANCH   5   7
ATOM      7  C   UNL     1       2.964   0.335   1.230  1.00  0.00     0.039 A 
ATOM      8  C   UNL     1       3.084  -0.532   2.316  1.00  0.00     0.014 A 
ATOM      9  C   UNL     1       3.612   1.560   1.207  1.00  0.00     0.014 A 
ATOM     10  C   UNL     1       3.960  -0.173   3.340  1.00  0.00     0.010 A 
ATOM     11  C   UNL     1       4.671   1.742   2.043  1.00  0.00     0.010 A 
ATOM     12  C   UNL     1       4.782   0.956   3.175  1.00  0.00    -0.014 A 
BRANCH  12  13
ATOM     13  C   UNL     1       5.850   1.301   4.106  1.00  0.00     0.031 A 
ATOM     14  C   UNL     1       6.675   0.140   4.518  1.00  0.00     0.074 A 
ATOM     15  C   UNL     1       6.154   2.578   4.441  1.00  0.00     0.049 A 
ATOM     16  N   UNL     1       6.559  -0.517   5.624  1.00  0.00    -0.248 NA
ATOM     17  C   UNL     1       7.566  -0.501   3.537  1.00  0.00     0.031 C 
ATOM     18  C   UNL     1       5.596   3.835   3.909  1.00  0.00     0.029 A 
ATOM     19  N   UNL     1       7.128   3.037   5.270  1.00  0.00    -0.354 N 
ATOM     20  C   UNL     1       7.580  -1.455   5.599  1.00  0.00     0.074 A 
ATOM     21  C   UNL     1       7.994  -1.565   4.224  1.00  0.00     0.031 C 
ATOM     22  C   UNL     1       6.406   4.871   4.220  1.00  0.00     0.029 A 
ATOM     23  C   UNL     1       7.410   4.397   5.146  1.00  0.00     0.049 A 
ATOM     24  H   UNL     1       7.598   2.454   5.909  1.00  0.00     0.167 HD
ATOM     25  C   UNL     1       8.210  -1.818   6.750  1.00  0.00     0.034 A 
ATOM     26  C   UNL     1       8.402   5.079   5.771  1.00  0.00     0.034 A 
ATOM     27  C   UNL     1       7.494  -1.358   7.913  1.00  0.00     0.049 A 
ATOM     28  C   UNL     1       8.732   4.292   6.979  1.00  0.00     0.074 A 
ATOM     29  C   UNL     1       6.213  -1.530   8.400  1.00  0.00     0.029 A 
ATOM     30  N   UNL     1       7.985  -0.224   8.515  1.00  0.00    -0.354 N 
ATOM     31  N   UNL     1       7.900   4.116   7.966  1.00  0.00    -0.248 NA
ATOM     32  C   UNL     1       9.818   3.332   6.884  1.00  0.00     0.031 C 
ATOM     33  C   UNL     1       5.837  -0.249   8.900  1.00  0.00     0.029 A 
ATOM     34  C   UNL     1       6.931   0.609   8.776  1.00  0.00     0.049 A 
ATOM     35  H   UNL     1       8.931  -0.043   8.723  1.00  0.00     0.167 HD
ATOM     36  C   UNL     1       8.070   2.783   8.311  1.00  0.00     0.074 A 
ATOM     37  C   UNL     1       9.335   2.386   7.694  1.00  0.00     0.031 C 
ATOM     38  C   UNL     1       7.029   2.052   8.803  1.00  0.00     0.034 A 
BRANCH  25  39
ATOM     39  C   UNL     1       9.662  -2.201   6.829  1.00  0.00     0.023 A 
ATOM     40  C   UNL     1      10.111  -2.842   8.002  1.00  0.00     0.012 A 
ATOM     41  C   UNL     1      10.645  -1.718   5.936  1.00  0.00     0.148 A 
ATOM     42  C   UNL     1      11.475  -2.986   8.275  1.00  0.00     0.002 A 
ATOM     43  C   UNL     1      11.995  -1.933   6.172  1.00  0.00     0.091 A 
ATOM     44  F   UNL     1      10.288  -0.918   4.926  1.00  0.00    -0.205 F 
ATOM     45  C   UNL     1      12.418  -2.547   7.352  1.00  0.00     0.022 A 
BRANCH  43  46
ATOM     46  S   UNL     1      13.248  -1.406   4.998  1.00  0.00     0.127 S 
ATOM     47  O   UNL     1      13.843  -0.273   5.699  1.00  0.00    -0.237 OA
ATOM     48  O   UNL     1      14.091  -2.598   4.909  1.00  0.00    -0.237 OA
ATOM     49  O   UNL     1      12.523  -1.095   3.772  1.00  0.00    -0.744 OA
ENDBRANCH  43  46
ENDBRANCH  25  39
BRANCH  26  50
ATOM     50  C   UNL     1       9.272   6.188   5.311  1.00  0.00     0.023 A 
ATOM     51  C   UNL     1      10.097   6.839   6.255  1.00  0.00     0.012 A 
ATOM     52  C   UNL     1       9.562   6.374   3.943  1.00  0.00     0.148 A 
ATOM     53  C   UNL     1      11.219   7.575   5.857  1.00  0.00     0.002 A 
ATOM     54  C   UNL     1      10.682   7.107   3.553  1.00  0.00     0.091 A 
ATOM     55  F   UNL     1       8.815   5.748   3.023  1.00  0.00    -0.205 F 
ATOM     56  C   UNL     1      11.523   7.695   4.506  1.00  0.00     0.022 A 
BRANCH  54  57
ATOM     57  S   UNL     1      11.126   7.252   1.819  1.00  0.00     0.127 S 
ATOM     58  O   UNL     1      11.890   8.500   1.790  1.00  0.00    -0.237 OA
ATOM     59  O   UNL     1      11.919   6.049   1.598  1.00  0.00    -0.237 OA
ATOM     60  O   UNL     1       9.850   7.331   1.115  1.00  0.00    -0.744 OA
ENDBRANCH  54  57
ENDBRANCH  26  50
BRANCH  38  61
ATOM     61  C   UNL     1       5.782   2.786   9.223  1.00  0.00     0.023 A 
ATOM     62  C   UNL     1       4.883   3.360   8.299  1.00  0.00     0.012 A 
ATOM     63  C   UNL     1       5.413   2.700  10.574  1.00  0.00     0.148 A 
ATOM     64  C   UNL     1       3.634   3.830   8.720  1.00  0.00     0.002 A 
ATOM     65  C   UNL     1       4.159   3.131  10.981  1.00  0.00     0.091 A 
ATOM     66  F   UNL     1       6.284   2.142  11.428  1.00  0.00    -0.205 F 
ATOM     67  C   UNL     1       3.265   3.699  10.059  1.00  0.00     0.022 A 
BRANCH  65  68
ATOM     68  S   UNL     1       3.584   2.894  12.663  1.00  0.00     0.127 S 
ATOM     69  O   UNL     1       3.453   4.271  13.137  1.00  0.00    -0.237 OA
ATOM     70  O   UNL     1       2.316   2.192  12.460  1.00  0.00    -0.237 OA
ATOM     71  O   UNL     1       4.607   2.104  13.337  1.00  0.00    -0.744 OA
ENDBRANCH  65  68
ENDBRANCH  38  61
ENDBRANCH  12  13
ENDBRANCH   5   7
ENDBRANCH   2   3
ENDBRANCH   1   2
BRANCH   1  72
ATOM     72  C   UNL     1       4.421   2.302  -3.050  1.00  0.00     0.023 C 
BRANCH  72  73
ATOM     73  C   UNL     1       4.916   3.473  -2.183  1.00  0.00     0.116 C 
BRANCH  73  74
ATOM     74  N   UNL     1       6.352   3.644  -2.258  1.00  0.00    -0.354 N 
ATOM     75  C   UNL     1       7.122   4.548  -2.922  1.00  0.00     0.244 C 
ATOM     76  H   UNL     1       6.864   2.987  -1.733  1.00  0.00     0.163 HD
ATOM     77  O   UNL     1       8.278   4.187  -3.181  1.00  0.00    -0.273 OA
BRANCH  75  78
ATOM     78  C   UNL     1       6.590   5.857  -3.535  1.00  0.00     0.197 C 
BRANCH  78  79
ATOM     79  C   UNL     1       6.005   5.591  -4.934  1.00  0.00     0.191 C 
BRANCH  79  80
ATOM     80  O   UNL     1       4.811   4.815  -4.935  1.00  0.00    -0.394 OA
ATOM     81  H   UNL     1       4.997   3.936  -4.570  1.00  0.00     0.210 HD
ENDBRANCH  79  80
ENDBRANCH  78  79
BRANCH  78  82
ATOM     82  N   UNL     1       5.718   6.683  -2.688  1.00  0.00    -0.338 N 
ATOM     83  C   UNL     1       5.837   8.021  -2.379  1.00  0.00     0.252 C 
ATOM     84  H   UNL     1       4.948   6.219  -2.287  1.00  0.00     0.164 HD
ATOM     85  O   UNL     1       5.066   8.547  -1.583  1.00  0.00    -0.269 OA
BRANCH  83  86
ATOM     86  C   UNL     1       6.892   8.844  -3.024  1.00  0.00     0.040 A 
ATOM     87  C   UNL     1       6.931   8.916  -4.456  1.00  0.00     0.016 A 
ATOM     88  C   UNL     1       7.789   9.541  -2.186  1.00  0.00     0.028 A 
ATOM     89  C   UNL     1       7.944   9.571  -5.187  1.00  0.00     0.033 A 
ATOM     90  C   UNL     1       8.747  10.225  -2.937  1.00  0.00     0.050 A 
ATOM     91  C   UNL     1       8.864  10.252  -4.376  1.00  0.00     0.114 A 
ATOM     92  C   UNL     1       9.707  11.085  -2.474  1.00  0.00     0.174 A 
ATOM     93  N   UNL     1       9.904  11.024  -4.728  1.00  0.00    -0.079 NA
ATOM     94  O   UNL     1      10.415  11.545  -3.550  1.00  0.00    -0.355 OA
BRANCH  92  95
ATOM     95  C   UNL     1      10.078  11.653  -1.193  1.00  0.00     0.021 A 
ATOM     96  C   UNL     1      10.217  13.044  -1.058  1.00  0.00     0.012 A 
ATOM     97  C   UNL     1      10.254  10.846  -0.068  1.00  0.00     0.012 A 
ATOM     98  C   UNL     1      10.511  13.615   0.181  1.00  0.00     0.001 A 
ATOM     99  C   UNL     1      10.552  11.419   1.170  1.00  0.00     0.001 A 
ATOM    100  C   UNL     1      10.677  12.800   1.297  1.00  0.00     0.000 A 
ENDBRANCH  92  95
ENDBRANCH  83  86
ENDBRANCH  78  82
ENDBRANCH  75  78
ENDBRANCH  73  74
ENDBRANCH  72  73
ENDBRANCH   1  72
TORSDOF 19
