REMARK SMILES C[C@@H](C(=O)NCCCCNC(=O)c1ccc(-c2c3nc(c(-c4cccc(S(=O)(=O)[O-])c4F)c4ccc([nH]4)c(-c4cccc(S(=O)(=O)[O-])c4F)c4nc(c(-c5cccc(S(=O)(=O)[O-])c5F)c5ccc2[nH]5)C=C4)C=C3)cc1)c1ccc(-c2cccc(OC(=O)NC3CC3)c2)c(F)c1
REMARK SMILES IDX 6 1 5 2 3 3 4 4 2 6 1 7 76 8 77 9 95 10 78 11 93 12 79 13
REMARK SMILES IDX 94 14 80 15 81 16 92 17 82 18 84 19 83 20 85 21 86 22 87 23
REMARK SMILES IDX 88 24 89 26 90 27 91 28 7 29 8 30 9 31 10 32 11 33 12 35
REMARK SMILES IDX 13 36 14 37 75 38 15 39 74 40 16 41 17 42 18 43 68 44 19 45
REMARK SMILES IDX 73 46 67 47 69 48 20 49 72 50 66 51 65 52 21 54 53 55 33 56
REMARK SMILES IDX 52 57 34 58 37 59 51 60 70 61 35 62 36 63 50 65 71 66 38 67
REMARK SMILES IDX 22 68 23 69 31 70 24 71 26 72 32 73 25 74 27 75 28 76 29 77
REMARK SMILES IDX 30 78 54 79 55 80 63 81 56 82 58 83 64 84 57 85 59 86 60 87
REMARK SMILES IDX 61 88 62 89 39 90 40 91 48 92 41 93 43 94 49 95 42 96 44 97
REMARK SMILES IDX 45 98 46 99 47 100
REMARK H PARENT 5 5 88 25 10 34 69 53 37 64
REMARK Flexibility Score: inf
ROOT
ATOM      1  C   UNL     1       3.402   1.926  -0.197  1.00  0.00     0.116 C 
ENDROOT
BRANCH   1   2
ATOM      2  N   UNL     1       2.336   2.478  -1.005  1.00  0.00    -0.356 N 
ATOM      3  C   UNL     1       1.018   2.127  -1.060  1.00  0.00     0.227 C 
ATOM      4  O   UNL     1       0.349   2.615  -1.972  1.00  0.00    -0.274 OA
ATOM      5  H   UNL     1       2.600   3.215  -1.602  1.00  0.00     0.163 HD
BRANCH   3   6
ATOM      6  C   UNL     1       0.421   1.215   0.029  1.00  0.00     0.105 C 
ATOM      7  C   UNL     1       0.930  -0.226  -0.117  1.00  0.00     0.023 C 
BRANCH   6   8
ATOM      8  C   UNL     1      -1.107   1.297   0.072  1.00  0.00    -0.033 A 
ATOM      9  C   UNL     1      -1.741   2.548   0.192  1.00  0.00     0.005 A 
ATOM     10  C   UNL     1      -1.918   0.157   0.009  1.00  0.00     0.044 A 
ATOM     11  C   UNL     1      -3.136   2.653   0.230  1.00  0.00     0.012 A 
ATOM     12  C   UNL     1      -3.300   0.266   0.064  1.00  0.00     0.131 A 
ATOM     13  C   UNL     1      -3.935   1.506   0.182  1.00  0.00     0.018 A 
ATOM     14  F   UNL     1      -4.021  -0.866   0.024  1.00  0.00    -0.206 F 
BRANCH  13  15
ATOM     15  C   UNL     1      -5.386   1.575   0.348  1.00  0.00    -0.012 A 
ATOM     16  C   UNL     1      -6.219   2.212  -0.580  1.00  0.00     0.009 A 
ATOM     17  C   UNL     1      -5.961   0.960   1.470  1.00  0.00     0.056 A 
ATOM     18  C   UNL     1      -7.604   2.217  -0.395  1.00  0.00     0.004 A 
ATOM     19  C   UNL     1      -7.335   0.961   1.651  1.00  0.00     0.133 A 
ATOM     20  C   UNL     1      -8.163   1.589   0.720  1.00  0.00     0.047 A 
BRANCH  19  21
ATOM     21  O   UNL     1      -7.984   0.351   2.751  1.00  0.00    -0.410 OA
BRANCH  21  22
ATOM     22  C   UNL     1      -7.387  -0.489   3.688  1.00  0.00     0.412 C 
ATOM     23  O   UNL     1      -6.196  -0.777   3.764  1.00  0.00    -0.224 OA
ATOM     24  N   UNL     1      -8.266  -1.035   4.585  1.00  0.00    -0.318 N 
ATOM     25  H   UNL     1      -7.869  -1.659   5.235  1.00  0.00     0.167 HD
BRANCH  24  26
ATOM     26  C   UNL     1      -9.668  -0.833   4.718  1.00  0.00     0.085 C 
ATOM     27  C   UNL     1     -10.632  -0.464   3.628  1.00  0.00     0.027 C 
ATOM     28  C   UNL     1     -10.595  -1.871   4.138  1.00  0.00     0.027 C 
ENDBRANCH  24  26
ENDBRANCH  21  22
ENDBRANCH  19  21
ENDBRANCH  13  15
ENDBRANCH   6   8
ENDBRANCH   3   6
ENDBRANCH   1   2
BRANCH   1  29
ATOM     29  C   UNL     1       4.196   0.888  -0.995  1.00  0.00     0.023 C 
BRANCH  29  30
ATOM     30  C   UNL     1       4.991   1.469  -2.161  1.00  0.00     0.023 C 
BRANCH  30  31
ATOM     31  C   UNL     1       5.988   2.544  -1.766  1.00  0.00     0.116 C 
BRANCH  31  32
ATOM     32  N   UNL     1       6.979   2.067  -0.808  1.00  0.00    -0.352 N 
ATOM     33  C   UNL     1       8.336   2.289  -0.820  1.00  0.00     0.251 C 
ATOM     34  H   UNL     1       6.636   1.520  -0.065  1.00  0.00     0.163 HD
ATOM     35  O   UNL     1       9.077   1.711  -0.034  1.00  0.00    -0.269 OA
BRANCH  33  36
ATOM     36  C   UNL     1       8.876   3.218  -1.829  1.00  0.00     0.039 A 
ATOM     37  C   UNL     1       9.882   2.780  -2.693  1.00  0.00     0.014 A 
ATOM     38  C   UNL     1       8.295   4.479  -1.984  1.00  0.00     0.014 A 
ATOM     39  C   UNL     1      10.257   3.587  -3.768  1.00  0.00     0.010 A 
ATOM     40  C   UNL     1       8.607   5.236  -3.104  1.00  0.00     0.010 A 
ATOM     41  C   UNL     1       9.592   4.800  -4.005  1.00  0.00    -0.014 A 
BRANCH  41  42
ATOM     42  C   UNL     1       9.890   5.644  -5.189  1.00  0.00     0.031 A 
ATOM     43  C   UNL     1      10.371   7.053  -4.991  1.00  0.00     0.074 A 
ATOM     44  C   UNL     1       9.595   5.197  -6.425  1.00  0.00     0.049 A 
ATOM     45  N   UNL     1      10.532   8.003  -5.874  1.00  0.00    -0.248 NA
ATOM     46  C   UNL     1      10.672   7.459  -3.608  1.00  0.00     0.031 C 
ATOM     47  C   UNL     1       9.049   3.876  -6.740  1.00  0.00     0.029 A 
ATOM     48  N   UNL     1       9.663   5.828  -7.643  1.00  0.00    -0.354 N 
ATOM     49  C   UNL     1      10.894   9.131  -5.150  1.00  0.00     0.074 A 
ATOM     50  C   UNL     1      10.901   8.754  -3.753  1.00  0.00     0.031 C 
ATOM     51  C   UNL     1       8.815   3.801  -8.059  1.00  0.00     0.029 A 
ATOM     52  C   UNL     1       9.149   5.081  -8.677  1.00  0.00     0.049 A 
ATOM     53  H   UNL     1      10.044   6.728  -7.764  1.00  0.00     0.167 HD
ATOM     54  C   UNL     1      11.210  10.366  -5.606  1.00  0.00     0.034 A 
ATOM     55  C   UNL     1       8.936   5.399  -9.970  1.00  0.00     0.034 A 
ATOM     56  C   UNL     1      11.231  10.723  -6.997  1.00  0.00     0.049 A 
ATOM     57  C   UNL     1       9.328   6.763 -10.466  1.00  0.00     0.074 A 
ATOM     58  C   UNL     1      11.641  11.912  -7.573  1.00  0.00     0.029 A 
ATOM     59  N   UNL     1      10.803   9.904  -8.031  1.00  0.00    -0.354 N 
ATOM     60  N   UNL     1       9.820   7.773  -9.790  1.00  0.00    -0.248 NA
ATOM     61  C   UNL     1       9.168   7.023 -11.903  1.00  0.00     0.031 C 
ATOM     62  C   UNL     1      11.416  11.829  -8.950  1.00  0.00     0.029 A 
ATOM     63  C   UNL     1      10.918  10.568  -9.240  1.00  0.00     0.049 A 
ATOM     64  H   UNL     1      10.468   8.985  -7.921  1.00  0.00     0.167 HD
ATOM     65  C   UNL     1      10.064   8.774 -10.723  1.00  0.00     0.074 A 
ATOM     66  C   UNL     1       9.671   8.246 -12.014  1.00  0.00     0.031 C 
ATOM     67  C   UNL     1      10.567  10.017 -10.525  1.00  0.00     0.034 A 
BRANCH  54  68
ATOM     68  C   UNL     1      11.569  11.413  -4.583  1.00  0.00     0.023 A 
ATOM     69  C   UNL     1      12.756  11.288  -3.830  1.00  0.00     0.012 A 
ATOM     70  C   UNL     1      10.738  12.531  -4.378  1.00  0.00     0.148 A 
ATOM     71  C   UNL     1      13.077  12.226  -2.850  1.00  0.00     0.002 A 
ATOM     72  C   UNL     1      11.094  13.490  -3.438  1.00  0.00     0.091 A 
ATOM     73  F   UNL     1       9.603  12.624  -5.086  1.00  0.00    -0.205 F 
ATOM     74  C   UNL     1      12.252  13.330  -2.660  1.00  0.00     0.022 A 
BRANCH  72  75
ATOM     75  S   UNL     1      10.141  14.991  -3.186  1.00  0.00     0.127 S 
ATOM     76  O   UNL     1       9.493  14.717  -1.905  1.00  0.00    -0.237 OA
ATOM     77  O   UNL     1      11.186  16.014  -3.134  1.00  0.00    -0.237 OA
ATOM     78  O   UNL     1       9.249  15.096  -4.332  1.00  0.00    -0.744 OA
ENDBRANCH  72  75
ENDBRANCH  54  68
BRANCH  55  79
ATOM     79  C   UNL     1       8.347   4.381 -10.883  1.00  0.00     0.023 A 
ATOM     80  C   UNL     1       9.157   3.760 -11.852  1.00  0.00     0.012 A 
ATOM     81  C   UNL     1       7.005   3.976 -10.744  1.00  0.00     0.148 A 
ATOM     82  C   UNL     1       8.636   2.765 -12.681  1.00  0.00     0.002 A 
ATOM     83  C   UNL     1       6.508   2.945 -11.532  1.00  0.00     0.091 A 
ATOM     84  F   UNL     1       6.253   4.584  -9.816  1.00  0.00    -0.205 F 
ATOM     85  C   UNL     1       7.317   2.349 -12.512  1.00  0.00     0.022 A 
BRANCH  83  86
ATOM     86  S   UNL     1       4.871   2.248 -11.293  1.00  0.00     0.127 S 
ATOM     87  O   UNL     1       4.220   2.571 -12.560  1.00  0.00    -0.237 OA
ATOM     88  O   UNL     1       5.178   0.830 -11.101  1.00  0.00    -0.237 OA
ATOM     89  O   UNL     1       4.324   2.913 -10.119  1.00  0.00    -0.744 OA
ENDBRANCH  83  86
ENDBRANCH  55  79
BRANCH  67  90
ATOM     90  C   UNL     1      10.786  10.894 -11.730  1.00  0.00     0.023 A 
ATOM     91  C   UNL     1       9.691  11.480 -12.393  1.00  0.00     0.012 A 
ATOM     92  C   UNL     1      12.097  11.224 -12.133  1.00  0.00     0.148 A 
ATOM     93  C   UNL     1       9.896  12.366 -13.451  1.00  0.00     0.002 A 
ATOM     94  C   UNL     1      12.294  12.147 -13.151  1.00  0.00     0.091 A 
ATOM     95  F   UNL     1      13.124  10.640 -11.499  1.00  0.00    -0.205 F 
ATOM     96  C   UNL     1      11.195  12.710 -13.819  1.00  0.00     0.022 A 
BRANCH  94  97
ATOM     97  S   UNL     1      13.927  12.730 -13.621  1.00  0.00     0.127 S 
ATOM     98  O   UNL     1      14.068  12.170 -14.964  1.00  0.00    -0.237 OA
ATOM     99  O   UNL     1      13.759  14.183 -13.580  1.00  0.00    -0.237 OA
ATOM    100  O   UNL     1      14.849  12.198 -12.627  1.00  0.00    -0.744 OA
ENDBRANCH  94  97
ENDBRANCH  67  90
ENDBRANCH  41  42
ENDBRANCH  33  36
ENDBRANCH  31  32
ENDBRANCH  30  31
ENDBRANCH  29  30
ENDBRANCH   1  29
TORSDOF 19
