REMARK SMILES CC(C)[NH2+][C@]1(C(=O)NCCCCNC(=O)c2ccc(-c3c4nc(c(-c5cccc(S(=O)(=O)[O-])c5F)c5ccc([nH]5)c(-c5cccc(S(=O)(=O)[O-])c5F)c5nc(c(-c6cccc(S(=O)(=O)[O-])c6F)c6ccc3[nH]6)C=C5)C=C4)cc2)CCC[C@H]([N@H+](C)C2CCCCC2)C1
REMARK SMILES IDX 11 1 10 2 9 3 8 4 6 5 7 6 5 8 79 9 91 10 80 11 82 12 81 13
REMARK SMILES IDX 4 14 2 17 1 18 3 19 83 20 84 21 85 23 86 24 90 25 87 26
REMARK SMILES IDX 89 27 88 28 12 29 13 30 14 31 15 33 16 34 17 35 78 36 18 37
REMARK SMILES IDX 77 38 19 39 20 40 21 41 71 42 22 43 76 44 70 45 72 46 23 47
REMARK SMILES IDX 75 48 69 49 68 50 24 52 56 53 36 54 55 55 37 56 40 57 54 58
REMARK SMILES IDX 73 59 38 60 39 61 53 63 74 64 41 65 25 66 26 67 34 68 27 69
REMARK SMILES IDX 29 70 35 71 28 72 30 73 31 74 32 75 33 76 57 77 58 78 66 79
REMARK SMILES IDX 59 80 61 81 67 82 60 83 62 84 63 85 64 86 65 87 42 88 43 89
REMARK SMILES IDX 51 90 44 91 46 92 52 93 45 94 47 95 48 96 49 97 50 98
REMARK H PARENT 8 7 4 15 4 16 83 22 13 32 72 51 40 62
REMARK Flexibility Score: inf
ROOT
ATOM      1  C   UNL     1       2.144   1.687   2.755  1.00  0.00     0.023 C 
ENDROOT
BRANCH   1   2
ATOM      2  C   UNL     1       1.727   0.266   3.119  1.00  0.00     0.023 C 
BRANCH   2   3
ATOM      3  C   UNL     1       0.245  -0.029   2.930  1.00  0.00     0.116 C 
BRANCH   3   4
ATOM      4  N   UNL     1      -0.120  -0.176   1.539  1.00  0.00    -0.351 N 
ATOM      5  C   UNL     1      -0.832  -1.087   0.829  1.00  0.00     0.281 C 
ATOM      6  O   UNL     1      -1.013  -0.764  -0.356  1.00  0.00    -0.268 OA
ATOM      7  H   UNL     1       0.227   0.554   0.977  1.00  0.00     0.163 HD
BRANCH   5   8
ATOM      8  C   UNL     1      -1.422  -2.440   1.384  1.00  0.00     0.181 C 
ATOM      9  C   UNL     1      -1.003  -3.464   0.280  1.00  0.00     0.079 C 
ATOM     10  C   UNL     1      -0.869  -2.964   2.727  1.00  0.00     0.144 C 
ATOM     11  C   UNL     1      -1.225  -4.931   0.622  1.00  0.00     0.013 C 
ATOM     12  C   UNL     1      -1.237  -4.434   3.123  1.00  0.00     0.190 C 
ATOM     13  C   UNL     1      -0.652  -5.288   1.989  1.00  0.00     0.065 C 
BRANCH   8  14
ATOM     14  N   UNL     1      -2.914  -2.415   1.413  1.00  0.00    -0.331 N 
ATOM     15  H   UNL     1      -3.236  -2.737   0.500  1.00  0.00     0.347 HD
ATOM     16  H   UNL     1      -3.151  -3.000   2.215  1.00  0.00     0.347 HD
BRANCH  14  17
ATOM     17  C   UNL     1      -3.602  -1.151   1.689  1.00  0.00     0.176 C 
ATOM     18  C   UNL     1      -5.099  -1.381   1.444  1.00  0.00     0.075 C 
ATOM     19  C   UNL     1      -3.432  -0.614   3.109  1.00  0.00     0.075 C 
ENDBRANCH  14  17
ENDBRANCH   8  14
BRANCH  12  20
ATOM     20  N   UNL     1      -2.684  -4.540   3.512  1.00  0.00    -0.332 N 
ATOM     21  C   UNL     1      -2.852  -3.854   4.825  1.00  0.00     0.333 C 
ATOM     22  H   UNL     1      -3.176  -4.112   2.728  1.00  0.00     0.348 HD
BRANCH  20  23
ATOM     23  C   UNL     1      -3.318  -5.906   3.613  1.00  0.00     0.184 C 
ATOM     24  C   UNL     1      -4.767  -5.791   4.201  1.00  0.00     0.065 C 
ATOM     25  C   UNL     1      -3.459  -6.680   2.282  1.00  0.00     0.065 C 
ATOM     26  C   UNL     1      -5.539  -7.106   4.283  1.00  0.00     0.006 C 
ATOM     27  C   UNL     1      -4.175  -8.021   2.426  1.00  0.00     0.006 C 
ATOM     28  C   UNL     1      -5.582  -7.830   2.952  1.00  0.00     0.000 C 
ENDBRANCH  20  23
ENDBRANCH  12  20
ENDBRANCH   5   8
ENDBRANCH   3   4
ENDBRANCH   2   3
ENDBRANCH   1   2
BRANCH   1  29
ATOM     29  C   UNL     1       1.272   2.792   3.341  1.00  0.00     0.116 C 
BRANCH  29  30
ATOM     30  N   UNL     1       1.031   2.655   4.774  1.00  0.00    -0.352 N 
ATOM     31  C   UNL     1       0.987   3.646   5.730  1.00  0.00     0.251 C 
ATOM     32  H   UNL     1       0.881   1.738   5.099  1.00  0.00     0.163 HD
ATOM     33  O   UNL     1       0.821   3.377   6.908  1.00  0.00    -0.269 OA
BRANCH  31  34
ATOM     34  C   UNL     1       1.197   5.037   5.290  1.00  0.00     0.039 A 
ATOM     35  C   UNL     1       2.269   5.754   5.823  1.00  0.00     0.014 A 
ATOM     36  C   UNL     1       0.417   5.567   4.260  1.00  0.00     0.014 A 
ATOM     37  C   UNL     1       2.614   6.982   5.259  1.00  0.00     0.010 A 
ATOM     38  C   UNL     1       0.810   6.752   3.652  1.00  0.00     0.010 A 
ATOM     39  C   UNL     1       1.916   7.467   4.141  1.00  0.00    -0.014 A 
BRANCH  39  40
ATOM     40  C   UNL     1       2.337   8.708   3.446  1.00  0.00     0.031 A 
ATOM     41  C   UNL     1       1.403   9.885   3.387  1.00  0.00     0.074 A 
ATOM     42  C   UNL     1       3.509   8.734   2.779  1.00  0.00     0.049 A 
ATOM     43  N   UNL     1       1.558  11.026   2.770  1.00  0.00    -0.248 NA
ATOM     44  C   UNL     1       0.111   9.751   4.082  1.00  0.00     0.031 C 
ATOM     45  C   UNL     1       4.456   7.619   2.679  1.00  0.00     0.029 A 
ATOM     46  N   UNL     1       4.090   9.726   2.028  1.00  0.00    -0.354 N 
ATOM     47  C   UNL     1       0.370  11.722   2.957  1.00  0.00     0.074 A 
ATOM     48  C   UNL     1      -0.507  10.867   3.725  1.00  0.00     0.031 C 
ATOM     49  C   UNL     1       5.497   7.991   1.916  1.00  0.00     0.029 A 
ATOM     50  C   UNL     1       5.286   9.358   1.453  1.00  0.00     0.049 A 
ATOM     51  H   UNL     1       3.689  10.617   1.912  1.00  0.00     0.167 HD
ATOM     52  C   UNL     1       0.051  12.973   2.554  1.00  0.00     0.034 A 
ATOM     53  C   UNL     1       6.115  10.048   0.645  1.00  0.00     0.034 A 
ATOM     54  C   UNL     1       0.956  13.848   1.863  1.00  0.00     0.049 A 
ATOM     55  C   UNL     1       5.767  11.469   0.287  1.00  0.00     0.074 A 
ATOM     56  C   UNL     1       0.775  15.178   1.527  1.00  0.00     0.029 A 
ATOM     57  N   UNL     1       2.210  13.483   1.403  1.00  0.00    -0.354 N 
ATOM     58  N   UNL     1       4.724  12.178   0.644  1.00  0.00    -0.248 NA
ATOM     59  C   UNL     1       6.728  12.199  -0.553  1.00  0.00     0.031 C 
ATOM     60  C   UNL     1       1.919  15.615   0.852  1.00  0.00     0.029 A 
ATOM     61  C   UNL     1       2.815  14.560   0.779  1.00  0.00     0.049 A 
ATOM     62  H   UNL     1       2.612  12.590   1.504  1.00  0.00     0.167 HD
ATOM     63  C   UNL     1       4.923  13.445   0.109  1.00  0.00     0.074 A 
ATOM     64  C   UNL     1       6.196  13.413  -0.579  1.00  0.00     0.031 C 
ATOM     65  C   UNL     1       4.116  14.532   0.165  1.00  0.00     0.034 A 
BRANCH  52  66
ATOM     66  C   UNL     1      -1.309  13.505   2.912  1.00  0.00     0.023 A 
ATOM     67  C   UNL     1      -1.576  13.884   4.243  1.00  0.00     0.012 A 
ATOM     68  C   UNL     1      -2.289  13.711   1.922  1.00  0.00     0.148 A 
ATOM     69  C   UNL     1      -2.806  14.440   4.589  1.00  0.00     0.002 A 
ATOM     70  C   UNL     1      -3.498  14.305   2.267  1.00  0.00     0.091 A 
ATOM     71  F   UNL     1      -2.021  13.324   0.667  1.00  0.00    -0.205 F 
ATOM     72  C   UNL     1      -3.760  14.662   3.600  1.00  0.00     0.022 A 
BRANCH  70  73
ATOM     73  S   UNL     1      -4.765  14.704   1.058  1.00  0.00     0.127 S 
ATOM     74  O   UNL     1      -5.829  13.772   1.429  1.00  0.00    -0.237 OA
ATOM     75  O   UNL     1      -5.048  16.106   1.363  1.00  0.00    -0.237 OA
ATOM     76  O   UNL     1      -4.163  14.473  -0.248  1.00  0.00    -0.744 OA
ENDBRANCH  70  73
ENDBRANCH  52  66
BRANCH  53  77
ATOM     77  C   UNL     1       7.397   9.442   0.183  1.00  0.00     0.023 A 
ATOM     78  C   UNL     1       8.614   9.942   0.687  1.00  0.00     0.012 A 
ATOM     79  C   UNL     1       7.425   8.383  -0.744  1.00  0.00     0.148 A 
ATOM     80  C   UNL     1       9.834   9.430   0.245  1.00  0.00     0.002 A 
ATOM     81  C   UNL     1       8.643   7.840  -1.140  1.00  0.00     0.091 A 
ATOM     82  F   UNL     1       6.260   7.927  -1.229  1.00  0.00    -0.205 F 
ATOM     83  C   UNL     1       9.849   8.374  -0.661  1.00  0.00     0.022 A 
BRANCH  81  84
ATOM     84  S   UNL     1       8.735   6.394  -2.201  1.00  0.00     0.127 S 
ATOM     85  O   UNL     1       8.991   6.994  -3.507  1.00  0.00    -0.237 OA
ATOM     86  O   UNL     1       9.864   5.659  -1.629  1.00  0.00    -0.237 OA
ATOM     87  O   UNL     1       7.450   5.724  -2.040  1.00  0.00    -0.744 OA
ENDBRANCH  81  84
ENDBRANCH  53  77
BRANCH  65  88
ATOM     88  C   UNL     1       4.595  15.796  -0.496  1.00  0.00     0.023 A 
ATOM     89  C   UNL     1       4.579  15.896  -1.901  1.00  0.00     0.012 A 
ATOM     90  C   UNL     1       4.972  16.912   0.275  1.00  0.00     0.148 A 
ATOM     91  C   UNL     1       4.959  17.081  -2.529  1.00  0.00     0.002 A 
ATOM     92  C   UNL     1       5.304  18.104  -0.357  1.00  0.00     0.091 A 
ATOM     93  F   UNL     1       4.998  16.789   1.611  1.00  0.00    -0.205 F 
ATOM     94  C   UNL     1       5.308  18.188  -1.758  1.00  0.00     0.022 A 
BRANCH  92  95
ATOM     95  S   UNL     1       5.669  19.604   0.563  1.00  0.00     0.127 S 
ATOM     96  O   UNL     1       7.124  19.675   0.452  1.00  0.00    -0.237 OA
ATOM     97  O   UNL     1       4.948  20.624  -0.201  1.00  0.00    -0.237 OA
ATOM     98  O   UNL     1       5.150  19.383   1.906  1.00  0.00    -0.744 OA
ENDBRANCH  92  95
ENDBRANCH  65  88
ENDBRANCH  39  40
ENDBRANCH  31  34
ENDBRANCH  29  30
ENDBRANCH   1  29
TORSDOF 18
