REMARK SMILES CCN(C(=O)Cc1c(C(=O)NCCCCNC(=O)c2ccc(-c3c4nc(c(-c5cccc(S(=O)(=O)[O-])c5F)c5ccc([nH]5)c(-c5cccc(S(=O)(=O)[O-])c5F)c5nc(c(-c6cccc(S(=O)(=O)[O-])c6F)c6ccc3[nH]6)C=C5)C=C4)cc2)[nH]c2ccccc12)c1cccc(C)c1
REMARK SMILES IDX 13 1 12 2 11 3 9 4 10 5 8 7 7 8 88 9 82 10 83 11 87 12 84 14
REMARK SMILES IDX 86 15 85 16 6 17 4 18 5 19 3 20 2 21 1 22 89 23 90 24 95 25
REMARK SMILES IDX 91 26 93 27 92 28 94 29 14 30 15 31 16 32 17 33 18 35 19 36
REMARK SMILES IDX 20 37 81 38 21 39 80 40 22 41 23 42 24 43 74 44 25 45 79 46
REMARK SMILES IDX 73 47 75 48 26 49 78 50 72 51 71 52 27 54 59 55 39 56 58 57
REMARK SMILES IDX 40 58 43 59 57 60 76 61 41 62 42 63 56 65 77 66 44 67 28 68
REMARK SMILES IDX 29 69 37 70 30 71 32 72 38 73 31 74 33 75 34 76 35 77 36 78
REMARK SMILES IDX 60 79 61 80 69 81 62 82 64 83 70 84 63 85 65 86 66 87 67 88
REMARK SMILES IDX 68 89 45 90 46 91 54 92 47 93 49 94 55 95 48 96 50 97 51 98
REMARK SMILES IDX 52 99 53 100
REMARK H PARENT 11 6 82 13 16 34 75 53 43 64
REMARK Flexibility Score: inf
ROOT
ATOM      1  C   UNL     1      -3.379   1.359  -2.487  1.00  0.00     0.023 C 
ENDROOT
BRANCH   1   2
ATOM      2  C   UNL     1      -4.282   1.054  -1.293  1.00  0.00     0.116 C 
BRANCH   2   3
ATOM      3  N   UNL     1      -4.016  -0.255  -0.736  1.00  0.00    -0.351 N 
ATOM      4  C   UNL     1      -3.260  -0.746   0.293  1.00  0.00     0.268 C 
ATOM      5  O   UNL     1      -3.296  -1.974   0.401  1.00  0.00    -0.268 OA
ATOM      6  H   UNL     1      -4.499  -0.967  -1.214  1.00  0.00     0.163 HD
BRANCH   4   7
ATOM      7  C   UNL     1      -2.467   0.080   1.197  1.00  0.00     0.109 A 
ATOM      8  C   UNL     1      -1.586  -0.369   2.197  1.00  0.00    -0.000 A 
ATOM      9  C   UNL     1      -1.092   0.783   2.905  1.00  0.00     0.004 A 
ATOM     10  N   UNL     1      -2.421   1.452   1.263  1.00  0.00    -0.350 N 
ATOM     11  C   UNL     1      -1.603   1.903   2.267  1.00  0.00     0.046 A 
ATOM     12  C   UNL     1      -0.228   0.982   4.003  1.00  0.00     0.010 A 
ATOM     13  H   UNL     1      -2.919   2.046   0.656  1.00  0.00     0.167 HD
ATOM     14  C   UNL     1      -1.282   3.213   2.644  1.00  0.00     0.027 A 
ATOM     15  C   UNL     1       0.111   2.283   4.395  1.00  0.00     0.001 A 
ATOM     16  C   UNL     1      -0.406   3.382   3.718  1.00  0.00     0.002 A 
BRANCH   8  17
ATOM     17  C   UNL     1      -1.207  -1.800   2.497  1.00  0.00     0.139 C 
BRANCH  17  18
ATOM     18  C   UNL     1       0.281  -1.983   2.791  1.00  0.00     0.231 C 
ATOM     19  O   UNL     1       0.608  -2.304   3.942  1.00  0.00    -0.274 OA
BRANCH  18  20
ATOM     20  N   UNL     1       1.207  -1.730   1.763  1.00  0.00    -0.312 N 
BRANCH  20  21
ATOM     21  C   UNL     1       0.826  -1.559   0.346  1.00  0.00     0.122 C 
ATOM     22  C   UNL     1       0.817  -0.130  -0.181  1.00  0.00     0.028 C 
ENDBRANCH  20  21
BRANCH  20  23
ATOM     23  C   UNL     1       2.611  -1.770   2.056  1.00  0.00     0.044 A 
ATOM     24  C   UNL     1       3.157  -2.809   2.818  1.00  0.00     0.026 A 
ATOM     25  C   UNL     1       3.467  -0.757   1.605  1.00  0.00     0.029 A 
ATOM     26  C   UNL     1       4.523  -2.843   3.108  1.00  0.00     0.002 A 
ATOM     27  C   UNL     1       4.838  -0.771   1.903  1.00  0.00    -0.049 A 
ATOM     28  C   UNL     1       5.361  -1.827   2.654  1.00  0.00     0.003 A 
ATOM     29  C   UNL     1       5.727   0.355   1.466  1.00  0.00     0.044 C 
ENDBRANCH  20  23
ENDBRANCH  18  20
ENDBRANCH  17  18
ENDBRANCH   8  17
ENDBRANCH   4   7
ENDBRANCH   2   3
ENDBRANCH   1   2
BRANCH   1  30
ATOM     30  C   UNL     1      -3.793   0.657  -3.788  1.00  0.00     0.023 C 
BRANCH  30  31
ATOM     31  C   UNL     1      -5.234   0.899  -4.239  1.00  0.00     0.116 C 
BRANCH  31  32
ATOM     32  N   UNL     1      -5.586   2.309  -4.344  1.00  0.00    -0.352 N 
ATOM     33  C   UNL     1      -6.529   2.881  -5.166  1.00  0.00     0.251 C 
ATOM     34  H   UNL     1      -5.090   2.925  -3.758  1.00  0.00     0.163 HD
ATOM     35  O   UNL     1      -6.667   4.100  -5.208  1.00  0.00    -0.269 OA
BRANCH  33  36
ATOM     36  C   UNL     1      -7.342   2.001  -6.028  1.00  0.00     0.039 A 
ATOM     37  C   UNL     1      -7.326   2.200  -7.411  1.00  0.00     0.014 A 
ATOM     38  C   UNL     1      -8.050   0.936  -5.468  1.00  0.00     0.014 A 
ATOM     39  C   UNL     1      -7.959   1.277  -8.245  1.00  0.00     0.010 A 
ATOM     40  C   UNL     1      -8.629  -0.011  -6.303  1.00  0.00     0.010 A 
ATOM     41  C   UNL     1      -8.581   0.145  -7.698  1.00  0.00    -0.014 A 
BRANCH  41  42
ATOM     42  C   UNL     1      -9.187  -0.911  -8.546  1.00  0.00     0.031 A 
ATOM     43  C   UNL     1     -10.663  -1.175  -8.454  1.00  0.00     0.074 A 
ATOM     44  C   UNL     1      -8.395  -1.718  -9.279  1.00  0.00     0.049 A 
ATOM     45  N   UNL     1     -11.357  -2.165  -8.949  1.00  0.00    -0.248 NA
ATOM     46  C   UNL     1     -11.457  -0.216  -7.667  1.00  0.00     0.031 C 
ATOM     47  C   UNL     1      -6.940  -1.600  -9.397  1.00  0.00     0.029 A 
ATOM     48  N   UNL     1      -8.698  -2.827 -10.029  1.00  0.00    -0.354 N 
ATOM     49  C   UNL     1     -12.655  -1.982  -8.488  1.00  0.00     0.074 A 
ATOM     50  C   UNL     1     -12.649  -0.794  -7.661  1.00  0.00     0.031 C 
ATOM     51  C   UNL     1      -6.477  -2.602 -10.162  1.00  0.00     0.029 A 
ATOM     52  C   UNL     1      -7.594  -3.453 -10.561  1.00  0.00     0.049 A 
ATOM     53  H   UNL     1      -9.619  -3.145 -10.173  1.00  0.00     0.167 HD
ATOM     54  C   UNL     1     -13.757  -2.723  -8.748  1.00  0.00     0.034 A 
ATOM     55  C   UNL     1      -7.493  -4.591 -11.276  1.00  0.00     0.034 A 
ATOM     56  C   UNL     1     -13.770  -3.861  -9.625  1.00  0.00     0.049 A 
ATOM     57  C   UNL     1      -8.745  -5.357 -11.610  1.00  0.00     0.074 A 
ATOM     58  C   UNL     1     -14.848  -4.631 -10.019  1.00  0.00     0.029 A 
ATOM     59  N   UNL     1     -12.650  -4.383 -10.254  1.00  0.00    -0.354 N 
ATOM     60  N   UNL     1      -9.985  -5.095 -11.272  1.00  0.00    -0.248 NA
ATOM     61  C   UNL     1      -8.593  -6.554 -12.449  1.00  0.00     0.031 C 
ATOM     62  C   UNL     1     -14.381  -5.620 -10.891  1.00  0.00     0.029 A 
ATOM     63  C   UNL     1     -13.013  -5.459 -11.044  1.00  0.00     0.049 A 
ATOM     64  H   UNL     1     -11.733  -4.040 -10.154  1.00  0.00     0.167 HD
ATOM     65  C   UNL     1     -10.763  -6.065 -11.893  1.00  0.00     0.074 A 
ATOM     66  C   UNL     1      -9.856  -6.917 -12.634  1.00  0.00     0.031 C 
ATOM     67  C   UNL     1     -12.105  -6.243 -11.841  1.00  0.00     0.034 A 
BRANCH  54  68
ATOM     68  C   UNL     1     -15.055  -2.284  -8.126  1.00  0.00     0.023 A 
ATOM     69  C   UNL     1     -15.707  -1.139  -8.624  1.00  0.00     0.012 A 
ATOM     70  C   UNL     1     -15.651  -3.023  -7.087  1.00  0.00     0.148 A 
ATOM     71  C   UNL     1     -16.916  -0.715  -8.076  1.00  0.00     0.002 A 
ATOM     72  C   UNL     1     -16.878  -2.618  -6.572  1.00  0.00     0.091 A 
ATOM     73  F   UNL     1     -15.003  -4.095  -6.607  1.00  0.00    -0.205 F 
ATOM     74  C   UNL     1     -17.506  -1.460  -7.059  1.00  0.00     0.022 A 
BRANCH  72  75
ATOM     75  S   UNL     1     -17.748  -3.556  -5.311  1.00  0.00     0.127 S 
ATOM     76  O   UNL     1     -17.481  -2.760  -4.114  1.00  0.00    -0.237 OA
ATOM     77  O   UNL     1     -19.133  -3.503  -5.782  1.00  0.00    -0.237 OA
ATOM     78  O   UNL     1     -17.156  -4.886  -5.329  1.00  0.00    -0.744 OA
ENDBRANCH  72  75
ENDBRANCH  54  68
BRANCH  55  79
ATOM     79  C   UNL     1      -6.165  -5.029 -11.792  1.00  0.00     0.023 A 
ATOM     80  C   UNL     1      -5.898  -4.917 -13.171  1.00  0.00     0.012 A 
ATOM     81  C   UNL     1      -5.159  -5.516 -10.936  1.00  0.00     0.148 A 
ATOM     82  C   UNL     1      -4.664  -5.306 -13.692  1.00  0.00     0.002 A 
ATOM     83  C   UNL     1      -3.913  -5.854 -11.454  1.00  0.00     0.091 A 
ATOM     84  F   UNL     1      -5.435  -5.630  -9.629  1.00  0.00    -0.205 F 
ATOM     85  C   UNL     1      -3.668  -5.764 -12.833  1.00  0.00     0.022 A 
BRANCH  83  86
ATOM     86  S   UNL     1      -2.534  -6.326 -10.403  1.00  0.00     0.127 S 
ATOM     87  O   UNL     1      -2.478  -7.770 -10.613  1.00  0.00    -0.237 OA
ATOM     88  O   UNL     1      -1.426  -5.574 -10.994  1.00  0.00    -0.237 OA
ATOM     89  O   UNL     1      -2.902  -5.888  -9.063  1.00  0.00    -0.744 OA
ENDBRANCH  83  86
ENDBRANCH  55  79
BRANCH  67  90
ATOM     90  C   UNL     1     -12.700  -7.364 -12.649  1.00  0.00     0.023 A 
ATOM     91  C   UNL     1     -12.599  -8.688 -12.185  1.00  0.00     0.012 A 
ATOM     92  C   UNL     1     -13.459  -7.086 -13.804  1.00  0.00     0.148 A 
ATOM     93  C   UNL     1     -13.235  -9.725 -12.867  1.00  0.00     0.002 A 
ATOM     94  C   UNL     1     -14.123  -8.119 -14.454  1.00  0.00     0.091 A 
ATOM     95  F   UNL     1     -13.523  -5.819 -14.238  1.00  0.00    -0.205 F 
ATOM     96  C   UNL     1     -14.007  -9.439 -13.991  1.00  0.00     0.022 A 
BRANCH  94  97
ATOM     97  S   UNL     1     -15.213  -7.828 -15.853  1.00  0.00     0.127 S 
ATOM     98  O   UNL     1     -14.411  -8.332 -16.966  1.00  0.00    -0.237 OA
ATOM     99  O   UNL     1     -16.376  -8.650 -15.517  1.00  0.00    -0.237 OA
ATOM    100  O   UNL     1     -15.472  -6.395 -15.867  1.00  0.00    -0.744 OA
ENDBRANCH  94  97
ENDBRANCH  67  90
ENDBRANCH  41  42
ENDBRANCH  33  36
ENDBRANCH  31  32
ENDBRANCH  30  31
ENDBRANCH   1  30
TORSDOF 19
