REMARK SMILES COc1c(C)cccc1C(=O)NC(=S)Nc1ccc(C(=O)NCCCCNC(=O)c2ccc(-c3c4nc(c(-c5cccc(S(=O)(=O)[O-])c5F)c5ccc([nH]5)c(-c5cccc(S(=O)(=O)[O-])c5F)c5nc(c(-c6cccc(S(=O)(=O)[O-])c6F)c6ccc3[nH]6)C=C5)C=C4)cc2)cc1C
REMARK SMILES IDX 23 1 22 2 20 3 21 4 19 6 16 7 17 8 94 9 18 10 93 11 95 12
REMARK SMILES IDX 15 13 13 15 14 16 12 17 10 18 11 19 9 21 3 22 4 23 5 24 6 25
REMARK SMILES IDX 8 26 7 27 2 28 1 29 24 30 25 31 26 32 27 33 28 34 29 36
REMARK SMILES IDX 30 37 31 38 92 39 32 40 91 41 33 42 34 43 35 44 85 45 36 46
REMARK SMILES IDX 90 47 84 48 86 49 37 50 89 51 83 52 82 53 38 55 70 56 50 57
REMARK SMILES IDX 69 58 51 59 54 60 68 61 87 62 52 63 53 64 67 66 88 67 55 68
REMARK SMILES IDX 39 69 40 70 48 71 41 72 43 73 49 74 42 75 44 76 45 77 46 78
REMARK SMILES IDX 47 79 71 80 72 81 80 82 73 83 75 84 81 85 74 86 76 87 77 88
REMARK SMILES IDX 78 89 79 90 56 91 57 92 65 93 58 94 60 95 66 96 59 97 61 98
REMARK SMILES IDX 62 99 63 100 64 101
REMARK H PARENT 22 5 15 14 12 20 27 35 86 54 54 65
REMARK Flexibility Score: inf
ROOT
ATOM      1  C   UNL     1      -0.676   3.924   5.624  1.00  0.00     0.116 C 
ENDROOT
BRANCH   1   2
ATOM      2  N   UNL     1       0.461   4.631   5.072  1.00  0.00    -0.352 N 
ATOM      3  C   UNL     1       1.510   4.028   4.417  1.00  0.00     0.251 C 
ATOM      4  O   UNL     1       2.555   3.968   5.070  1.00  0.00    -0.269 OA
ATOM      5  H   UNL     1       0.484   5.611   5.172  1.00  0.00     0.163 HD
BRANCH   3   6
ATOM      6  C   UNL     1       1.339   3.324   2.931  1.00  0.00     0.040 A 
ATOM      7  C   UNL     1       1.417   0.464   0.830  1.00  0.00     0.043 A 
ATOM      8  C   UNL     1       0.814   0.427   2.467  1.00  0.00     0.027 A 
ATOM      9  C   UNL     1       2.361   1.905   0.178  1.00  0.00    -0.027 A 
ATOM     10  C   UNL     1       0.712   1.765   3.448  1.00  0.00     0.016 A 
ATOM     11  C   UNL     1       2.182   3.497   1.111  1.00  0.00     0.019 A 
ATOM     12  C   UNL     1       3.529   1.889  -0.768  1.00  0.00     0.046 C 
BRANCH   7  13
ATOM     13  N   UNL     1      -0.056   0.190   0.296  1.00  0.00    -0.332 N 
ATOM     14  H   UNL     1      -0.100  -0.668  -0.184  1.00  0.00     0.169 HD
BRANCH  13  15
ATOM     15  C   UNL     1      -1.322   0.823   0.311  1.00  0.00     0.177 C 
ATOM     16  S   UNL     1      -2.603  -0.160  -0.198  1.00  0.00    -0.040 S 
BRANCH  15  17
ATOM     17  N   UNL     1      -1.716   2.175   0.608  1.00  0.00    -0.299 N 
ATOM     18  C   UNL     1      -1.390   3.593   0.983  1.00  0.00     0.261 C 
ATOM     19  O   UNL     1      -2.259   4.458   1.006  1.00  0.00    -0.269 OA
ATOM     20  H   UNL     1      -2.697   2.167   0.522  1.00  0.00     0.172 HD
BRANCH  18  21
ATOM     21  C   UNL     1       0.001   3.912   1.342  1.00  0.00     0.082 A 
ATOM     22  C   UNL     1       0.749   2.359   1.351  1.00  0.00     0.134 A 
ATOM     23  C   UNL     1       2.556   2.056   2.196  1.00  0.00    -0.008 A 
ATOM     24  C   UNL     1       3.504   0.848   2.475  1.00  0.00     0.048 C 
ATOM     25  C   UNL     1       3.463   3.559   2.718  1.00  0.00     0.007 A 
ATOM     26  C   UNL     1       0.947   5.266   1.874  1.00  0.00     0.018 A 
ATOM     27  C   UNL     1       2.617   5.131   2.513  1.00  0.00     0.001 A 
BRANCH  22  28
ATOM     28  O   UNL     1       0.502   2.686  -0.409  1.00  0.00    -0.496 OA
ATOM     29  C   UNL     1       0.612   1.822  -1.615  1.00  0.00     0.278 C 
ENDBRANCH  22  28
ENDBRANCH  18  21
ENDBRANCH  15  17
ENDBRANCH  13  15
ENDBRANCH   7  13
ENDBRANCH   3   6
ENDBRANCH   1   2
BRANCH   1  30
ATOM     30  C   UNL     1      -0.313   2.803   6.631  1.00  0.00     0.023 C 
BRANCH  30  31
ATOM     31  C   UNL     1       0.351   3.126   7.977  1.00  0.00     0.023 C 
BRANCH  31  32
ATOM     32  C   UNL     1      -0.406   4.085   8.855  1.00  0.00     0.116 C 
BRANCH  32  33
ATOM     33  N   UNL     1      -1.791   3.654   9.068  1.00  0.00    -0.352 N 
ATOM     34  C   UNL     1      -2.809   4.285   9.764  1.00  0.00     0.251 C 
ATOM     35  H   UNL     1      -2.032   2.792   8.657  1.00  0.00     0.163 HD
ATOM     36  O   UNL     1      -3.615   3.596  10.378  1.00  0.00    -0.269 OA
BRANCH  34  37
ATOM     37  C   UNL     1      -2.942   5.750   9.652  1.00  0.00     0.039 A 
ATOM     38  C   UNL     1      -3.985   6.485  10.210  1.00  0.00     0.014 A 
ATOM     39  C   UNL     1      -2.138   6.360   8.704  1.00  0.00     0.014 A 
ATOM     40  C   UNL     1      -4.298   7.703   9.608  1.00  0.00     0.010 A 
ATOM     41  C   UNL     1      -2.174   7.671   8.445  1.00  0.00     0.010 A 
ATOM     42  C   UNL     1      -3.427   8.192   8.639  1.00  0.00    -0.014 A 
BRANCH  42  43
ATOM     43  C   UNL     1      -3.630   9.274   7.718  1.00  0.00     0.031 A 
ATOM     44  C   UNL     1      -3.451  10.584   8.321  1.00  0.00     0.074 A 
ATOM     45  C   UNL     1      -3.585   8.954   6.397  1.00  0.00     0.049 A 
ATOM     46  N   UNL     1      -4.005  11.647   7.886  1.00  0.00    -0.248 NA
ATOM     47  C   UNL     1      -2.682  10.783   9.556  1.00  0.00     0.031 C 
ATOM     48  C   UNL     1      -3.159   9.754   5.258  1.00  0.00     0.029 A 
ATOM     49  N   UNL     1      -3.956   7.741   5.803  1.00  0.00    -0.354 N 
ATOM     50  C   UNL     1      -3.342  12.679   8.506  1.00  0.00     0.074 A 
ATOM     51  C   UNL     1      -2.722  12.112   9.674  1.00  0.00     0.031 C 
ATOM     52  C   UNL     1      -3.562   9.157   4.117  1.00  0.00     0.029 A 
ATOM     53  C   UNL     1      -4.364   8.002   4.484  1.00  0.00     0.049 A 
ATOM     54  H   UNL     1      -3.935   6.857   6.235  1.00  0.00     0.167 HD
ATOM     55  C   UNL     1      -3.143  13.817   7.793  1.00  0.00     0.034 A 
ATOM     56  C   UNL     1      -5.675   7.803   4.138  1.00  0.00     0.034 A 
ATOM     57  C   UNL     1      -3.644  13.617   6.422  1.00  0.00     0.049 A 
ATOM     58  C   UNL     1      -6.403   9.123   3.965  1.00  0.00     0.074 A 
ATOM     59  C   UNL     1      -3.007  13.262   5.243  1.00  0.00     0.029 A 
ATOM     60  N   UNL     1      -4.996  13.373   6.225  1.00  0.00    -0.354 N 
ATOM     61  N   UNL     1      -5.931  10.265   4.383  1.00  0.00    -0.248 NA
ATOM     62  C   UNL     1      -7.680   9.277   3.276  1.00  0.00     0.031 C 
ATOM     63  C   UNL     1      -3.994  12.787   4.338  1.00  0.00     0.029 A 
ATOM     64  C   UNL     1      -5.226  12.851   4.965  1.00  0.00     0.049 A 
ATOM     65  H   UNL     1      -5.697  13.548   6.893  1.00  0.00     0.167 HD
ATOM     66  C   UNL     1      -6.812  11.274   4.112  1.00  0.00     0.074 A 
ATOM     67  C   UNL     1      -7.875  10.606   3.377  1.00  0.00     0.031 C 
ATOM     68  C   UNL     1      -6.588  12.558   4.536  1.00  0.00     0.034 A 
BRANCH  55  69
ATOM     69  C   UNL     1      -2.218  14.949   8.167  1.00  0.00     0.023 A 
ATOM     70  C   UNL     1      -1.802  15.785   7.106  1.00  0.00     0.012 A 
ATOM     71  C   UNL     1      -1.742  15.286   9.456  1.00  0.00     0.148 A 
ATOM     72  C   UNL     1      -0.927  16.853   7.287  1.00  0.00     0.002 A 
ATOM     73  C   UNL     1      -0.837  16.338   9.634  1.00  0.00     0.091 A 
ATOM     74  F   UNL     1      -2.205  14.638  10.530  1.00  0.00    -0.205 F 
ATOM     75  C   UNL     1      -0.430  17.122   8.549  1.00  0.00     0.022 A 
BRANCH  73  76
ATOM     76  S   UNL     1      -0.107  16.753  11.228  1.00  0.00     0.127 S 
ATOM     77  O   UNL     1       1.324  16.767  10.915  1.00  0.00    -0.237 OA
ATOM     78  O   UNL     1      -0.678  18.071  11.500  1.00  0.00    -0.237 OA
ATOM     79  O   UNL     1      -0.503  15.696  12.149  1.00  0.00    -0.744 OA
ENDBRANCH  73  76
ENDBRANCH  55  69
BRANCH  56  80
ATOM     80  C   UNL     1      -6.221   6.573   4.809  1.00  0.00     0.023 A 
ATOM     81  C   UNL     1      -5.546   5.359   4.510  1.00  0.00     0.012 A 
ATOM     82  C   UNL     1      -6.909   6.680   6.028  1.00  0.00     0.148 A 
ATOM     83  C   UNL     1      -5.322   4.412   5.512  1.00  0.00     0.002 A 
ATOM     84  C   UNL     1      -6.710   5.710   7.010  1.00  0.00     0.091 A 
ATOM     85  F   UNL     1      -7.681   7.753   6.243  1.00  0.00    -0.205 F 
ATOM     86  C   UNL     1      -5.853   4.620   6.782  1.00  0.00     0.022 A 
BRANCH  84  87
ATOM     87  S   UNL     1      -7.488   5.882   8.619  1.00  0.00     0.127 S 
ATOM     88  O   UNL     1      -8.813   5.323   8.366  1.00  0.00    -0.237 OA
ATOM     89  O   UNL     1      -6.646   5.061   9.486  1.00  0.00    -0.237 OA
ATOM     90  O   UNL     1      -7.436   7.308   8.908  1.00  0.00    -0.744 OA
ENDBRANCH  84  87
ENDBRANCH  56  80
BRANCH  68  91
ATOM     91  C   UNL     1      -7.607  13.686   4.559  1.00  0.00     0.023 A 
ATOM     92  C   UNL     1      -8.981  13.461   4.382  1.00  0.00     0.012 A 
ATOM     93  C   UNL     1      -7.226  15.018   4.892  1.00  0.00     0.148 A 
ATOM     94  C   UNL     1      -9.915  14.500   4.437  1.00  0.00     0.002 A 
ATOM     95  C   UNL     1      -8.172  16.015   5.090  1.00  0.00     0.091 A 
ATOM     96  F   UNL     1      -5.933  15.354   4.985  1.00  0.00    -0.205 F 
ATOM     97  C   UNL     1      -9.515  15.773   4.815  1.00  0.00     0.022 A 
BRANCH  95  98
ATOM     98  S   UNL     1      -7.738  17.600   5.821  1.00  0.00     0.127 S 
ATOM     99  O   UNL     1      -7.753  18.479   4.654  1.00  0.00    -0.237 OA
ATOM    100  O   UNL     1      -8.840  17.813   6.761  1.00  0.00    -0.237 OA
ATOM    101  O   UNL     1      -6.441  17.404   6.454  1.00  0.00    -0.744 OA
ENDBRANCH  95  98
ENDBRANCH  68  91
ENDBRANCH  42  43
ENDBRANCH  34  37
ENDBRANCH  32  33
ENDBRANCH  31  32
ENDBRANCH  30  31
ENDBRANCH   1  30
TORSDOF 19
