REMARK SMILES CC(C)C[C@H](CNC(=O)N[C@@H](C)C1CCCCC1)C(=O)NCCCCNC(=O)c1ccc(-c2c3nc(c(-c4cccc(S(=O)(=O)[O-])c4F)c4ccc([nH]4)c(-c4cccc(S(=O)(=O)[O-])c4F)c4nc(c(-c5cccc(S(=O)(=O)[O-])c5F)c5ccc2[nH]5)C=C4)C=C3)cc1
REMARK SMILES IDX 23 1 22 2 21 3 19 4 20 5 5 7 4 8 2 9 1 10 3 11 6 12 7 13
REMARK SMILES IDX 8 14 9 16 10 17 11 19 12 20 13 21 14 22 18 23 15 24 17 25
REMARK SMILES IDX 16 26 24 27 25 28 26 29 27 30 28 32 29 33 30 34 91 35 31 36
REMARK SMILES IDX 90 37 32 38 33 39 34 40 84 41 35 42 89 43 83 44 85 45 36 46
REMARK SMILES IDX 88 47 82 48 81 49 37 51 69 52 49 53 68 54 50 55 53 56 67 57
REMARK SMILES IDX 86 58 51 59 52 60 66 62 87 63 54 64 38 65 39 66 47 67 40 68
REMARK SMILES IDX 42 69 48 70 41 71 43 72 44 73 45 74 46 75 70 76 71 77 79 78
REMARK SMILES IDX 72 79 74 80 80 81 73 82 75 83 76 84 77 85 78 86 55 87 56 88
REMARK SMILES IDX 64 89 57 90 59 91 65 92 58 93 60 94 61 95 62 96 63 97
REMARK H PARENT 21 6 7 15 10 18 26 31 85 50 53 61
REMARK Flexibility Score: inf
ROOT
ATOM      1  C   UNL     1      -3.478   3.605   2.036  1.00  0.00     0.023 C 
ENDROOT
BRANCH   1   2
ATOM      2  C   UNL     1      -3.325   2.365   2.915  1.00  0.00     0.116 C 
BRANCH   2   3
ATOM      3  N   UNL     1      -3.629   1.155   2.178  1.00  0.00    -0.356 N 
ATOM      4  C   UNL     1      -2.817   0.243   1.580  1.00  0.00     0.224 C 
ATOM      5  O   UNL     1      -3.357  -0.665   0.942  1.00  0.00    -0.275 OA
ATOM      6  H   UNL     1      -4.590   0.959   2.097  1.00  0.00     0.163 HD
BRANCH   4   7
ATOM      7  C   UNL     1      -1.298   0.283   1.707  1.00  0.00     0.098 C 
BRANCH   7   8
ATOM      8  C   UNL     1      -0.826  -0.049   3.140  1.00  0.00     0.018 C 
BRANCH   8   9
ATOM      9  C   UNL     1      -1.117  -1.486   3.620  1.00  0.00    -0.017 C 
ATOM     10  C   UNL     1      -0.345  -2.530   2.813  1.00  0.00     0.007 C 
ATOM     11  C   UNL     1      -0.747  -1.607   5.103  1.00  0.00     0.007 C 
ENDBRANCH   8   9
ENDBRANCH   7   8
BRANCH   7  12
ATOM     12  C   UNL     1      -0.708   1.605   1.199  1.00  0.00     0.131 C 
BRANCH  12  13
ATOM     13  N   UNL     1       0.703   1.486   0.880  1.00  0.00    -0.337 N 
ATOM     14  C   UNL     1       1.405   1.158  -0.201  1.00  0.00     0.315 C 
ATOM     15  H   UNL     1       1.279   1.699   1.650  1.00  0.00     0.165 HD
ATOM     16  O   UNL     1       2.630   1.064  -0.074  1.00  0.00    -0.249 OA
ATOM     17  N   UNL     1       0.896   0.922  -1.407  1.00  0.00    -0.335 N 
ATOM     18  H   UNL     1       1.585   0.585  -2.025  1.00  0.00     0.165 HD
BRANCH  17  19
ATOM     19  C   UNL     1      -0.406   1.026  -2.069  1.00  0.00     0.083 C 
ATOM     20  C   UNL     1      -0.376   2.277  -2.953  1.00  0.00     0.031 C 
BRANCH  19  21
ATOM     21  C   UNL     1      -0.802  -0.301  -2.798  1.00  0.00     0.011 C 
ATOM     22  C   UNL     1      -1.688  -0.078  -4.041  1.00  0.00     0.006 C 
ATOM     23  C   UNL     1       0.390  -1.212  -3.154  1.00  0.00     0.006 C 
ATOM     24  C   UNL     1      -2.109  -1.385  -4.709  1.00  0.00     0.000 C 
ATOM     25  C   UNL     1      -0.057  -2.516  -3.810  1.00  0.00     0.000 C 
ATOM     26  C   UNL     1      -0.906  -2.257  -5.045  1.00  0.00     0.000 C 
ENDBRANCH  19  21
ENDBRANCH  17  19
ENDBRANCH  12  13
ENDBRANCH   7  12
ENDBRANCH   4   7
ENDBRANCH   2   3
ENDBRANCH   1   2
BRANCH   1  27
ATOM     27  C   UNL     1      -4.920   4.082   1.863  1.00  0.00     0.023 C 
BRANCH  27  28
ATOM     28  C   UNL     1      -5.662   4.387   3.160  1.00  0.00     0.116 C 
BRANCH  28  29
ATOM     29  N   UNL     1      -4.942   5.299   4.039  1.00  0.00    -0.352 N 
ATOM     30  C   UNL     1      -5.463   6.215   4.924  1.00  0.00     0.251 C 
ATOM     31  H   UNL     1      -3.960   5.254   3.994  1.00  0.00     0.163 HD
ATOM     32  O   UNL     1      -4.728   6.981   5.529  1.00  0.00    -0.269 OA
BRANCH  30  33
ATOM     33  C   UNL     1      -6.928   6.280   5.096  1.00  0.00     0.039 A 
ATOM     34  C   UNL     1      -7.571   7.510   4.937  1.00  0.00     0.014 A 
ATOM     35  C   UNL     1      -7.662   5.119   5.349  1.00  0.00     0.014 A 
ATOM     36  C   UNL     1      -8.965   7.563   4.967  1.00  0.00     0.010 A 
ATOM     37  C   UNL     1      -9.051   5.164   5.310  1.00  0.00     0.010 A 
ATOM     38  C   UNL     1      -9.715   6.385   5.119  1.00  0.00    -0.014 A 
BRANCH  38  39
ATOM     39  C   UNL     1     -11.197   6.403   5.064  1.00  0.00     0.031 A 
ATOM     40  C   UNL     1     -12.000   6.004   6.271  1.00  0.00     0.074 A 
ATOM     41  C   UNL     1     -11.815   6.681   3.899  1.00  0.00     0.049 A 
ATOM     42  N   UNL     1     -13.296   5.893   6.396  1.00  0.00    -0.248 NA
ATOM     43  C   UNL     1     -11.246   5.653   7.486  1.00  0.00     0.031 C 
ATOM     44  C   UNL     1     -11.140   6.992   2.637  1.00  0.00     0.029 A 
ATOM     45  N   UNL     1     -13.148   6.716   3.580  1.00  0.00    -0.354 N 
ATOM     46  C   UNL     1     -13.512   5.426   7.687  1.00  0.00     0.074 A 
ATOM     47  C   UNL     1     -12.212   5.240   8.293  1.00  0.00     0.031 C 
ATOM     48  C   UNL     1     -12.063   7.184   1.681  1.00  0.00     0.029 A 
ATOM     49  C   UNL     1     -13.391   6.990   2.254  1.00  0.00     0.049 A 
ATOM     50  H   UNL     1     -13.864   6.559   4.237  1.00  0.00     0.167 HD
ATOM     51  C   UNL     1     -14.687   5.207   8.323  1.00  0.00     0.034 A 
ATOM     52  C   UNL     1     -14.553   7.074   1.577  1.00  0.00     0.034 A 
ATOM     53  C   UNL     1     -15.976   5.444   7.734  1.00  0.00     0.049 A 
ATOM     54  C   UNL     1     -15.846   6.888   2.323  1.00  0.00     0.074 A 
ATOM     55  C   UNL     1     -17.224   5.343   8.323  1.00  0.00     0.029 A 
ATOM     56  N   UNL     1     -16.184   5.830   6.419  1.00  0.00    -0.354 N 
ATOM     57  N   UNL     1     -16.033   6.613   3.591  1.00  0.00    -0.248 NA
ATOM     58  C   UNL     1     -17.089   7.064   1.557  1.00  0.00     0.031 C 
ATOM     59  C   UNL     1     -18.188   5.659   7.359  1.00  0.00     0.029 A 
ATOM     60  C   UNL     1     -17.539   5.971   6.175  1.00  0.00     0.049 A 
ATOM     61  H   UNL     1     -15.472   5.982   5.756  1.00  0.00     0.167 HD
ATOM     62  C   UNL     1     -17.410   6.614   3.783  1.00  0.00     0.074 A 
ATOM     63  C   UNL     1     -18.009   6.941   2.505  1.00  0.00     0.031 C 
ATOM     64  C   UNL     1     -18.116   6.352   4.911  1.00  0.00     0.034 A 
BRANCH  51  65
ATOM     65  C   UNL     1     -14.627   4.751   9.757  1.00  0.00     0.023 A 
ATOM     66  C   UNL     1     -14.220   5.661  10.755  1.00  0.00     0.012 A 
ATOM     67  C   UNL     1     -15.011   3.447  10.127  1.00  0.00     0.148 A 
ATOM     68  C   UNL     1     -14.162   5.272  12.092  1.00  0.00     0.002 A 
ATOM     69  C   UNL     1     -14.991   3.080  11.468  1.00  0.00     0.091 A 
ATOM     70  F   UNL     1     -15.370   2.587   9.163  1.00  0.00    -0.205 F 
ATOM     71  C   UNL     1     -14.556   3.987  12.449  1.00  0.00     0.022 A 
BRANCH  69  72
ATOM     72  S   UNL     1     -15.551   1.471  12.037  1.00  0.00     0.127 S 
ATOM     73  O   UNL     1     -14.285   0.815  12.358  1.00  0.00    -0.237 OA
ATOM     74  O   UNL     1     -16.369   1.820  13.199  1.00  0.00    -0.237 OA
ATOM     75  O   UNL     1     -16.294   0.892  10.926  1.00  0.00    -0.744 OA
ENDBRANCH  69  72
ENDBRANCH  51  65
BRANCH  52  76
ATOM     76  C   UNL     1     -14.543   7.430   0.130  1.00  0.00     0.023 A 
ATOM     77  C   UNL     1     -14.990   8.705  -0.269  1.00  0.00     0.012 A 
ATOM     78  C   UNL     1     -14.058   6.537  -0.844  1.00  0.00     0.148 A 
ATOM     79  C   UNL     1     -14.980   9.074  -1.614  1.00  0.00     0.002 A 
ATOM     80  C   UNL     1     -14.001   6.930  -2.177  1.00  0.00     0.091 A 
ATOM     81  F   UNL     1     -13.649   5.323  -0.447  1.00  0.00    -0.205 F 
ATOM     82  C   UNL     1     -14.476   8.192  -2.566  1.00  0.00     0.022 A 
BRANCH  80  83
ATOM     83  S   UNL     1     -13.242   5.911  -3.447  1.00  0.00     0.127 S 
ATOM     84  O   UNL     1     -14.408   5.437  -4.187  1.00  0.00    -0.237 OA
ATOM     85  O   UNL     1     -12.411   6.882  -4.160  1.00  0.00    -0.237 OA
ATOM     86  O   UNL     1     -12.486   4.893  -2.729  1.00  0.00    -0.744 OA
ENDBRANCH  80  83
ENDBRANCH  52  76
BRANCH  64  87
ATOM     87  C   UNL     1     -19.617   6.431   4.829  1.00  0.00     0.023 A 
ATOM     88  C   UNL     1     -20.334   5.412   4.173  1.00  0.00     0.012 A 
ATOM     89  C   UNL     1     -20.320   7.470   5.472  1.00  0.00     0.148 A 
ATOM     90  C   UNL     1     -21.727   5.438   4.135  1.00  0.00     0.002 A 
ATOM     91  C   UNL     1     -21.709   7.465   5.468  1.00  0.00     0.091 A 
ATOM     92  F   UNL     1     -19.618   8.442   6.073  1.00  0.00    -0.205 F 
ATOM     93  C   UNL     1     -22.414   6.457   4.792  1.00  0.00     0.022 A 
BRANCH  91  94
ATOM     94  S   UNL     1     -22.675   8.685   6.367  1.00  0.00     0.127 S 
ATOM     95  O   UNL     1     -23.158   9.540   5.284  1.00  0.00    -0.237 OA
ATOM     96  O   UNL     1     -23.706   7.862   7.001  1.00  0.00    -0.237 OA
ATOM     97  O   UNL     1     -21.751   9.316   7.300  1.00  0.00    -0.744 OA
ENDBRANCH  91  94
ENDBRANCH  64  87
ENDBRANCH  38  39
ENDBRANCH  30  33
ENDBRANCH  28  29
ENDBRANCH  27  28
ENDBRANCH   1  27
TORSDOF 20
