REMARK SMILES Cc1ccc(Cl)c(Nc2ccccc2C(=O)N[C@@H](C)C(=O)NCCCCNC(=O)c2ccc(-c3c4nc(c(-c5cccc(S(=O)(=O)[O-])c5F)c5ccc([nH]5)c(-c5cccc(S(=O)(=O)[O-])c5F)c5nc(c(-c6cccc(S(=O)(=O)[O-])c6F)c6ccc3[nH]6)C=C5)C=C4)cc2)c1Cl
REMARK SMILES IDX 24 1 23 2 22 3 20 4 21 5 18 7 19 8 17 9 15 10 16 11 14 13
REMARK SMILES IDX 9 14 10 15 11 16 13 17 12 18 8 19 7 21 1 22 2 23 3 24 93 25
REMARK SMILES IDX 4 26 94 27 5 28 6 29 25 30 26 31 27 32 28 33 29 35 30 36
REMARK SMILES IDX 31 37 92 38 32 39 91 40 33 41 34 42 35 43 85 44 36 45 90 46
REMARK SMILES IDX 84 47 86 48 37 49 89 50 83 51 82 52 38 54 70 55 50 56 69 57
REMARK SMILES IDX 51 58 54 59 68 60 87 61 52 62 53 63 67 65 88 66 55 67 39 68
REMARK SMILES IDX 40 69 48 70 41 71 43 72 49 73 42 74 44 75 45 76 46 77 47 78
REMARK SMILES IDX 71 79 72 80 80 81 73 82 75 83 81 84 74 85 76 86 77 87 78 88
REMARK SMILES IDX 79 89 56 90 57 91 65 92 58 93 60 94 66 95 59 96 61 97 62 98
REMARK SMILES IDX 63 99 64 100
REMARK H PARENT 22 6 17 12 8 20 27 34 86 53 54 64
REMARK Flexibility Score: inf
ROOT
ATOM      1  C   UNL     1      -0.295   2.457   3.659  1.00  0.00     0.023 C 
ENDROOT
BRANCH   1   2
ATOM      2  C   UNL     1      -1.539   1.618   3.331  1.00  0.00     0.116 C 
BRANCH   2   3
ATOM      3  N   UNL     1      -1.554   1.133   1.966  1.00  0.00    -0.354 N 
ATOM      4  C   UNL     1      -0.647   0.163   1.652  1.00  0.00     0.242 C 
ATOM      5  O   UNL     1       0.481   0.533   1.331  1.00  0.00    -0.273 OA
ATOM      6  H   UNL     1      -2.186   1.485   1.298  1.00  0.00     0.163 HD
BRANCH   4   7
ATOM      7  C   UNL     1      -1.046  -1.326   1.773  1.00  0.00     0.168 C 
ATOM      8  C   UNL     1      -2.365  -1.617   2.470  1.00  0.00     0.041 C 
BRANCH   7   9
ATOM      9  N   UNL     1       0.089  -1.930   2.450  1.00  0.00    -0.340 N 
ATOM     10  C   UNL     1       1.285  -2.322   1.888  1.00  0.00     0.254 C 
ATOM     11  O   UNL     1       2.288  -2.113   2.579  1.00  0.00    -0.269 OA
ATOM     12  H   UNL     1      -0.007  -2.075   3.419  1.00  0.00     0.164 HD
BRANCH  10  13
ATOM     13  C   UNL     1       1.406  -3.225   0.695  1.00  0.00     0.063 A 
ATOM     14  C   UNL     1       0.773  -3.203  -0.567  1.00  0.00     0.051 A 
ATOM     15  C   UNL     1       0.994  -4.298  -1.442  1.00  0.00     0.027 A 
ATOM     16  C   UNL     1       1.870  -5.339  -1.137  1.00  0.00     0.002 A 
ATOM     17  C   UNL     1       2.313  -4.285   0.965  1.00  0.00     0.016 A 
ATOM     18  C   UNL     1       2.554  -5.318   0.063  1.00  0.00     0.001 A 
BRANCH  14  19
ATOM     19  N   UNL     1       0.015  -2.168  -1.149  1.00  0.00    -0.352 N 
ATOM     20  H   UNL     1      -0.876  -2.466  -1.443  1.00  0.00     0.167 HD
BRANCH  19  21
ATOM     21  C   UNL     1       0.248  -0.789  -1.405  1.00  0.00     0.077 A 
ATOM     22  C   UNL     1       2.830   2.007  -0.923  1.00  0.00     0.046 C 
ATOM     23  C   UNL     1       1.563   1.285  -1.299  1.00  0.00    -0.030 A 
ATOM     24  C   UNL     1       0.408   2.041  -1.554  1.00  0.00     0.006 A 
ATOM     25  C   UNL     1       1.491  -0.131  -1.287  1.00  0.00     0.069 A 
ATOM     26  C   UNL     1      -0.809   1.410  -1.774  1.00  0.00     0.023 A 
ATOM     27  Cl  UNL     1       2.979  -1.022  -1.192  1.00  0.00    -0.082 Cl
ATOM     28  C   UNL     1      -0.887   0.020  -1.683  1.00  0.00     0.066 A 
ATOM     29  Cl  UNL     1      -2.461  -0.698  -1.859  1.00  0.00    -0.082 Cl
ENDBRANCH  19  21
ENDBRANCH  14  19
ENDBRANCH  10  13
ENDBRANCH   7   9
ENDBRANCH   4   7
ENDBRANCH   2   3
ENDBRANCH   1   2
BRANCH   1  30
ATOM     30  C   UNL     1      -0.128   3.732   2.829  1.00  0.00     0.023 C 
BRANCH  30  31
ATOM     31  C   UNL     1      -1.376   4.600   2.741  1.00  0.00     0.116 C 
BRANCH  31  32
ATOM     32  N   UNL     1      -2.005   4.800   4.039  1.00  0.00    -0.352 N 
ATOM     33  C   UNL     1      -2.450   5.952   4.632  1.00  0.00     0.251 C 
ATOM     34  H   UNL     1      -2.130   3.982   4.572  1.00  0.00     0.163 HD
ATOM     35  O   UNL     1      -2.828   5.939   5.793  1.00  0.00    -0.269 OA
BRANCH  33  36
ATOM     36  C   UNL     1      -2.440   7.204   3.857  1.00  0.00     0.039 A 
ATOM     37  C   UNL     1      -1.883   8.344   4.438  1.00  0.00     0.014 A 
ATOM     38  C   UNL     1      -2.955   7.236   2.559  1.00  0.00     0.014 A 
ATOM     39  C   UNL     1      -1.796   9.516   3.691  1.00  0.00     0.010 A 
ATOM     40  C   UNL     1      -2.796   8.381   1.792  1.00  0.00     0.010 A 
ATOM     41  C   UNL     1      -2.226   9.534   2.354  1.00  0.00    -0.014 A 
BRANCH  41  42
ATOM     42  C   UNL     1      -2.096  10.751   1.522  1.00  0.00     0.031 A 
ATOM     43  C   UNL     1      -3.329  11.420   0.984  1.00  0.00     0.074 A 
ATOM     44  C   UNL     1      -0.870  11.190   1.178  1.00  0.00     0.049 A 
ATOM     45  N   UNL     1      -3.424  12.432   0.164  1.00  0.00    -0.248 NA
ATOM     46  C   UNL     1      -4.626  10.857   1.397  1.00  0.00     0.031 C 
ATOM     47  C   UNL     1       0.396  10.576   1.587  1.00  0.00     0.029 A 
ATOM     48  N   UNL     1      -0.488  12.238   0.380  1.00  0.00    -0.354 N 
ATOM     49  C   UNL     1      -4.783  12.602  -0.069  1.00  0.00     0.074 A 
ATOM     50  C   UNL     1      -5.474  11.567   0.668  1.00  0.00     0.031 C 
ATOM     51  C   UNL     1       1.413  11.258   1.037  1.00  0.00     0.029 A 
ATOM     52  C   UNL     1       0.873  12.330   0.208  1.00  0.00     0.049 A 
ATOM     53  H   UNL     1      -1.127  12.864  -0.031  1.00  0.00     0.167 HD
ATOM     54  C   UNL     1      -5.401  13.551  -0.809  1.00  0.00     0.034 A 
ATOM     55  C   UNL     1       1.602  13.175  -0.546  1.00  0.00     0.034 A 
ATOM     56  C   UNL     1      -4.706  14.599  -1.506  1.00  0.00     0.049 A 
ATOM     57  C   UNL     1       0.890  14.240  -1.336  1.00  0.00     0.074 A 
ATOM     58  C   UNL     1      -5.238  15.659  -2.217  1.00  0.00     0.029 A 
ATOM     59  N   UNL     1      -3.326  14.714  -1.586  1.00  0.00    -0.354 N 
ATOM     60  N   UNL     1      -0.396  14.474  -1.432  1.00  0.00    -0.248 NA
ATOM     61  C   UNL     1       1.729  15.179  -2.093  1.00  0.00     0.031 C 
ATOM     62  C   UNL     1      -4.180  16.397  -2.754  1.00  0.00     0.029 A 
ATOM     63  C   UNL     1      -2.988  15.821  -2.343  1.00  0.00     0.049 A 
ATOM     64  H   UNL     1      -2.683  14.098  -1.167  1.00  0.00     0.167 HD
ATOM     65  C   UNL     1      -0.519  15.611  -2.220  1.00  0.00     0.074 A 
ATOM     66  C   UNL     1       0.825  16.025  -2.567  1.00  0.00     0.031 C 
ATOM     67  C   UNL     1      -1.643  16.250  -2.628  1.00  0.00     0.034 A 
BRANCH  54  68
ATOM     68  C   UNL     1      -6.905  13.524  -0.872  1.00  0.00     0.023 A 
ATOM     69  C   UNL     1      -7.660  13.855   0.273  1.00  0.00     0.012 A 
ATOM     70  C   UNL     1      -7.573  13.222  -2.075  1.00  0.00     0.148 A 
ATOM     71  C   UNL     1      -9.053  13.851   0.232  1.00  0.00     0.002 A 
ATOM     72  C   UNL     1      -8.961  13.268  -2.121  1.00  0.00     0.091 A 
ATOM     73  F   UNL     1      -6.840  12.887  -3.146  1.00  0.00    -0.205 F 
ATOM     74  C   UNL     1      -9.703  13.569  -0.967  1.00  0.00     0.022 A 
BRANCH  72  75
ATOM     75  S   UNL     1      -9.889  13.002  -3.635  1.00  0.00     0.127 S 
ATOM     76  O   UNL     1     -10.534  11.718  -3.363  1.00  0.00    -0.237 OA
ATOM     77  O   UNL     1     -10.796  14.150  -3.645  1.00  0.00    -0.237 OA
ATOM     78  O   UNL     1      -8.909  12.991  -4.712  1.00  0.00    -0.744 OA
ENDBRANCH  72  75
ENDBRANCH  54  68
BRANCH  55  79
ATOM     79  C   UNL     1       3.088  13.082  -0.546  1.00  0.00     0.023 A 
ATOM     80  C   UNL     1       3.847  14.100   0.065  1.00  0.00     0.012 A 
ATOM     81  C   UNL     1       3.752  11.983  -1.123  1.00  0.00     0.148 A 
ATOM     82  C   UNL     1       5.241  14.042   0.070  1.00  0.00     0.002 A 
ATOM     83  C   UNL     1       5.138  11.903  -1.065  1.00  0.00     0.091 A 
ATOM     84  F   UNL     1       3.012  11.029  -1.705  1.00  0.00    -0.205 F 
ATOM     85  C   UNL     1       5.886  12.941  -0.486  1.00  0.00     0.022 A 
BRANCH  83  86
ATOM     86  S   UNL     1       6.045  10.463  -1.639  1.00  0.00     0.127 S 
ATOM     87  O   UNL     1       6.728  10.991  -2.818  1.00  0.00    -0.237 OA
ATOM     88  O   UNL     1       6.915  10.181  -0.497  1.00  0.00    -0.237 OA
ATOM     89  O   UNL     1       5.039   9.441  -1.895  1.00  0.00    -0.744 OA
ENDBRANCH  83  86
ENDBRANCH  55  79
BRANCH  67  90
ATOM     90  C   UNL     1      -1.478  17.504  -3.447  1.00  0.00     0.023 A 
ATOM     91  C   UNL     1      -1.052  17.424  -4.786  1.00  0.00     0.012 A 
ATOM     92  C   UNL     1      -1.835  18.755  -2.905  1.00  0.00     0.148 A 
ATOM     93  C   UNL     1      -0.954  18.576  -5.566  1.00  0.00     0.002 A 
ATOM     94  C   UNL     1      -1.787  19.890  -3.704  1.00  0.00     0.091 A 
ATOM     95  F   UNL     1      -2.222  18.809  -1.622  1.00  0.00    -0.205 F 
ATOM     96  C   UNL     1      -1.334  19.804  -5.030  1.00  0.00     0.022 A 
BRANCH  94  97
ATOM     97  S   UNL     1      -2.354  21.494  -3.132  1.00  0.00     0.127 S 
ATOM     98  O   UNL     1      -1.098  22.234  -3.024  1.00  0.00    -0.237 OA
ATOM     99  O   UNL     1      -3.223  21.923  -4.229  1.00  0.00    -0.237 OA
ATOM    100  O   UNL     1      -3.045  21.253  -1.873  1.00  0.00    -0.744 OA
ENDBRANCH  94  97
ENDBRANCH  67  90
ENDBRANCH  41  42
ENDBRANCH  33  36
ENDBRANCH  31  32
ENDBRANCH  30  31
ENDBRANCH   1  30
TORSDOF 18
