REMARK SMILES Cc1cc(C(=O)N[C@H]2C=C[C@H](C(=O)NCCCCNC(=O)c3ccc(-c4c5nc(c(-c6cccc(S(=O)(=O)[O-])c6F)c6ccc([nH]6)c(-c6cccc(S(=O)(=O)[O-])c6F)c6nc(c(-c7cccc(S(=O)(=O)[O-])c7F)c7ccc4[nH]7)C=C6)C=C5)cc3)C2)ccc1F
REMARK SMILES IDX 17 1 16 2 15 3 14 4 12 5 13 6 11 8 8 9 9 10 85 11 10 12 7 13
REMARK SMILES IDX 5 14 6 15 4 17 1 18 2 19 3 20 88 21 87 22 89 23 86 24 18 25
REMARK SMILES IDX 19 26 20 27 21 29 22 30 23 31 84 32 24 33 83 34 25 35 26 36
REMARK SMILES IDX 27 37 77 38 28 39 82 40 76 41 78 42 29 43 81 44 75 45 74 46
REMARK SMILES IDX 30 48 62 49 42 50 61 51 43 52 46 53 60 54 79 55 44 56 45 57
REMARK SMILES IDX 59 59 80 60 47 61 31 62 32 63 40 64 33 65 35 66 41 67 34 68
REMARK SMILES IDX 36 69 37 70 38 71 39 72 63 73 64 74 72 75 65 76 67 77 73 78
REMARK SMILES IDX 66 79 68 80 69 81 70 82 71 83 48 84 49 85 57 86 50 87 52 88
REMARK SMILES IDX 58 89 51 90 53 91 54 92 55 93 56 94
REMARK H PARENT 14 7 7 16 19 28 78 47 46 58
REMARK Flexibility Score: inf
ROOT
ATOM      1  C   UNL     1       2.001   8.431   2.084  1.00  0.00     0.023 C 
ENDROOT
BRANCH   1   2
ATOM      2  C   UNL     1       0.509   8.079   2.175  1.00  0.00     0.023 C 
BRANCH   2   3
ATOM      3  C   UNL     1      -0.013   7.224   1.024  1.00  0.00     0.116 C 
BRANCH   3   4
ATOM      4  N   UNL     1       0.493   5.875   1.119  1.00  0.00    -0.356 N 
ATOM      5  C   UNL     1      -0.065   4.740   1.599  1.00  0.00     0.227 C 
ATOM      6  O   UNL     1       0.704   3.777   1.718  1.00  0.00    -0.274 OA
ATOM      7  H   UNL     1       1.408   5.761   0.773  1.00  0.00     0.163 HD
BRANCH   5   8
ATOM      8  C   UNL     1      -1.544   4.620   2.039  1.00  0.00     0.103 C 
ATOM      9  C   UNL     1      -2.546   3.368   0.239  1.00  0.00     0.106 C 
ATOM     10  C   UNL     1      -3.204   4.702   0.355  1.00  0.00    -0.006 C 
ATOM     11  C   UNL     1      -2.015   3.200   1.667  1.00  0.00     0.047 C 
ATOM     12  C   UNL     1      -2.625   5.404   1.339  1.00  0.00    -0.016 C 
BRANCH   9  13
ATOM     13  N   UNL     1      -3.462   2.339  -0.169  1.00  0.00    -0.346 N 
ATOM     14  C   UNL     1      -3.228   1.010  -0.442  1.00  0.00     0.251 C 
ATOM     15  O   UNL     1      -4.198   0.295  -0.699  1.00  0.00    -0.269 OA
ATOM     16  H   UNL     1      -4.398   2.628  -0.267  1.00  0.00     0.164 HD
BRANCH  14  17
ATOM     17  C   UNL     1      -1.871   0.383  -0.357  1.00  0.00     0.040 A 
ATOM     18  C   UNL     1       1.835   1.268  -0.379  1.00  0.00     0.047 C 
ATOM     19  C   UNL     1       0.573   0.461  -0.320  1.00  0.00    -0.015 A 
ATOM     20  C   UNL     1      -0.667   1.059  -0.589  1.00  0.00     0.020 A 
ATOM     21  C   UNL     1       0.600  -0.885   0.034  1.00  0.00     0.126 A 
ATOM     22  C   UNL     1      -0.577  -1.614   0.160  1.00  0.00     0.040 A 
ATOM     23  F   UNL     1       1.771  -1.495   0.262  1.00  0.00    -0.207 F 
ATOM     24  C   UNL     1      -1.810  -0.977  -0.014  1.00  0.00     0.017 A 
ENDBRANCH  14  17
ENDBRANCH   9  13
ENDBRANCH   5   8
ENDBRANCH   3   4
ENDBRANCH   2   3
ENDBRANCH   1   2
BRANCH   1  25
ATOM     25  C   UNL     1       2.371   9.164   0.804  1.00  0.00     0.116 C 
BRANCH  25  26
ATOM     26  N   UNL     1       1.625  10.410   0.670  1.00  0.00    -0.352 N 
ATOM     27  C   UNL     1       1.915  11.488  -0.137  1.00  0.00     0.251 C 
ATOM     28  H   UNL     1       0.815  10.490   1.224  1.00  0.00     0.163 HD
ATOM     29  O   UNL     1       1.510  12.603   0.149  1.00  0.00    -0.269 OA
BRANCH  27  30
ATOM     30  C   UNL     1       2.729  11.253  -1.336  1.00  0.00     0.039 A 
ATOM     31  C   UNL     1       3.663  12.203  -1.772  1.00  0.00     0.014 A 
ATOM     32  C   UNL     1       2.514  10.069  -2.035  1.00  0.00     0.014 A 
ATOM     33  C   UNL     1       4.426  11.934  -2.903  1.00  0.00     0.010 A 
ATOM     34  C   UNL     1       3.333   9.754  -3.075  1.00  0.00     0.010 A 
ATOM     35  C   UNL     1       4.246  10.707  -3.536  1.00  0.00    -0.014 A 
BRANCH  35  36
ATOM     36  C   UNL     1       4.939  10.269  -4.725  1.00  0.00     0.031 A 
ATOM     37  C   UNL     1       6.318   9.784  -4.625  1.00  0.00     0.074 A 
ATOM     38  C   UNL     1       4.124  10.045  -5.779  1.00  0.00     0.049 A 
ATOM     39  N   UNL     1       7.080   9.595  -5.638  1.00  0.00    -0.248 NA
ATOM     40  C   UNL     1       6.986   9.497  -3.355  1.00  0.00     0.031 C 
ATOM     41  C   UNL     1       4.293   9.169  -6.923  1.00  0.00     0.029 A 
ATOM     42  N   UNL     1       2.936  10.724  -6.046  1.00  0.00    -0.354 N 
ATOM     43  C   UNL     1       8.133   8.817  -5.213  1.00  0.00     0.074 A 
ATOM     44  C   UNL     1       8.123   8.923  -3.774  1.00  0.00     0.031 C 
ATOM     45  C   UNL     1       3.427   9.544  -7.884  1.00  0.00     0.029 A 
ATOM     46  C   UNL     1       2.806  10.783  -7.438  1.00  0.00     0.049 A 
ATOM     47  H   UNL     1       2.309  11.091  -5.382  1.00  0.00     0.167 HD
ATOM     48  C   UNL     1       8.762   8.028  -6.130  1.00  0.00     0.034 A 
ATOM     49  C   UNL     1       2.954  11.998  -8.050  1.00  0.00     0.034 A 
ATOM     50  C   UNL     1       8.139   8.203  -7.439  1.00  0.00     0.049 A 
ATOM     51  C   UNL     1       4.176  12.027  -8.933  1.00  0.00     0.074 A 
ATOM     52  C   UNL     1       7.201   7.459  -8.134  1.00  0.00     0.029 A 
ATOM     53  N   UNL     1       8.182   9.448  -8.045  1.00  0.00    -0.354 N 
ATOM     54  N   UNL     1       5.250  11.308  -8.739  1.00  0.00    -0.248 NA
ATOM     55  C   UNL     1       4.239  12.815 -10.152  1.00  0.00     0.031 C 
ATOM     56  C   UNL     1       6.672   8.278  -9.166  1.00  0.00     0.029 A 
ATOM     57  C   UNL     1       7.294   9.512  -9.097  1.00  0.00     0.049 A 
ATOM     58  H   UNL     1       8.769  10.187  -7.763  1.00  0.00     0.167 HD
ATOM     59  C   UNL     1       6.091  11.438  -9.822  1.00  0.00     0.074 A 
ATOM     60  C   UNL     1       5.416  12.412 -10.660  1.00  0.00     0.031 C 
ATOM     61  C   UNL     1       7.246  10.708  -9.934  1.00  0.00     0.034 A 
BRANCH  48  62
ATOM     62  C   UNL     1       9.744   6.915  -5.830  1.00  0.00     0.023 A 
ATOM     63  C   UNL     1      10.498   6.850  -4.640  1.00  0.00     0.012 A 
ATOM     64  C   UNL     1       9.963   5.870  -6.759  1.00  0.00     0.148 A 
ATOM     65  C   UNL     1      11.362   5.779  -4.357  1.00  0.00     0.002 A 
ATOM     66  C   UNL     1      10.835   4.816  -6.485  1.00  0.00     0.091 A 
ATOM     67  F   UNL     1       9.330   5.868  -7.938  1.00  0.00    -0.205 F 
ATOM     68  C   UNL     1      11.531   4.756  -5.280  1.00  0.00     0.022 A 
BRANCH  66  69
ATOM     69  S   UNL     1      11.055   3.532  -7.721  1.00  0.00     0.127 S 
ATOM     70  O   UNL     1       9.726   2.935  -7.806  1.00  0.00    -0.237 OA
ATOM     71  O   UNL     1      11.522   4.273  -8.888  1.00  0.00    -0.237 OA
ATOM     72  O   UNL     1      12.067   2.661  -7.121  1.00  0.00    -0.744 OA
ENDBRANCH  66  69
ENDBRANCH  48  62
BRANCH  49  73
ATOM     73  C   UNL     1       2.442  13.121  -7.191  1.00  0.00     0.023 A 
ATOM     74  C   UNL     1       3.312  13.782  -6.302  1.00  0.00     0.012 A 
ATOM     75  C   UNL     1       1.061  13.095  -6.887  1.00  0.00     0.148 A 
ATOM     76  C   UNL     1       2.833  14.257  -5.071  1.00  0.00     0.002 A 
ATOM     77  C   UNL     1       0.609  13.505  -5.635  1.00  0.00     0.091 A 
ATOM     78  F   UNL     1       0.223  12.517  -7.764  1.00  0.00    -0.205 F 
ATOM     79  C   UNL     1       1.495  14.068  -4.712  1.00  0.00     0.022 A 
BRANCH  77  80
ATOM     80  S   UNL     1      -1.058  13.052  -5.127  1.00  0.00     0.127 S 
ATOM     81  O   UNL     1      -1.892  13.935  -5.935  1.00  0.00    -0.237 OA
ATOM     82  O   UNL     1      -1.126  11.626  -5.437  1.00  0.00    -0.237 OA
ATOM     83  O   UNL     1      -1.075  13.344  -3.693  1.00  0.00    -0.744 OA
ENDBRANCH  77  80
ENDBRANCH  49  73
BRANCH  61  84
ATOM     84  C   UNL     1       8.459  10.955 -10.829  1.00  0.00     0.023 A 
ATOM     85  C   UNL     1       9.605  10.125 -10.641  1.00  0.00     0.012 A 
ATOM     86  C   UNL     1       8.621  11.984 -11.761  1.00  0.00     0.148 A 
ATOM     87  C   UNL     1      10.840  10.356 -11.252  1.00  0.00     0.002 A 
ATOM     88  C   UNL     1       9.834  12.172 -12.432  1.00  0.00     0.091 A 
ATOM     89  F   UNL     1       7.630  12.834 -12.025  1.00  0.00    -0.205 F 
ATOM     90  C   UNL     1      10.957  11.390 -12.158  1.00  0.00     0.022 A 
BRANCH  88  91
ATOM     91  S   UNL     1       9.911  13.438 -13.698  1.00  0.00     0.127 S 
ATOM     92  O   UNL     1       8.936  12.968 -14.680  1.00  0.00    -0.237 OA
ATOM     93  O   UNL     1       9.565  14.657 -12.974  1.00  0.00    -0.237 OA
ATOM     94  O   UNL     1      11.300  13.383 -14.153  1.00  0.00    -0.744 OA
ENDBRANCH  88  91
ENDBRANCH  61  84
ENDBRANCH  35  36
ENDBRANCH  27  30
ENDBRANCH  25  26
ENDBRANCH   1  25
TORSDOF 16
