REMARK SMILES NC(=O)[C@@H]1CCCCN1c1cncc(C(=O)NCCCCNC(=O)c2ccc(-c3c4nc(c(-c5cccc(S(=O)(=O)[O-])c5F)c5ccc([nH]5)c(-c5cccc(S(=O)(=O)[O-])c5F)c5nc(c(-c6cccc(S(=O)(=O)[O-])c6F)c6ccc3[nH]6)C=C5)C=C4)cc2)n1
REMARK SMILES IDX 20 1 19 2 18 3 17 4 15 5 16 6 14 8 10 9 11 10 88 11 12 12
REMARK SMILES IDX 13 13 9 14 4 15 5 16 6 17 8 18 7 19 2 20 1 21 3 24 21 25
REMARK SMILES IDX 22 26 23 27 24 29 25 30 26 31 87 32 27 33 86 34 28 35 29 36
REMARK SMILES IDX 30 37 80 38 31 39 85 40 79 41 81 42 32 43 84 44 78 45 77 46
REMARK SMILES IDX 33 48 65 49 45 50 64 51 46 52 49 53 63 54 82 55 47 56 48 57
REMARK SMILES IDX 62 59 83 60 50 61 34 62 35 63 43 64 36 65 38 66 44 67 37 68
REMARK SMILES IDX 39 69 40 70 41 71 42 72 66 73 67 74 75 75 68 76 70 77 76 78
REMARK SMILES IDX 69 79 71 80 72 81 73 82 74 83 51 84 52 85 60 86 53 87 55 88
REMARK SMILES IDX 61 89 54 90 56 91 57 92 58 93 59 94
REMARK H PARENT 17 7 1 22 1 23 22 28 81 47 49 58
REMARK Flexibility Score: inf
ROOT
ATOM      1  C   UNL     1      -2.390   2.461   5.737  1.00  0.00     0.023 C 
ENDROOT
BRANCH   1   2
ATOM      2  C   UNL     1      -1.800   2.841   4.374  1.00  0.00     0.023 C 
BRANCH   2   3
ATOM      3  C   UNL     1      -2.184   1.879   3.252  1.00  0.00     0.116 C 
BRANCH   3   4
ATOM      4  N   UNL     1      -3.553   2.091   2.831  1.00  0.00    -0.351 N 
ATOM      5  C   UNL     1      -4.060   2.791   1.761  1.00  0.00     0.271 C 
ATOM      6  O   UNL     1      -5.287   2.853   1.654  1.00  0.00    -0.267 OA
ATOM      7  H   UNL     1      -4.231   1.665   3.404  1.00  0.00     0.163 HD
BRANCH   5   8
ATOM      8  C   UNL     1      -3.206   3.458   0.733  1.00  0.00     0.148 A 
ATOM      9  C   UNL     1      -1.151   3.975  -0.173  1.00  0.00     0.148 A 
ATOM     10  C   UNL     1      -1.827   4.562  -1.254  1.00  0.00     0.157 A 
ATOM     11  N   UNL     1      -1.850   3.463   0.859  1.00  0.00    -0.222 NA
ATOM     12  N   UNL     1      -3.175   4.631  -1.372  1.00  0.00    -0.258 NA
ATOM     13  C   UNL     1      -3.846   4.036  -0.359  1.00  0.00     0.145 A 
BRANCH   9  14
ATOM     14  N   UNL     1       0.230   3.889  -0.188  1.00  0.00    -0.343 N 
ATOM     15  C   UNL     1       0.942   2.634   0.135  1.00  0.00     0.172 C 
ATOM     16  C   UNL     1       1.520   2.701   1.557  1.00  0.00     0.035 C 
ATOM     17  C   UNL     1       2.366   3.961   1.739  1.00  0.00     0.004 C 
ATOM     18  C   UNL     1       0.960   5.139   0.004  1.00  0.00     0.119 C 
ATOM     19  C   UNL     1       1.545   5.207   1.417  1.00  0.00     0.022 C 
BRANCH  15  20
ATOM     20  C   UNL     1       0.195   1.299  -0.147  1.00  0.00     0.240 C 
ATOM     21  N   UNL     1       0.930   0.160   0.070  1.00  0.00    -0.368 N 
ATOM     22  H   UNL     1       0.525  -0.724  -0.087  1.00  0.00     0.159 HD
ATOM     23  H   UNL     1       1.861   0.227   0.382  1.00  0.00     0.159 HD
ATOM     24  O   UNL     1      -0.929   1.169  -0.623  1.00  0.00    -0.273 OA
ENDBRANCH  15  20
ENDBRANCH   9  14
ENDBRANCH   5   8
ENDBRANCH   3   4
ENDBRANCH   2   3
ENDBRANCH   1   2
BRANCH   1  25
ATOM     25  C   UNL     1      -2.043   1.055   6.221  1.00  0.00     0.116 C 
BRANCH  25  26
ATOM     26  N   UNL     1      -0.610   0.802   6.262  1.00  0.00    -0.352 N 
ATOM     27  C   UNL     1       0.101   0.054   7.167  1.00  0.00     0.251 C 
ATOM     28  H   UNL     1      -0.081   1.224   5.546  1.00  0.00     0.163 HD
ATOM     29  O   UNL     1       1.329   0.043   7.125  1.00  0.00    -0.269 OA
BRANCH  27  30
ATOM     30  C   UNL     1      -0.620  -0.713   8.204  1.00  0.00     0.039 A 
ATOM     31  C   UNL     1      -0.187  -0.632   9.529  1.00  0.00     0.014 A 
ATOM     32  C   UNL     1      -1.730  -1.495   7.872  1.00  0.00     0.014 A 
ATOM     33  C   UNL     1      -0.895  -1.302  10.528  1.00  0.00     0.010 A 
ATOM     34  C   UNL     1      -2.478  -2.097   8.878  1.00  0.00     0.010 A 
ATOM     35  C   UNL     1      -2.061  -2.021  10.215  1.00  0.00    -0.014 A 
BRANCH  35  36
ATOM     36  C   UNL     1      -2.838  -2.722  11.269  1.00  0.00     0.031 A 
ATOM     37  C   UNL     1      -2.982  -4.221  11.228  1.00  0.00     0.074 A 
ATOM     38  C   UNL     1      -3.464  -2.009  12.227  1.00  0.00     0.049 A 
ATOM     39  N   UNL     1      -3.650  -5.009  12.031  1.00  0.00    -0.248 NA
ATOM     40  C   UNL     1      -2.307  -4.928  10.125  1.00  0.00     0.031 C 
ATOM     41  C   UNL     1      -3.470  -0.548  12.331  1.00  0.00     0.029 A 
ATOM     42  N   UNL     1      -4.236  -2.418  13.286  1.00  0.00    -0.354 N 
ATOM     43  C   UNL     1      -3.495  -6.293  11.521  1.00  0.00     0.074 A 
ATOM     44  C   UNL     1      -2.715  -6.175  10.309  1.00  0.00     0.031 C 
ATOM     45  C   UNL     1      -4.205  -0.184  13.395  1.00  0.00     0.029 A 
ATOM     46  C   UNL     1      -4.741  -1.380  14.035  1.00  0.00     0.049 A 
ATOM     47  H   UNL     1      -4.413  -3.365  13.490  1.00  0.00     0.167 HD
ATOM     48  C   UNL     1      -3.924  -7.471  12.033  1.00  0.00     0.034 A 
ATOM     49  C   UNL     1      -5.547  -1.394  15.116  1.00  0.00     0.034 A 
ATOM     50  C   UNL     1      -4.669  -7.590  13.257  1.00  0.00     0.049 A 
ATOM     51  C   UNL     1      -5.976  -2.720  15.687  1.00  0.00     0.074 A 
ATOM     52  C   UNL     1      -5.116  -8.739  13.885  1.00  0.00     0.029 A 
ATOM     53  N   UNL     1      -5.071  -6.523  14.044  1.00  0.00    -0.354 N 
ATOM     54  N   UNL     1      -5.703  -3.930  15.263  1.00  0.00    -0.248 NA
ATOM     55  C   UNL     1      -6.783  -2.683  16.915  1.00  0.00     0.031 C 
ATOM     56  C   UNL     1      -5.795  -8.365  15.050  1.00  0.00     0.029 A 
ATOM     57  C   UNL     1      -5.747  -6.985  15.159  1.00  0.00     0.049 A 
ATOM     58  H   UNL     1      -4.901  -5.575  13.839  1.00  0.00     0.167 HD
ATOM     59  C   UNL     1      -6.259  -4.796  16.199  1.00  0.00     0.074 A 
ATOM     60  C   UNL     1      -6.867  -3.970  17.221  1.00  0.00     0.031 C 
ATOM     61  C   UNL     1      -6.280  -6.152  16.205  1.00  0.00     0.034 A 
BRANCH  48  62
ATOM     62  C   UNL     1      -3.530  -8.732  11.309  1.00  0.00     0.023 A 
ATOM     63  C   UNL     1      -2.182  -9.148  11.336  1.00  0.00     0.012 A 
ATOM     64  C   UNL     1      -4.486  -9.534  10.656  1.00  0.00     0.148 A 
ATOM     65  C   UNL     1      -1.785 -10.322  10.698  1.00  0.00     0.002 A 
ATOM     66  C   UNL     1      -4.090 -10.728  10.062  1.00  0.00     0.091 A 
ATOM     67  F   UNL     1      -5.759  -9.116  10.625  1.00  0.00    -0.205 F 
ATOM     68  C   UNL     1      -2.740 -11.116  10.071  1.00  0.00     0.022 A 
BRANCH  66  69
ATOM     69  S   UNL     1      -5.250 -11.866   9.296  1.00  0.00     0.127 S 
ATOM     70  O   UNL     1      -4.870 -11.770   7.887  1.00  0.00    -0.237 OA
ATOM     71  O   UNL     1      -4.903 -13.134   9.936  1.00  0.00    -0.237 OA
ATOM     72  O   UNL     1      -6.579 -11.364   9.617  1.00  0.00    -0.744 OA
ENDBRANCH  66  69
ENDBRANCH  48  62
BRANCH  49  73
ATOM     73  C   UNL     1      -5.948  -0.118  15.776  1.00  0.00     0.023 A 
ATOM     74  C   UNL     1      -5.457   0.182  17.063  1.00  0.00     0.012 A 
ATOM     75  C   UNL     1      -6.820   0.790  15.148  1.00  0.00     0.148 A 
ATOM     76  C   UNL     1      -5.868   1.335  17.732  1.00  0.00     0.002 A 
ATOM     77  C   UNL     1      -7.180   1.966  15.796  1.00  0.00     0.091 A 
ATOM     78  F   UNL     1      -7.287   0.485  13.929  1.00  0.00    -0.205 F 
ATOM     79  C   UNL     1      -6.723   2.231  17.096  1.00  0.00     0.022 A 
BRANCH  77  80
ATOM     80  S   UNL     1      -8.171   3.233  14.998  1.00  0.00     0.127 S 
ATOM     81  O   UNL     1      -9.467   3.051  15.645  1.00  0.00    -0.237 OA
ATOM     82  O   UNL     1      -7.462   4.457  15.372  1.00  0.00    -0.237 OA
ATOM     83  O   UNL     1      -8.120   2.926  13.575  1.00  0.00    -0.744 OA
ENDBRANCH  77  80
ENDBRANCH  49  73
BRANCH  61  84
ATOM     84  C   UNL     1      -6.917  -6.833  17.388  1.00  0.00     0.023 A 
ATOM     85  C   UNL     1      -8.315  -6.794  17.561  1.00  0.00     0.012 A 
ATOM     86  C   UNL     1      -6.127  -7.559  18.301  1.00  0.00     0.148 A 
ATOM     87  C   UNL     1      -8.911  -7.429  18.649  1.00  0.00     0.002 A 
ATOM     88  C   UNL     1      -6.734  -8.233  19.354  1.00  0.00     0.091 A 
ATOM     89  F   UNL     1      -4.797  -7.569  18.132  1.00  0.00    -0.205 F 
ATOM     90  C   UNL     1      -8.124  -8.156  19.539  1.00  0.00     0.022 A 
BRANCH  88  91
ATOM     91  S   UNL     1      -5.806  -9.274  20.486  1.00  0.00     0.127 S 
ATOM     92  O   UNL     1      -5.744  -8.434  21.680  1.00  0.00    -0.237 OA
ATOM     93  O   UNL     1      -6.671 -10.448  20.610  1.00  0.00    -0.237 OA
ATOM     94  O   UNL     1      -4.530  -9.534  19.833  1.00  0.00    -0.744 OA
ENDBRANCH  88  91
ENDBRANCH  61  84
ENDBRANCH  35  36
ENDBRANCH  27  30
ENDBRANCH  25  26
ENDBRANCH   1  25
TORSDOF 16
