REMARK SMILES Cc1cccc(O[C@H](C)C(=O)NNC(=O)[C@H]2[C@@H]3CC[C@@H](C3)[C@@H]2C(=O)NCCCCNC(=O)c2ccc(-c3c4nc(c(-c5cccc(S(=O)(=O)[O-])c5F)c5ccc([nH]5)c(-c5cccc(S(=O)(=O)[O-])c5F)c5nc(c(-c6cccc(S(=O)(=O)[O-])c6F)c6ccc3[nH]6)C=C5)C=C4)cc2)c1
REMARK SMILES IDX 26 1 25 2 23 3 24 4 22 6 16 7 17 8 18 9 21 10 20 11 19 12
REMARK SMILES IDX 14 13 13 14 15 16 12 17 10 18 11 19 8 21 9 22 7 23 6 24 1 25
REMARK SMILES IDX 2 26 3 27 96 28 4 29 5 30 27 31 28 32 29 33 30 34 31 35
REMARK SMILES IDX 32 37 33 38 34 39 95 40 35 41 94 42 36 43 37 44 38 45 88 46
REMARK SMILES IDX 39 47 93 48 87 49 89 50 40 51 92 52 86 53 85 54 41 56 73 57
REMARK SMILES IDX 53 58 72 59 54 60 57 61 71 62 90 63 55 64 56 65 70 67 91 68
REMARK SMILES IDX 58 69 42 70 43 71 51 72 44 73 46 74 52 75 45 76 47 77 48 78
REMARK SMILES IDX 49 79 50 80 74 81 75 82 83 83 76 84 78 85 84 86 77 87 79 88
REMARK SMILES IDX 80 89 81 90 82 91 59 92 60 93 68 94 61 95 63 96 69 97 62 98
REMARK SMILES IDX 64 99 65 100 66 101 67 102
REMARK H PARENT 25 5 13 15 12 20 30 36 89 55 57 66
REMARK Flexibility Score: inf
ROOT
ATOM      1  C   UNL     1       3.437   5.184  -2.982  1.00  0.00     0.116 C 
ENDROOT
BRANCH   1   2
ATOM      2  N   UNL     1       4.535   4.249  -2.757  1.00  0.00    -0.356 N 
ATOM      3  C   UNL     1       4.502   2.884  -2.660  1.00  0.00     0.224 C 
ATOM      4  O   UNL     1       5.527   2.266  -2.385  1.00  0.00    -0.275 OA
ATOM      5  H   UNL     1       5.426   4.658  -2.660  1.00  0.00     0.163 HD
BRANCH   3   6
ATOM      6  C   UNL     1       3.166   2.207  -2.892  1.00  0.00     0.094 C 
ATOM      7  C   UNL     1       2.990   0.837  -2.226  1.00  0.00     0.096 C 
ATOM      8  C   UNL     1       2.421  -0.046  -3.366  1.00  0.00     0.002 C 
ATOM      9  C   UNL     1       3.592  -0.407  -4.303  1.00  0.00     0.005 C 
ATOM     10  C   UNL     1       1.667   0.940  -4.257  1.00  0.00     0.009 C 
ATOM     11  C   UNL     1       2.859   1.894  -4.378  1.00  0.00     0.002 C 
ATOM     12  C   UNL     1       3.913   0.940  -4.977  1.00  0.00     0.005 C 
BRANCH   7  13
ATOM     13  C   UNL     1       2.190   0.783  -0.929  1.00  0.00     0.242 C 
ATOM     14  N   UNL     1       1.138   1.590  -0.606  1.00  0.00    -0.267 N 
ATOM     15  H   UNL     1       0.840   1.534   0.331  1.00  0.00     0.191 HD
ATOM     16  O   UNL     1       2.489  -0.079  -0.089  1.00  0.00    -0.273 OA
BRANCH  14  17
ATOM     17  N   UNL     1       0.433   2.469  -1.390  1.00  0.00    -0.264 N 
ATOM     18  C   UNL     1      -0.462   3.417  -1.004  1.00  0.00     0.279 C 
ATOM     19  O   UNL     1      -0.732   4.266  -1.869  1.00  0.00    -0.269 OA
ATOM     20  H   UNL     1       0.597   2.405  -2.358  1.00  0.00     0.191 HD
BRANCH  18  21
ATOM     21  C   UNL     1      -1.250   3.430   0.335  1.00  0.00     0.260 C 
ATOM     22  C   UNL     1      -2.643   2.817   0.130  1.00  0.00     0.064 C 
BRANCH  21  23
ATOM     23  O   UNL     1      -0.725   3.313   1.639  1.00  0.00    -0.481 OA
BRANCH  23  24
ATOM     24  C   UNL     1      -0.276   2.174   2.217  1.00  0.00     0.120 A 
ATOM     25  C   UNL     1       2.367   1.582   4.905  1.00  0.00     0.044 C 
ATOM     26  C   UNL     1       1.321   1.333   3.860  1.00  0.00    -0.047 A 
ATOM     27  C   UNL     1       1.013   0.027   3.474  1.00  0.00     0.003 A 
ATOM     28  C   UNL     1       0.663   2.396   3.231  1.00  0.00     0.049 A 
ATOM     29  C   UNL     1       0.047  -0.205   2.496  1.00  0.00     0.004 A 
ATOM     30  C   UNL     1      -0.609   0.865   1.880  1.00  0.00     0.046 A 
ENDBRANCH  23  24
ENDBRANCH  21  23
ENDBRANCH  18  21
ENDBRANCH  14  17
ENDBRANCH   7  13
ENDBRANCH   3   6
ENDBRANCH   1   2
BRANCH   1  31
ATOM     31  C   UNL     1       2.890   5.784  -1.677  1.00  0.00     0.023 C 
BRANCH  31  32
ATOM     32  C   UNL     1       3.904   6.564  -0.833  1.00  0.00     0.023 C 
BRANCH  32  33
ATOM     33  C   UNL     1       4.620   7.681  -1.578  1.00  0.00     0.116 C 
BRANCH  33  34
ATOM     34  N   UNL     1       3.895   8.932  -1.661  1.00  0.00    -0.352 N 
ATOM     35  C   UNL     1       4.209  10.106  -2.341  1.00  0.00     0.251 C 
ATOM     36  H   UNL     1       3.049   8.957  -1.159  1.00  0.00     0.163 HD
ATOM     37  O   UNL     1       3.575  11.104  -2.075  1.00  0.00    -0.269 OA
BRANCH  35  38
ATOM     38  C   UNL     1       5.193  10.095  -3.471  1.00  0.00     0.039 A 
ATOM     39  C   UNL     1       4.942  10.938  -4.565  1.00  0.00     0.014 A 
ATOM     40  C   UNL     1       6.196   9.139  -3.574  1.00  0.00     0.014 A 
ATOM     41  C   UNL     1       5.475  10.628  -5.819  1.00  0.00     0.010 A 
ATOM     42  C   UNL     1       6.634   8.758  -4.822  1.00  0.00     0.010 A 
ATOM     43  C   UNL     1       6.208   9.455  -5.954  1.00  0.00    -0.014 A 
BRANCH  43  44
ATOM     44  C   UNL     1       6.521   8.792  -7.210  1.00  0.00     0.031 A 
ATOM     45  C   UNL     1       7.876   8.881  -7.784  1.00  0.00     0.074 A 
ATOM     46  C   UNL     1       5.636   7.878  -7.675  1.00  0.00     0.049 A 
ATOM     47  N   UNL     1       8.193   8.424  -8.944  1.00  0.00    -0.248 NA
ATOM     48  C   UNL     1       8.993   9.492  -7.075  1.00  0.00     0.031 C 
ATOM     49  C   UNL     1       5.884   6.791  -8.616  1.00  0.00     0.029 A 
ATOM     50  N   UNL     1       4.245   7.883  -7.534  1.00  0.00    -0.354 N 
ATOM     51  C   UNL     1       9.566   8.448  -9.045  1.00  0.00     0.074 A 
ATOM     52  C   UNL     1      10.015   9.158  -7.870  1.00  0.00     0.031 C 
ATOM     53  C   UNL     1       4.720   6.443  -9.187  1.00  0.00     0.029 A 
ATOM     54  C   UNL     1       3.740   7.429  -8.768  1.00  0.00     0.049 A 
ATOM     55  H   UNL     1       3.728   8.147  -6.739  1.00  0.00     0.167 HD
ATOM     56  C   UNL     1      10.160   7.757 -10.058  1.00  0.00     0.034 A 
ATOM     57  C   UNL     1       3.002   8.221  -9.605  1.00  0.00     0.034 A 
ATOM     58  C   UNL     1       9.159   7.182 -10.965  1.00  0.00     0.049 A 
ATOM     59  C   UNL     1       3.630   8.402 -10.987  1.00  0.00     0.074 A 
ATOM     60  C   UNL     1       8.549   5.945 -11.100  1.00  0.00     0.029 A 
ATOM     61  N   UNL     1       8.428   8.053 -11.746  1.00  0.00    -0.354 N 
ATOM     62  N   UNL     1       4.747   7.852 -11.378  1.00  0.00    -0.248 NA
ATOM     63  C   UNL     1       3.084   9.309 -11.999  1.00  0.00     0.031 C 
ATOM     64  C   UNL     1       7.402   6.109 -11.937  1.00  0.00     0.029 A 
ATOM     65  C   UNL     1       7.334   7.437 -12.324  1.00  0.00     0.049 A 
ATOM     66  H   UNL     1       8.658   9.001 -11.877  1.00  0.00     0.167 HD
ATOM     67  C   UNL     1       5.162   8.446 -12.543  1.00  0.00     0.074 A 
ATOM     68  C   UNL     1       4.061   9.313 -12.921  1.00  0.00     0.031 C 
ATOM     69  C   UNL     1       6.404   8.261 -13.085  1.00  0.00     0.034 A 
BRANCH  56  70
ATOM     70  C   UNL     1      11.631   7.411 -10.139  1.00  0.00     0.023 A 
ATOM     71  C   UNL     1      11.979   6.256 -10.877  1.00  0.00     0.012 A 
ATOM     72  C   UNL     1      12.698   8.101  -9.521  1.00  0.00     0.148 A 
ATOM     73  C   UNL     1      13.285   5.761 -10.931  1.00  0.00     0.002 A 
ATOM     74  C   UNL     1      13.992   7.568  -9.514  1.00  0.00     0.091 A 
ATOM     75  F   UNL     1      12.491   9.315  -9.002  1.00  0.00    -0.205 F 
ATOM     76  C   UNL     1      14.287   6.398 -10.220  1.00  0.00     0.022 A 
BRANCH  74  77
ATOM     77  S   UNL     1      15.328   8.272  -8.530  1.00  0.00     0.127 S 
ATOM     78  O   UNL     1      15.807   7.103  -7.786  1.00  0.00    -0.237 OA
ATOM     79  O   UNL     1      16.252   8.758  -9.551  1.00  0.00    -0.237 OA
ATOM     80  O   UNL     1      14.716   9.295  -7.691  1.00  0.00    -0.744 OA
ENDBRANCH  74  77
ENDBRANCH  56  70
BRANCH  57  81
ATOM     81  C   UNL     1       2.225   9.275  -8.878  1.00  0.00     0.023 A 
ATOM     82  C   UNL     1       1.298   8.837  -7.900  1.00  0.00     0.012 A 
ATOM     83  C   UNL     1       2.657  10.612  -8.843  1.00  0.00     0.148 A 
ATOM     84  C   UNL     1       0.951   9.656  -6.824  1.00  0.00     0.002 A 
ATOM     85  C   UNL     1       2.282  11.432  -7.782  1.00  0.00     0.091 A 
ATOM     86  F   UNL     1       3.488  11.050  -9.797  1.00  0.00    -0.205 F 
ATOM     87  C   UNL     1       1.474  10.942  -6.746  1.00  0.00     0.022 A 
BRANCH  85  88
ATOM     88  S   UNL     1       2.924  13.106  -7.643  1.00  0.00     0.127 S 
ATOM     89  O   UNL     1       1.907  13.866  -8.362  1.00  0.00    -0.237 OA
ATOM     90  O   UNL     1       2.949  13.319  -6.197  1.00  0.00    -0.237 OA
ATOM     91  O   UNL     1       4.243  13.040  -8.255  1.00  0.00    -0.744 OA
ENDBRANCH  85  88
ENDBRANCH  57  81
BRANCH  69  92
ATOM     92  C   UNL     1       6.836   8.871 -14.401  1.00  0.00     0.023 A 
ATOM     93  C   UNL     1       5.957   8.863 -15.503  1.00  0.00     0.012 A 
ATOM     94  C   UNL     1       8.161   9.316 -14.637  1.00  0.00     0.148 A 
ATOM     95  C   UNL     1       6.359   9.312 -16.765  1.00  0.00     0.002 A 
ATOM     96  C   UNL     1       8.586   9.655 -15.918  1.00  0.00     0.091 A 
ATOM     97  F   UNL     1       9.005   9.467 -13.611  1.00  0.00    -0.205 F 
ATOM     98  C   UNL     1       7.680   9.683 -16.979  1.00  0.00     0.022 A 
BRANCH  96  99
ATOM     99  S   UNL     1      10.321   9.929 -16.307  1.00  0.00     0.127 S 
ATOM    100  O   UNL     1      10.490   9.112 -17.512  1.00  0.00    -0.237 OA
ATOM    101  O   UNL     1      10.354  11.370 -16.540  1.00  0.00    -0.237 OA
ATOM    102  O   UNL     1      11.066   9.448 -15.152  1.00  0.00    -0.744 OA
ENDBRANCH  96  99
ENDBRANCH  69  92
ENDBRANCH  43  44
ENDBRANCH  35  38
ENDBRANCH  33  34
ENDBRANCH  32  33
ENDBRANCH  31  32
ENDBRANCH   1  31
TORSDOF 19
