REMARK SMILES CC(=O)N[C@H](CC(=O)NCC(=O)NCCCCNC(=O)c1ccc(-c2c3nc(c(-c4cccc(S(=O)(=O)[O-])c4F)c4ccc([nH]4)c(-c4cccc(S(=O)(=O)[O-])c4F)c4nc(c(-c5cccc(S(=O)(=O)[O-])c5F)c5ccc2[nH]5)C=C4)C=C3)cc1)c1cccs1
REMARK SMILES IDX 15 1 14 2 13 3 11 4 12 5 10 7 9 8 7 9 8 10 6 12 5 13 4 14
REMARK SMILES IDX 1 15 2 16 3 17 84 19 85 20 88 21 86 22 87 23 16 24 17 25
REMARK SMILES IDX 18 26 19 27 20 29 21 30 22 31 83 32 23 33 82 34 24 35 25 36
REMARK SMILES IDX 26 37 76 38 27 39 81 40 75 41 77 42 28 43 80 44 74 45 73 46
REMARK SMILES IDX 29 48 61 49 41 50 60 51 42 52 45 53 59 54 78 55 43 56 44 57
REMARK SMILES IDX 58 59 79 60 46 61 30 62 31 63 39 64 32 65 34 66 40 67 33 68
REMARK SMILES IDX 35 69 36 70 37 71 38 72 62 73 63 74 71 75 64 76 66 77 72 78
REMARK SMILES IDX 65 79 67 80 68 81 69 82 70 83 47 84 48 85 56 86 49 87 51 88
REMARK SMILES IDX 57 89 50 90 52 91 53 92 54 93 55 94
REMARK H PARENT 13 6 9 11 4 18 18 28 77 47 45 58
REMARK Flexibility Score: inf
ROOT
ATOM      1  C   UNL     1       2.441   3.183  -3.834  1.00  0.00     0.023 C 
ENDROOT
BRANCH   1   2
ATOM      2  C   UNL     1       2.452   3.555  -2.344  1.00  0.00     0.116 C 
BRANCH   2   3
ATOM      3  N   UNL     1       1.176   3.940  -1.753  1.00  0.00    -0.355 N 
ATOM      4  C   UNL     1       0.356   3.385  -0.811  1.00  0.00     0.239 C 
ATOM      5  O   UNL     1      -0.546   4.104  -0.360  1.00  0.00    -0.273 OA
ATOM      6  H   UNL     1       0.828   4.788  -2.113  1.00  0.00     0.163 HD
BRANCH   4   7
ATOM      7  C   UNL     1       0.443   1.921  -0.333  1.00  0.00     0.216 C 
BRANCH   7   8
ATOM      8  N   UNL     1      -0.818   1.198  -0.586  1.00  0.00    -0.347 N 
ATOM      9  C   UNL     1      -1.151   0.136  -1.373  1.00  0.00     0.222 C 
ATOM     10  O   UNL     1      -2.309  -0.287  -1.334  1.00  0.00    -0.275 OA
ATOM     11  H   UNL     1      -1.580   1.560  -0.078  1.00  0.00     0.164 HD
BRANCH   9  12
ATOM     12  C   UNL     1      -0.130  -0.553  -2.248  1.00  0.00     0.130 C 
BRANCH  12  13
ATOM     13  C   UNL     1       0.525   0.411  -3.216  1.00  0.00     0.131 C 
BRANCH  13  14
ATOM     14  N   UNL     1       1.667  -0.157  -3.942  1.00  0.00    -0.348 N 
ATOM     15  C   UNL     1       3.269  -0.318  -2.034  1.00  0.00     0.114 C 
ATOM     16  C   UNL     1       2.947  -0.358  -3.505  1.00  0.00     0.217 C 
ATOM     17  O   UNL     1       3.833  -0.568  -4.332  1.00  0.00    -0.275 OA
ATOM     18  H   UNL     1       1.487  -0.430  -4.870  1.00  0.00     0.164 HD
ENDBRANCH  13  14
BRANCH  13  19
ATOM     19  C   UNL     1      -0.444   1.101  -4.177  1.00  0.00     0.027 A 
ATOM     20  C   UNL     1      -0.810   0.812  -5.480  1.00  0.00     0.017 A 
ATOM     21  S   UNL     1      -1.240   2.551  -3.661  1.00  0.00    -0.147 S 
ATOM     22  C   UNL     1      -1.620   1.837  -6.068  1.00  0.00     0.012 A 
ATOM     23  C   UNL     1      -1.890   2.861  -5.193  1.00  0.00     0.065 A 
ENDBRANCH  13  19
ENDBRANCH  12  13
ENDBRANCH   9  12
ENDBRANCH   7   8
ENDBRANCH   4   7
ENDBRANCH   2   3
ENDBRANCH   1   2
BRANCH   1  24
ATOM     24  C   UNL     1       1.968   4.227  -4.845  1.00  0.00     0.023 C 
BRANCH  24  25
ATOM     25  C   UNL     1       3.080   4.621  -5.803  1.00  0.00     0.116 C 
BRANCH  25  26
ATOM     26  N   UNL     1       3.592   3.527  -6.631  1.00  0.00    -0.352 N 
ATOM     27  C   UNL     1       4.388   3.634  -7.756  1.00  0.00     0.251 C 
ATOM     28  H   UNL     1       3.343   2.616  -6.356  1.00  0.00     0.163 HD
ATOM     29  O   UNL     1       4.685   2.646  -8.422  1.00  0.00    -0.269 OA
BRANCH  27  30
ATOM     30  C   UNL     1       4.826   4.982  -8.177  1.00  0.00     0.039 A 
ATOM     31  C   UNL     1       4.633   5.395  -9.496  1.00  0.00     0.014 A 
ATOM     32  C   UNL     1       5.311   5.874  -7.223  1.00  0.00     0.014 A 
ATOM     33  C   UNL     1       4.837   6.736  -9.828  1.00  0.00     0.010 A 
ATOM     34  C   UNL     1       5.364   7.225  -7.516  1.00  0.00     0.010 A 
ATOM     35  C   UNL     1       5.155   7.670  -8.828  1.00  0.00    -0.014 A 
BRANCH  35  36
ATOM     36  C   UNL     1       5.322   9.114  -9.120  1.00  0.00     0.031 A 
ATOM     37  C   UNL     1       6.632   9.785  -8.796  1.00  0.00     0.074 A 
ATOM     38  C   UNL     1       4.275   9.834  -9.571  1.00  0.00     0.049 A 
ATOM     39  N   UNL     1       6.959  11.046  -8.890  1.00  0.00    -0.248 NA
ATOM     40  C   UNL     1       7.701   8.935  -8.238  1.00  0.00     0.031 C 
ATOM     41  C   UNL     1       2.927   9.314  -9.817  1.00  0.00     0.029 A 
ATOM     42  N   UNL     1       4.175  11.166  -9.883  1.00  0.00    -0.354 N 
ATOM     43  C   UNL     1       8.238  11.144  -8.356  1.00  0.00     0.074 A 
ATOM     44  C   UNL     1       8.606   9.832  -7.882  1.00  0.00     0.031 C 
ATOM     45  C   UNL     1       2.145  10.308 -10.268  1.00  0.00     0.029 A 
ATOM     46  C   UNL     1       2.924  11.541 -10.316  1.00  0.00     0.049 A 
ATOM     47  H   UNL     1       4.928  11.795  -9.804  1.00  0.00     0.167 HD
ATOM     48  C   UNL     1       9.057  12.220  -8.308  1.00  0.00     0.034 A 
ATOM     49  C   UNL     1       2.465  12.743 -10.714  1.00  0.00     0.034 A 
ATOM     50  C   UNL     1       8.711  13.498  -8.862  1.00  0.00     0.049 A 
ATOM     51  C   UNL     1       3.422  13.905 -10.738  1.00  0.00     0.074 A 
ATOM     52  C   UNL     1       9.499  14.627  -8.980  1.00  0.00     0.029 A 
ATOM     53  N   UNL     1       7.471  13.812  -9.397  1.00  0.00    -0.354 N 
ATOM     54  N   UNL     1       4.686  13.939 -10.386  1.00  0.00    -0.248 NA
ATOM     55  C   UNL     1       2.906  15.182 -11.249  1.00  0.00     0.031 C 
ATOM     56  C   UNL     1       8.727  15.632  -9.571  1.00  0.00     0.029 A 
ATOM     57  C   UNL     1       7.468  15.120  -9.844  1.00  0.00     0.049 A 
ATOM     58  H   UNL     1       6.707  13.194  -9.452  1.00  0.00     0.167 HD
ATOM     59  C   UNL     1       5.126  15.227 -10.666  1.00  0.00     0.074 A 
ATOM     60  C   UNL     1       3.998  15.936 -11.238  1.00  0.00     0.031 C 
ATOM     61  C   UNL     1       6.346  15.781 -10.458  1.00  0.00     0.034 A 
BRANCH  48  62
ATOM     62  C   UNL     1      10.421  12.036  -7.696  1.00  0.00     0.023 A 
ATOM     63  C   UNL     1      11.383  11.241  -8.355  1.00  0.00     0.012 A 
ATOM     64  C   UNL     1      10.762  12.668  -6.485  1.00  0.00     0.148 A 
ATOM     65  C   UNL     1      12.645  11.040  -7.797  1.00  0.00     0.002 A 
ATOM     66  C   UNL     1      12.040  12.505  -5.960  1.00  0.00     0.091 A 
ATOM     67  F   UNL     1       9.829  13.399  -5.859  1.00  0.00    -0.205 F 
ATOM     68  C   UNL     1      12.976  11.680  -6.606  1.00  0.00     0.022 A 
BRANCH  66  69
ATOM     69  S   UNL     1      12.593  13.350  -4.476  1.00  0.00     0.127 S 
ATOM     70  O   UNL     1      12.691  12.243  -3.525  1.00  0.00    -0.237 OA
ATOM     71  O   UNL     1      13.878  13.905  -4.900  1.00  0.00    -0.237 OA
ATOM     72  O   UNL     1      11.572  14.343  -4.174  1.00  0.00    -0.744 OA
ENDBRANCH  66  69
ENDBRANCH  48  62
BRANCH  49  73
ATOM     73  C   UNL     1       1.066  12.885 -11.211  1.00  0.00     0.023 A 
ATOM     74  C   UNL     1       0.841  13.111 -12.584  1.00  0.00     0.012 A 
ATOM     75  C   UNL     1      -0.040  12.764 -10.348  1.00  0.00     0.148 A 
ATOM     76  C   UNL     1      -0.455  13.246 -13.083  1.00  0.00     0.002 A 
ATOM     77  C   UNL     1      -1.331  12.846 -10.860  1.00  0.00     0.091 A 
ATOM     78  F   UNL     1       0.191  12.558  -9.044  1.00  0.00    -0.205 F 
ATOM     79  C   UNL     1      -1.541  13.104 -12.224  1.00  0.00     0.022 A 
BRANCH  77  80
ATOM     80  S   UNL     1      -2.789  12.546  -9.853  1.00  0.00     0.127 S 
ATOM     81  O   UNL     1      -3.364  13.885  -9.753  1.00  0.00    -0.237 OA
ATOM     82  O   UNL     1      -3.545  11.611 -10.687  1.00  0.00    -0.237 OA
ATOM     83  O   UNL     1      -2.294  11.974  -8.608  1.00  0.00    -0.744 OA
ENDBRANCH  77  80
ENDBRANCH  49  73
BRANCH  61  84
ATOM     84  C   UNL     1       6.542  17.211 -10.882  1.00  0.00     0.023 A 
ATOM     85  C   UNL     1       5.957  18.250 -10.132  1.00  0.00     0.012 A 
ATOM     86  C   UNL     1       7.382  17.525 -11.968  1.00  0.00     0.148 A 
ATOM     87  C   UNL     1       6.180  19.582 -10.477  1.00  0.00     0.002 A 
ATOM     88  C   UNL     1       7.643  18.854 -12.273  1.00  0.00     0.091 A 
ATOM     89  F   UNL     1       7.915  16.519 -12.677  1.00  0.00    -0.205 F 
ATOM     90  C   UNL     1       7.033  19.884 -11.537  1.00  0.00     0.022 A 
BRANCH  88  91
ATOM     91  S   UNL     1       8.809  19.335 -13.551  1.00  0.00     0.127 S 
ATOM     92  O   UNL     1       7.915  19.828 -14.598  1.00  0.00    -0.237 OA
ATOM     93  O   UNL     1       9.595  20.371 -12.881  1.00  0.00    -0.237 OA
ATOM     94  O   UNL     1       9.557  18.130 -13.884  1.00  0.00    -0.744 OA
ENDBRANCH  88  91
ENDBRANCH  61  84
ENDBRANCH  35  36
ENDBRANCH  27  30
ENDBRANCH  25  26
ENDBRANCH  24  25
ENDBRANCH   1  24
TORSDOF 19
