REMARK SMILES CC(C)C[C@H]([NH2+]C[C@@](C)(O)C#Cc1ccccc1)C(=O)NCCCCNC(=O)c1ccc(-c2c3nc(c(-c4cccc(S(=O)(=O)[O-])c4F)c4ccc([nH]4)c(-c4cccc(S(=O)(=O)[O-])c4F)c4nc(c(-c5cccc(S(=O)(=O)[O-])c5F)c5ccc2[nH]5)C=C4)C=C3)cc1
REMARK SMILES IDX 22 1 21 2 19 3 20 4 5 6 4 7 2 8 1 9 3 10 6 11 7 14 8 15 9 16
REMARK SMILES IDX 10 17 11 19 12 20 13 21 14 22 18 23 15 24 17 25 16 26 23 27
REMARK SMILES IDX 24 28 25 29 26 30 27 31 28 33 29 34 30 35 91 36 31 37 90 38
REMARK SMILES IDX 32 39 33 40 34 41 84 42 35 43 89 44 83 45 85 46 36 47 88 48
REMARK SMILES IDX 82 49 81 50 37 52 69 53 49 54 68 55 50 56 53 57 67 58 86 59
REMARK SMILES IDX 51 60 52 61 66 63 87 64 54 65 38 66 39 67 47 68 40 69 42 70
REMARK SMILES IDX 48 71 41 72 43 73 44 74 45 75 46 76 70 77 71 78 79 79 72 80
REMARK SMILES IDX 74 81 80 82 73 83 75 84 76 85 77 86 78 87 55 88 56 89 64 90
REMARK SMILES IDX 57 91 59 92 65 93 58 94 60 95 61 96 62 97 63 98
REMARK H PARENT 21 5 6 12 6 13 10 18 26 32 85 51 53 62
REMARK Flexibility Score: inf
ROOT
ATOM      1  C   UNL     1      -3.112  -2.432  -2.549  1.00  0.00     0.116 C 
ENDROOT
BRANCH   1   2
ATOM      2  N   UNL     1      -3.643  -1.222  -1.950  1.00  0.00    -0.351 N 
ATOM      3  C   UNL     1      -2.990  -0.128  -1.448  1.00  0.00     0.278 C 
ATOM      4  O   UNL     1      -3.670   0.817  -1.040  1.00  0.00    -0.268 OA
ATOM      5  H   UNL     1      -4.625  -1.181  -1.897  1.00  0.00     0.163 HD
BRANCH   3   6
ATOM      6  C   UNL     1      -1.442  -0.084  -1.416  1.00  0.00     0.272 C 
BRANCH   6   7
ATOM      7  C   UNL     1      -0.884   0.080  -2.850  1.00  0.00     0.078 C 
BRANCH   7   8
ATOM      8  C   UNL     1      -1.144   1.457  -3.495  1.00  0.00    -0.011 C 
ATOM      9  C   UNL     1      -0.358   2.563  -2.788  1.00  0.00     0.007 C 
ATOM     10  C   UNL     1      -0.736   1.399  -4.971  1.00  0.00     0.007 C 
ENDBRANCH   7   8
ENDBRANCH   6   7
BRANCH   6  11
ATOM     11  N   UNL     1      -0.953  -1.226  -0.606  1.00  0.00    -0.333 N 
ATOM     12  H   UNL     1      -1.689  -1.932  -0.595  1.00  0.00     0.347 HD
ATOM     13  H   UNL     1      -0.727  -0.826   0.305  1.00  0.00     0.347 HD
BRANCH  11  14
ATOM     14  C   UNL     1       0.277  -1.878  -1.050  1.00  0.00     0.310 C 
BRANCH  14  15
ATOM     15  C   UNL     1       0.731  -3.130  -0.237  1.00  0.00     0.171 C 
ATOM     16  C   UNL     1      -0.294  -4.264  -0.297  1.00  0.00     0.063 C 
BRANCH  15  17
ATOM     17  O   UNL     1       1.948  -3.617  -0.816  1.00  0.00    -0.372 OA
ATOM     18  H   UNL     1       1.789  -3.865  -1.741  1.00  0.00     0.212 HD
ENDBRANCH  15  17
BRANCH  15  19
ATOM     19  C   UNL     1       1.002  -2.763   1.158  1.00  0.00    -0.057 C 
ATOM     20  C   UNL     1       1.210  -2.417   2.289  1.00  0.00    -0.064 C 
BRANCH  20  21
ATOM     21  C   UNL     1       1.475  -1.967   3.616  1.00  0.00     0.025 A 
ATOM     22  C   UNL     1       0.794  -0.861   4.130  1.00  0.00     0.017 A 
ATOM     23  C   UNL     1       2.435  -2.621   4.390  1.00  0.00     0.017 A 
ATOM     24  C   UNL     1       1.082  -0.405   5.417  1.00  0.00     0.001 A 
ATOM     25  C   UNL     1       2.721  -2.163   5.676  1.00  0.00     0.001 A 
ATOM     26  C   UNL     1       2.047  -1.054   6.187  1.00  0.00     0.000 A 
ENDBRANCH  20  21
ENDBRANCH  15  19
ENDBRANCH  14  15
ENDBRANCH  11  14
ENDBRANCH   6  11
ENDBRANCH   3   6
ENDBRANCH   1   2
BRANCH   1  27
ATOM     27  C   UNL     1      -3.508  -3.680  -1.768  1.00  0.00     0.023 C 
BRANCH  27  28
ATOM     28  C   UNL     1      -4.986  -4.028  -1.848  1.00  0.00     0.023 C 
BRANCH  28  29
ATOM     29  C   UNL     1      -5.525  -4.158  -3.262  1.00  0.00     0.116 C 
BRANCH  29  30
ATOM     30  N   UNL     1      -4.864  -5.198  -4.042  1.00  0.00    -0.352 N 
ATOM     31  C   UNL     1      -5.438  -6.228  -4.757  1.00  0.00     0.251 C 
ATOM     32  H   UNL     1      -3.880  -5.160  -4.060  1.00  0.00     0.163 HD
ATOM     33  O   UNL     1      -4.739  -7.101  -5.260  1.00  0.00    -0.269 OA
BRANCH  31  34
ATOM     34  C   UNL     1      -6.911  -6.277  -4.854  1.00  0.00     0.039 A 
ATOM     35  C   UNL     1      -7.618  -5.113  -5.158  1.00  0.00     0.014 A 
ATOM     36  C   UNL     1      -7.587  -7.446  -4.501  1.00  0.00     0.014 A 
ATOM     37  C   UNL     1      -8.972  -5.050  -4.869  1.00  0.00     0.010 A 
ATOM     38  C   UNL     1      -8.975  -7.410  -4.338  1.00  0.00     0.010 A 
ATOM     39  C   UNL     1      -9.670  -6.195  -4.450  1.00  0.00    -0.014 A 
BRANCH  39  40
ATOM     40  C   UNL     1     -11.119  -6.087  -4.132  1.00  0.00     0.031 A 
ATOM     41  C   UNL     1     -11.646  -6.428  -2.760  1.00  0.00     0.074 A 
ATOM     42  C   UNL     1     -11.962  -5.629  -5.080  1.00  0.00     0.049 A 
ATOM     43  N   UNL     1     -12.881  -6.396  -2.329  1.00  0.00    -0.248 NA
ATOM     44  C   UNL     1     -10.674  -6.858  -1.739  1.00  0.00     0.031 C 
ATOM     45  C   UNL     1     -11.578  -5.268  -6.449  1.00  0.00     0.029 A 
ATOM     46  N   UNL     1     -13.311  -5.383  -5.042  1.00  0.00    -0.354 N 
ATOM     47  C   UNL     1     -12.842  -6.836  -1.012  1.00  0.00     0.074 A 
ATOM     48  C   UNL     1     -11.462  -7.135  -0.706  1.00  0.00     0.031 C 
ATOM     49  C   UNL     1     -12.655  -4.819  -7.107  1.00  0.00     0.029 A 
ATOM     50  C   UNL     1     -13.819  -4.931  -6.237  1.00  0.00     0.049 A 
ATOM     51  H   UNL     1     -13.862  -5.516  -4.237  1.00  0.00     0.167 HD
ATOM     52  C   UNL     1     -13.863  -6.962  -0.133  1.00  0.00     0.034 A 
ATOM     53  C   UNL     1     -15.084  -4.667  -6.614  1.00  0.00     0.034 A 
ATOM     54  C   UNL     1     -15.229  -6.621  -0.421  1.00  0.00     0.049 A 
ATOM     55  C   UNL     1     -16.196  -4.838  -5.623  1.00  0.00     0.074 A 
ATOM     56  C   UNL     1     -16.320  -6.678   0.430  1.00  0.00     0.029 A 
ATOM     57  N   UNL     1     -15.695  -6.164  -1.641  1.00  0.00    -0.354 N 
ATOM     58  N   UNL     1     -16.123  -5.196  -4.366  1.00  0.00    -0.248 NA
ATOM     59  C   UNL     1     -17.560  -4.557  -6.093  1.00  0.00     0.031 C 
ATOM     60  C   UNL     1     -17.451  -6.281  -0.284  1.00  0.00     0.029 A 
ATOM     61  C   UNL     1     -17.058  -5.945  -1.569  1.00  0.00     0.049 A 
ATOM     62  H   UNL     1     -15.140  -6.018  -2.441  1.00  0.00     0.167 HD
ATOM     63  C   UNL     1     -17.426  -5.163  -3.887  1.00  0.00     0.074 A 
ATOM     64  C   UNL     1     -18.267  -4.736  -4.985  1.00  0.00     0.031 C 
ATOM     65  C   UNL     1     -17.880  -5.473  -2.651  1.00  0.00     0.034 A 
BRANCH  52  66
ATOM     66  C   UNL     1     -13.569  -7.449   1.260  1.00  0.00     0.023 A 
ATOM     67  C   UNL     1     -13.060  -6.545   2.212  1.00  0.00     0.012 A 
ATOM     68  C   UNL     1     -13.963  -8.740   1.665  1.00  0.00     0.148 A 
ATOM     69  C   UNL     1     -12.959  -6.915   3.553  1.00  0.00     0.002 A 
ATOM     70  C   UNL     1     -13.883  -9.092   3.007  1.00  0.00     0.091 A 
ATOM     71  F   UNL     1     -14.444  -9.579   0.737  1.00  0.00    -0.205 F 
ATOM     72  C   UNL     1     -13.383  -8.181   3.952  1.00  0.00     0.022 A 
BRANCH  70  73
ATOM     73  S   UNL     1     -14.442 -10.680   3.633  1.00  0.00     0.127 S 
ATOM     74  O   UNL     1     -13.205 -11.228   4.189  1.00  0.00    -0.237 OA
ATOM     75  O   UNL     1     -15.436 -10.283   4.630  1.00  0.00    -0.237 OA
ATOM     76  O   UNL     1     -14.972 -11.405   2.487  1.00  0.00    -0.744 OA
ENDBRANCH  70  73
ENDBRANCH  52  66
BRANCH  53  77
ATOM     77  C   UNL     1     -15.351  -4.215  -8.005  1.00  0.00     0.023 A 
ATOM     78  C   UNL     1     -15.711  -2.877  -8.247  1.00  0.00     0.012 A 
ATOM     79  C   UNL     1     -15.193  -5.099  -9.091  1.00  0.00     0.148 A 
ATOM     80  C   UNL     1     -15.920  -2.428  -9.551  1.00  0.00     0.002 A 
ATOM     81  C   UNL     1     -15.365  -4.636 -10.388  1.00  0.00     0.091 A 
ATOM     82  F   UNL     1     -14.846  -6.367  -8.829  1.00  0.00    -0.205 F 
ATOM     83  C   UNL     1     -15.738  -3.303 -10.620  1.00  0.00     0.022 A 
BRANCH  81  84
ATOM     84  S   UNL     1     -15.071  -5.666 -11.828  1.00  0.00     0.127 S 
ATOM     85  O   UNL     1     -16.407  -5.744 -12.414  1.00  0.00    -0.237 OA
ATOM     86  O   UNL     1     -14.113  -4.858 -12.582  1.00  0.00    -0.237 OA
ATOM     87  O   UNL     1     -14.537  -6.921 -11.318  1.00  0.00    -0.744 OA
ENDBRANCH  81  84
ENDBRANCH  53  77
BRANCH  65  88
ATOM     88  C   UNL     1     -19.350  -5.337  -2.378  1.00  0.00     0.023 A 
ATOM     89  C   UNL     1     -20.237  -6.331  -2.832  1.00  0.00     0.012 A 
ATOM     90  C   UNL     1     -19.826  -4.300  -1.552  1.00  0.00     0.148 A 
ATOM     91  C   UNL     1     -21.581  -6.294  -2.468  1.00  0.00     0.002 A 
ATOM     92  C   UNL     1     -21.160  -4.287  -1.167  1.00  0.00     0.091 A 
ATOM     93  F   UNL     1     -18.957  -3.368  -1.135  1.00  0.00    -0.205 F 
ATOM     94  C   UNL     1     -22.039  -5.282  -1.625  1.00  0.00     0.022 A 
BRANCH  92  95
ATOM     95  S   UNL     1     -21.832  -3.059  -0.042  1.00  0.00     0.127 S 
ATOM     96  O   UNL     1     -22.796  -2.369  -0.899  1.00  0.00    -0.237 OA
ATOM     97  O   UNL     1     -22.428  -3.891   1.002  1.00  0.00    -0.237 OA
ATOM     98  O   UNL     1     -20.704  -2.246   0.393  1.00  0.00    -0.744 OA
ENDBRANCH  92  95
ENDBRANCH  65  88
ENDBRANCH  39  40
ENDBRANCH  31  34
ENDBRANCH  29  30
ENDBRANCH  28  29
ENDBRANCH  27  28
ENDBRANCH   1  27
TORSDOF 22
