REMARK SMILES NNC(=O)c1cccc([N+](=O)[O-])c1C(=O)NCCCCNC(=O)c1ccc(-c2c3nc(c(-c4cccc(S(=O)(=O)[O-])c4F)c4ccc([nH]4)c(-c4cccc(S(=O)(=O)[O-])c4F)c4nc(c(-c5cccc(S(=O)(=O)[O-])c5F)c5ccc2[nH]5)C=C4)C=C3)cc1
REMARK SMILES IDX 19 1 18 2 17 3 16 4 14 5 15 6 13 8 5 9 6 10 7 11 9 12 8 13
REMARK SMILES IDX 3 14 2 15 4 17 1 18 10 21 11 22 12 23 20 24 21 25 22 26
REMARK SMILES IDX 23 28 24 29 25 30 86 31 26 32 85 33 27 34 28 35 29 36 79 37
REMARK SMILES IDX 30 38 84 39 78 40 80 41 31 42 83 43 77 44 76 45 32 47 64 48
REMARK SMILES IDX 44 49 63 50 45 51 48 52 62 53 81 54 46 55 47 56 61 58 82 59
REMARK SMILES IDX 49 60 33 61 34 62 42 63 35 64 37 65 43 66 36 67 38 68 39 69
REMARK SMILES IDX 40 70 41 71 65 72 66 73 74 74 67 75 69 76 75 77 68 78 70 79
REMARK SMILES IDX 71 80 72 81 73 82 50 83 51 84 59 85 52 86 54 87 60 88 53 89
REMARK SMILES IDX 55 90 56 91 57 92 58 93
REMARK H PARENT 16 7 2 16 1 19 1 20 21 27 80 46 48 57
REMARK Flexibility Score: inf
ROOT
ATOM      1  C   UNL     1      -1.268   3.513   0.824  1.00  0.00     0.023 C 
ENDROOT
BRANCH   1   2
ATOM      2  C   UNL     1      -1.931   2.775  -0.343  1.00  0.00     0.023 C 
BRANCH   2   3
ATOM      3  C   UNL     1      -1.268   1.486  -0.812  1.00  0.00     0.116 C 
BRANCH   3   4
ATOM      4  N   UNL     1      -1.115   0.449   0.190  1.00  0.00    -0.352 N 
ATOM      5  C   UNL     1      -0.851  -0.890   0.031  1.00  0.00     0.259 C 
ATOM      6  O   UNL     1      -0.475  -1.548   1.000  1.00  0.00    -0.269 OA
ATOM      7  H   UNL     1      -1.216   0.748   1.122  1.00  0.00     0.163 HD
BRANCH   5   8
ATOM      8  C   UNL     1      -0.994  -1.609  -1.254  1.00  0.00     0.130 A 
ATOM      9  C   UNL     1      -0.328  -1.251  -2.435  1.00  0.00     0.060 A 
ATOM     10  C   UNL     1      -0.539  -1.978  -3.627  1.00  0.00     0.015 A 
ATOM     11  C   UNL     1      -1.335  -3.121  -3.641  1.00  0.00     0.008 A 
ATOM     12  C   UNL     1      -1.750  -2.794  -1.287  1.00  0.00     0.282 A 
ATOM     13  C   UNL     1      -1.926  -3.550  -2.461  1.00  0.00     0.086 A 
BRANCH   9  14
ATOM     14  C   UNL     1       0.601  -0.113  -2.564  1.00  0.00     0.266 C 
ATOM     15  N   UNL     1       1.707  -0.004  -1.744  1.00  0.00    -0.290 N 
ATOM     16  H   UNL     1       2.214   0.840  -1.769  1.00  0.00     0.184 HD
ATOM     17  O   UNL     1       0.365   0.733  -3.425  1.00  0.00    -0.268 OA
BRANCH  15  18
ATOM     18  N   UNL     1       2.158  -1.010  -0.878  1.00  0.00    -0.248 NA
ATOM     19  H   UNL     1       2.989  -0.687  -0.384  1.00  0.00     0.143 HD
ATOM     20  H   UNL     1       2.386  -1.845  -1.418  1.00  0.00     0.143 HD
ENDBRANCH  15  18
ENDBRANCH   9  14
BRANCH  12  21
ATOM     21  N   UNL     1      -2.418  -3.295  -0.099  1.00  0.00     0.063 N 
ATOM     22  O   UNL     1      -2.127  -4.445   0.261  1.00  0.00    -0.258 OA
ATOM     23  O   UNL     1      -3.311  -2.587   0.383  1.00  0.00    -0.258 OA
ENDBRANCH  12  21
ENDBRANCH   5   8
ENDBRANCH   3   4
ENDBRANCH   2   3
ENDBRANCH   1   2
BRANCH   1  24
ATOM     24  C   UNL     1       0.254   3.639   0.814  1.00  0.00     0.116 C 
BRANCH  24  25
ATOM     25  N   UNL     1       0.796   4.382  -0.314  1.00  0.00    -0.352 N 
ATOM     26  C   UNL     1       1.522   5.554  -0.355  1.00  0.00     0.251 C 
ATOM     27  H   UNL     1       0.614   3.981  -1.194  1.00  0.00     0.163 HD
ATOM     28  O   UNL     1       1.850   6.022  -1.438  1.00  0.00    -0.269 OA
BRANCH  26  29
ATOM     29  C   UNL     1       1.872   6.280   0.891  1.00  0.00     0.039 A 
ATOM     30  C   UNL     1       1.667   7.663   0.938  1.00  0.00     0.014 A 
ATOM     31  C   UNL     1       2.390   5.623   2.008  1.00  0.00     0.014 A 
ATOM     32  C   UNL     1       1.884   8.363   2.130  1.00  0.00     0.010 A 
ATOM     33  C   UNL     1       2.522   6.305   3.219  1.00  0.00     0.010 A 
ATOM     34  C   UNL     1       2.262   7.681   3.299  1.00  0.00    -0.014 A 
BRANCH  34  35
ATOM     35  C   UNL     1       2.351   8.385   4.609  1.00  0.00     0.031 A 
ATOM     36  C   UNL     1       3.649   8.439   5.372  1.00  0.00     0.074 A 
ATOM     37  C   UNL     1       1.235   8.905   5.162  1.00  0.00     0.049 A 
ATOM     38  N   UNL     1       3.899   8.980   6.537  1.00  0.00    -0.248 NA
ATOM     39  C   UNL     1       4.812   7.773   4.762  1.00  0.00     0.031 C 
ATOM     40  C   UNL     1      -0.108   8.837   4.581  1.00  0.00     0.029 A 
ATOM     41  N   UNL     1       1.046   9.572   6.348  1.00  0.00    -0.354 N 
ATOM     42  C   UNL     1       5.230   8.690   6.817  1.00  0.00     0.074 A 
ATOM     43  C   UNL     1       5.724   7.891   5.716  1.00  0.00     0.031 C 
ATOM     44  C   UNL     1      -0.977   9.447   5.404  1.00  0.00     0.029 A 
ATOM     45  C   UNL     1      -0.263   9.929   6.581  1.00  0.00     0.049 A 
ATOM     46  H   UNL     1       1.779   9.776   6.973  1.00  0.00     0.167 HD
ATOM     47  C   UNL     1       5.985   9.079   7.873  1.00  0.00     0.034 A 
ATOM     48  C   UNL     1      -0.827  10.572   7.623  1.00  0.00     0.034 A 
ATOM     49  C   UNL     1       5.510   9.914   8.943  1.00  0.00     0.049 A 
ATOM     50  C   UNL     1       0.047  11.050   8.752  1.00  0.00     0.074 A 
ATOM     51  C   UNL     1       6.224  10.443  10.005  1.00  0.00     0.029 A 
ATOM     52  N   UNL     1       4.200  10.341   9.094  1.00  0.00    -0.354 N 
ATOM     53  N   UNL     1       1.342  10.917   8.907  1.00  0.00    -0.248 NA
ATOM     54  C   UNL     1      -0.612  11.803   9.829  1.00  0.00     0.031 C 
ATOM     55  C   UNL     1       5.341  11.174  10.807  1.00  0.00     0.029 A 
ATOM     56  C   UNL     1       4.082  11.120  10.233  1.00  0.00     0.049 A 
ATOM     57  H   UNL     1       3.461  10.122   8.481  1.00  0.00     0.167 HD
ATOM     58  C   UNL     1       1.657  11.596  10.078  1.00  0.00     0.074 A 
ATOM     59  C   UNL     1       0.421  12.164  10.577  1.00  0.00     0.031 C 
ATOM     60  C   UNL     1       2.858  11.723  10.695  1.00  0.00     0.034 A 
BRANCH  47  61
ATOM     61  C   UNL     1       7.432   8.655   7.890  1.00  0.00     0.023 A 
ATOM     62  C   UNL     1       8.335   9.239   6.976  1.00  0.00     0.012 A 
ATOM     63  C   UNL     1       7.911   7.729   8.837  1.00  0.00     0.148 A 
ATOM     64  C   UNL     1       9.681   8.879   6.978  1.00  0.00     0.002 A 
ATOM     65  C   UNL     1       9.264   7.409   8.861  1.00  0.00     0.091 A 
ATOM     66  F   UNL     1       7.037   7.170   9.685  1.00  0.00    -0.205 F 
ATOM     67  C   UNL     1      10.147   7.973   7.925  1.00  0.00     0.022 A 
BRANCH  65  68
ATOM     68  S   UNL     1       9.979   6.313  10.092  1.00  0.00     0.127 S 
ATOM     69  O   UNL     1      10.281   5.127   9.291  1.00  0.00    -0.237 OA
ATOM     70  O   UNL     1      11.155   7.067  10.530  1.00  0.00    -0.237 OA
ATOM     71  O   UNL     1       8.957   6.135  11.114  1.00  0.00    -0.744 OA
ENDBRANCH  65  68
ENDBRANCH  47  61
BRANCH  48  72
ATOM     72  C   UNL     1      -2.287  10.877   7.610  1.00  0.00     0.023 A 
ATOM     73  C   UNL     1      -2.711  12.211   7.449  1.00  0.00     0.012 A 
ATOM     74  C   UNL     1      -3.252   9.860   7.734  1.00  0.00     0.148 A 
ATOM     75  C   UNL     1      -4.069  12.531   7.447  1.00  0.00     0.002 A 
ATOM     76  C   UNL     1      -4.605  10.179   7.676  1.00  0.00     0.091 A 
ATOM     77  F   UNL     1      -2.829   8.599   7.899  1.00  0.00    -0.205 F 
ATOM     78  C   UNL     1      -5.015  11.515   7.550  1.00  0.00     0.022 A 
BRANCH  76  79
ATOM     79  S   UNL     1      -5.890   8.924   7.667  1.00  0.00     0.127 S 
ATOM     80  O   UNL     1      -6.483   9.094   8.991  1.00  0.00    -0.237 OA
ATOM     81  O   UNL     1      -6.733   9.362   6.553  1.00  0.00    -0.237 OA
ATOM     82  O   UNL     1      -5.202   7.661   7.437  1.00  0.00    -0.744 OA
ENDBRANCH  76  79
ENDBRANCH  48  72
BRANCH  60  83
ATOM     83  C   UNL     1       2.906  12.531  11.967  1.00  0.00     0.023 A 
ATOM     84  C   UNL     1       2.333  12.014  13.146  1.00  0.00     0.012 A 
ATOM     85  C   UNL     1       3.567  13.775  12.008  1.00  0.00     0.148 A 
ATOM     86  C   UNL     1       2.382  12.741  14.336  1.00  0.00     0.002 A 
ATOM     87  C   UNL     1       3.654  14.470  13.209  1.00  0.00     0.091 A 
ATOM     88  F   UNL     1       4.088  14.261  10.873  1.00  0.00    -0.205 F 
ATOM     89  C   UNL     1       3.051  13.961  14.370  1.00  0.00     0.022 A 
BRANCH  87  90
ATOM     90  S   UNL     1       4.580  16.002  13.363  1.00  0.00     0.127 S 
ATOM     91  O   UNL     1       3.509  16.996  13.395  1.00  0.00    -0.237 OA
ATOM     92  O   UNL     1       5.279  15.819  14.635  1.00  0.00    -0.237 OA
ATOM     93  O   UNL     1       5.455  16.056  12.199  1.00  0.00    -0.744 OA
ENDBRANCH  87  90
ENDBRANCH  60  83
ENDBRANCH  34  35
ENDBRANCH  26  29
ENDBRANCH  24  25
ENDBRANCH   1  24
TORSDOF 17
