REMARK SMILES C[NH2+]C[C@H]1CCCC[N@H+]1[C@H](C)[C@@H](C)C(=O)NCCCCNC(=O)c1ccc(-c2c3nc(c(-c4cccc(S(=O)(=O)[O-])c4F)c4ccc([nH]4)c(-c4cccc(S(=O)(=O)[O-])c4F)c4nc(c(-c5cccc(S(=O)(=O)[O-])c5F)c5ccc2[nH]5)C=C4)C=C3)cc1
REMARK SMILES IDX 18 1 17 2 16 3 14 4 15 5 12 7 13 8 10 9 11 10 9 11 4 12 5 13
REMARK SMILES IDX 6 14 8 15 7 17 3 18 2 19 1 20 19 23 20 24 21 25 22 26 23 28
REMARK SMILES IDX 24 29 25 30 86 31 26 32 85 33 27 34 28 35 29 36 79 37 30 38
REMARK SMILES IDX 84 39 78 40 80 41 31 42 83 43 77 44 76 45 32 47 64 48 44 49
REMARK SMILES IDX 63 50 45 51 48 52 62 53 81 54 46 55 47 56 61 58 82 59 49 60
REMARK SMILES IDX 33 61 34 62 42 63 35 64 37 65 43 66 36 67 38 68 39 69 40 70
REMARK SMILES IDX 41 71 65 72 66 73 74 74 67 75 69 76 75 77 68 78 70 79 71 80
REMARK SMILES IDX 72 81 73 82 50 83 51 84 59 85 52 86 54 87 60 88 53 89 55 90
REMARK SMILES IDX 56 91 57 92 58 93
REMARK H PARENT 16 6 9 16 2 21 2 22 21 27 80 46 48 57
REMARK Flexibility Score: inf
ROOT
ATOM      1  C   UNL     1       0.116  -3.402   3.172  1.00  0.00     0.023 C 
ENDROOT
BRANCH   1   2
ATOM      2  C   UNL     1       1.040  -3.138   1.983  1.00  0.00     0.116 C 
BRANCH   2   3
ATOM      3  N   UNL     1       0.480  -3.513   0.700  1.00  0.00    -0.356 N 
ATOM      4  C   UNL     1      -0.113  -2.789  -0.286  1.00  0.00     0.228 C 
ATOM      5  O   UNL     1      -0.368  -3.384  -1.342  1.00  0.00    -0.275 OA
ATOM      6  H   UNL     1       0.540  -4.477   0.506  1.00  0.00     0.163 HD
BRANCH   4   7
ATOM      7  C   UNL     1      -0.408  -1.297  -0.188  1.00  0.00     0.133 C 
ATOM      8  C   UNL     1       0.946  -0.608  -0.454  1.00  0.00     0.024 C 
BRANCH   7   9
ATOM      9  C   UNL     1      -1.187  -0.797   1.078  1.00  0.00     0.193 C 
ATOM     10  C   UNL     1      -1.033   0.741   1.181  1.00  0.00     0.076 C 
BRANCH   9  11
ATOM     11  N   UNL     1      -2.642  -1.070   1.258  1.00  0.00    -0.325 N 
ATOM     12  C   UNL     1      -3.360  -2.036   0.408  1.00  0.00     0.239 C 
ATOM     13  C   UNL     1      -4.881  -1.743   0.503  1.00  0.00     0.071 C 
ATOM     14  C   UNL     1      -5.434  -1.738   1.924  1.00  0.00     0.012 C 
ATOM     15  C   UNL     1      -3.064  -1.115   2.665  1.00  0.00     0.262 C 
ATOM     16  H   UNL     1      -2.982  -0.217   0.816  1.00  0.00     0.348 HD
ATOM     17  C   UNL     1      -4.569  -0.897   2.851  1.00  0.00     0.062 C 
BRANCH  12  18
ATOM     18  C   UNL     1      -3.099  -3.575   0.538  1.00  0.00     0.326 C 
BRANCH  18  19
ATOM     19  N   UNL     1      -3.388  -4.298   1.776  1.00  0.00    -0.344 N 
ATOM     20  C   UNL     1      -4.098  -5.542   1.508  1.00  0.00     0.331 C 
ATOM     21  H   UNL     1      -2.510  -4.511   2.250  1.00  0.00     0.346 HD
ATOM     22  H   UNL     1      -3.979  -3.709   2.363  1.00  0.00     0.346 HD
ENDBRANCH  18  19
ENDBRANCH  12  18
ENDBRANCH   9  11
ENDBRANCH   7   9
ENDBRANCH   4   7
ENDBRANCH   2   3
ENDBRANCH   1   2
BRANCH   1  23
ATOM     23  C   UNL     1      -0.258  -4.854   3.439  1.00  0.00     0.023 C 
BRANCH  23  24
ATOM     24  C   UNL     1       0.906  -5.818   3.547  1.00  0.00     0.116 C 
BRANCH  24  25
ATOM     25  N   UNL     1       1.915  -5.398   4.508  1.00  0.00    -0.352 N 
ATOM     26  C   UNL     1       2.569  -6.140   5.464  1.00  0.00     0.251 C 
ATOM     27  H   UNL     1       2.166  -4.447   4.467  1.00  0.00     0.163 HD
ATOM     28  O   UNL     1       3.320  -5.590   6.256  1.00  0.00    -0.269 OA
BRANCH  26  29
ATOM     29  C   UNL     1       2.326  -7.597   5.547  1.00  0.00     0.039 A 
ATOM     30  C   UNL     1       2.109  -8.170   6.802  1.00  0.00     0.014 A 
ATOM     31  C   UNL     1       2.276  -8.386   4.396  1.00  0.00     0.014 A 
ATOM     32  C   UNL     1       1.774  -9.522   6.894  1.00  0.00     0.010 A 
ATOM     33  C   UNL     1       1.849  -9.706   4.482  1.00  0.00     0.010 A 
ATOM     34  C   UNL     1       1.603 -10.292   5.732  1.00  0.00    -0.014 A 
BRANCH  34  35
ATOM     35  C   UNL     1       1.165 -11.709   5.801  1.00  0.00     0.031 A 
ATOM     36  C   UNL     1       2.053 -12.800   5.266  1.00  0.00     0.074 A 
ATOM     37  C   UNL     1      -0.065 -12.004   6.266  1.00  0.00     0.049 A 
ATOM     38  N   UNL     1       1.823 -14.085   5.190  1.00  0.00    -0.248 NA
ATOM     39  C   UNL     1       3.358 -12.393   4.718  1.00  0.00     0.031 C 
ATOM     40  C   UNL     1      -1.051 -11.027   6.735  1.00  0.00     0.029 A 
ATOM     41  N   UNL     1      -0.707 -13.210   6.399  1.00  0.00    -0.354 N 
ATOM     42  C   UNL     1       2.933 -14.632   4.556  1.00  0.00     0.074 A 
ATOM     43  C   UNL     1       3.818 -13.536   4.232  1.00  0.00     0.031 C 
ATOM     44  C   UNL     1      -2.167 -11.672   7.111  1.00  0.00     0.029 A 
ATOM     45  C   UNL     1      -1.992 -13.102   6.880  1.00  0.00     0.049 A 
ATOM     46  H   UNL     1      -0.288 -14.071   6.170  1.00  0.00     0.167 HD
ATOM     47  C   UNL     1       3.207 -15.932   4.297  1.00  0.00     0.034 A 
ATOM     48  C   UNL     1      -2.925 -14.048   7.102  1.00  0.00     0.034 A 
ATOM     49  C   UNL     1       2.343 -17.022   4.659  1.00  0.00     0.049 A 
ATOM     50  C   UNL     1      -2.582 -15.489   6.835  1.00  0.00     0.074 A 
ATOM     51  C   UNL     1       2.569 -18.380   4.522  1.00  0.00     0.029 A 
ATOM     52  N   UNL     1       1.083 -16.881   5.220  1.00  0.00    -0.354 N 
ATOM     53  N   UNL     1      -1.461 -16.001   6.388  1.00  0.00    -0.248 NA
ATOM     54  C   UNL     1      -3.618 -16.486   7.138  1.00  0.00     0.031 C 
ATOM     55  C   UNL     1       1.433 -19.059   4.974  1.00  0.00     0.029 A 
ATOM     56  C   UNL     1       0.514 -18.125   5.424  1.00  0.00     0.049 A 
ATOM     57  H   UNL     1       0.657 -16.021   5.441  1.00  0.00     0.167 HD
ATOM     58  C   UNL     1      -1.644 -17.379   6.388  1.00  0.00     0.074 A 
ATOM     59  C   UNL     1      -2.975 -17.622   6.904  1.00  0.00     0.031 C 
ATOM     60  C   UNL     1      -0.793 -18.355   5.985  1.00  0.00     0.034 A 
BRANCH  47  61
ATOM     61  C   UNL     1       4.521 -16.252   3.632  1.00  0.00     0.023 A 
ATOM     62  C   UNL     1       5.723 -16.091   4.352  1.00  0.00     0.012 A 
ATOM     63  C   UNL     1       4.565 -16.764   2.321  1.00  0.00     0.148 A 
ATOM     64  C   UNL     1       6.950 -16.399   3.766  1.00  0.00     0.002 A 
ATOM     65  C   UNL     1       5.788 -17.114   1.760  1.00  0.00     0.091 A 
ATOM     66  F   UNL     1       3.414 -16.890   1.644  1.00  0.00    -0.205 F 
ATOM     67  C   UNL     1       6.981 -16.920   2.475  1.00  0.00     0.022 A 
BRANCH  65  68
ATOM     68  S   UNL     1       5.931 -17.869   0.137  1.00  0.00     0.127 S 
ATOM     69  O   UNL     1       6.567 -16.800  -0.631  1.00  0.00    -0.237 OA
ATOM     70  O   UNL     1       6.793 -19.020   0.409  1.00  0.00    -0.237 OA
ATOM     71  O   UNL     1       4.575 -18.208  -0.271  1.00  0.00    -0.744 OA
ENDBRANCH  65  68
ENDBRANCH  47  61
BRANCH  48  72
ATOM     72  C   UNL     1      -4.255 -13.670   7.661  1.00  0.00     0.023 A 
ATOM     73  C   UNL     1      -4.587 -14.053   8.975  1.00  0.00     0.012 A 
ATOM     74  C   UNL     1      -5.182 -12.922   6.910  1.00  0.00     0.148 A 
ATOM     75  C   UNL     1      -5.832 -13.732   9.518  1.00  0.00     0.002 A 
ATOM     76  C   UNL     1      -6.397 -12.556   7.476  1.00  0.00     0.091 A 
ATOM     77  F   UNL     1      -4.852 -12.575   5.658  1.00  0.00    -0.205 F 
ATOM     78  C   UNL     1      -6.733 -12.976   8.772  1.00  0.00     0.022 A 
BRANCH  76  79
ATOM     79  S   UNL     1      -7.563 -11.475   6.639  1.00  0.00     0.127 S 
ATOM     80  O   UNL     1      -8.657 -12.394   6.334  1.00  0.00    -0.237 OA
ATOM     81  O   UNL     1      -7.859 -10.488   7.679  1.00  0.00    -0.237 OA
ATOM     82  O   UNL     1      -6.848 -10.938   5.490  1.00  0.00    -0.744 OA
ENDBRANCH  76  79
ENDBRANCH  48  72
BRANCH  60  83
ATOM     83  C   UNL     1      -1.254 -19.783   6.117  1.00  0.00     0.023 A 
ATOM     84  C   UNL     1      -2.249 -20.282   5.255  1.00  0.00     0.012 A 
ATOM     85  C   UNL     1      -0.645 -20.649   7.047  1.00  0.00     0.148 A 
ATOM     86  C   UNL     1      -2.657 -21.613   5.339  1.00  0.00     0.002 A 
ATOM     87  C   UNL     1      -1.018 -21.986   7.089  1.00  0.00     0.091 A 
ATOM     88  F   UNL     1       0.289 -20.150   7.870  1.00  0.00    -0.205 F 
ATOM     89  C   UNL     1      -2.034 -22.467   6.246  1.00  0.00     0.022 A 
BRANCH  87  90
ATOM     90  S   UNL     1      -0.204 -23.181   8.154  1.00  0.00     0.127 S 
ATOM     91  O   UNL     1      -1.243 -23.454   9.146  1.00  0.00    -0.237 OA
ATOM     92  O   UNL     1       0.064 -24.286   7.232  1.00  0.00    -0.237 OA
ATOM     93  O   UNL     1       0.988 -22.518   8.666  1.00  0.00    -0.744 OA
ENDBRANCH  87  90
ENDBRANCH  60  83
ENDBRANCH  34  35
ENDBRANCH  26  29
ENDBRANCH  24  25
ENDBRANCH  23  24
ENDBRANCH   1  23
TORSDOF 18
