REMARK SMILES CCC[C@](C)(CC(F)(F)F)C(=O)NCCCCNC(=O)c1ccc(-c2c3nc(c(-c4cccc(S(=O)(=O)[O-])c4F)c4ccc([nH]4)c(-c4cccc(S(=O)(=O)[O-])c4F)c4nc(c(-c5cccc(S(=O)(=O)[O-])c5F)c5ccc2[nH]5)C=C4)C=C3)cc1
REMARK SMILES IDX 16 1 15 2 14 3 13 4 11 5 12 6 4 8 5 9 3 10 2 11 1 12 6 13
REMARK SMILES IDX 7 14 8 15 9 16 10 17 17 18 18 19 19 20 20 22 21 23 22 24
REMARK SMILES IDX 83 25 23 26 82 27 24 28 25 29 26 30 76 31 27 32 81 33 75 34
REMARK SMILES IDX 77 35 28 36 80 37 74 38 73 39 29 41 61 42 41 43 60 44 42 45
REMARK SMILES IDX 45 46 59 47 78 48 43 49 44 50 58 52 79 53 46 54 30 55 31 56
REMARK SMILES IDX 39 57 32 58 34 59 40 60 33 61 35 62 36 63 37 64 38 65 62 66
REMARK SMILES IDX 63 67 71 68 64 69 66 70 72 71 65 72 67 73 68 74 69 75 70 76
REMARK SMILES IDX 47 77 48 78 56 79 49 80 51 81 57 82 50 83 52 84 53 85 54 86
REMARK SMILES IDX 55 87
REMARK H PARENT 13 7 18 21 77 40 45 51
REMARK Flexibility Score: inf
ROOT
ATOM      1  C   UNL     1       1.259   6.117   3.091  1.00  0.00     0.023 C 
ENDROOT
BRANCH   1   2
ATOM      2  C   UNL     1       0.716   4.879   3.808  1.00  0.00     0.023 C 
BRANCH   2   3
ATOM      3  C   UNL     1      -0.039   3.905   2.908  1.00  0.00     0.116 C 
BRANCH   3   4
ATOM      4  N   UNL     1       0.845   3.234   1.976  1.00  0.00    -0.356 N 
ATOM      5  C   UNL     1       1.164   1.928   1.788  1.00  0.00     0.226 C 
ATOM      6  O   UNL     1       1.930   1.677   0.855  1.00  0.00    -0.274 OA
ATOM      7  H   UNL     1       1.305   3.846   1.357  1.00  0.00     0.163 HD
BRANCH   5   8
ATOM      8  C   UNL     1       0.617   0.800   2.685  1.00  0.00     0.055 C 
ATOM      9  C   UNL     1       1.182  -0.555   2.178  1.00  0.00     0.022 C 
BRANCH   8  10
ATOM     10  C   UNL     1      -0.943   0.694   2.660  1.00  0.00     0.017 C 
BRANCH  10  11
ATOM     11  C   UNL     1      -1.702   1.140   1.399  1.00  0.00    -0.002 C 
ATOM     12  C   UNL     1      -1.370   0.386   0.124  1.00  0.00     0.004 C 
ENDBRANCH  10  11
ENDBRANCH   8  10
BRANCH   8  13
ATOM     13  C   UNL     1       1.093   0.989   4.156  1.00  0.00     0.132 C 
BRANCH  13  14
ATOM     14  C   UNL     1       2.588   1.153   4.376  1.00  0.00     0.390 C 
ATOM     15  F   UNL     1       3.097   2.208   3.718  1.00  0.00    -0.171 F 
ATOM     16  F   UNL     1       2.816   1.363   5.698  1.00  0.00    -0.171 F 
ATOM     17  F   UNL     1       3.280   0.050   4.033  1.00  0.00    -0.171 F 
ENDBRANCH  13  14
ENDBRANCH   8  13
ENDBRANCH   5   8
ENDBRANCH   3   4
ENDBRANCH   2   3
ENDBRANCH   1   2
BRANCH   1  18
ATOM     18  C   UNL     1       0.216   6.954   2.356  1.00  0.00     0.116 C 
BRANCH  18  19
ATOM     19  N   UNL     1      -0.843   7.447   3.228  1.00  0.00    -0.352 N 
ATOM     20  C   UNL     1      -1.467   8.672   3.184  1.00  0.00     0.251 C 
ATOM     21  H   UNL     1      -1.148   6.831   3.933  1.00  0.00     0.163 HD
ATOM     22  O   UNL     1      -2.278   8.998   4.045  1.00  0.00    -0.269 OA
BRANCH  20  23
ATOM     23  C   UNL     1      -1.113   9.602   2.093  1.00  0.00     0.039 A 
ATOM     24  C   UNL     1      -0.611  10.866   2.410  1.00  0.00     0.014 A 
ATOM     25  C   UNL     1      -1.195   9.175   0.766  1.00  0.00     0.014 A 
ATOM     26  C   UNL     1      -0.113  11.681   1.392  1.00  0.00     0.010 A 
ATOM     27  C   UNL     1      -0.645   9.964  -0.237  1.00  0.00     0.010 A 
ATOM     28  C   UNL     1      -0.090  11.218   0.066  1.00  0.00    -0.014 A 
BRANCH  28  29
ATOM     29  C   UNL     1       0.520  12.004  -1.034  1.00  0.00     0.031 A 
ATOM     30  C   UNL     1      -0.340  12.472  -2.174  1.00  0.00     0.074 A 
ATOM     31  C   UNL     1       1.857  12.168  -1.079  1.00  0.00     0.049 A 
ATOM     32  N   UNL     1       0.016  13.001  -3.314  1.00  0.00    -0.248 NA
ATOM     33  C   UNL     1      -1.794  12.285  -2.024  1.00  0.00     0.031 C 
ATOM     34  C   UNL     1       2.804  11.699  -0.065  1.00  0.00     0.029 A 
ATOM     35  N   UNL     1       2.656  12.735  -2.041  1.00  0.00    -0.354 N 
ATOM     36  C   UNL     1      -1.158  13.158  -4.039  1.00  0.00     0.074 A 
ATOM     37  C   UNL     1      -2.237  12.655  -3.217  1.00  0.00     0.031 C 
ATOM     38  C   UNL     1       4.054  11.986  -0.464  1.00  0.00     0.029 A 
ATOM     39  C   UNL     1       4.002  12.627  -1.774  1.00  0.00     0.049 A 
ATOM     40  H   UNL     1       2.301  13.177  -2.846  1.00  0.00     0.167 HD
ATOM     41  C   UNL     1      -1.326  13.696  -5.270  1.00  0.00     0.034 A 
ATOM     42  C   UNL     1       5.072  12.988  -2.510  1.00  0.00     0.034 A 
ATOM     43  C   UNL     1      -0.260  14.258  -6.052  1.00  0.00     0.049 A 
ATOM     44  C   UNL     1       4.852  13.640  -3.849  1.00  0.00     0.074 A 
ATOM     45  C   UNL     1      -0.340  14.910  -7.270  1.00  0.00     0.029 A 
ATOM     46  N   UNL     1       1.077  14.242  -5.691  1.00  0.00    -0.354 N 
ATOM     47  N   UNL     1       3.723  13.910  -4.457  1.00  0.00    -0.248 NA
ATOM     48  C   UNL     1       6.050  14.065  -4.590  1.00  0.00     0.031 C 
ATOM     49  C   UNL     1       0.953  15.289  -7.645  1.00  0.00     0.029 A 
ATOM     50  C   UNL     1       1.835  14.878  -6.658  1.00  0.00     0.049 A 
ATOM     51  H   UNL     1       1.436  13.838  -4.868  1.00  0.00     0.167 HD
ATOM     52  C   UNL     1       4.070  14.571  -5.630  1.00  0.00     0.074 A 
ATOM     53  C   UNL     1       5.515  14.670  -5.643  1.00  0.00     0.031 C 
ATOM     54  C   UNL     1       3.265  15.037  -6.616  1.00  0.00     0.034 A 
BRANCH  41  55
ATOM     55  C   UNL     1      -2.725  13.763  -5.817  1.00  0.00     0.023 A 
ATOM     56  C   UNL     1      -3.627  14.709  -5.290  1.00  0.00     0.012 A 
ATOM     57  C   UNL     1      -3.133  12.934  -6.880  1.00  0.00     0.148 A 
ATOM     58  C   UNL     1      -4.924  14.809  -5.791  1.00  0.00     0.002 A 
ATOM     59  C   UNL     1      -4.415  13.067  -7.401  1.00  0.00     0.091 A 
ATOM     60  F   UNL     1      -2.270  12.023  -7.351  1.00  0.00    -0.205 F 
ATOM     61  C   UNL     1      -5.314  13.996  -6.852  1.00  0.00     0.022 A 
BRANCH  59  62
ATOM     62  S   UNL     1      -4.983  12.114  -8.814  1.00  0.00     0.127 S 
ATOM     63  O   UNL     1      -5.839  11.117  -8.173  1.00  0.00    -0.237 OA
ATOM     64  O   UNL     1      -5.701  13.118  -9.600  1.00  0.00    -0.237 OA
ATOM     65  O   UNL     1      -3.781  11.596  -9.452  1.00  0.00    -0.744 OA
ENDBRANCH  59  62
ENDBRANCH  41  55
BRANCH  42  66
ATOM     66  C   UNL     1       6.447  12.808  -1.962  1.00  0.00     0.023 A 
ATOM     67  C   UNL     1       7.172  13.944  -1.553  1.00  0.00     0.012 A 
ATOM     68  C   UNL     1       7.024  11.533  -1.809  1.00  0.00     0.148 A 
ATOM     69  C   UNL     1       8.458  13.817  -1.026  1.00  0.00     0.002 A 
ATOM     70  C   UNL     1       8.286  11.410  -1.237  1.00  0.00     0.091 A 
ATOM     71  F   UNL     1       6.326  10.465  -2.219  1.00  0.00    -0.205 F 
ATOM     72  C   UNL     1       9.010  12.550  -0.858  1.00  0.00     0.022 A 
BRANCH  70  73
ATOM     73  S   UNL     1       9.016   9.810  -0.866  1.00  0.00     0.127 S 
ATOM     74  O   UNL     1      10.001   9.675  -1.935  1.00  0.00    -0.237 OA
ATOM     75  O   UNL     1       9.579  10.031   0.467  1.00  0.00    -0.237 OA
ATOM     76  O   UNL     1       7.907   8.865  -0.894  1.00  0.00    -0.744 OA
ENDBRANCH  70  73
ENDBRANCH  42  66
BRANCH  54  77
ATOM     77  C   UNL     1       3.909  15.743  -7.778  1.00  0.00     0.023 A 
ATOM     78  C   UNL     1       4.549  14.991  -8.780  1.00  0.00     0.012 A 
ATOM     79  C   UNL     1       3.773  17.137  -7.933  1.00  0.00     0.148 A 
ATOM     80  C   UNL     1       5.058  15.617  -9.917  1.00  0.00     0.002 A 
ATOM     81  C   UNL     1       4.245  17.749  -9.087  1.00  0.00     0.091 A 
ATOM     82  F   UNL     1       3.175  17.834  -6.956  1.00  0.00    -0.205 F 
ATOM     83  C   UNL     1       4.894  16.992 -10.077  1.00  0.00     0.022 A 
BRANCH  81  84
ATOM     84  S   UNL     1       3.996  19.497  -9.421  1.00  0.00     0.127 S 
ATOM     85  O   UNL     1       5.346  20.029  -9.242  1.00  0.00    -0.237 OA
ATOM     86  O   UNL     1       3.525  19.485 -10.806  1.00  0.00    -0.237 OA
ATOM     87  O   UNL     1       3.010  19.954  -8.452  1.00  0.00    -0.744 OA
ENDBRANCH  81  84
ENDBRANCH  54  77
ENDBRANCH  28  29
ENDBRANCH  20  23
ENDBRANCH  18  19
ENDBRANCH   1  18
TORSDOF 18
