REMARK SMILES Cc1cscc1-c1nc(C)c(C(=O)NCCCCNC(=O)c2ccc(-c3c4nc(c(-c5cccc(S(=O)(=O)[O-])c5F)c5ccc([nH]5)c(-c5cccc(S(=O)(=O)[O-])c5F)c5nc(c(-c6cccc(S(=O)(=O)[O-])c6F)c6ccc3[nH]6)C=C5)C=C4)cc2)c(C)n1
REMARK SMILES IDX 17 1 16 2 15 3 14 4 12 5 13 6 11 8 7 9 8 10 87 11 9 12 85 13
REMARK SMILES IDX 10 14 86 15 6 16 1 17 2 18 3 19 4 20 5 21 18 22 19 23 20 24
REMARK SMILES IDX 21 26 22 27 23 28 84 29 24 30 83 31 25 32 26 33 27 34 77 35
REMARK SMILES IDX 28 36 82 37 76 38 78 39 29 40 81 41 75 42 74 43 30 45 62 46
REMARK SMILES IDX 42 47 61 48 43 49 46 50 60 51 79 52 44 53 45 54 59 56 80 57
REMARK SMILES IDX 47 58 31 59 32 60 40 61 33 62 35 63 41 64 34 65 36 66 37 67
REMARK SMILES IDX 38 68 39 69 63 70 64 71 72 72 65 73 67 74 73 75 66 76 68 77
REMARK SMILES IDX 69 78 70 79 71 80 48 81 49 82 57 83 50 84 52 85 58 86 51 87
REMARK SMILES IDX 53 88 54 89 55 90 56 91
REMARK H PARENT 14 7 19 25 78 44 46 55
REMARK Flexibility Score: inf
ROOT
ATOM      1  C   UNL     1       5.188   7.468  -3.929  1.00  0.00     0.023 C 
ENDROOT
BRANCH   1   2
ATOM      2  C   UNL     1       4.570   6.235  -3.273  1.00  0.00     0.023 C 
BRANCH   2   3
ATOM      3  C   UNL     1       5.189   5.835  -1.930  1.00  0.00     0.116 C 
BRANCH   3   4
ATOM      4  N   UNL     1       4.362   6.280  -0.830  1.00  0.00    -0.352 N 
ATOM      5  C   UNL     1       3.321   5.844  -0.064  1.00  0.00     0.254 C 
ATOM      6  O   UNL     1       2.962   6.726   0.725  1.00  0.00    -0.269 OA
ATOM      7  H   UNL     1       4.637   7.181  -0.544  1.00  0.00     0.163 HD
BRANCH   5   8
ATOM      8  C   UNL     1       2.601   4.518  -0.035  1.00  0.00     0.082 A 
ATOM      9  C   UNL     1       1.100   2.213   0.256  1.00  0.00     0.160 A 
ATOM     10  N   UNL     1       1.906   2.323  -0.795  1.00  0.00    -0.232 NA
ATOM     11  N   UNL     1       0.958   3.144   1.189  1.00  0.00    -0.232 NA
ATOM     12  C   UNL     1       2.616   3.471  -0.959  1.00  0.00     0.054 A 
ATOM     13  C   UNL     1       1.718   4.271   1.052  1.00  0.00     0.054 A 
ATOM     14  C   UNL     1       3.331   3.394  -2.257  1.00  0.00     0.068 C 
ATOM     15  C   UNL     1       1.500   5.215   2.207  1.00  0.00     0.068 C 
BRANCH   9  16
ATOM     16  C   UNL     1       0.363   0.968   0.360  1.00  0.00     0.033 A 
ATOM     17  C   UNL     1       2.360  -0.672   0.085  1.00  0.00     0.046 C 
ATOM     18  C   UNL     1       0.904  -0.365   0.241  1.00  0.00    -0.029 A 
ATOM     19  C   UNL     1      -0.100  -1.313   0.288  1.00  0.00     0.069 A 
ATOM     20  S   UNL     1      -1.652  -0.626   0.489  1.00  0.00    -0.151 S 
ATOM     21  C   UNL     1      -1.010   0.958   0.510  1.00  0.00     0.077 A 
ENDBRANCH   9  16
ENDBRANCH   5   8
ENDBRANCH   3   4
ENDBRANCH   2   3
ENDBRANCH   1   2
BRANCH   1  22
ATOM     22  C   UNL     1       6.659   7.320  -4.295  1.00  0.00     0.116 C 
BRANCH  22  23
ATOM     23  N   UNL     1       6.948   6.166  -5.138  1.00  0.00    -0.352 N 
ATOM     24  C   UNL     1       8.017   6.003  -5.988  1.00  0.00     0.251 C 
ATOM     25  H   UNL     1       6.307   5.420  -5.093  1.00  0.00     0.163 HD
ATOM     26  O   UNL     1       8.114   5.008  -6.697  1.00  0.00    -0.269 OA
BRANCH  24  27
ATOM     27  C   UNL     1       9.014   7.088  -6.063  1.00  0.00     0.039 A 
ATOM     28  C   UNL     1       9.245   7.707  -7.292  1.00  0.00     0.014 A 
ATOM     29  C   UNL     1       9.615   7.563  -4.895  1.00  0.00     0.014 A 
ATOM     30  C   UNL     1      10.027   8.861  -7.337  1.00  0.00     0.010 A 
ATOM     31  C   UNL     1      10.327   8.754  -4.932  1.00  0.00     0.010 A 
ATOM     32  C   UNL     1      10.538   9.416  -6.152  1.00  0.00    -0.014 A 
BRANCH  32  33
ATOM     33  C   UNL     1      11.282  10.699  -6.158  1.00  0.00     0.031 A 
ATOM     34  C   UNL     1      12.719  10.734  -5.719  1.00  0.00     0.074 A 
ATOM     35  C   UNL     1      10.636  11.843  -6.460  1.00  0.00     0.049 A 
ATOM     36  N   UNL     1      13.517  11.761  -5.595  1.00  0.00    -0.248 NA
ATOM     37  C   UNL     1      13.330   9.450  -5.336  1.00  0.00     0.031 C 
ATOM     38  C   UNL     1       9.217  11.949  -6.810  1.00  0.00     0.029 A 
ATOM     39  N   UNL     1      11.083  13.139  -6.497  1.00  0.00    -0.354 N 
ATOM     40  C   UNL     1      14.707  11.256  -5.085  1.00  0.00     0.074 A 
ATOM     41  C   UNL     1      14.514   9.837  -4.885  1.00  0.00     0.031 C 
ATOM     42  C   UNL     1       8.914  13.238  -7.034  1.00  0.00     0.029 A 
ATOM     43  C   UNL     1      10.107  14.052  -6.825  1.00  0.00     0.049 A 
ATOM     44  H   UNL     1      12.015  13.393  -6.306  1.00  0.00     0.167 HD
ATOM     45  C   UNL     1      15.869  11.906  -4.843  1.00  0.00     0.034 A 
ATOM     46  C   UNL     1      10.170  15.392  -6.947  1.00  0.00     0.034 A 
ATOM     47  C   UNL     1      16.075  13.304  -5.103  1.00  0.00     0.049 A 
ATOM     48  C   UNL     1      11.491  16.082  -6.735  1.00  0.00     0.074 A 
ATOM     49  C   UNL     1      17.241  14.039  -4.986  1.00  0.00     0.029 A 
ATOM     50  N   UNL     1      15.091  14.180  -5.535  1.00  0.00    -0.354 N 
ATOM     51  N   UNL     1      12.652  15.560  -6.418  1.00  0.00    -0.248 NA
ATOM     52  C   UNL     1      11.521  17.538  -6.934  1.00  0.00     0.031 C 
ATOM     53  C   UNL     1      16.959  15.362  -5.342  1.00  0.00     0.029 A 
ATOM     54  C   UNL     1      15.621  15.448  -5.690  1.00  0.00     0.049 A 
ATOM     55  H   UNL     1      14.153  13.935  -5.707  1.00  0.00     0.167 HD
ATOM     56  C   UNL     1      13.556  16.616  -6.413  1.00  0.00     0.074 A 
ATOM     57  C   UNL     1      12.812  17.804  -6.780  1.00  0.00     0.031 C 
ATOM     58  C   UNL     1      14.878  16.607  -6.115  1.00  0.00     0.034 A 
BRANCH  45  59
ATOM     59  C   UNL     1      17.028  11.090  -4.339  1.00  0.00     0.023 A 
ATOM     60  C   UNL     1      17.677  10.198  -5.218  1.00  0.00     0.012 A 
ATOM     61  C   UNL     1      17.501  11.227  -3.020  1.00  0.00     0.148 A 
ATOM     62  C   UNL     1      18.755   9.429  -4.783  1.00  0.00     0.002 A 
ATOM     63  C   UNL     1      18.603  10.487  -2.606  1.00  0.00     0.091 A 
ATOM     64  F   UNL     1      16.855  12.059  -2.190  1.00  0.00    -0.205 F 
ATOM     65  C   UNL     1      19.223   9.580  -3.482  1.00  0.00     0.022 A 
BRANCH  63  66
ATOM     66  S   UNL     1      19.325  10.665  -0.971  1.00  0.00     0.127 S 
ATOM     67  O   UNL     1      18.870   9.442  -0.312  1.00  0.00    -0.237 OA
ATOM     68  O   UNL     1      20.758  10.701  -1.267  1.00  0.00    -0.237 OA
ATOM     69  O   UNL     1      18.789  11.907  -0.432  1.00  0.00    -0.744 OA
ENDBRANCH  63  66
ENDBRANCH  45  59
BRANCH  46  70
ATOM     70  C   UNL     1       8.967  16.158  -7.380  1.00  0.00     0.023 A 
ATOM     71  C   UNL     1       8.935  16.707  -8.676  1.00  0.00     0.012 A 
ATOM     72  C   UNL     1       7.848  16.316  -6.539  1.00  0.00     0.148 A 
ATOM     73  C   UNL     1       7.824  17.426  -9.118  1.00  0.00     0.002 A 
ATOM     74  C   UNL     1       6.723  16.989  -7.005  1.00  0.00     0.091 A 
ATOM     75  F   UNL     1       7.902  15.798  -5.304  1.00  0.00    -0.205 F 
ATOM     76  C   UNL     1       6.715  17.558  -8.287  1.00  0.00     0.022 A 
BRANCH  74  77
ATOM     77  S   UNL     1       5.205  17.093  -6.050  1.00  0.00     0.127 S 
ATOM     78  O   UNL     1       5.225  18.484  -5.606  1.00  0.00    -0.237 OA
ATOM     79  O   UNL     1       4.189  16.782  -7.057  1.00  0.00    -0.237 OA
ATOM     80  O   UNL     1       5.334  16.088  -5.003  1.00  0.00    -0.744 OA
ENDBRANCH  74  77
ENDBRANCH  46  70
BRANCH  58  81
ATOM     81  C   UNL     1      15.620  17.914  -6.195  1.00  0.00     0.023 A 
ATOM     82  C   UNL     1      15.432  18.883  -5.191  1.00  0.00     0.012 A 
ATOM     83  C   UNL     1      16.564  18.146  -7.215  1.00  0.00     0.148 A 
ATOM     84  C   UNL     1      16.153  20.076  -5.215  1.00  0.00     0.002 A 
ATOM     85  C   UNL     1      17.311  19.318  -7.207  1.00  0.00     0.091 A 
ATOM     86  F   UNL     1      16.712  17.220  -8.174  1.00  0.00    -0.205 F 
ATOM     87  C   UNL     1      17.100  20.288  -6.214  1.00  0.00     0.022 A 
BRANCH  85  88
ATOM     88  S   UNL     1      18.616  19.629  -8.402  1.00  0.00     0.127 S 
ATOM     89  O   UNL     1      17.978  20.593  -9.296  1.00  0.00    -0.237 OA
ATOM     90  O   UNL     1      19.681  20.185  -7.566  1.00  0.00    -0.237 OA
ATOM     91  O   UNL     1      18.930  18.335  -8.993  1.00  0.00    -0.744 OA
ENDBRANCH  85  88
ENDBRANCH  58  81
ENDBRANCH  32  33
ENDBRANCH  24  27
ENDBRANCH  22  23
ENDBRANCH   1  22
TORSDOF 15
