REMARK SMILES O=C(COc1ccccc1[C@@H]1[NH2+]CCc2cc(O)c(O)cc21)NCCCCNC(=O)c1ccc(-c2c3nc(c(-c4cccc(S(=O)(=O)[O-])c4F)c4ccc([nH]4)c(-c4cccc(S(=O)(=O)[O-])c4F)c4nc(c(-c5cccc(S(=O)(=O)[O-])c5F)c5ccc2[nH]5)C=C4)C=C3)cc1
REMARK SMILES IDX 25 1 24 2 23 3 1 4 2 5 3 7 4 8 5 9 6 10 10 11 7 12 9 13 8 14
REMARK SMILES IDX 11 15 12 16 22 17 13 18 15 21 21 22 14 23 16 24 19 25 17 26
REMARK SMILES IDX 20 27 18 29 26 31 27 32 28 33 29 34 30 36 31 37 32 38 93 39
REMARK SMILES IDX 33 40 92 41 34 42 35 43 36 44 86 45 37 46 91 47 85 48 87 49
REMARK SMILES IDX 38 50 90 51 84 52 83 53 39 55 71 56 51 57 70 58 52 59 55 60
REMARK SMILES IDX 69 61 88 62 53 63 54 64 68 66 89 67 56 68 40 69 41 70 49 71
REMARK SMILES IDX 42 72 44 73 50 74 43 75 45 76 46 77 47 78 48 79 72 80 73 81
REMARK SMILES IDX 81 82 74 83 76 84 82 85 75 86 77 87 78 88 79 89 80 90 57 91
REMARK SMILES IDX 58 92 66 93 59 94 61 95 67 96 60 97 62 98 63 99 64 100
REMARK SMILES IDX 65 101
REMARK H PARENT 23 6 12 19 12 20 20 28 18 30 28 35 87 54 55 65
REMARK Flexibility Score: inf
ROOT
ATOM      1  C   UNL     1       2.843  -3.483  -1.079  1.00  0.00     0.023 C 
ENDROOT
BRANCH   1   2
ATOM      2  C   UNL     1       2.521  -2.482   0.021  1.00  0.00     0.116 C 
BRANCH   2   3
ATOM      3  N   UNL     1       3.386  -1.322   0.063  1.00  0.00    -0.353 N 
ATOM      4  O   UNL     1       2.624  -0.402  -1.893  1.00  0.00    -0.271 OA
ATOM      5  C   UNL     1       3.263  -0.291  -0.848  1.00  0.00     0.257 C 
ATOM      6  H   UNL     1       4.080  -1.267   0.759  1.00  0.00     0.163 HD
BRANCH   5   7
ATOM      7  C   UNL     1       3.958   1.014  -0.428  1.00  0.00     0.329 C 
BRANCH   7   8
ATOM      8  O   UNL     1       4.314   1.197   0.927  1.00  0.00    -0.483 OA
BRANCH   8   9
ATOM      9  C   UNL     1       3.493   1.529   1.969  1.00  0.00     0.129 A 
ATOM     10  C   UNL     1       4.263   2.138   2.983  1.00  0.00     0.047 A 
ATOM     11  C   UNL     1       2.133   1.237   2.228  1.00  0.00     0.056 A 
ATOM     12  C   UNL     1       3.770   2.345   4.268  1.00  0.00     0.004 A 
ATOM     13  C   UNL     1       1.695   1.360   3.573  1.00  0.00     0.014 A 
ATOM     14  C   UNL     1       2.499   1.900   4.579  1.00  0.00     0.001 A 
BRANCH  11  15
ATOM     15  C   UNL     1       1.118   0.768   1.191  1.00  0.00     0.249 C 
ATOM     16  N   UNL     1       1.178   1.561  -0.045  1.00  0.00    -0.336 N 
ATOM     17  C   UNL     1      -0.369   0.672   1.555  1.00  0.00     0.021 A 
ATOM     18  C   UNL     1       0.645   2.921   0.090  1.00  0.00     0.266 C 
ATOM     19  H   UNL     1       0.640   1.076  -0.763  1.00  0.00     0.347 HD
ATOM     20  H   UNL     1       2.164   1.653  -0.288  1.00  0.00     0.347 HD
ATOM     21  C   UNL     1      -1.138   1.857   1.468  1.00  0.00    -0.029 A 
ATOM     22  C   UNL     1      -1.006  -0.563   1.753  1.00  0.00     0.060 A 
ATOM     23  C   UNL     1      -0.389   3.136   1.206  1.00  0.00     0.097 C 
ATOM     24  C   UNL     1      -2.530   1.805   1.536  1.00  0.00     0.054 A 
ATOM     25  C   UNL     1      -2.396  -0.603   1.788  1.00  0.00     0.157 A 
ATOM     26  C   UNL     1      -3.144   0.569   1.662  1.00  0.00     0.157 A 
BRANCH  25  27
ATOM     27  O   UNL     1      -3.083  -1.782   1.890  1.00  0.00    -0.504 OA
ATOM     28  H   UNL     1      -4.019  -1.778   1.911  1.00  0.00     0.293 HD
ENDBRANCH  25  27
BRANCH  26  29
ATOM     29  O   UNL     1      -4.508   0.498   1.611  1.00  0.00    -0.504 OA
ATOM     30  H   UNL     1      -5.015   1.282   1.526  1.00  0.00     0.293 HD
ENDBRANCH  26  29
ENDBRANCH  11  15
ENDBRANCH   8   9
ENDBRANCH   7   8
ENDBRANCH   5   7
ENDBRANCH   2   3
ENDBRANCH   1   2
BRANCH   1  31
ATOM     31  C   UNL     1       4.292  -3.954  -1.093  1.00  0.00     0.023 C 
BRANCH  31  32
ATOM     32  C   UNL     1       4.802  -4.476   0.241  1.00  0.00     0.116 C 
BRANCH  32  33
ATOM     33  N   UNL     1       4.107  -5.679   0.678  1.00  0.00    -0.352 N 
ATOM     34  C   UNL     1       4.643  -6.893   1.049  1.00  0.00     0.251 C 
ATOM     35  H   UNL     1       3.125  -5.617   0.713  1.00  0.00     0.163 HD
ATOM     36  O   UNL     1       3.916  -7.856   1.247  1.00  0.00    -0.269 OA
BRANCH  34  37
ATOM     37  C   UNL     1       6.112  -7.020   1.176  1.00  0.00     0.039 A 
ATOM     38  C   UNL     1       6.757  -8.083   0.541  1.00  0.00     0.014 A 
ATOM     39  C   UNL     1       6.849  -6.061   1.876  1.00  0.00     0.014 A 
ATOM     40  C   UNL     1       8.152  -8.145   0.553  1.00  0.00     0.010 A 
ATOM     41  C   UNL     1       8.238  -6.078   1.811  1.00  0.00     0.010 A 
ATOM     42  C   UNL     1       8.906  -7.123   1.155  1.00  0.00    -0.014 A 
BRANCH  42  43
ATOM     43  C   UNL     1      10.391  -7.124   1.101  1.00  0.00     0.031 A 
ATOM     44  C   UNL     1      11.195  -7.186   2.372  1.00  0.00     0.074 A 
ATOM     45  C   UNL     1      11.017  -6.981  -0.085  1.00  0.00     0.049 A 
ATOM     46  N   UNL     1      12.493  -7.147   2.529  1.00  0.00    -0.248 NA
ATOM     47  C   UNL     1      10.443  -7.275   3.635  1.00  0.00     0.031 C 
ATOM     48  C   UNL     1      10.352  -6.828  -1.381  1.00  0.00     0.029 A 
ATOM     49  N   UNL     1      12.354  -6.915  -0.390  1.00  0.00    -0.354 N 
ATOM     50  C   UNL     1      12.711  -7.168   3.901  1.00  0.00     0.074 A 
ATOM     51  C   UNL     1      11.411  -7.186   4.535  1.00  0.00     0.031 C 
ATOM     52  C   UNL     1      11.281  -6.696  -2.340  1.00  0.00     0.029 A 
ATOM     53  C   UNL     1      12.606  -6.720  -1.729  1.00  0.00     0.049 A 
ATOM     54  H   UNL     1      13.066  -6.999   0.285  1.00  0.00     0.167 HD
ATOM     55  C   UNL     1      13.886  -7.199   4.575  1.00  0.00     0.034 A 
ATOM     56  C   UNL     1      13.771  -6.567  -2.388  1.00  0.00     0.034 A 
ATOM     57  C   UNL     1      15.176  -7.220   3.942  1.00  0.00     0.049 A 
ATOM     58  C   UNL     1      15.063  -6.638  -1.619  1.00  0.00     0.074 A 
ATOM     59  C   UNL     1      16.421  -7.346   4.532  1.00  0.00     0.029 A 
ATOM     60  N   UNL     1      15.391  -7.100   2.578  1.00  0.00    -0.354 N 
ATOM     61  N   UNL     1      15.250  -6.824  -0.335  1.00  0.00    -0.248 NA
ATOM     62  C   UNL     1      16.306  -6.516  -2.395  1.00  0.00     0.031 C 
ATOM     63  C   UNL     1      17.391  -7.267   3.528  1.00  0.00     0.029 A 
ATOM     64  C   UNL     1      16.748  -7.132   2.308  1.00  0.00     0.049 A 
ATOM     65  H   UNL     1      14.683  -7.005   1.900  1.00  0.00     0.167 HD
ATOM     66  C   UNL     1      16.628  -6.878  -0.154  1.00  0.00     0.074 A 
ATOM     67  C   UNL     1      17.227  -6.726  -1.464  1.00  0.00     0.031 C 
ATOM     68  C   UNL     1      17.332  -7.029   0.995  1.00  0.00     0.034 A 
BRANCH  55  69
ATOM     69  C   UNL     1      13.828  -7.256   6.080  1.00  0.00     0.023 A 
ATOM     70  C   UNL     1      13.371  -8.428   6.718  1.00  0.00     0.012 A 
ATOM     71  C   UNL     1      14.274  -6.173   6.863  1.00  0.00     0.148 A 
ATOM     72  C   UNL     1      13.323  -8.507   8.109  1.00  0.00     0.002 A 
ATOM     73  C   UNL     1      14.269  -6.278   8.249  1.00  0.00     0.091 A 
ATOM     74  F   UNL     1      14.686  -5.060   6.240  1.00  0.00    -0.205 F 
ATOM     75  C   UNL     1      13.781  -7.438   8.873  1.00  0.00     0.022 A 
BRANCH  73  76
ATOM     76  S   UNL     1      14.915  -4.990   9.321  1.00  0.00     0.127 S 
ATOM     77  O   UNL     1      13.691  -4.477   9.935  1.00  0.00    -0.237 OA
ATOM     78  O   UNL     1      15.780  -5.748  10.225  1.00  0.00    -0.237 OA
ATOM     79  O   UNL     1      15.616  -4.056   8.450  1.00  0.00    -0.744 OA
ENDBRANCH  73  76
ENDBRANCH  55  69
BRANCH  56  80
ATOM     80  C   UNL     1      13.773  -6.394  -3.869  1.00  0.00     0.023 A 
ATOM     81  C   UNL     1      14.261  -7.431  -4.688  1.00  0.00     0.012 A 
ATOM     82  C   UNL     1      13.275  -5.222  -4.470  1.00  0.00     0.148 A 
ATOM     83  C   UNL     1      14.286  -7.291  -6.076  1.00  0.00     0.002 A 
ATOM     84  C   UNL     1      13.250  -5.111  -5.855  1.00  0.00     0.091 A 
ATOM     85  F   UNL     1      12.824  -4.243  -3.673  1.00  0.00    -0.205 F 
ATOM     86  C   UNL     1      13.772  -6.136  -6.659  1.00  0.00     0.022 A 
BRANCH  84  87
ATOM     87  S   UNL     1      12.492  -3.719  -6.699  1.00  0.00     0.127 S 
ATOM     88  O   UNL     1      13.653  -3.059  -7.290  1.00  0.00    -0.237 OA
ATOM     89  O   UNL     1      11.611  -4.391  -7.654  1.00  0.00    -0.237 OA
ATOM     90  O   UNL     1      11.795  -2.964  -5.666  1.00  0.00    -0.744 OA
ENDBRANCH  84  87
ENDBRANCH  56  80
BRANCH  68  91
ATOM     91  C   UNL     1      18.835  -7.082   0.893  1.00  0.00     0.023 A 
ATOM     92  C   UNL     1      19.563  -5.915   0.589  1.00  0.00     0.012 A 
ATOM     93  C   UNL     1      19.529  -8.276   1.174  1.00  0.00     0.148 A 
ATOM     94  C   UNL     1      20.956  -5.944   0.531  1.00  0.00     0.002 A 
ATOM     95  C   UNL     1      20.918  -8.284   1.168  1.00  0.00     0.091 A 
ATOM     96  F   UNL     1      18.817  -9.380   1.445  1.00  0.00    -0.205 F 
ATOM     97  C   UNL     1      21.633  -7.123   0.833  1.00  0.00     0.022 A 
BRANCH  95  98
ATOM     98  S   UNL     1      21.875  -9.729   1.640  1.00  0.00     0.127 S 
ATOM     99  O   UNL     1      22.437 -10.147   0.356  1.00  0.00    -0.237 OA
ATOM    100  O   UNL     1      22.848  -9.163   2.576  1.00  0.00    -0.237 OA
ATOM    101  O   UNL     1      20.930 -10.660   2.240  1.00  0.00    -0.744 OA
ENDBRANCH  95  98
ENDBRANCH  68  91
ENDBRANCH  42  43
ENDBRANCH  34  37
ENDBRANCH  32  33
ENDBRANCH  31  32
ENDBRANCH   1  31
TORSDOF 19
