REMARK SMILES CC(C)[C@H]1C(=O)Nc2ccccc2N1C(=O)N[C@H](Cc1ccccc1)C(=O)NCCCCNC(=O)c1ccc(-c2c3nc(c(-c4cccc(S(=O)(=O)[O-])c4F)c4ccc([nH]4)c(-c4cccc(S(=O)(=O)[O-])c4F)c4nc(c(-c5cccc(S(=O)(=O)[O-])c5F)c5ccc2[nH]5)C=C4)C=C3)cc1
REMARK SMILES IDX 30 1 29 2 28 3 26 4 27 5 18 7 17 8 15 9 16 10 14 12 4 13
REMARK SMILES IDX 5 14 6 15 7 16 13 17 8 18 12 20 9 21 11 22 10 23 2 24 1 25
REMARK SMILES IDX 3 26 19 27 20 28 21 29 25 30 22 31 24 32 23 33 31 34 32 35
REMARK SMILES IDX 33 36 34 37 35 39 36 40 37 41 98 42 38 43 97 44 39 45 40 46
REMARK SMILES IDX 41 47 91 48 42 49 96 50 90 51 92 52 43 53 95 54 89 55 88 56
REMARK SMILES IDX 44 58 76 59 56 60 75 61 57 62 60 63 74 64 93 65 58 66 59 67
REMARK SMILES IDX 73 69 94 70 61 71 45 72 46 73 54 74 47 75 49 76 55 77 48 78
REMARK SMILES IDX 50 79 51 80 52 81 53 82 77 83 78 84 86 85 79 86 81 87 87 88
REMARK SMILES IDX 80 89 82 90 83 91 84 92 85 93 62 94 63 95 71 96 64 97 66 98
REMARK SMILES IDX 72 99 65 100 67 101 68 102 69 103 70 104
REMARK H PARENT 28 6 17 11 7 19 33 38 92 57 60 68
REMARK Flexibility Score: inf
ROOT
ATOM      1  C   UNL     1       4.573   4.117   0.326  1.00  0.00     0.023 C 
ENDROOT
BRANCH   1   2
ATOM      2  C   UNL     1       4.326   2.699   1.966  1.00  0.00     0.116 C 
BRANCH   2   3
ATOM      3  N   UNL     1       2.764   2.508   2.989  1.00  0.00    -0.354 N 
ATOM      4  C   UNL     1       1.443   1.598   3.055  1.00  0.00     0.242 C 
ATOM      5  O   UNL     1       0.756   1.720   4.078  1.00  0.00    -0.273 OA
ATOM      6  H   UNL     1       2.750   3.176   3.712  1.00  0.00     0.163 HD
BRANCH   4   7
ATOM      7  C   UNL     1       0.709   0.618   1.574  1.00  0.00     0.177 C 
BRANCH   7   8
ATOM      8  N   UNL     1       1.730   0.006   0.161  1.00  0.00    -0.326 N 
ATOM      9  C   UNL     1       3.185   0.443  -0.596  1.00  0.00     0.323 C 
ATOM     10  O   UNL     1       3.753  -0.399  -1.292  1.00  0.00    -0.248 OA
ATOM     11  H   UNL     1       1.322  -0.781  -0.266  1.00  0.00     0.166 HD
BRANCH   9  12
ATOM     12  N   UNL     1       3.890   1.902  -0.096  1.00  0.00    -0.280 N 
ATOM     13  C   UNL     1       2.891   3.236   0.715  1.00  0.00     0.184 C 
ATOM     14  C   UNL     1       3.663   4.494   2.104  1.00  0.00     0.247 C 
ATOM     15  O   UNL     1       3.057   5.215   2.887  1.00  0.00    -0.272 OA
ATOM     16  N   UNL     1       5.474   4.390   2.086  1.00  0.00    -0.322 N 
ATOM     17  C   UNL     1       5.603   1.989   0.160  1.00  0.00     0.070 A 
ATOM     18  C   UNL     1       6.356   3.152   1.104  1.00  0.00     0.065 A 
ATOM     19  H   UNL     1       5.994   5.027   2.628  1.00  0.00     0.170 HD
ATOM     20  C   UNL     1       6.381   0.913  -0.226  1.00  0.00     0.028 A 
ATOM     21  C   UNL     1       7.715   3.257   0.907  1.00  0.00     0.028 A 
ATOM     22  C   UNL     1       7.770   1.002  -0.064  1.00  0.00     0.002 A 
ATOM     23  C   UNL     1       8.407   2.189   0.334  1.00  0.00     0.002 A 
BRANCH  13  24
ATOM     24  C   UNL     1       2.079   2.087   0.833  1.00  0.00     0.015 C 
ATOM     25  C   UNL     1       1.399   2.143  -0.836  1.00  0.00     0.010 C 
ATOM     26  C   UNL     1       3.050   0.575   1.763  1.00  0.00     0.010 C 
ENDBRANCH  13  24
ENDBRANCH   9  12
ENDBRANCH   7   8
BRANCH   7  27
ATOM     27  C   UNL     1      -0.619   1.446   1.152  1.00  0.00     0.070 C 
BRANCH  27  28
ATOM     28  C   UNL     1      -1.599   1.045   0.081  1.00  0.00    -0.045 A 
ATOM     29  C   UNL     1      -2.344   2.071  -0.554  1.00  0.00     0.004 A 
ATOM     30  C   UNL     1      -1.871  -0.277  -0.244  1.00  0.00     0.004 A 
ATOM     31  C   UNL     1      -3.369   1.774  -1.448  1.00  0.00     0.000 A 
ATOM     32  C   UNL     1      -2.903  -0.572  -1.139  1.00  0.00     0.000 A 
ATOM     33  C   UNL     1      -3.663   0.446  -1.723  1.00  0.00     0.000 A 
ENDBRANCH  27  28
ENDBRANCH   7  27
ENDBRANCH   4   7
ENDBRANCH   2   3
ENDBRANCH   1   2
BRANCH   1  34
ATOM     34  C   UNL     1       4.295   5.926   0.374  1.00  0.00     0.023 C 
BRANCH  34  35
ATOM     35  C   UNL     1       5.503   6.840   0.669  1.00  0.00     0.116 C 
BRANCH  35  36
ATOM     36  N   UNL     1       6.461   6.668  -0.391  1.00  0.00    -0.352 N 
ATOM     37  C   UNL     1       7.815   6.775  -0.393  1.00  0.00     0.251 C 
ATOM     38  H   UNL     1       6.068   6.434  -1.263  1.00  0.00     0.163 HD
ATOM     39  O   UNL     1       8.434   6.605  -1.439  1.00  0.00    -0.269 OA
BRANCH  37  40
ATOM     40  C   UNL     1       8.540   7.146   0.831  1.00  0.00     0.039 A 
ATOM     41  C   UNL     1       9.331   8.286   0.767  1.00  0.00     0.014 A 
ATOM     42  C   UNL     1       8.514   6.374   1.996  1.00  0.00     0.014 A 
ATOM     43  C   UNL     1      10.109   8.626   1.862  1.00  0.00     0.010 A 
ATOM     44  C   UNL     1       9.308   6.682   3.080  1.00  0.00     0.010 A 
ATOM     45  C   UNL     1      10.103   7.816   3.010  1.00  0.00    -0.014 A 
BRANCH  45  46
ATOM     46  C   UNL     1      10.827   8.238   4.206  1.00  0.00     0.031 A 
ATOM     47  C   UNL     1      12.046   7.508   4.652  1.00  0.00     0.074 A 
ATOM     48  C   UNL     1      10.316   9.282   4.877  1.00  0.00     0.049 A 
ATOM     49  N   UNL     1      12.890   7.846   5.584  1.00  0.00    -0.248 NA
ATOM     50  C   UNL     1      12.354   6.231   3.984  1.00  0.00     0.031 C 
ATOM     51  C   UNL     1       9.052   9.953   4.550  1.00  0.00     0.029 A 
ATOM     52  N   UNL     1      10.794   9.967   5.952  1.00  0.00    -0.354 N 
ATOM     53  C   UNL     1      13.835   6.833   5.615  1.00  0.00     0.074 A 
ATOM     54  C   UNL     1      13.434   5.840   4.645  1.00  0.00     0.031 C 
ATOM     55  C   UNL     1       8.886  10.995   5.375  1.00  0.00     0.029 A 
ATOM     56  C   UNL     1      10.008  11.035   6.303  1.00  0.00     0.049 A 
ATOM     57  H   UNL     1      11.619   9.721   6.429  1.00  0.00     0.167 HD
ATOM     58  C   UNL     1      14.950   6.768   6.377  1.00  0.00     0.034 A 
ATOM     59  C   UNL     1      10.191  11.948   7.271  1.00  0.00     0.034 A 
ATOM     60  C   UNL     1      15.294   7.772   7.346  1.00  0.00     0.049 A 
ATOM     61  C   UNL     1      11.446  11.857   8.085  1.00  0.00     0.074 A 
ATOM     62  C   UNL     1      16.422   7.852   8.139  1.00  0.00     0.029 A 
ATOM     63  N   UNL     1      14.492   8.857   7.676  1.00  0.00    -0.354 N 
ATOM     64  N   UNL     1      12.421  10.983   8.003  1.00  0.00    -0.248 NA
ATOM     65  C   UNL     1      11.648  12.899   9.096  1.00  0.00     0.031 C 
ATOM     66  C   UNL     1      16.273   8.951   8.991  1.00  0.00     0.029 A 
ATOM     67  C   UNL     1      15.089   9.601   8.676  1.00  0.00     0.049 A 
ATOM     68  H   UNL     1      13.625   9.065   7.258  1.00  0.00     0.167 HD
ATOM     69  C   UNL     1      13.374  11.390   8.924  1.00  0.00     0.074 A 
ATOM     70  C   UNL     1      12.863  12.603   9.535  1.00  0.00     0.031 C 
ATOM     71  C   UNL     1      14.562  10.818   9.242  1.00  0.00     0.034 A 
BRANCH  58  72
ATOM     72  C   UNL     1      15.860   5.587   6.185  1.00  0.00     0.023 A 
ATOM     73  C   UNL     1      16.571   5.429   4.977  1.00  0.00     0.012 A 
ATOM     74  C   UNL     1      16.040   4.650   7.219  1.00  0.00     0.148 A 
ATOM     75  C   UNL     1      17.418   4.338   4.788  1.00  0.00     0.002 A 
ATOM     76  C   UNL     1      16.925   3.595   7.044  1.00  0.00     0.091 A 
ATOM     77  F   UNL     1      15.335   4.803   8.348  1.00  0.00    -0.205 F 
ATOM     78  C   UNL     1      17.603   3.428   5.825  1.00  0.00     0.022 A 
BRANCH  76  79
ATOM     79  S   UNL     1      17.290   2.414   8.345  1.00  0.00     0.127 S 
ATOM     80  O   UNL     1      16.753   1.177   7.779  1.00  0.00    -0.237 OA
ATOM     81  O   UNL     1      18.750   2.474   8.407  1.00  0.00    -0.237 OA
ATOM     82  O   UNL     1      16.606   2.898   9.536  1.00  0.00    -0.744 OA
ENDBRANCH  76  79
ENDBRANCH  58  72
BRANCH  59  83
ATOM     83  C   UNL     1       9.191  13.027   7.474  1.00  0.00     0.023 A 
ATOM     84  C   UNL     1       9.526  14.365   7.197  1.00  0.00     0.012 A 
ATOM     85  C   UNL     1       7.893  12.718   7.920  1.00  0.00     0.148 A 
ATOM     86  C   UNL     1       8.598  15.384   7.410  1.00  0.00     0.002 A 
ATOM     87  C   UNL     1       6.956  13.729   8.074  1.00  0.00     0.091 A 
ATOM     88  F   UNL     1       7.596  11.434   8.167  1.00  0.00    -0.205 F 
ATOM     89  C   UNL     1       7.312  15.066   7.841  1.00  0.00     0.022 A 
BRANCH  87  90
ATOM     90  S   UNL     1       5.246  13.395   8.504  1.00  0.00     0.127 S 
ATOM     91  O   UNL     1       5.153  13.993   9.833  1.00  0.00    -0.237 OA
ATOM     92  O   UNL     1       4.528  14.112   7.450  1.00  0.00    -0.237 OA
ATOM     93  O   UNL     1       5.101  11.947   8.454  1.00  0.00    -0.744 OA
ENDBRANCH  87  90
ENDBRANCH  59  83
BRANCH  71  94
ATOM     94  C   UNL     1      15.414  11.535  10.254  1.00  0.00     0.023 A 
ATOM     95  C   UNL     1      15.017  11.608  11.603  1.00  0.00     0.012 A 
ATOM     96  C   UNL     1      16.640  12.103   9.858  1.00  0.00     0.148 A 
ATOM     97  C   UNL     1      15.803  12.286  12.533  1.00  0.00     0.002 A 
ATOM     98  C   UNL     1      17.449  12.717  10.801  1.00  0.00     0.091 A 
ATOM     99  F   UNL     1      16.989  12.034   8.565  1.00  0.00    -0.205 F 
ATOM    100  C   UNL     1      17.023  12.829  12.135  1.00  0.00     0.022 A 
BRANCH  98 101
ATOM    101  S   UNL     1      19.081  13.347  10.400  1.00  0.00     0.127 S 
ATOM    102  O   UNL     1      18.878  14.790  10.516  1.00  0.00    -0.237 OA
ATOM    103  O   UNL     1      19.904  12.758  11.457  1.00  0.00    -0.237 OA
ATOM    104  O   UNL     1      19.382  12.866   9.059  1.00  0.00    -0.744 OA
ENDBRANCH  98 101
ENDBRANCH  71  94
ENDBRANCH  45  46
ENDBRANCH  37  40
ENDBRANCH  35  36
ENDBRANCH  34  35
ENDBRANCH   1  34
TORSDOF 19
