REMARK SMILES CC(C)[NH2+][C@@]1(C(=O)NCCCCNC(=O)c2ccc(-c3c4nc(c(-c5cccc(S(=O)(=O)[O-])c5F)c5ccc([nH]5)c(-c5cccc(S(=O)(=O)[O-])c5F)c5nc(c(-c6cccc(S(=O)(=O)[O-])c6F)c6ccc3[nH]6)C=C5)C=C4)cc2)CCC[C@@H]1CCOC1CCOCC1
REMARK SMILES IDX 10 1 9 2 8 3 6 4 7 5 5 7 79 8 82 9 80 10 81 11 4 12 2 15
REMARK SMILES IDX 1 16 3 17 83 18 84 19 85 20 86 21 87 22 91 23 88 24 90 25
REMARK SMILES IDX 89 26 11 27 12 28 13 29 14 30 15 32 16 33 17 34 78 35 18 36
REMARK SMILES IDX 77 37 19 38 20 39 21 40 71 41 22 42 76 43 70 44 72 45 23 46
REMARK SMILES IDX 75 47 69 48 68 49 24 51 56 52 36 53 55 54 37 55 40 56 54 57
REMARK SMILES IDX 73 58 38 59 39 60 53 62 74 63 41 64 25 65 26 66 34 67 27 68
REMARK SMILES IDX 29 69 35 70 28 71 30 72 31 73 32 74 33 75 57 76 58 77 66 78
REMARK SMILES IDX 59 79 61 80 67 81 60 82 62 83 63 84 64 85 65 86 42 87 43 88
REMARK SMILES IDX 51 89 44 90 46 91 52 92 45 93 47 94 48 95 49 96 50 97
REMARK H PARENT 8 6 4 13 4 14 13 31 72 50 40 61
REMARK Flexibility Score: inf
ROOT
ATOM      1  C   UNL     1      -1.552  -5.351   4.625  1.00  0.00     0.023 C 
ENDROOT
BRANCH   1   2
ATOM      2  C   UNL     1      -2.291  -3.994   4.397  1.00  0.00     0.116 C 
BRANCH   2   3
ATOM      3  N   UNL     1      -1.571  -2.876   3.580  1.00  0.00    -0.351 N 
ATOM      4  C   UNL     1      -1.333  -2.345   2.312  1.00  0.00     0.281 C 
ATOM      5  O   UNL     1      -1.068  -1.125   2.486  1.00  0.00    -0.268 OA
ATOM      6  H   UNL     1      -1.085  -2.313   4.225  1.00  0.00     0.163 HD
BRANCH   4   7
ATOM      7  C   UNL     1      -1.431  -2.886   0.476  1.00  0.00     0.178 C 
ATOM      8  C   UNL     1      -3.214  -3.593  -0.566  1.00  0.00     0.079 C 
ATOM      9  C   UNL     1      -0.011  -4.026  -0.285  1.00  0.00     0.063 C 
ATOM     10  C   UNL     1      -2.616  -4.905  -1.964  1.00  0.00     0.008 C 
ATOM     11  C   UNL     1      -0.712  -5.066  -1.775  1.00  0.00     0.011 C 
BRANCH   7  12
ATOM     12  N   UNL     1      -0.630  -1.452   0.076  1.00  0.00    -0.331 N 
ATOM     13  H   UNL     1      -0.952  -1.238  -0.868  1.00  0.00     0.347 HD
ATOM     14  H   UNL     1      -0.856  -0.924   0.919  1.00  0.00     0.347 HD
BRANCH  12  15
ATOM     15  C   UNL     1       0.808  -1.171   0.040  1.00  0.00     0.176 C 
ATOM     16  C   UNL     1       0.929   0.263  -0.516  1.00  0.00     0.075 C 
ATOM     17  C   UNL     1       1.594  -1.238   1.345  1.00  0.00     0.075 C 
ENDBRANCH  12  15
ENDBRANCH   7  12
BRANCH   9  18
ATOM     18  C   UNL     1       0.710  -4.857   0.771  1.00  0.00     0.039 C 
BRANCH  18  19
ATOM     19  C   UNL     1       0.025  -4.760   2.111  1.00  0.00     0.161 C 
BRANCH  19  20
ATOM     20  O   UNL     1      -1.402  -4.936   2.204  1.00  0.00    -0.378 OA
BRANCH  20  21
ATOM     21  C   UNL     1      -2.527  -4.461   1.454  1.00  0.00     0.122 C 
ATOM     22  C   UNL     1      -1.912  -4.763  -0.014  1.00  0.00     0.060 C 
ATOM     23  C   UNL     1      -3.558  -2.901   1.577  1.00  0.00     0.060 C 
ATOM     24  C   UNL     1      -1.654  -3.130  -1.411  1.00  0.00     0.163 C 
ATOM     25  C   UNL     1      -3.415  -1.555   0.398  1.00  0.00     0.163 C 
ATOM     26  O   UNL     1      -2.605  -1.659  -1.011  1.00  0.00    -0.381 OA
ENDBRANCH  20  21
ENDBRANCH  19  20
ENDBRANCH  18  19
ENDBRANCH   9  18
ENDBRANCH   4   7
ENDBRANCH   2   3
ENDBRANCH   1   2
BRANCH   1  27
ATOM     27  C   UNL     1      -1.938  -6.310   5.736  1.00  0.00     0.023 C 
BRANCH  27  28
ATOM     28  C   UNL     1      -3.302  -6.970   5.596  1.00  0.00     0.116 C 
BRANCH  28  29
ATOM     29  N   UNL     1      -3.474  -7.971   4.531  1.00  0.00    -0.352 N 
ATOM     30  C   UNL     1      -4.299  -9.090   4.589  1.00  0.00     0.251 C 
ATOM     31  H   UNL     1      -2.960  -7.836   3.703  1.00  0.00     0.163 HD
ATOM     32  O   UNL     1      -4.416  -9.874   3.655  1.00  0.00    -0.269 OA
BRANCH  30  33
ATOM     33  C   UNL     1      -5.001  -9.327   5.870  1.00  0.00     0.039 A 
ATOM     34  C   UNL     1      -4.598 -10.395   6.675  1.00  0.00     0.014 A 
ATOM     35  C   UNL     1      -5.781  -8.291   6.383  1.00  0.00     0.014 A 
ATOM     36  C   UNL     1      -4.863 -10.347   8.045  1.00  0.00     0.010 A 
ATOM     37  C   UNL     1      -5.913  -8.183   7.760  1.00  0.00     0.010 A 
ATOM     38  C   UNL     1      -5.455  -9.205   8.610  1.00  0.00    -0.014 A 
BRANCH  38  39
ATOM     39  C   UNL     1      -5.617  -9.052  10.081  1.00  0.00     0.031 A 
ATOM     40  C   UNL     1      -6.994  -8.826  10.648  1.00  0.00     0.074 A 
ATOM     41  C   UNL     1      -4.540  -9.021  10.895  1.00  0.00     0.049 A 
ATOM     42  N   UNL     1      -7.352  -8.618  11.887  1.00  0.00    -0.248 NA
ATOM     43  C   UNL     1      -8.113  -8.781   9.690  1.00  0.00     0.031 C 
ATOM     44  C   UNL     1      -3.141  -9.117  10.468  1.00  0.00     0.029 A 
ATOM     45  N   UNL     1      -4.454  -8.880  12.260  1.00  0.00    -0.354 N 
ATOM     46  C   UNL     1      -8.720  -8.377  11.847  1.00  0.00     0.074 A 
ATOM     47  C   UNL     1      -9.116  -8.394  10.459  1.00  0.00     0.031 C 
ATOM     48  C   UNL     1      -2.342  -9.059  11.548  1.00  0.00     0.029 A 
ATOM     49  C   UNL     1      -3.164  -8.895  12.743  1.00  0.00     0.049 A 
ATOM     50  H   UNL     1      -5.242  -8.777  12.840  1.00  0.00     0.167 HD
ATOM     51  C   UNL     1      -9.585  -8.211  12.873  1.00  0.00     0.034 A 
ATOM     52  C   UNL     1      -2.699  -8.796  14.006  1.00  0.00     0.034 A 
ATOM     53  C   UNL     1      -9.204  -8.263  14.254  1.00  0.00     0.049 A 
ATOM     54  C   UNL     1      -3.688  -8.674  15.138  1.00  0.00     0.074 A 
ATOM     55  C   UNL     1     -10.015  -8.209  15.372  1.00  0.00     0.029 A 
ATOM     56  N   UNL     1      -7.899  -8.381  14.706  1.00  0.00    -0.354 N 
ATOM     57  N   UNL     1      -4.997  -8.626  15.088  1.00  0.00    -0.248 NA
ATOM     58  C   UNL     1      -3.139  -8.634  16.502  1.00  0.00     0.031 C 
ATOM     59  C   UNL     1      -9.197  -8.270  16.504  1.00  0.00     0.029 A 
ATOM     60  C   UNL     1      -7.880  -8.394  16.089  1.00  0.00     0.049 A 
ATOM     61  H   UNL     1      -7.105  -8.446  14.129  1.00  0.00     0.167 HD
ATOM     62  C   UNL     1      -5.430  -8.589  16.410  1.00  0.00     0.074 A 
ATOM     63  C   UNL     1      -4.243  -8.642  17.238  1.00  0.00     0.031 C 
ATOM     64  C   UNL     1      -6.693  -8.505  16.896  1.00  0.00     0.034 A 
BRANCH  51  65
ATOM     65  C   UNL     1     -11.039  -8.023  12.528  1.00  0.00     0.023 A 
ATOM     66  C   UNL     1     -11.773  -9.100  11.988  1.00  0.00     0.012 A 
ATOM     67  C   UNL     1     -11.684  -6.795  12.763  1.00  0.00     0.148 A 
ATOM     68  C   UNL     1     -13.114  -8.945  11.644  1.00  0.00     0.002 A 
ATOM     69  C   UNL     1     -13.035  -6.664  12.466  1.00  0.00     0.091 A 
ATOM     70  F   UNL     1     -10.964  -5.776  13.252  1.00  0.00    -0.205 F 
ATOM     71  C   UNL     1     -13.747  -7.731  11.894  1.00  0.00     0.022 A 
BRANCH  69  72
ATOM     72  S   UNL     1     -13.964  -5.170  12.826  1.00  0.00     0.127 S 
ATOM     73  O   UNL     1     -14.230  -4.658  11.482  1.00  0.00    -0.237 OA
ATOM     74  O   UNL     1     -15.138  -5.700  13.521  1.00  0.00    -0.237 OA
ATOM     75  O   UNL     1     -13.093  -4.343  13.648  1.00  0.00    -0.744 OA
ENDBRANCH  69  72
ENDBRANCH  51  65
BRANCH  52  76
ATOM     76  C   UNL     1      -1.235  -8.889  14.284  1.00  0.00     0.023 A 
ATOM     77  C   UNL     1      -0.725 -10.024  14.945  1.00  0.00     0.012 A 
ATOM     78  C   UNL     1      -0.345  -7.869  13.893  1.00  0.00     0.148 A 
ATOM     79  C   UNL     1       0.635 -10.126  15.246  1.00  0.00     0.002 A 
ATOM     80  C   UNL     1       1.016  -8.002  14.146  1.00  0.00     0.091 A 
ATOM     81  F   UNL     1      -0.849  -6.790  13.277  1.00  0.00    -0.205 F 
ATOM     82  C   UNL     1       1.506  -9.120  14.839  1.00  0.00     0.022 A 
BRANCH  80  83
ATOM     83  S   UNL     1       2.228  -6.818  13.548  1.00  0.00     0.127 S 
ATOM     84  O   UNL     1       2.666  -6.184  14.789  1.00  0.00    -0.237 OA
ATOM     85  O   UNL     1       3.218  -7.693  12.919  1.00  0.00    -0.237 OA
ATOM     86  O   UNL     1       1.510  -5.958  12.617  1.00  0.00    -0.744 OA
ENDBRANCH  80  83
ENDBRANCH  52  76
BRANCH  64  87
ATOM     87  C   UNL     1      -6.874  -8.508  18.390  1.00  0.00     0.023 A 
ATOM     88  C   UNL     1      -6.515  -7.373  19.144  1.00  0.00     0.012 A 
ATOM     89  C   UNL     1      -7.485  -9.602  19.033  1.00  0.00     0.148 A 
ATOM     90  C   UNL     1      -6.734  -7.341  20.521  1.00  0.00     0.002 A 
ATOM     91  C   UNL     1      -7.748  -9.542  20.395  1.00  0.00     0.091 A 
ATOM     92  F   UNL     1      -7.804 -10.679  18.299  1.00  0.00    -0.205 F 
ATOM     93  C   UNL     1      -7.361  -8.418  21.143  1.00  0.00     0.022 A 
BRANCH  91  94
ATOM     94  S   UNL     1      -8.644 -10.836  21.260  1.00  0.00     0.127 S 
ATOM     95  O   UNL     1      -7.582 -11.457  22.050  1.00  0.00    -0.237 OA
ATOM     96  O   UNL     1      -9.618 -10.071  22.040  1.00  0.00    -0.237 OA
ATOM     97  O   UNL     1      -9.229 -11.680  20.226  1.00  0.00    -0.744 OA
ENDBRANCH  91  94
ENDBRANCH  64  87
ENDBRANCH  38  39
ENDBRANCH  30  33
ENDBRANCH  28  29
ENDBRANCH  27  28
ENDBRANCH   1  27
TORSDOF 20
