REMARK SMILES COc1ccc(CCN2/C(=[NH+]/C(=O)CCC(=O)NCCCCNC(=O)c3ccc(-c4c5nc(c(-c6cccc(S(=O)(=O)[O-])c6F)c6ccc([nH]6)c(-c6cccc(S(=O)(=O)[O-])c6F)c6nc(c(-c7cccc(S(=O)(=O)[O-])c7F)c7ccc4[nH]7)C=C6)C=C5)cc3)S[C@@H]3CS(=O)(=O)C[C@@H]32)cc1
REMARK SMILES IDX 19 1 18 2 16 3 17 4 15 6 14 7 12 8 9 9 10 10 96 11 11 12
REMARK SMILES IDX 89 13 90 14 95 15 91 17 92 18 13 19 93 20 94 21 8 22 7 23
REMARK SMILES IDX 6 24 3 25 4 26 98 27 5 28 97 29 2 30 1 31 20 32 21 33 22 34
REMARK SMILES IDX 23 35 24 36 25 38 26 39 27 40 88 41 28 42 87 43 29 44 30 45
REMARK SMILES IDX 31 46 81 47 32 48 86 49 80 50 82 51 33 52 85 53 79 54 78 55
REMARK SMILES IDX 34 57 66 58 46 59 65 60 47 61 50 62 64 63 83 64 48 65 49 66
REMARK SMILES IDX 63 68 84 69 51 70 35 71 36 72 44 73 37 74 39 75 45 76 38 77
REMARK SMILES IDX 40 78 41 79 42 80 43 81 67 82 68 83 76 84 69 85 71 86 77 87
REMARK SMILES IDX 70 88 72 89 73 90 74 91 75 92 52 93 53 94 61 95 54 96 56 97
REMARK SMILES IDX 62 98 55 99 57 100 58 101 59 102 60 103
REMARK H PARENT 18 5 11 16 23 37 82 56 50 67
REMARK Flexibility Score: inf
ROOT
ATOM      1  C   UNL     1      -0.446   7.566   8.869  1.00  0.00     0.116 C 
ENDROOT
BRANCH   1   2
ATOM      2  N   UNL     1       0.766   8.335   9.054  1.00  0.00    -0.356 N 
ATOM      3  C   UNL     1       1.100   9.507   8.432  1.00  0.00     0.220 C 
ATOM      4  O   UNL     1       2.271   9.883   8.480  1.00  0.00    -0.275 OA
ATOM      5  H   UNL     1       1.420   7.976   9.697  1.00  0.00     0.163 HD
BRANCH   3   6
ATOM      6  C   UNL     1       0.018  10.338   7.747  1.00  0.00     0.112 C 
BRANCH   6   7
ATOM      7  C   UNL     1       0.268  10.597   6.246  1.00  0.00     0.138 C 
BRANCH   7   8
ATOM      8  C   UNL     1      -0.580   9.785   5.235  1.00  0.00     0.308 C 
ATOM      9  N   UNL     1       0.311   6.558   3.717  1.00  0.00    -0.251 N 
ATOM     10  C   UNL     1      -0.461   7.653   4.152  1.00  0.00     0.314 C 
ATOM     11  C   UNL     1      -0.320   5.209   3.587  1.00  0.00     0.206 C 
ATOM     12  N   UNL     1       0.095   8.758   4.589  1.00  0.00    -0.205 N 
ATOM     13  S   UNL     1      -2.215   7.325   4.229  1.00  0.00    -0.030 SA
ATOM     14  C   UNL     1      -2.204   5.537   3.820  1.00  0.00     0.120 C 
ATOM     15  C   UNL     1       0.400   3.759   4.798  1.00  0.00     0.187 C 
ATOM     16  H   UNL     1       1.064   8.867   4.449  1.00  0.00     0.316 HD
ATOM     17  C   UNL     1      -3.045   4.430   5.215  1.00  0.00     0.156 C 
ATOM     18  S   UNL     1      -1.509   2.962   6.108  1.00  0.00     0.155 S 
ATOM     19  O   UNL     1      -1.764  10.084   5.091  1.00  0.00    -0.247 OA
ATOM     20  O   UNL     1      -1.405   3.144   7.548  1.00  0.00    -0.229 OA
ATOM     21  O   UNL     1      -2.068   1.654   5.782  1.00  0.00    -0.229 OA
BRANCH   9  22
ATOM     22  C   UNL     1       1.727   6.770   3.337  1.00  0.00     0.242 C 
BRANCH  22  23
ATOM     23  C   UNL     1       2.522   5.524   2.963  1.00  0.00     0.081 C 
BRANCH  23  24
ATOM     24  C   UNL     1       1.994   4.745   1.784  1.00  0.00    -0.044 A 
ATOM     25  C   UNL     1       0.974   3.052  -0.284  1.00  0.00     0.118 A 
ATOM     26  C   UNL     1       0.725   4.416  -0.283  1.00  0.00     0.046 A 
ATOM     27  C   UNL     1       1.723   2.570   0.756  1.00  0.00     0.046 A 
ATOM     28  C   UNL     1       1.284   5.264   0.699  1.00  0.00     0.007 A 
ATOM     29  C   UNL     1       2.151   3.379   1.814  1.00  0.00     0.007 A 
BRANCH  25  30
ATOM     30  O   UNL     1       0.450   2.289  -1.287  1.00  0.00    -0.497 OA
ATOM     31  C   UNL     1       0.857   0.917  -1.377  1.00  0.00     0.278 C 
ENDBRANCH  25  30
ENDBRANCH  23  24
ENDBRANCH  22  23
ENDBRANCH   9  22
ENDBRANCH   7   8
ENDBRANCH   6   7
ENDBRANCH   3   6
ENDBRANCH   1   2
BRANCH   1  32
ATOM     32  C   UNL     1      -0.625   7.268   7.398  1.00  0.00     0.023 C 
BRANCH  32  33
ATOM     33  C   UNL     1       0.535   6.441   6.852  1.00  0.00     0.023 C 
BRANCH  33  34
ATOM     34  C   UNL     1       0.009   5.041   6.729  1.00  0.00     0.116 C 
BRANCH  34  35
ATOM     35  N   UNL     1      -1.054   4.765   5.346  1.00  0.00    -0.352 N 
ATOM     36  C   UNL     1      -1.396   3.388   4.012  1.00  0.00     0.251 C 
ATOM     37  H   UNL     1      -1.651   5.535   5.209  1.00  0.00     0.163 HD
ATOM     38  O   UNL     1      -2.278   3.425   3.136  1.00  0.00    -0.269 OA
BRANCH  36  39
ATOM     39  C   UNL     1      -0.551   1.779   3.813  1.00  0.00     0.039 A 
ATOM     40  C   UNL     1      -0.542   1.151   2.571  1.00  0.00     0.014 A 
ATOM     41  C   UNL     1       0.404   1.218   4.739  1.00  0.00     0.014 A 
ATOM     42  C   UNL     1       0.545   0.277   2.221  1.00  0.00     0.010 A 
ATOM     43  C   UNL     1       1.583   0.587   4.311  1.00  0.00     0.010 A 
ATOM     44  C   UNL     1       1.726   0.168   2.996  1.00  0.00    -0.014 A 
BRANCH  44  45
ATOM     45  C   UNL     1       2.987  -0.583   2.571  1.00  0.00     0.031 A 
ATOM     46  C   UNL     1       3.118  -1.959   3.152  1.00  0.00     0.074 A 
ATOM     47  C   UNL     1       4.050  -0.149   1.825  1.00  0.00     0.049 A 
ATOM     48  N   UNL     1       4.078  -2.827   2.995  1.00  0.00    -0.248 NA
ATOM     49  C   UNL     1       2.076  -2.366   4.111  1.00  0.00     0.031 C 
ATOM     50  C   UNL     1       4.317   1.203   1.384  1.00  0.00     0.029 A 
ATOM     51  N   UNL     1       5.150  -0.803   1.276  1.00  0.00    -0.354 N 
ATOM     52  C   UNL     1       3.784  -3.852   3.873  1.00  0.00     0.074 A 
ATOM     53  C   UNL     1       2.599  -3.470   4.605  1.00  0.00     0.031 C 
ATOM     54  C   UNL     1       5.279   1.270   0.462  1.00  0.00     0.029 A 
ATOM     55  C   UNL     1       5.942  -0.009   0.448  1.00  0.00     0.049 A 
ATOM     56  H   UNL     1       5.351  -1.750   1.457  1.00  0.00     0.167 HD
ATOM     57  C   UNL     1       4.425  -5.024   4.052  1.00  0.00     0.034 A 
ATOM     58  C   UNL     1       7.128  -0.182  -0.180  1.00  0.00     0.034 A 
ATOM     59  C   UNL     1       5.617  -5.402   3.356  1.00  0.00     0.049 A 
ATOM     60  C   UNL     1       7.819  -1.486   0.013  1.00  0.00     0.074 A 
ATOM     61  C   UNL     1       6.293  -6.604   3.421  1.00  0.00     0.029 A 
ATOM     62  N   UNL     1       6.343  -4.575   2.511  1.00  0.00    -0.354 N 
ATOM     63  N   UNL     1       7.430  -2.495   0.748  1.00  0.00    -0.248 NA
ATOM     64  C   UNL     1       9.093  -1.691  -0.688  1.00  0.00     0.031 C 
ATOM     65  C   UNL     1       7.464  -6.482   2.668  1.00  0.00     0.029 A 
ATOM     66  C   UNL     1       7.477  -5.232   2.070  1.00  0.00     0.049 A 
ATOM     67  H   UNL     1       6.088  -3.656   2.263  1.00  0.00     0.167 HD
ATOM     68  C   UNL     1       8.397  -3.469   0.588  1.00  0.00     0.074 A 
ATOM     69  C   UNL     1       9.383  -2.936  -0.334  1.00  0.00     0.031 C 
ATOM     70  C   UNL     1       8.452  -4.694   1.157  1.00  0.00     0.034 A 
BRANCH  57  71
ATOM     71  C   UNL     1       3.834  -5.940   5.083  1.00  0.00     0.023 A 
ATOM     72  C   UNL     1       2.551  -6.499   4.891  1.00  0.00     0.012 A 
ATOM     73  C   UNL     1       4.521  -6.169   6.286  1.00  0.00     0.148 A 
ATOM     74  C   UNL     1       1.930  -7.206   5.917  1.00  0.00     0.002 A 
ATOM     75  C   UNL     1       3.924  -6.934   7.275  1.00  0.00     0.091 A 
ATOM     76  F   UNL     1       5.719  -5.593   6.460  1.00  0.00    -0.205 F 
ATOM     77  C   UNL     1       2.620  -7.431   7.105  1.00  0.00     0.022 A 
BRANCH  75  78
ATOM     78  S   UNL     1       4.767  -7.351   8.800  1.00  0.00     0.127 S 
ATOM     79  O   UNL     1       3.978  -6.613   9.785  1.00  0.00    -0.237 OA
ATOM     80  O   UNL     1       4.601  -8.804   8.846  1.00  0.00    -0.237 OA
ATOM     81  O   UNL     1       6.142  -6.899   8.638  1.00  0.00    -0.744 OA
ENDBRANCH  75  78
ENDBRANCH  57  71
BRANCH  58  82
ATOM     82  C   UNL     1       7.752   0.918  -0.999  1.00  0.00     0.023 A 
ATOM     83  C   UNL     1       7.833   0.799  -2.402  1.00  0.00     0.012 A 
ATOM     84  C   UNL     1       8.203   2.116  -0.401  1.00  0.00     0.148 A 
ATOM     85  C   UNL     1       8.335   1.846  -3.185  1.00  0.00     0.002 A 
ATOM     86  C   UNL     1       8.636   3.179  -1.190  1.00  0.00     0.091 A 
ATOM     87  F   UNL     1       8.156   2.210   0.936  1.00  0.00    -0.205 F 
ATOM     88  C   UNL     1       8.716   3.042  -2.583  1.00  0.00     0.022 A 
BRANCH  86  89
ATOM     89  S   UNL     1       8.988   4.809  -0.511  1.00  0.00     0.127 S 
ATOM     90  O   UNL     1      10.428   4.921  -0.729  1.00  0.00    -0.237 OA
ATOM     91  O   UNL     1       8.167   5.673  -1.360  1.00  0.00    -0.237 OA
ATOM     92  O   UNL     1       8.562   4.755   0.881  1.00  0.00    -0.744 OA
ENDBRANCH  86  89
ENDBRANCH  58  82
BRANCH  70  93
ATOM     93  C   UNL     1       9.591  -5.574   0.751  1.00  0.00     0.023 A 
ATOM     94  C   UNL     1      10.902  -5.303   1.187  1.00  0.00     0.012 A 
ATOM     95  C   UNL     1       9.334  -6.709  -0.039  1.00  0.00     0.148 A 
ATOM     96  C   UNL     1      11.951  -6.137   0.807  1.00  0.00     0.002 A 
ATOM     97  C   UNL     1      10.371  -7.568  -0.358  1.00  0.00     0.091 A 
ATOM     98  F   UNL     1       8.079  -6.921  -0.462  1.00  0.00    -0.205 F 
ATOM     99  C   UNL     1      11.684  -7.276   0.048  1.00  0.00     0.022 A 
BRANCH  97 100
ATOM    100  S   UNL     1      10.096  -9.107  -1.235  1.00  0.00     0.127 S 
ATOM    101  O   UNL     1      10.771  -8.849  -2.506  1.00  0.00    -0.237 OA
ATOM    102  O   UNL     1      10.768 -10.075  -0.368  1.00  0.00    -0.237 OA
ATOM    103  O   UNL     1       8.651  -9.271  -1.323  1.00  0.00    -0.744 OA
ENDBRANCH  97 100
ENDBRANCH  70  93
ENDBRANCH  44  45
ENDBRANCH  36  39
ENDBRANCH  34  35
ENDBRANCH  33  34
ENDBRANCH  32  33
ENDBRANCH   1  32
TORSDOF 20
