REMARK SMILES CC[C@@H](Oc1ccc(/C=C2\SC(=S)N(NC(=O)c3ccccc3O)C2=O)cc1)C(=O)NCCCCNC(=O)c1ccc(-c2c3nc(c(-c4cccc(S(=O)(=O)[O-])c4F)c4ccc([nH]4)c(-c4cccc(S(=O)(=O)[O-])c4F)c4nc(c(-c5cccc(S(=O)(=O)[O-])c5F)c5ccc2[nH]5)C=C4)C=C3)cc1
REMARK SMILES IDX 32 1 31 2 29 3 30 4 3 6 2 7 1 8 4 9 5 10 6 11 28 12 7 13
REMARK SMILES IDX 27 14 8 15 9 16 10 17 11 18 25 19 12 20 14 21 26 22 13 23
REMARK SMILES IDX 15 24 16 25 17 27 18 28 19 29 23 30 20 31 22 32 21 33 24 34
REMARK SMILES IDX 33 36 34 37 35 38 36 39 37 40 38 42 39 43 40 44 101 45 41 46
REMARK SMILES IDX 100 47 42 48 43 49 44 50 94 51 45 52 99 53 93 54 95 55 46 56
REMARK SMILES IDX 98 57 92 58 91 59 47 61 79 62 59 63 78 64 60 65 63 66 77 67
REMARK SMILES IDX 96 68 61 69 62 70 76 72 97 73 64 74 48 75 49 76 57 77 50 78
REMARK SMILES IDX 52 79 58 80 51 81 53 82 54 83 55 84 56 85 80 86 81 87 89 88
REMARK SMILES IDX 82 89 84 90 90 91 83 92 85 93 86 94 87 95 88 96 65 97 66 98
REMARK SMILES IDX 74 99 67 100 69 101 75 102 68 103 70 104 71 105 72 106
REMARK SMILES IDX 73 107
REMARK H PARENT 31 5 15 26 24 35 36 41 95 60 63 71
REMARK Flexibility Score: inf
ROOT
ATOM      1  C   UNL     1      -1.877   0.282   3.086  1.00  0.00     0.116 C 
ENDROOT
BRANCH   1   2
ATOM      2  N   UNL     1      -0.755  -0.048   3.951  1.00  0.00    -0.353 N 
ATOM      3  C   UNL     1       0.592   0.084   3.721  1.00  0.00     0.261 C 
ATOM      4  O   UNL     1       1.373  -0.215   4.628  1.00  0.00    -0.271 OA
ATOM      5  H   UNL     1      -0.997  -0.419   4.830  1.00  0.00     0.163 HD
BRANCH   3   6
ATOM      6  C   UNL     1       1.115   0.523   2.342  1.00  0.00     0.261 C 
BRANCH   6   7
ATOM      7  C   UNL     1       0.854  -0.631   1.354  1.00  0.00     0.052 C 
ATOM      8  C   UNL     1       1.947  -0.780   0.302  1.00  0.00     0.008 C 
ENDBRANCH   6   7
BRANCH   6   9
ATOM      9  O   UNL     1       0.457   1.772   2.089  1.00  0.00    -0.481 OA
BRANCH   9  10
ATOM     10  C   UNL     1       0.796   2.434   0.955  1.00  0.00     0.120 A 
ATOM     11  C   UNL     1       1.573   3.582   1.043  1.00  0.00     0.047 A 
ATOM     12  C   UNL     1       0.198   2.099  -0.250  1.00  0.00     0.047 A 
ATOM     13  C   UNL     1       1.760   4.383  -0.090  1.00  0.00     0.012 A 
ATOM     14  C   UNL     1       0.427   2.870  -1.388  1.00  0.00     0.012 A 
ATOM     15  C   UNL     1       1.171   4.051  -1.325  1.00  0.00    -0.024 A 
BRANCH  15  16
ATOM     16  C   UNL     1       1.374   4.968  -2.468  1.00  0.00     0.029 C 
ATOM     17  C   UNL     1       0.741   5.062  -3.649  1.00  0.00     0.082 C 
ATOM     18  S   UNL     1      -0.532   4.102  -4.302  1.00  0.00    -0.052 SA
ATOM     19  C   UNL     1       1.153   6.077  -4.662  1.00  0.00     0.285 C 
ATOM     20  C   UNL     1      -0.273   4.684  -5.930  1.00  0.00     0.168 C 
ATOM     21  N   UNL     1       0.671   5.689  -5.903  1.00  0.00    -0.198 N 
ATOM     22  O   UNL     1       1.786   7.097  -4.393  1.00  0.00    -0.266 OA
ATOM     23  S   UNL     1      -1.089   4.093  -7.261  1.00  0.00    -0.050 S 
BRANCH  21  24
ATOM     24  N   UNL     1       0.997   6.377  -7.080  1.00  0.00    -0.254 N 
ATOM     25  C   UNL     1       2.264   6.585  -7.580  1.00  0.00     0.274 C 
ATOM     26  H   UNL     1       0.248   6.747  -7.601  1.00  0.00     0.192 HD
ATOM     27  O   UNL     1       2.412   7.030  -8.717  1.00  0.00    -0.267 OA
BRANCH  25  28
ATOM     28  C   UNL     1       3.462   6.339  -6.758  1.00  0.00     0.083 A 
ATOM     29  C   UNL     1       4.263   7.456  -6.484  1.00  0.00     0.018 A 
ATOM     30  C   UNL     1       3.801   5.093  -6.226  1.00  0.00     0.128 A 
ATOM     31  C   UNL     1       5.365   7.338  -5.639  1.00  0.00     0.001 A 
ATOM     32  C   UNL     1       4.895   4.978  -5.369  1.00  0.00     0.047 A 
ATOM     33  C   UNL     1       5.674   6.101  -5.073  1.00  0.00     0.004 A 
BRANCH  30  34
ATOM     34  O   UNL     1       3.103   3.947  -6.488  1.00  0.00    -0.507 OA
ATOM     35  H   UNL     1       2.360   3.972  -7.058  1.00  0.00     0.293 HD
ENDBRANCH  30  34
ENDBRANCH  25  28
ENDBRANCH  21  24
ENDBRANCH  15  16
ENDBRANCH   9  10
ENDBRANCH   6   9
ENDBRANCH   3   6
ENDBRANCH   1   2
BRANCH   1  36
ATOM     36  C   UNL     1      -2.636  -0.955   2.613  1.00  0.00     0.023 C 
BRANCH  36  37
ATOM     37  C   UNL     1      -3.467  -1.651   3.690  1.00  0.00     0.023 C 
BRANCH  37  38
ATOM     38  C   UNL     1      -4.491  -0.771   4.403  1.00  0.00     0.116 C 
BRANCH  38  39
ATOM     39  N   UNL     1      -5.430  -0.125   3.498  1.00  0.00    -0.352 N 
ATOM     40  C   UNL     1      -6.767   0.135   3.684  1.00  0.00     0.251 C 
ATOM     41  H   UNL     1      -5.057   0.166   2.635  1.00  0.00     0.163 HD
ATOM     42  O   UNL     1      -7.431   0.602   2.763  1.00  0.00    -0.269 OA
BRANCH  40  43
ATOM     43  C   UNL     1      -7.411  -0.179   4.980  1.00  0.00     0.039 A 
ATOM     44  C   UNL     1      -8.651  -0.825   4.975  1.00  0.00     0.014 A 
ATOM     45  C   UNL     1      -6.802   0.158   6.191  1.00  0.00     0.014 A 
ATOM     46  C   UNL     1      -9.252  -1.184   6.185  1.00  0.00     0.010 A 
ATOM     47  C   UNL     1      -7.368  -0.261   7.393  1.00  0.00     0.010 A 
ATOM     48  C   UNL     1      -8.601  -0.929   7.403  1.00  0.00    -0.014 A 
BRANCH  48  49
ATOM     49  C   UNL     1      -9.196  -1.351   8.697  1.00  0.00     0.031 A 
ATOM     50  C   UNL     1      -9.616  -0.321   9.710  1.00  0.00     0.074 A 
ATOM     51  C   UNL     1      -9.278  -2.662   8.995  1.00  0.00     0.049 A 
ATOM     52  N   UNL     1     -10.123  -0.497  10.902  1.00  0.00    -0.248 NA
ATOM     53  C   UNL     1      -9.412   1.092   9.349  1.00  0.00     0.031 C 
ATOM     54  C   UNL     1      -8.824  -3.757   8.135  1.00  0.00     0.029 A 
ATOM     55  N   UNL     1      -9.753  -3.297  10.116  1.00  0.00    -0.354 N 
ATOM     56  C   UNL     1     -10.261   0.773  11.448  1.00  0.00     0.074 A 
ATOM     57  C   UNL     1      -9.756   1.711  10.470  1.00  0.00     0.031 C 
ATOM     58  C   UNL     1      -9.052  -4.927   8.754  1.00  0.00     0.029 A 
ATOM     59  C   UNL     1      -9.652  -4.668  10.059  1.00  0.00     0.049 A 
ATOM     60  H   UNL     1     -10.130  -2.816  10.888  1.00  0.00     0.167 HD
ATOM     61  C   UNL     1     -10.793   1.132  12.641  1.00  0.00     0.034 A 
ATOM     62  C   UNL     1     -10.014  -5.608  10.954  1.00  0.00     0.034 A 
ATOM     63  C   UNL     1     -11.358   0.204  13.583  1.00  0.00     0.049 A 
ATOM     64  C   UNL     1     -10.670  -5.183  12.239  1.00  0.00     0.074 A 
ATOM     65  C   UNL     1     -12.017   0.474  14.768  1.00  0.00     0.029 A 
ATOM     66  N   UNL     1     -11.332  -1.175  13.444  1.00  0.00    -0.354 N 
ATOM     67  N   UNL     1     -10.956  -3.974  12.658  1.00  0.00    -0.248 NA
ATOM     68  C   UNL     1     -11.090  -6.252  13.157  1.00  0.00     0.031 C 
ATOM     69  C   UNL     1     -12.387  -0.744  15.350  1.00  0.00     0.029 A 
ATOM     70  C   UNL     1     -11.961  -1.771  14.523  1.00  0.00     0.049 A 
ATOM     71  H   UNL     1     -10.925  -1.659  12.690  1.00  0.00     0.167 HD
ATOM     72  C   UNL     1     -11.624  -4.137  13.867  1.00  0.00     0.074 A 
ATOM     73  C   UNL     1     -11.715  -5.564  14.104  1.00  0.00     0.031 C 
ATOM     74  C   UNL     1     -12.103  -3.192  14.713  1.00  0.00     0.034 A 
BRANCH  61  75
ATOM     75  C   UNL     1     -10.857   2.602  12.960  1.00  0.00     0.023 A 
ATOM     76  C   UNL     1     -11.795   3.413  12.289  1.00  0.00     0.012 A 
ATOM     77  C   UNL     1     -10.030   3.173  13.946  1.00  0.00     0.148 A 
ATOM     78  C   UNL     1     -11.886   4.776  12.568  1.00  0.00     0.002 A 
ATOM     79  C   UNL     1     -10.154   4.526  14.247  1.00  0.00     0.091 A 
ATOM     80  F   UNL     1      -9.125   2.394  14.555  1.00  0.00    -0.205 F 
ATOM     81  C   UNL     1     -11.073   5.329  13.553  1.00  0.00     0.022 A 
BRANCH  79  82
ATOM     82  S   UNL     1      -9.198   5.309  15.552  1.00  0.00     0.127 S 
ATOM     83  O   UNL     1      -8.159   5.995  14.786  1.00  0.00    -0.237 OA
ATOM     84  O   UNL     1     -10.183   6.195  16.173  1.00  0.00    -0.237 OA
ATOM     85  O   UNL     1      -8.740   4.224  16.409  1.00  0.00    -0.744 OA
ENDBRANCH  79  82
ENDBRANCH  61  75
BRANCH  62  86
ATOM     86  C   UNL     1      -9.864  -7.051  10.614  1.00  0.00     0.023 A 
ATOM     87  C   UNL     1     -11.018  -7.807  10.327  1.00  0.00     0.012 A 
ATOM     88  C   UNL     1      -8.602  -7.670  10.536  1.00  0.00     0.148 A 
ATOM     89  C   UNL     1     -10.921  -9.158   9.995  1.00  0.00     0.002 A 
ATOM     90  C   UNL     1      -8.508  -9.005  10.157  1.00  0.00     0.091 A 
ATOM     91  F   UNL     1      -7.516  -6.939  10.828  1.00  0.00    -0.205 F 
ATOM     92  C   UNL     1      -9.667  -9.754   9.900  1.00  0.00     0.022 A 
BRANCH  90  93
ATOM     93  S   UNL     1      -6.928  -9.815   9.887  1.00  0.00     0.127 S 
ATOM     94  O   UNL     1      -6.808 -10.645  11.083  1.00  0.00    -0.237 OA
ATOM     95  O   UNL     1      -7.169 -10.553   8.647  1.00  0.00    -0.237 OA
ATOM     96  O   UNL     1      -5.957  -8.736   9.758  1.00  0.00    -0.744 OA
ENDBRANCH  90  93
ENDBRANCH  62  86
BRANCH  74  97
ATOM     97  C   UNL     1     -12.798  -3.662  15.962  1.00  0.00     0.023 A 
ATOM     98  C   UNL     1     -12.037  -4.180  17.028  1.00  0.00     0.012 A 
ATOM     99  C   UNL     1     -14.191  -3.522  16.111  1.00  0.00     0.148 A 
ATOM    100  C   UNL     1     -12.655  -4.577  18.213  1.00  0.00     0.002 A 
ATOM    101  C   UNL     1     -14.796  -3.881  17.311  1.00  0.00     0.091 A 
ATOM    102  F   UNL     1     -14.903  -3.050  15.077  1.00  0.00    -0.205 F 
ATOM    103  C   UNL     1     -14.031  -4.417  18.359  1.00  0.00     0.022 A 
BRANCH 101 104
ATOM    104  S   UNL     1     -16.548  -3.618  17.606  1.00  0.00     0.127 S 
ATOM    105  O   UNL     1     -17.098  -4.949  17.358  1.00  0.00    -0.237 OA
ATOM    106  O   UNL     1     -16.575  -3.200  19.009  1.00  0.00    -0.237 OA
ATOM    107  O   UNL     1     -16.953  -2.580  16.667  1.00  0.00    -0.744 OA
ENDBRANCH 101 104
ENDBRANCH  74  97
ENDBRANCH  48  49
ENDBRANCH  40  43
ENDBRANCH  38  39
ENDBRANCH  37  38
ENDBRANCH  36  37
ENDBRANCH   1  36
TORSDOF 21
