REMARK SMILES C[C@H]1[C@H](C(=O)NCCCCNC(=O)c2ccc(-c3c4nc(c(-c5cccc(S(=O)(=O)[O-])c5F)c5ccc([nH]5)c(-c5cccc(S(=O)(=O)[O-])c5F)c5nc(c(-c6cccc(S(=O)(=O)[O-])c6F)c6ccc3[nH]6)C=C5)C=C4)cc2)CCN1c1ncnc2sccc12
REMARK SMILES IDX 9 1 8 2 7 3 6 4 4 5 5 6 3 8 1 9 2 10 79 11 77 12 78 13 80 14
REMARK SMILES IDX 81 15 88 16 82 17 84 18 87 19 83 20 85 21 86 22 10 23 11 24
REMARK SMILES IDX 12 25 13 27 14 28 15 29 76 30 16 31 75 32 17 33 18 34 19 35
REMARK SMILES IDX 69 36 20 37 74 38 68 39 70 40 21 41 73 42 67 43 66 44 22 46
REMARK SMILES IDX 54 47 34 48 53 49 35 50 38 51 52 52 71 53 36 54 37 55 51 57
REMARK SMILES IDX 72 58 39 59 23 60 24 61 32 62 25 63 27 64 33 65 26 66 28 67
REMARK SMILES IDX 29 68 30 69 31 70 55 71 56 72 64 73 57 74 59 75 65 76 58 77
REMARK SMILES IDX 60 78 61 79 62 80 63 81 40 82 41 83 49 84 42 85 44 86 50 87
REMARK SMILES IDX 43 88 45 89 46 90 47 91 48 92
REMARK H PARENT 6 7 11 26 70 45 38 56
REMARK Flexibility Score: inf
ROOT
ATOM      1  C   UNL     1       0.127   0.635   5.252  1.00  0.00     0.023 C 
ENDROOT
BRANCH   1   2
ATOM      2  C   UNL     1       0.040  -0.087   3.907  1.00  0.00     0.023 C 
BRANCH   2   3
ATOM      3  C   UNL     1      -0.922   0.551   2.908  1.00  0.00     0.116 C 
BRANCH   3   4
ATOM      4  N   UNL     1      -0.421   1.815   2.398  1.00  0.00    -0.356 N 
ATOM      5  C   UNL     1       0.031   2.161   1.163  1.00  0.00     0.225 C 
ATOM      6  O   UNL     1       0.430   3.318   1.004  1.00  0.00    -0.275 OA
ATOM      7  H   UNL     1      -0.407   2.545   3.058  1.00  0.00     0.163 HD
BRANCH   5   8
ATOM      8  C   UNL     1       0.024   1.200  -0.016  1.00  0.00     0.102 C 
ATOM      9  C   UNL     1       2.043  -0.116  -0.750  1.00  0.00     0.032 C 
ATOM     10  C   UNL     1       0.864  -0.060   0.223  1.00  0.00     0.093 C 
ATOM     11  N   UNL     1      -0.061  -1.180  -0.002  1.00  0.00    -0.352 N 
ATOM     12  C   UNL     1      -1.379   0.752  -0.407  1.00  0.00     0.037 C 
ATOM     13  C   UNL     1      -1.327  -0.761  -0.563  1.00  0.00     0.119 C 
BRANCH  11  14
ATOM     14  C   UNL     1       0.234  -2.446   0.460  1.00  0.00     0.141 A 
ATOM     15  N   UNL     1       1.405  -2.595   1.137  1.00  0.00    -0.219 NA
ATOM     16  C   UNL     1      -0.577  -3.608   0.322  1.00  0.00     0.054 A 
ATOM     17  C   UNL     1       1.755  -3.786   1.639  1.00  0.00     0.225 A 
ATOM     18  C   UNL     1      -0.089  -4.772   0.908  1.00  0.00     0.128 A 
ATOM     19  C   UNL     1      -1.841  -3.891  -0.314  1.00  0.00     0.026 A 
ATOM     20  N   UNL     1       1.067  -4.921   1.570  1.00  0.00    -0.225 NA
ATOM     21  S   UNL     1      -1.131  -6.112   0.730  1.00  0.00    -0.124 S 
ATOM     22  C   UNL     1      -2.263  -5.192  -0.147  1.00  0.00     0.068 A 
ENDBRANCH  11  14
ENDBRANCH   5   8
ENDBRANCH   3   4
ENDBRANCH   2   3
ENDBRANCH   1   2
BRANCH   1  23
ATOM     23  C   UNL     1      -1.198   0.802   5.987  1.00  0.00     0.116 C 
BRANCH  23  24
ATOM     24  N   UNL     1      -1.883  -0.460   6.229  1.00  0.00    -0.352 N 
ATOM     25  C   UNL     1      -2.533  -0.880   7.366  1.00  0.00     0.251 C 
ATOM     26  H   UNL     1      -1.881  -1.098   5.479  1.00  0.00     0.163 HD
ATOM     27  O   UNL     1      -2.965  -2.026   7.444  1.00  0.00    -0.269 OA
BRANCH  25  28
ATOM     28  C   UNL     1      -2.677   0.051   8.504  1.00  0.00     0.039 A 
ATOM     29  C   UNL     1      -2.313  -0.381   9.781  1.00  0.00     0.014 A 
ATOM     30  C   UNL     1      -3.128   1.358   8.301  1.00  0.00     0.014 A 
ATOM     31  C   UNL     1      -2.336   0.521  10.847  1.00  0.00     0.010 A 
ATOM     32  C   UNL     1      -3.079   2.273   9.348  1.00  0.00     0.010 A 
ATOM     33  C   UNL     1      -2.684   1.865  10.631  1.00  0.00    -0.014 A 
BRANCH  33  34
ATOM     34  C   UNL     1      -2.623   2.864  11.728  1.00  0.00     0.031 A 
ATOM     35  C   UNL     1      -3.872   3.570  12.181  1.00  0.00     0.074 A 
ATOM     36  C   UNL     1      -1.428   3.206  12.251  1.00  0.00     0.049 A 
ATOM     37  N   UNL     1      -4.007   4.512  13.078  1.00  0.00    -0.248 NA
ATOM     38  C   UNL     1      -5.131   3.190  11.518  1.00  0.00     0.031 C 
ATOM     39  C   UNL     1      -0.134   2.658  11.836  1.00  0.00     0.029 A 
ATOM     40  N   UNL     1      -1.103   4.117  13.225  1.00  0.00    -0.354 N 
ATOM     41  C   UNL     1      -5.351   4.862  13.062  1.00  0.00     0.074 A 
ATOM     42  C   UNL     1      -5.985   4.057  12.042  1.00  0.00     0.031 C 
ATOM     43  C   UNL     1       0.841   3.240  12.552  1.00  0.00     0.029 A 
ATOM     44  C   UNL     1       0.249   4.221  13.456  1.00  0.00     0.049 A 
ATOM     45  H   UNL     1      -1.775   4.647  13.712  1.00  0.00     0.167 HD
ATOM     46  C   UNL     1      -6.006   5.750  13.847  1.00  0.00     0.034 A 
ATOM     47  C   UNL     1       0.935   5.018  14.298  1.00  0.00     0.034 A 
ATOM     48  C   UNL     1      -5.383   6.512  14.895  1.00  0.00     0.049 A 
ATOM     49  C   UNL     1       0.176   5.959  15.195  1.00  0.00     0.074 A 
ATOM     50  C   UNL     1      -5.976   7.364  15.809  1.00  0.00     0.029 A 
ATOM     51  N   UNL     1      -4.023   6.520  15.165  1.00  0.00    -0.354 N 
ATOM     52  N   UNL     1      -1.117   6.152  15.283  1.00  0.00    -0.248 NA
ATOM     53  C   UNL     1       0.968   6.765  16.136  1.00  0.00     0.031 C 
ATOM     54  C   UNL     1      -4.972   7.902  16.620  1.00  0.00     0.029 A 
ATOM     55  C   UNL     1      -3.756   7.368  16.227  1.00  0.00     0.049 A 
ATOM     56  H   UNL     1      -3.347   5.999  14.675  1.00  0.00     0.167 HD
ATOM     57  C   UNL     1      -1.297   7.073  16.309  1.00  0.00     0.074 A 
ATOM     58  C   UNL     1       0.019   7.382  16.827  1.00  0.00     0.031 C 
ATOM     59  C   UNL     1      -2.447   7.624  16.769  1.00  0.00     0.034 A 
BRANCH  46  60
ATOM     60  C   UNL     1      -7.492   5.901  13.643  1.00  0.00     0.023 A 
ATOM     61  C   UNL     1      -8.355   4.859  14.042  1.00  0.00     0.012 A 
ATOM     62  C   UNL     1      -8.037   7.086  13.114  1.00  0.00     0.148 A 
ATOM     63  C   UNL     1      -9.735   4.980  13.885  1.00  0.00     0.002 A 
ATOM     64  C   UNL     1      -9.417   7.217  13.002  1.00  0.00     0.091 A 
ATOM     65  F   UNL     1      -7.201   8.056  12.720  1.00  0.00    -0.205 F 
ATOM     66  C   UNL     1     -10.266   6.162  13.375  1.00  0.00     0.022 A 
BRANCH  64  67
ATOM     67  S   UNL     1     -10.204   8.727  12.430  1.00  0.00     0.127 S 
ATOM     68  O   UNL     1     -10.688   8.326  11.110  1.00  0.00    -0.237 OA
ATOM     69  O   UNL     1     -11.254   8.925  13.430  1.00  0.00    -0.237 OA
ATOM     70  O   UNL     1      -9.164   9.747  12.433  1.00  0.00    -0.744 OA
ENDBRANCH  64  67
ENDBRANCH  46  60
BRANCH  47  71
ATOM     71  C   UNL     1       2.419   4.908  14.386  1.00  0.00     0.023 A 
ATOM     72  C   UNL     1       3.002   4.349  15.540  1.00  0.00     0.012 A 
ATOM     73  C   UNL     1       3.251   5.324  13.329  1.00  0.00     0.148 A 
ATOM     74  C   UNL     1       4.388   4.235  15.653  1.00  0.00     0.002 A 
ATOM     75  C   UNL     1       4.628   5.157  13.426  1.00  0.00     0.091 A 
ATOM     76  F   UNL     1       2.678   5.864  12.244  1.00  0.00    -0.205 F 
ATOM     77  C   UNL     1       5.200   4.630  14.594  1.00  0.00     0.022 A 
BRANCH  75  78
ATOM     78  S   UNL     1       5.739   5.515  12.060  1.00  0.00     0.127 S 
ATOM     79  O   UNL     1       6.413   6.722  12.531  1.00  0.00    -0.237 OA
ATOM     80  O   UNL     1       6.575   4.314  12.027  1.00  0.00    -0.237 OA
ATOM     81  O   UNL     1       4.883   5.680  10.893  1.00  0.00    -0.744 OA
ENDBRANCH  75  78
ENDBRANCH  47  71
BRANCH  59  82
ATOM     82  C   UNL     1      -2.346   8.597  17.915  1.00  0.00     0.023 A 
ATOM     83  C   UNL     1      -1.825   9.887  17.693  1.00  0.00     0.012 A 
ATOM     84  C   UNL     1      -2.840   8.260  19.191  1.00  0.00     0.148 A 
ATOM     85  C   UNL     1      -1.767  10.816  18.732  1.00  0.00     0.002 A 
ATOM     86  C   UNL     1      -2.824   9.207  20.208  1.00  0.00     0.091 A 
ATOM     87  F   UNL     1      -3.315   7.021  19.386  1.00  0.00    -0.205 F 
ATOM     88  C   UNL     1      -2.278  10.480  19.984  1.00  0.00     0.022 A 
BRANCH  86  89
ATOM     89  S   UNL     1      -3.547   8.895  21.823  1.00  0.00     0.127 S 
ATOM     90  O   UNL     1      -2.357   8.742  22.658  1.00  0.00    -0.237 OA
ATOM     91  O   UNL     1      -4.309  10.121  22.064  1.00  0.00    -0.237 OA
ATOM     92  O   UNL     1      -4.364   7.698  21.671  1.00  0.00    -0.744 OA
ENDBRANCH  86  89
ENDBRANCH  59  82
ENDBRANCH  33  34
ENDBRANCH  25  28
ENDBRANCH  23  24
ENDBRANCH   1  23
TORSDOF 15
