REMARK SMILES CCc1ccc(S(=O)(=O)c2nnn(-c3ccc(C(=O)NCCCCNC(=O)c4ccc(-c5c6nc(c(-c7cccc(S(=O)(=O)[O-])c7F)c7ccc([nH]7)c(-c7cccc(S(=O)(=O)[O-])c7F)c7nc(c(-c8cccc(S(=O)(=O)[O-])c8F)c8ccc5[nH]8)C=C7)C=C6)cc4)cc3)c2C)cc1
REMARK SMILES IDX 22 1 21 2 20 3 18 4 19 5 17 7 14 8 15 9 92 10 16 11 91 12
REMARK SMILES IDX 13 13 10 14 11 15 93 16 12 17 94 18 7 19 8 20 9 21 6 22 3 23
REMARK SMILES IDX 4 24 96 25 5 26 95 27 2 28 1 29 23 30 24 31 25 32 26 33
REMARK SMILES IDX 27 35 28 36 29 37 90 38 30 39 89 40 31 41 32 42 33 43 83 44
REMARK SMILES IDX 34 45 88 46 82 47 84 48 35 49 87 50 81 51 80 52 36 54 68 55
REMARK SMILES IDX 48 56 67 57 49 58 52 59 66 60 85 61 50 62 51 63 65 65 86 66
REMARK SMILES IDX 53 67 37 68 38 69 46 70 39 71 41 72 47 73 40 74 42 75 43 76
REMARK SMILES IDX 44 77 45 78 69 79 70 80 78 81 71 82 73 83 79 84 72 85 74 86
REMARK SMILES IDX 75 87 76 88 77 89 54 90 55 91 63 92 56 93 58 94 64 95 57 96
REMARK SMILES IDX 59 97 60 98 61 99 62 100
REMARK H PARENT 20 6 25 34 84 53 52 64
REMARK Flexibility Score: inf
ROOT
ATOM      1  C   UNL     1      -5.273  11.805   5.131  1.00  0.00     0.023 C 
ENDROOT
BRANCH   1   2
ATOM      2  C   UNL     1      -5.668  10.404   4.641  1.00  0.00     0.116 C 
BRANCH   2   3
ATOM      3  N   UNL     1      -6.339  10.468   3.355  1.00  0.00    -0.352 N 
ATOM      4  C   UNL     1      -5.903  10.336   2.059  1.00  0.00     0.251 C 
ATOM      5  O   UNL     1      -6.726  10.480   1.155  1.00  0.00    -0.269 OA
ATOM      6  H   UNL     1      -7.306  10.641   3.426  1.00  0.00     0.163 HD
BRANCH   4   7
ATOM      7  C   UNL     1      -4.502   9.989   1.691  1.00  0.00     0.039 A 
ATOM      8  C   UNL     1      -1.960   9.080   0.963  1.00  0.00     0.067 A 
ATOM      9  C   UNL     1      -3.019   8.904   0.074  1.00  0.00     0.029 A 
ATOM     10  C   UNL     1      -2.132   9.797   2.148  1.00  0.00     0.029 A 
ATOM     11  C   UNL     1      -4.294   9.332   0.462  1.00  0.00     0.016 A 
ATOM     12  C   UNL     1      -3.392  10.287   2.482  1.00  0.00     0.016 A 
BRANCH   8  13
ATOM     13  N   UNL     1      -0.718   8.472   0.719  1.00  0.00    -0.216 N 
ATOM     14  C   UNL     1       1.186   7.450   0.910  1.00  0.00     0.205 A 
ATOM     15  N   UNL     1       1.117   8.017  -0.336  1.00  0.00    -0.117 NA
ATOM     16  C   UNL     1      -0.005   7.660   1.581  1.00  0.00     0.081 A 
ATOM     17  N   UNL     1      -0.085   8.567  -0.469  1.00  0.00    -0.061 NA
ATOM     18  C   UNL     1      -0.575   7.061   2.816  1.00  0.00     0.070 C 
BRANCH  14  19
ATOM     19  S   UNL     1       2.503   6.441   1.389  1.00  0.00     0.227 S 
ATOM     20  O   UNL     1       2.707   6.766   2.794  1.00  0.00    -0.217 OA
ATOM     21  O   UNL     1       3.539   6.623   0.400  1.00  0.00    -0.217 OA
BRANCH  19  22
ATOM     22  C   UNL     1       1.938   4.764   1.297  1.00  0.00     0.073 A 
ATOM     23  C   UNL     1       1.068   2.108   1.278  1.00  0.00    -0.048 A 
ATOM     24  C   UNL     1       2.283   2.450   1.889  1.00  0.00     0.005 A 
ATOM     25  C   UNL     1       0.298   3.108   0.672  1.00  0.00     0.005 A 
ATOM     26  C   UNL     1       2.714   3.777   1.909  1.00  0.00     0.021 A 
ATOM     27  C   UNL     1       0.734   4.431   0.668  1.00  0.00     0.021 A 
BRANCH  23  28
ATOM     28  C   UNL     1       0.608   0.673   1.224  1.00  0.00     0.032 C 
ATOM     29  C   UNL     1       1.063  -0.001  -0.061  1.00  0.00     0.009 C 
ENDBRANCH  23  28
ENDBRANCH  19  22
ENDBRANCH  14  19
ENDBRANCH   8  13
ENDBRANCH   4   7
ENDBRANCH   2   3
ENDBRANCH   1   2
BRANCH   1  30
ATOM     30  C   UNL     1      -6.433  12.663   5.654  1.00  0.00     0.023 C 
BRANCH  30  31
ATOM     31  C   UNL     1      -7.057  12.168   6.955  1.00  0.00     0.116 C 
BRANCH  31  32
ATOM     32  N   UNL     1      -6.106  12.160   8.066  1.00  0.00    -0.352 N 
ATOM     33  C   UNL     1      -6.231  11.531   9.288  1.00  0.00     0.251 C 
ATOM     34  H   UNL     1      -5.273  12.666   7.925  1.00  0.00     0.163 HD
ATOM     35  O   UNL     1      -5.581  11.912  10.257  1.00  0.00    -0.269 OA
BRANCH  33  36
ATOM     36  C   UNL     1      -7.153  10.390   9.410  1.00  0.00     0.039 A 
ATOM     37  C   UNL     1      -8.015  10.278  10.502  1.00  0.00     0.014 A 
ATOM     38  C   UNL     1      -7.173   9.447   8.384  1.00  0.00     0.014 A 
ATOM     39  C   UNL     1      -8.965   9.261  10.504  1.00  0.00     0.010 A 
ATOM     40  C   UNL     1      -8.188   8.520   8.327  1.00  0.00     0.010 A 
ATOM     41  C   UNL     1      -9.070   8.401   9.397  1.00  0.00    -0.014 A 
BRANCH  41  42
ATOM     42  C   UNL     1     -10.214   7.496   9.283  1.00  0.00     0.031 A 
ATOM     43  C   UNL     1     -11.533   8.160   9.465  1.00  0.00     0.074 A 
ATOM     44  C   UNL     1     -10.129   6.216   8.855  1.00  0.00     0.049 A 
ATOM     45  N   UNL     1     -12.339   8.025  10.466  1.00  0.00    -0.248 NA
ATOM     46  C   UNL     1     -11.933   9.215   8.519  1.00  0.00     0.031 C 
ATOM     47  C   UNL     1      -8.939   5.515   8.361  1.00  0.00     0.029 A 
ATOM     48  N   UNL     1     -11.124   5.310   8.633  1.00  0.00    -0.354 N 
ATOM     49  C   UNL     1     -13.473   8.760  10.131  1.00  0.00     0.074 A 
ATOM     50  C   UNL     1     -13.075   9.641   9.066  1.00  0.00     0.031 C 
ATOM     51  C   UNL     1      -9.319   4.425   7.660  1.00  0.00     0.029 A 
ATOM     52  C   UNL     1     -10.752   4.258   7.798  1.00  0.00     0.049 A 
ATOM     53  H   UNL     1     -12.023   5.392   9.026  1.00  0.00     0.167 HD
ATOM     54  C   UNL     1     -14.707   8.359  10.547  1.00  0.00     0.034 A 
ATOM     55  C   UNL     1     -11.567   3.339   7.221  1.00  0.00     0.034 A 
ATOM     56  C   UNL     1     -14.611   7.386  11.611  1.00  0.00     0.049 A 
ATOM     57  C   UNL     1     -12.815   3.300   8.014  1.00  0.00     0.074 A 
ATOM     58  C   UNL     1     -13.974   7.329  12.836  1.00  0.00     0.029 A 
ATOM     59  N   UNL     1     -14.922   6.086  11.293  1.00  0.00    -0.354 N 
ATOM     60  N   UNL     1     -12.871   2.849   9.235  1.00  0.00    -0.248 NA
ATOM     61  C   UNL     1     -13.917   4.154   7.608  1.00  0.00     0.031 C 
ATOM     62  C   UNL     1     -13.501   5.986  12.940  1.00  0.00     0.029 A 
ATOM     63  C   UNL     1     -13.947   5.285  11.819  1.00  0.00     0.049 A 
ATOM     64  H   UNL     1     -15.706   5.785  10.780  1.00  0.00     0.167 HD
ATOM     65  C   UNL     1     -13.707   3.745   9.884  1.00  0.00     0.074 A 
ATOM     66  C   UNL     1     -14.420   4.439   8.812  1.00  0.00     0.031 C 
ATOM     67  C   UNL     1     -13.519   4.050  11.203  1.00  0.00     0.034 A 
BRANCH  54  68
ATOM     68  C   UNL     1     -15.981   8.492   9.732  1.00  0.00     0.023 A 
ATOM     69  C   UNL     1     -17.186   8.101  10.362  1.00  0.00     0.012 A 
ATOM     70  C   UNL     1     -16.025   8.667   8.330  1.00  0.00     0.148 A 
ATOM     71  C   UNL     1     -18.340   7.809   9.627  1.00  0.00     0.002 A 
ATOM     72  C   UNL     1     -17.197   8.457   7.613  1.00  0.00     0.091 A 
ATOM     73  F   UNL     1     -14.906   8.907   7.644  1.00  0.00    -0.205 F 
ATOM     74  C   UNL     1     -18.347   7.989   8.250  1.00  0.00     0.022 A 
BRANCH  72  75
ATOM     75  S   UNL     1     -17.272   8.720   5.836  1.00  0.00     0.127 S 
ATOM     76  O   UNL     1     -17.327   7.348   5.343  1.00  0.00    -0.237 OA
ATOM     77  O   UNL     1     -18.513   9.482   5.702  1.00  0.00    -0.237 OA
ATOM     78  O   UNL     1     -16.070   9.474   5.502  1.00  0.00    -0.744 OA
ENDBRANCH  72  75
ENDBRANCH  54  68
BRANCH  55  79
ATOM     79  C   UNL     1     -11.444   2.623   5.930  1.00  0.00     0.023 A 
ATOM     80  C   UNL     1     -12.212   1.464   5.698  1.00  0.00     0.012 A 
ATOM     81  C   UNL     1     -10.803   3.227   4.826  1.00  0.00     0.148 A 
ATOM     82  C   UNL     1     -12.376   0.951   4.406  1.00  0.00     0.002 A 
ATOM     83  C   UNL     1     -10.961   2.709   3.544  1.00  0.00     0.091 A 
ATOM     84  F   UNL     1     -10.118   4.362   5.018  1.00  0.00    -0.205 F 
ATOM     85  C   UNL     1     -11.760   1.579   3.327  1.00  0.00     0.022 A 
BRANCH  83  86
ATOM     86  S   UNL     1     -10.209   3.480   2.105  1.00  0.00     0.127 S 
ATOM     87  O   UNL     1      -9.611   2.332   1.421  1.00  0.00    -0.237 OA
ATOM     88  O   UNL     1     -11.367   4.060   1.431  1.00  0.00    -0.237 OA
ATOM     89  O   UNL     1      -9.237   4.433   2.628  1.00  0.00    -0.744 OA
ENDBRANCH  83  86
ENDBRANCH  55  79
BRANCH  67  90
ATOM     90  C   UNL     1     -12.599   3.172  12.015  1.00  0.00     0.023 A 
ATOM     91  C   UNL     1     -11.240   2.977  11.690  1.00  0.00     0.012 A 
ATOM     92  C   UNL     1     -13.090   2.632  13.216  1.00  0.00     0.148 A 
ATOM     93  C   UNL     1     -10.404   2.226  12.523  1.00  0.00     0.002 A 
ATOM     94  C   UNL     1     -12.246   1.928  14.064  1.00  0.00     0.091 A 
ATOM     95  F   UNL     1     -14.383   2.827  13.518  1.00  0.00    -0.205 F 
ATOM     96  C   UNL     1     -10.904   1.710  13.715  1.00  0.00     0.022 A 
BRANCH  94  97
ATOM     97  S   UNL     1     -12.812   1.344  15.662  1.00  0.00     0.127 S 
ATOM     98  O   UNL     1     -13.071  -0.069  15.397  1.00  0.00    -0.237 OA
ATOM     99  O   UNL     1     -11.657   1.603  16.523  1.00  0.00    -0.237 OA
ATOM    100  O   UNL     1     -13.982   2.151  15.986  1.00  0.00    -0.744 OA
ENDBRANCH  94  97
ENDBRANCH  67  90
ENDBRANCH  41  42
ENDBRANCH  33  36
ENDBRANCH  31  32
ENDBRANCH  30  31
ENDBRANCH   1  30
TORSDOF 18
