REMARK SMILES CC/C=C/C/C=C/C/C=C/C/C=C/CC/C=C/COCC(=O)NCCCCNC(=O)c1ccc(-c2c3nc(c(-c4cccc(S(=O)(=O)[O-])c4F)c4ccc([nH]4)c(-c4cccc(S(=O)(=O)[O-])c4F)c4nc(c(-c5cccc(S(=O)(=O)[O-])c5F)c5ccc2[nH]5)C=C4)C=C3)cc1
REMARK SMILES IDX 18 1 17 2 16 3 15 4 14 5 13 6 12 7 11 8 10 9 9 10 8 11 7 12
REMARK SMILES IDX 6 13 5 14 4 15 3 16 2 17 1 18 19 19 20 20 21 21 22 22 23 23
REMARK SMILES IDX 24 25 25 26 26 27 27 28 28 29 29 30 30 32 31 33 32 34 93 35
REMARK SMILES IDX 33 36 92 37 34 38 35 39 36 40 86 41 37 42 91 43 85 44 87 45
REMARK SMILES IDX 38 46 90 47 84 48 83 49 39 51 71 52 51 53 70 54 52 55 55 56
REMARK SMILES IDX 69 57 88 58 53 59 54 60 68 62 89 63 56 64 40 65 41 66 49 67
REMARK SMILES IDX 42 68 44 69 50 70 43 71 45 72 46 73 47 74 48 75 72 76 73 77
REMARK SMILES IDX 81 78 74 79 76 80 82 81 75 82 77 83 78 84 79 85 80 86 57 87
REMARK SMILES IDX 58 88 66 89 59 90 61 91 67 92 60 93 62 94 63 95 64 96 65 97
REMARK H PARENT 23 24 28 31 87 50 55 61
REMARK Flexibility Score: inf
ROOT
ATOM      1  C   UNL     1      -7.909  14.078  -5.233  1.00  0.00     0.188 C 
ENDROOT
BRANCH   1   2
ATOM      2  C   UNL     1      -7.313  13.732  -3.904  1.00  0.00    -0.003 C 
ATOM      3  C   UNL     1      -6.499  12.680  -3.722  1.00  0.00    -0.029 C 
BRANCH   3   4
ATOM      4  C   UNL     1      -5.992  12.212  -2.387  1.00  0.00     0.031 C 
BRANCH   4   5
ATOM      5  C   UNL     1      -6.574  10.846  -1.984  1.00  0.00     0.031 C 
BRANCH   5   6
ATOM      6  C   UNL     1      -6.131   9.728  -2.888  1.00  0.00    -0.031 C 
ATOM      7  C   UNL     1      -5.326   8.723  -2.512  1.00  0.00    -0.027 C 
BRANCH   7   8
ATOM      8  C   UNL     1      -4.847   7.646  -3.445  1.00  0.00     0.054 C 
BRANCH   8   9
ATOM      9  C   UNL     1      -3.346   7.626  -3.492  1.00  0.00    -0.027 C 
ATOM     10  C   UNL     1      -2.595   6.566  -3.152  1.00  0.00    -0.027 C 
BRANCH  10  11
ATOM     11  C   UNL     1      -1.094   6.559  -3.167  1.00  0.00     0.054 C 
BRANCH  11  12
ATOM     12  C   UNL     1      -0.559   6.251  -1.797  1.00  0.00    -0.027 C 
ATOM     13  C   UNL     1       0.210   5.187  -1.510  1.00  0.00    -0.027 C 
BRANCH  13  14
ATOM     14  C   UNL     1       0.718   4.859  -0.137  1.00  0.00     0.054 C 
BRANCH  14  15
ATOM     15  C   UNL     1       0.241   3.502   0.297  1.00  0.00    -0.027 C 
ATOM     16  C   UNL     1       1.055   2.475   0.593  1.00  0.00    -0.031 C 
BRANCH  16  17
ATOM     17  C   UNL     1       0.571   1.116   1.005  1.00  0.00     0.023 C 
ATOM     18  C   UNL     1       1.044   0.044   0.035  1.00  0.00     0.008 C 
ENDBRANCH  16  17
ENDBRANCH  14  15
ENDBRANCH  13  14
ENDBRANCH  11  12
ENDBRANCH  10  11
ENDBRANCH   8   9
ENDBRANCH   7   8
ENDBRANCH   5   6
ENDBRANCH   4   5
ENDBRANCH   3   4
ENDBRANCH   1   2
BRANCH   1  19
ATOM     19  O   UNL     1      -9.336  14.016  -5.166  1.00  0.00    -0.368 OA
BRANCH  19  20
ATOM     20  C   UNL     1      -9.844  12.705  -4.943  1.00  0.00     0.260 C 
BRANCH  20  21
ATOM     21  C   UNL     1      -9.475  11.620  -5.962  1.00  0.00     0.246 C 
ATOM     22  O   UNL     1      -8.844  10.614  -5.636  1.00  0.00    -0.272 OA
ATOM     23  N   UNL     1      -9.883  11.763  -7.258  1.00  0.00    -0.354 N 
ATOM     24  H   UNL     1      -9.630  11.037  -7.872  1.00  0.00     0.163 HD
BRANCH  23  25
ATOM     25  C   UNL     1     -10.643  12.852  -7.840  1.00  0.00     0.116 C 
BRANCH  25  26
ATOM     26  C   UNL     1      -9.810  13.680  -8.816  1.00  0.00     0.023 C 
BRANCH  26  27
ATOM     27  C   UNL     1      -9.308  12.920 -10.048  1.00  0.00     0.023 C 
BRANCH  27  28
ATOM     28  C   UNL     1     -10.374  12.193 -10.863  1.00  0.00     0.116 C 
BRANCH  28  29
ATOM     29  N   UNL     1     -11.418  13.077 -11.365  1.00  0.00    -0.352 N 
ATOM     30  C   UNL     1     -11.946  13.166 -12.632  1.00  0.00     0.251 C 
ATOM     31  H   UNL     1     -11.798  13.698 -10.703  1.00  0.00     0.163 HD
ATOM     32  O   UNL     1     -12.755  14.052 -12.899  1.00  0.00    -0.269 OA
BRANCH  30  33
ATOM     33  C   UNL     1     -11.510  12.221 -13.682  1.00  0.00     0.039 A 
ATOM     34  C   UNL     1     -11.084  12.731 -14.912  1.00  0.00     0.014 A 
ATOM     35  C   UNL     1     -11.481  10.844 -13.442  1.00  0.00     0.014 A 
ATOM     36  C   UNL     1     -10.533  11.870 -15.865  1.00  0.00     0.010 A 
ATOM     37  C   UNL     1     -10.880   9.996 -14.370  1.00  0.00     0.010 A 
ATOM     38  C   UNL     1     -10.377  10.503 -15.579  1.00  0.00    -0.014 A 
BRANCH  38  39
ATOM     39  C   UNL     1      -9.610   9.606 -16.481  1.00  0.00     0.031 A 
ATOM     40  C   UNL     1     -10.276   8.442 -17.159  1.00  0.00     0.074 A 
ATOM     41  C   UNL     1      -8.275   9.770 -16.584  1.00  0.00     0.049 A 
ATOM     42  N   UNL     1      -9.740   7.504 -17.895  1.00  0.00    -0.248 NA
ATOM     43  C   UNL     1     -11.728   8.301 -16.968  1.00  0.00     0.031 C 
ATOM     44  C   UNL     1      -7.498  10.812 -15.909  1.00  0.00     0.029 A 
ATOM     45  N   UNL     1      -7.330   9.039 -17.261  1.00  0.00    -0.354 N 
ATOM     46  C   UNL     1     -10.778   6.642 -18.229  1.00  0.00     0.074 A 
ATOM     47  C   UNL     1     -11.973   7.160 -17.597  1.00  0.00     0.031 C 
ATOM     48  C   UNL     1      -6.197  10.646 -16.194  1.00  0.00     0.029 A 
ATOM     49  C   UNL     1      -6.041   9.471 -17.044  1.00  0.00     0.049 A 
ATOM     50  H   UNL     1      -7.553   8.278 -17.845  1.00  0.00     0.167 HD
ATOM     51  C   UNL     1     -10.743   5.537 -19.010  1.00  0.00     0.034 A 
ATOM     52  C   UNL     1      -4.864   8.969 -17.465  1.00  0.00     0.034 A 
ATOM     53  C   UNL     1      -9.562   5.049 -19.673  1.00  0.00     0.049 A 
ATOM     54  C   UNL     1      -4.857   7.751 -18.347  1.00  0.00     0.074 A 
ATOM     55  C   UNL     1      -9.453   4.007 -20.577  1.00  0.00     0.029 A 
ATOM     56  N   UNL     1      -8.285   5.557 -19.493  1.00  0.00    -0.354 N 
ATOM     57  N   UNL     1      -5.872   7.059 -18.802  1.00  0.00    -0.248 NA
ATOM     58  C   UNL     1      -3.545   7.260 -18.795  1.00  0.00     0.031 C 
ATOM     59  C   UNL     1      -8.105   3.871 -20.928  1.00  0.00     0.029 A 
ATOM     60  C   UNL     1      -7.378   4.837 -20.252  1.00  0.00     0.049 A 
ATOM     61  H   UNL     1      -8.057   6.319 -18.912  1.00  0.00     0.167 HD
ATOM     62  C   UNL     1      -5.326   6.065 -19.605  1.00  0.00     0.074 A 
ATOM     63  C   UNL     1      -3.891   6.262 -19.598  1.00  0.00     0.031 C 
ATOM     64  C   UNL     1      -5.956   5.066 -20.271  1.00  0.00     0.034 A 
BRANCH  51  65
ATOM     65  C   UNL     1     -12.037   4.806 -19.248  1.00  0.00     0.023 A 
ATOM     66  C   UNL     1     -12.997   5.369 -20.113  1.00  0.00     0.012 A 
ATOM     67  C   UNL     1     -12.275   3.539 -18.682  1.00  0.00     0.148 A 
ATOM     68  C   UNL     1     -14.185   4.695 -20.391  1.00  0.00     0.002 A 
ATOM     69  C   UNL     1     -13.446   2.856 -18.993  1.00  0.00     0.091 A 
ATOM     70  F   UNL     1     -11.360   3.030 -17.844  1.00  0.00    -0.205 F 
ATOM     71  C   UNL     1     -14.404   3.436 -19.840  1.00  0.00     0.022 A 
BRANCH  69  72
ATOM     72  S   UNL     1     -13.789   1.199 -18.388  1.00  0.00     0.127 S 
ATOM     73  O   UNL     1     -14.813   1.460 -17.378  1.00  0.00    -0.237 OA
ATOM     74  O   UNL     1     -14.277   0.525 -19.591  1.00  0.00    -0.237 OA
ATOM     75  O   UNL     1     -12.523   0.690 -17.881  1.00  0.00    -0.744 OA
ENDBRANCH  69  72
ENDBRANCH  51  65
BRANCH  52  76
ATOM     76  C   UNL     1      -3.593   9.654 -17.096  1.00  0.00     0.023 A 
ATOM     77  C   UNL     1      -2.874  10.351 -18.086  1.00  0.00     0.012 A 
ATOM     78  C   UNL     1      -3.116   9.656 -15.771  1.00  0.00     0.148 A 
ATOM     79  C   UNL     1      -1.691  11.019 -17.768  1.00  0.00     0.002 A 
ATOM     80  C   UNL     1      -1.967  10.369 -15.450  1.00  0.00     0.091 A 
ATOM     81  F   UNL     1      -3.804   8.971 -14.846  1.00  0.00    -0.205 F 
ATOM     82  C   UNL     1      -1.244  11.038 -16.449  1.00  0.00     0.022 A 
BRANCH  80  83
ATOM     83  S   UNL     1      -1.401  10.560 -13.755  1.00  0.00     0.127 S 
ATOM     84  O   UNL     1      -0.256   9.655 -13.717  1.00  0.00    -0.237 OA
ATOM     85  O   UNL     1      -1.065  11.983 -13.703  1.00  0.00    -0.237 OA
ATOM     86  O   UNL     1      -2.538  10.187 -12.923  1.00  0.00    -0.744 OA
ENDBRANCH  80  83
ENDBRANCH  52  76
BRANCH  64  87
ATOM     87  C   UNL     1      -5.102   4.101 -21.052  1.00  0.00     0.023 A 
ATOM     88  C   UNL     1      -4.348   3.132 -20.361  1.00  0.00     0.012 A 
ATOM     89  C   UNL     1      -5.104   4.103 -22.460  1.00  0.00     0.148 A 
ATOM     90  C   UNL     1      -3.590   2.193 -21.059  1.00  0.00     0.002 A 
ATOM     91  C   UNL     1      -4.380   3.137 -23.150  1.00  0.00     0.091 A 
ATOM     92  F   UNL     1      -5.813   5.045 -23.098  1.00  0.00    -0.205 F 
ATOM     93  C   UNL     1      -3.615   2.188 -22.452  1.00  0.00     0.022 A 
BRANCH  91  94
ATOM     94  S   UNL     1      -4.420   2.997 -24.941  1.00  0.00     0.127 S 
ATOM     95  O   UNL     1      -3.089   3.478 -25.307  1.00  0.00    -0.237 OA
ATOM     96  O   UNL     1      -4.624   1.562 -25.137  1.00  0.00    -0.237 OA
ATOM     97  O   UNL     1      -5.529   3.831 -25.383  1.00  0.00    -0.744 OA
ENDBRANCH  91  94
ENDBRANCH  64  87
ENDBRANCH  38  39
ENDBRANCH  30  33
ENDBRANCH  28  29
ENDBRANCH  27  28
ENDBRANCH  26  27
ENDBRANCH  25  26
ENDBRANCH  23  25
ENDBRANCH  20  21
ENDBRANCH  19  20
ENDBRANCH   1  19
TORSDOF 27
