REMARK SMILES COC[C@H]1CCN(C(=O)N2CC[C@H](C(=O)NCCCCNC(=O)c3ccc(-c4c5nc(c(-c6cccc(S(=O)(=O)[O-])c6F)c6ccc([nH]6)c(-c6cccc(S(=O)(=O)[O-])c6F)c6nc(c(-c7cccc(S(=O)(=O)[O-])c7F)c7ccc4[nH]7)C=C6)C=C5)cc3)[C@@H]2C)C1
REMARK SMILES IDX 18 1 17 2 16 3 14 4 15 5 13 7 10 8 11 9 87 10 12 11 88 12
REMARK SMILES IDX 8 13 9 14 7 15 4 16 5 17 89 18 6 19 3 20 2 21 1 22 19 23
REMARK SMILES IDX 20 24 21 25 22 26 23 28 24 29 25 30 86 31 26 32 85 33 27 34
REMARK SMILES IDX 28 35 29 36 79 37 30 38 84 39 78 40 80 41 31 42 83 43 77 44
REMARK SMILES IDX 76 45 32 47 64 48 44 49 63 50 45 51 48 52 62 53 81 54 46 55
REMARK SMILES IDX 47 56 61 58 82 59 49 60 33 61 34 62 42 63 35 64 37 65 43 66
REMARK SMILES IDX 36 67 38 68 39 69 40 70 41 71 65 72 66 73 74 74 67 75 69 76
REMARK SMILES IDX 75 77 68 78 70 79 71 80 72 81 73 82 50 83 51 84 59 85 52 86
REMARK SMILES IDX 54 87 60 88 53 89 55 90 56 91 57 92 58 93
REMARK H PARENT 16 6 21 27 80 46 48 57
REMARK Flexibility Score: inf
ROOT
ATOM      1  C   UNL     1       0.450  -6.442   4.971  1.00  0.00     0.023 C 
ENDROOT
BRANCH   1   2
ATOM      2  C   UNL     1       1.501  -7.023   4.035  1.00  0.00     0.116 C 
BRANCH   2   3
ATOM      3  N   UNL     1       1.784  -8.421   4.282  1.00  0.00    -0.356 N 
ATOM      4  C   UNL     1       1.821  -9.480   3.429  1.00  0.00     0.225 C 
ATOM      5  O   UNL     1       2.204 -10.560   3.889  1.00  0.00    -0.275 OA
ATOM      6  H   UNL     1       1.981  -8.641   5.221  1.00  0.00     0.163 HD
BRANCH   4   7
ATOM      7  C   UNL     1       1.394  -9.403   1.966  1.00  0.00     0.102 C 
ATOM      8  N   UNL     1       1.269  -7.416   0.703  1.00  0.00    -0.321 N 
ATOM      9  C   UNL     1      -0.058  -7.995   0.641  1.00  0.00     0.122 C 
ATOM     10  C   UNL     1       2.208  -8.489   1.025  1.00  0.00     0.096 C 
ATOM     11  C   UNL     1      -0.079  -8.986   1.790  1.00  0.00     0.037 C 
ATOM     12  C   UNL     1       3.580  -8.047   1.522  1.00  0.00     0.032 C 
BRANCH   8  13
ATOM     13  C   UNL     1       1.622  -6.314  -0.036  1.00  0.00     0.320 C 
ATOM     14  O   UNL     1       2.549  -6.349  -0.843  1.00  0.00    -0.248 OA
BRANCH  13  15
ATOM     15  N   UNL     1       0.931  -5.152   0.229  1.00  0.00    -0.324 N 
ATOM     16  C   UNL     1       0.513  -2.814   0.212  1.00  0.00     0.036 C 
ATOM     17  C   UNL     1      -0.581  -3.538   0.996  1.00  0.00     0.029 C 
ATOM     18  C   UNL     1       1.228  -3.946  -0.532  1.00  0.00     0.127 C 
ATOM     19  C   UNL     1       0.119  -4.825   1.392  1.00  0.00     0.122 C 
BRANCH  16  20
ATOM     20  C   UNL     1      -0.022  -1.727  -0.710  1.00  0.00     0.165 C 
BRANCH  20  21
ATOM     21  O   UNL     1       0.970  -1.232  -1.606  1.00  0.00    -0.384 OA
ATOM     22  C   UNL     1       1.968  -0.443  -0.973  1.00  0.00     0.194 C 
ENDBRANCH  20  21
ENDBRANCH  16  20
ENDBRANCH  13  15
ENDBRANCH   8  13
ENDBRANCH   4   7
ENDBRANCH   2   3
ENDBRANCH   1   2
BRANCH   1  23
ATOM     23  C   UNL     1       0.904  -6.263   6.418  1.00  0.00     0.023 C 
BRANCH  23  24
ATOM     24  C   UNL     1       2.200  -5.482   6.614  1.00  0.00     0.116 C 
BRANCH  24  25
ATOM     25  N   UNL     1       2.186  -4.162   5.995  1.00  0.00    -0.352 N 
ATOM     26  C   UNL     1       2.612  -2.962   6.513  1.00  0.00     0.251 C 
ATOM     27  H   UNL     1       1.820  -4.125   5.082  1.00  0.00     0.163 HD
ATOM     28  O   UNL     1       2.431  -1.922   5.885  1.00  0.00    -0.269 OA
BRANCH  26  29
ATOM     29  C   UNL     1       3.256  -2.930   7.845  1.00  0.00     0.039 A 
ATOM     30  C   UNL     1       2.797  -2.016   8.797  1.00  0.00     0.014 A 
ATOM     31  C   UNL     1       4.274  -3.831   8.165  1.00  0.00     0.014 A 
ATOM     32  C   UNL     1       3.305  -2.063  10.098  1.00  0.00     0.010 A 
ATOM     33  C   UNL     1       4.725  -3.924   9.478  1.00  0.00     0.010 A 
ATOM     34  C   UNL     1       4.243  -3.044  10.460  1.00  0.00    -0.014 A 
BRANCH  34  35
ATOM     35  C   UNL     1       4.712  -3.188  11.863  1.00  0.00     0.031 A 
ATOM     36  C   UNL     1       6.164  -2.990  12.203  1.00  0.00     0.074 A 
ATOM     37  C   UNL     1       3.849  -3.601  12.813  1.00  0.00     0.049 A 
ATOM     38  N   UNL     1       6.767  -3.134  13.354  1.00  0.00    -0.248 NA
ATOM     39  C   UNL     1       7.061  -2.608  11.100  1.00  0.00     0.031 C 
ATOM     40  C   UNL     1       2.436  -3.919  12.594  1.00  0.00     0.029 A 
ATOM     41  N   UNL     1       4.040  -3.853  14.149  1.00  0.00    -0.354 N 
ATOM     42  C   UNL     1       8.115  -2.901  13.109  1.00  0.00     0.074 A 
ATOM     43  C   UNL     1       8.246  -2.638  11.692  1.00  0.00     0.031 C 
ATOM     44  C   UNL     1       1.889  -4.321  13.752  1.00  0.00     0.029 A 
ATOM     45  C   UNL     1       2.913  -4.311  14.792  1.00  0.00     0.049 A 
ATOM     46  H   UNL     1       4.902  -3.718  14.605  1.00  0.00     0.167 HD
ATOM     47  C   UNL     1       9.146  -2.875  13.986  1.00  0.00     0.034 A 
ATOM     48  C   UNL     1       2.725  -4.683  16.074  1.00  0.00     0.034 A 
ATOM     49  C   UNL     1       9.004  -3.079  15.402  1.00  0.00     0.049 A 
ATOM     50  C   UNL     1       3.873  -4.580  17.042  1.00  0.00     0.074 A 
ATOM     51  C   UNL     1       9.970  -2.972  16.388  1.00  0.00     0.029 A 
ATOM     52  N   UNL     1       7.824  -3.434  16.036  1.00  0.00    -0.354 N 
ATOM     53  N   UNL     1       5.104  -4.184  16.822  1.00  0.00    -0.248 NA
ATOM     54  C   UNL     1       3.599  -4.935  18.442  1.00  0.00     0.031 C 
ATOM     55  C   UNL     1       9.374  -3.272  17.617  1.00  0.00     0.029 A 
ATOM     56  C   UNL     1       8.036  -3.553  17.399  1.00  0.00     0.049 A 
ATOM     57  H   UNL     1       6.962  -3.580  15.584  1.00  0.00     0.167 HD
ATOM     58  C   UNL     1       5.739  -4.209  18.058  1.00  0.00     0.074 A 
ATOM     59  C   UNL     1       4.751  -4.638  19.027  1.00  0.00     0.031 C 
ATOM     60  C   UNL     1       7.029  -3.921  18.361  1.00  0.00     0.034 A 
BRANCH  47  61
ATOM     61  C   UNL     1      10.513  -2.545  13.448  1.00  0.00     0.023 A 
ATOM     62  C   UNL     1      10.796  -1.223  13.048  1.00  0.00     0.012 A 
ATOM     63  C   UNL     1      11.530  -3.517  13.391  1.00  0.00     0.148 A 
ATOM     64  C   UNL     1      12.059  -0.880  12.569  1.00  0.00     0.002 A 
ATOM     65  C   UNL     1      12.799  -3.158  12.951  1.00  0.00     0.091 A 
ATOM     66  F   UNL     1      11.236  -4.774  13.753  1.00  0.00    -0.205 F 
ATOM     67  C   UNL     1      13.062  -1.844  12.530  1.00  0.00     0.022 A 
BRANCH  65  68
ATOM     68  S   UNL     1      14.179  -4.309  12.936  1.00  0.00     0.127 S 
ATOM     69  O   UNL     1      14.324  -4.577  11.507  1.00  0.00    -0.237 OA
ATOM     70  O   UNL     1      15.256  -3.508  13.518  1.00  0.00    -0.237 OA
ATOM     71  O   UNL     1      13.762  -5.443  13.749  1.00  0.00    -0.744 OA
ENDBRANCH  65  68
ENDBRANCH  47  61
BRANCH  48  72
ATOM     72  C   UNL     1       1.372  -5.105  16.535  1.00  0.00     0.023 A 
ATOM     73  C   UNL     1       0.637  -4.251  17.380  1.00  0.00     0.012 A 
ATOM     74  C   UNL     1       0.797  -6.322  16.121  1.00  0.00     0.148 A 
ATOM     75  C   UNL     1      -0.634  -4.614  17.829  1.00  0.00     0.002 A 
ATOM     76  C   UNL     1      -0.491  -6.653  16.528  1.00  0.00     0.091 A 
ATOM     77  F   UNL     1       1.517  -7.128  15.328  1.00  0.00    -0.205 F 
ATOM     78  C   UNL     1      -1.202  -5.808  17.395  1.00  0.00     0.022 A 
BRANCH  76  79
ATOM     79  S   UNL     1      -1.349  -8.104  15.908  1.00  0.00     0.127 S 
ATOM     80  O   UNL     1      -1.299  -8.997  17.062  1.00  0.00    -0.237 OA
ATOM     81  O   UNL     1      -2.675  -7.567  15.600  1.00  0.00    -0.237 OA
ATOM     82  O   UNL     1      -0.594  -8.532  14.738  1.00  0.00    -0.744 OA
ENDBRANCH  76  79
ENDBRANCH  48  72
BRANCH  60  83
ATOM     83  C   UNL     1       7.450  -4.027  19.803  1.00  0.00     0.023 A 
ATOM     84  C   UNL     1       7.622  -5.297  20.387  1.00  0.00     0.012 A 
ATOM     85  C   UNL     1       7.752  -2.873  20.552  1.00  0.00     0.148 A 
ATOM     86  C   UNL     1       8.062  -5.417  21.705  1.00  0.00     0.002 A 
ATOM     87  C   UNL     1       8.232  -3.001  21.850  1.00  0.00     0.091 A 
ATOM     88  F   UNL     1       7.561  -1.673  19.986  1.00  0.00    -0.205 F 
ATOM     89  C   UNL     1       8.378  -4.271  22.431  1.00  0.00     0.022 A 
BRANCH  87  90
ATOM     90  S   UNL     1       8.752  -1.583  22.824  1.00  0.00     0.127 S 
ATOM     91  O   UNL     1       7.633  -1.431  23.751  1.00  0.00    -0.237 OA
ATOM     92  O   UNL     1       9.992  -2.062  23.437  1.00  0.00    -0.237 OA
ATOM     93  O   UNL     1       8.934  -0.494  21.873  1.00  0.00    -0.744 OA
ENDBRANCH  87  90
ENDBRANCH  60  83
ENDBRANCH  34  35
ENDBRANCH  26  29
ENDBRANCH  24  25
ENDBRANCH  23  24
ENDBRANCH   1  23
TORSDOF 18
