REMARK SMILES CCOC(=O)c1c(NC(=O)[C@@H]2[C@@H](C(=O)NCCCCNC(=O)c3ccc(-c4c5nc(c(-c6cccc(S(=O)(=O)[O-])c6F)c6ccc([nH]6)c(-c6cccc(S(=O)(=O)[O-])c6F)c6nc(c(-c7cccc(S(=O)(=O)[O-])c7F)c7ccc4[nH]7)C=C6)C=C5)cc3)[C@@H]3C=C[C@H]2CC3)sc2c1CCC2
REMARK SMILES IDX 16 1 15 2 13 3 14 4 12 6 11 7 89 8 86 9 88 10 90 11 87 12
REMARK SMILES IDX 91 13 9 14 8 15 10 17 7 18 6 19 94 20 92 21 93 22 95 23
REMARK SMILES IDX 97 24 96 25 4 26 5 27 3 28 2 29 1 30 17 31 18 32 19 33 20 34
REMARK SMILES IDX 21 35 22 37 23 38 24 39 85 40 25 41 84 42 26 43 27 44 28 45
REMARK SMILES IDX 78 46 29 47 83 48 77 49 79 50 30 51 82 52 76 53 75 54 31 56
REMARK SMILES IDX 63 57 43 58 62 59 44 60 47 61 61 62 80 63 45 64 46 65 60 67
REMARK SMILES IDX 81 68 48 69 32 70 33 71 41 72 34 73 36 74 42 75 35 76 37 77
REMARK SMILES IDX 38 78 39 79 40 80 64 81 65 82 73 83 66 84 68 85 74 86 67 87
REMARK SMILES IDX 69 88 70 89 71 90 72 91 49 92 50 93 58 94 51 95 53 96 59 97
REMARK SMILES IDX 52 98 54 99 55 100 56 101 57 102
REMARK H PARENT 15 5 8 16 20 36 79 55 47 66
REMARK Flexibility Score: inf
ROOT
ATOM      1  C   UNL     1       1.433  -6.137  -1.019  1.00  0.00     0.116 C 
ENDROOT
BRANCH   1   2
ATOM      2  N   UNL     1       2.391  -6.712  -1.945  1.00  0.00    -0.356 N 
ATOM      3  C   UNL     1       3.752  -6.754  -1.892  1.00  0.00     0.224 C 
ATOM      4  O   UNL     1       4.357  -7.183  -2.873  1.00  0.00    -0.275 OA
ATOM      5  H   UNL     1       1.995  -7.141  -2.738  1.00  0.00     0.163 HD
BRANCH   3   6
ATOM      6  C   UNL     1       4.466  -6.336  -0.616  1.00  0.00     0.098 C 
ATOM      7  C   UNL     1       5.792  -5.547  -0.875  1.00  0.00     0.099 C 
ATOM      8  C   UNL     1       6.931  -6.201  -0.026  1.00  0.00     0.025 C 
ATOM      9  C   UNL     1       4.782  -7.641   0.187  1.00  0.00     0.025 C 
ATOM     10  C   UNL     1       6.465  -6.441   1.401  1.00  0.00    -0.027 C 
ATOM     11  C   UNL     1       7.185  -7.600  -0.640  1.00  0.00     0.009 C 
ATOM     12  C   UNL     1       5.357  -7.191   1.514  1.00  0.00    -0.027 C 
ATOM     13  C   UNL     1       5.908  -8.461  -0.503  1.00  0.00     0.009 C 
BRANCH   7  14
ATOM     14  C   UNL     1       5.648  -4.048  -0.554  1.00  0.00     0.229 C 
ATOM     15  N   UNL     1       5.056  -3.129  -1.379  1.00  0.00    -0.317 N 
ATOM     16  H   UNL     1       4.916  -2.254  -0.950  1.00  0.00     0.170 HD
ATOM     17  O   UNL     1       5.998  -3.606   0.550  1.00  0.00    -0.274 OA
BRANCH  15  18
ATOM     18  C   UNL     1       4.615  -3.173  -2.689  1.00  0.00     0.110 A 
ATOM     19  C   UNL     1       3.679  -2.322  -3.298  1.00  0.00     0.098 A 
ATOM     20  C   UNL     1       3.286  -2.901  -4.553  1.00  0.00    -0.017 A 
ATOM     21  S   UNL     1       5.271  -4.290  -3.799  1.00  0.00    -0.122 S 
ATOM     22  C   UNL     1       4.015  -4.021  -4.846  1.00  0.00     0.011 A 
ATOM     23  C   UNL     1       2.225  -2.711  -5.581  1.00  0.00     0.038 C 
ATOM     24  C   UNL     1       3.538  -4.815  -5.999  1.00  0.00     0.047 C 
ATOM     25  C   UNL     1       2.183  -4.109  -6.293  1.00  0.00     0.010 C 
BRANCH  19  26
ATOM     26  C   UNL     1       3.119  -1.160  -2.605  1.00  0.00     0.341 C 
ATOM     27  O   UNL     1       3.797  -0.438  -1.881  1.00  0.00    -0.246 OA
BRANCH  26  28
ATOM     28  O   UNL     1       1.773  -1.028  -2.766  1.00  0.00    -0.462 OA
BRANCH  28  29
ATOM     29  C   UNL     1       1.082  -0.036  -1.983  1.00  0.00     0.230 C 
ATOM     30  C   UNL     1       1.153  -0.260  -0.477  1.00  0.00     0.049 C 
ENDBRANCH  28  29
ENDBRANCH  26  28
ENDBRANCH  19  26
ENDBRANCH  15  18
ENDBRANCH   7  14
ENDBRANCH   3   6
ENDBRANCH   1   2
BRANCH   1  31
ATOM     31  C   UNL     1       1.257  -4.624  -1.220  1.00  0.00     0.023 C 
BRANCH  31  32
ATOM     32  C   UNL     1       0.983  -4.203  -2.667  1.00  0.00     0.023 C 
BRANCH  32  33
ATOM     33  C   UNL     1      -0.364  -4.582  -3.229  1.00  0.00     0.116 C 
BRANCH  33  34
ATOM     34  N   UNL     1      -1.408  -3.565  -3.042  1.00  0.00    -0.352 N 
ATOM     35  C   UNL     1      -2.729  -3.610  -3.478  1.00  0.00     0.251 C 
ATOM     36  H   UNL     1      -1.141  -2.755  -2.549  1.00  0.00     0.163 HD
ATOM     37  O   UNL     1      -3.394  -2.583  -3.559  1.00  0.00    -0.269 OA
BRANCH  35  38
ATOM     38  C   UNL     1      -3.299  -4.914  -3.883  1.00  0.00     0.039 A 
ATOM     39  C   UNL     1      -4.220  -5.065  -4.920  1.00  0.00     0.014 A 
ATOM     40  C   UNL     1      -2.806  -6.036  -3.243  1.00  0.00     0.014 A 
ATOM     41  C   UNL     1      -4.526  -6.357  -5.358  1.00  0.00     0.010 A 
ATOM     42  C   UNL     1      -2.828  -7.234  -3.890  1.00  0.00     0.010 A 
ATOM     43  C   UNL     1      -3.791  -7.444  -4.856  1.00  0.00    -0.014 A 
BRANCH  43  44
ATOM     44  C   UNL     1      -3.967  -8.812  -5.330  1.00  0.00     0.031 A 
ATOM     45  C   UNL     1      -3.967  -8.972  -6.799  1.00  0.00     0.074 A 
ATOM     46  C   UNL     1      -3.930  -9.896  -4.518  1.00  0.00     0.049 A 
ATOM     47  N   UNL     1      -4.995  -9.191  -7.550  1.00  0.00    -0.248 NA
ATOM     48  C   UNL     1      -2.724  -8.722  -7.540  1.00  0.00     0.031 C 
ATOM     49  C   UNL     1      -3.627  -9.949  -3.078  1.00  0.00     0.029 A 
ATOM     50  N   UNL     1      -4.003 -11.216  -4.848  1.00  0.00    -0.354 N 
ATOM     51  C   UNL     1      -4.475  -9.404  -8.820  1.00  0.00     0.074 A 
ATOM     52  C   UNL     1      -3.141  -8.861  -8.801  1.00  0.00     0.031 C 
ATOM     53  C   UNL     1      -3.262 -11.202  -2.738  1.00  0.00     0.029 A 
ATOM     54  C   UNL     1      -3.508 -12.071  -3.868  1.00  0.00     0.049 A 
ATOM     55  H   UNL     1      -4.374 -11.536  -5.702  1.00  0.00     0.167 HD
ATOM     56  C   UNL     1      -5.066 -10.286  -9.673  1.00  0.00     0.034 A 
ATOM     57  C   UNL     1      -3.294 -13.403  -3.975  1.00  0.00     0.034 A 
ATOM     58  C   UNL     1      -6.381 -10.675  -9.210  1.00  0.00     0.049 A 
ATOM     59  C   UNL     1      -4.146 -13.887  -5.084  1.00  0.00     0.074 A 
ATOM     60  C   UNL     1      -7.515 -10.003  -8.796  1.00  0.00     0.029 A 
ATOM     61  N   UNL     1      -6.526 -11.964  -8.753  1.00  0.00    -0.354 N 
ATOM     62  N   UNL     1      -5.448 -13.928  -5.026  1.00  0.00    -0.248 NA
ATOM     63  C   UNL     1      -3.577 -13.953  -6.418  1.00  0.00     0.031 C 
ATOM     64  C   UNL     1      -8.030 -10.780  -7.715  1.00  0.00     0.029 A 
ATOM     65  C   UNL     1      -7.226 -11.912  -7.578  1.00  0.00     0.049 A 
ATOM     66  H   UNL     1      -6.188 -12.778  -9.192  1.00  0.00     0.167 HD
ATOM     67  C   UNL     1      -5.857 -13.539  -6.294  1.00  0.00     0.074 A 
ATOM     68  C   UNL     1      -4.677 -13.714  -7.137  1.00  0.00     0.031 C 
ATOM     69  C   UNL     1      -7.011 -12.825  -6.475  1.00  0.00     0.034 A 
BRANCH  56  70
ATOM     70  C   UNL     1      -4.331 -11.118 -10.701  1.00  0.00     0.023 A 
ATOM     71  C   UNL     1      -5.120 -11.842 -11.623  1.00  0.00     0.012 A 
ATOM     72  C   UNL     1      -2.959 -11.452 -10.636  1.00  0.00     0.148 A 
ATOM     73  C   UNL     1      -4.589 -12.889 -12.383  1.00  0.00     0.002 A 
ATOM     74  C   UNL     1      -2.417 -12.429 -11.463  1.00  0.00     0.091 A 
ATOM     75  F   UNL     1      -2.183 -10.941  -9.677  1.00  0.00    -0.205 F 
ATOM     76  C   UNL     1      -3.233 -13.178 -12.311  1.00  0.00     0.022 A 
BRANCH  74  77
ATOM     77  S   UNL     1      -0.655 -12.783 -11.447  1.00  0.00     0.127 S 
ATOM     78  O   UNL     1      -0.611 -13.995 -10.635  1.00  0.00    -0.237 OA
ATOM     79  O   UNL     1      -0.373 -12.976 -12.870  1.00  0.00    -0.237 OA
ATOM     80  O   UNL     1      -0.033 -11.595 -10.874  1.00  0.00    -0.744 OA
ENDBRANCH  74  77
ENDBRANCH  56  70
BRANCH  57  81
ATOM     81  C   UNL     1      -2.339 -14.280  -3.265  1.00  0.00     0.023 A 
ATOM     82  C   UNL     1      -2.573 -15.667  -3.222  1.00  0.00     0.012 A 
ATOM     83  C   UNL     1      -1.073 -13.804  -2.856  1.00  0.00     0.148 A 
ATOM     84  C   UNL     1      -1.568 -16.557  -2.828  1.00  0.00     0.002 A 
ATOM     85  C   UNL     1      -0.080 -14.692  -2.450  1.00  0.00     0.091 A 
ATOM     86  F   UNL     1      -0.810 -12.493  -2.951  1.00  0.00    -0.205 F 
ATOM     87  C   UNL     1      -0.319 -16.071  -2.449  1.00  0.00     0.022 A 
BRANCH  85  88
ATOM     88  S   UNL     1       1.553 -14.127  -1.951  1.00  0.00     0.127 S 
ATOM     89  O   UNL     1       1.821 -14.960  -0.777  1.00  0.00    -0.237 OA
ATOM     90  O   UNL     1       2.356 -14.448  -3.127  1.00  0.00    -0.237 OA
ATOM     91  O   UNL     1       1.399 -12.709  -1.649  1.00  0.00    -0.744 OA
ENDBRANCH  85  88
ENDBRANCH  57  81
BRANCH  69  92
ATOM     92  C   UNL     1      -8.000 -12.751  -5.335  1.00  0.00     0.023 A 
ATOM     93  C   UNL     1      -7.655 -12.241  -4.065  1.00  0.00     0.012 A 
ATOM     94  C   UNL     1      -9.347 -13.066  -5.588  1.00  0.00     0.148 A 
ATOM     95  C   UNL     1      -8.617 -12.094  -3.062  1.00  0.00     0.002 A 
ATOM     96  C   UNL     1     -10.310 -12.870  -4.604  1.00  0.00     0.091 A 
ATOM     97  F   UNL     1      -9.674 -13.546  -6.798  1.00  0.00    -0.205 F 
ATOM     98  C   UNL     1      -9.947 -12.398  -3.334  1.00  0.00     0.022 A 
BRANCH  96  99
ATOM     99  S   UNL     1     -12.053 -13.123  -4.951  1.00  0.00     0.127 S 
ATOM    100  O   UNL     1     -12.271 -14.483  -4.463  1.00  0.00    -0.237 OA
ATOM    101  O   UNL     1     -12.696 -12.078  -4.152  1.00  0.00    -0.237 OA
ATOM    102  O   UNL     1     -12.194 -12.933  -6.390  1.00  0.00    -0.744 OA
ENDBRANCH  96  99
ENDBRANCH  69  92
ENDBRANCH  43  44
ENDBRANCH  35  38
ENDBRANCH  33  34
ENDBRANCH  32  33
ENDBRANCH  31  32
ENDBRANCH   1  31
TORSDOF 19
