REMARK SMILES COc1ccc2c(c1)C(=O)N(c1ccccc1C(=O)NCCCCNC(=O)c1ccc(-c3c4nc(c(-c5cccc(S(=O)(=O)[O-])c5F)c5ccc([nH]5)c(-c5cccc(S(=O)(=O)[O-])c5F)c5nc(c(-c6cccc(S(=O)(=O)[O-])c6F)c6ccc3[nH]6)C=C5)C=C4)cc1)C2=O
REMARK SMILES IDX 23 1 22 2 21 3 20 4 18 5 19 6 17 8 12 9 13 10 14 11 16 12
REMARK SMILES IDX 15 13 11 14 3 15 4 16 8 17 5 18 7 19 6 20 9 21 91 22 10 23
REMARK SMILES IDX 92 24 2 25 1 26 24 27 25 28 26 29 27 31 28 32 29 33 90 34
REMARK SMILES IDX 30 35 89 36 31 37 32 38 33 39 83 40 34 41 88 42 82 43 84 44
REMARK SMILES IDX 35 45 87 46 81 47 80 48 36 50 68 51 48 52 67 53 49 54 52 55
REMARK SMILES IDX 66 56 85 57 50 58 51 59 65 61 86 62 53 63 37 64 38 65 46 66
REMARK SMILES IDX 39 67 41 68 47 69 40 70 42 71 43 72 44 73 45 74 69 75 70 76
REMARK SMILES IDX 78 77 71 78 73 79 79 80 72 81 74 82 75 83 76 84 77 85 54 86
REMARK SMILES IDX 55 87 63 88 56 89 58 90 64 91 57 92 59 93 60 94 61 95 62 96
REMARK H PARENT 20 7 25 30 84 49 52 60
REMARK Flexibility Score: inf
ROOT
ATOM      1  C   UNL     1       2.767   0.577  -5.884  1.00  0.00     0.023 C 
ENDROOT
BRANCH   1   2
ATOM      2  C   UNL     1       2.725   2.092  -6.080  1.00  0.00     0.023 C 
BRANCH   2   3
ATOM      3  C   UNL     1       3.507   2.945  -5.092  1.00  0.00     0.116 C 
BRANCH   3   4
ATOM      4  N   UNL     1       4.944   2.898  -5.170  1.00  0.00    -0.352 N 
ATOM      5  C   UNL     1       5.901   3.840  -4.855  1.00  0.00     0.253 C 
ATOM      6  O   UNL     1       7.079   3.479  -4.938  1.00  0.00    -0.269 OA
ATOM      7  H   UNL     1       5.306   2.046  -5.507  1.00  0.00     0.163 HD
BRANCH   5   8
ATOM      8  C   UNL     1       5.636   5.289  -4.560  1.00  0.00     0.064 A 
ATOM      9  C   UNL     1       4.604   5.881  -3.805  1.00  0.00     0.065 A 
ATOM     10  C   UNL     1       4.509   7.293  -3.754  1.00  0.00     0.028 A 
ATOM     11  C   UNL     1       5.436   8.118  -4.385  1.00  0.00     0.002 A 
ATOM     12  C   UNL     1       6.564   6.155  -5.192  1.00  0.00     0.016 A 
ATOM     13  C   UNL     1       6.473   7.547  -5.102  1.00  0.00     0.001 A 
BRANCH   9  14
ATOM     14  N   UNL     1       3.626   5.183  -3.068  1.00  0.00    -0.241 N 
ATOM     15  C   UNL     1       0.866   2.313  -0.802  1.00  0.00     0.119 A 
ATOM     16  C   UNL     1      -0.099   3.023  -1.556  1.00  0.00     0.047 A 
ATOM     17  C   UNL     1       2.218   2.663  -0.874  1.00  0.00     0.061 A 
ATOM     18  C   UNL     1       0.257   4.091  -2.378  1.00  0.00     0.018 A 
ATOM     19  C   UNL     1       2.552   3.715  -1.707  1.00  0.00     0.057 A 
ATOM     20  C   UNL     1       1.594   4.420  -2.414  1.00  0.00     0.053 A 
ATOM     21  C   UNL     1       3.869   4.215  -2.124  1.00  0.00     0.266 C 
ATOM     22  C   UNL     1       2.277   5.410  -3.232  1.00  0.00     0.266 C 
ATOM     23  O   UNL     1       4.917   3.807  -1.663  1.00  0.00    -0.268 OA
ATOM     24  O   UNL     1       1.687   6.194  -3.952  1.00  0.00    -0.268 OA
BRANCH  15  25
ATOM     25  O   UNL     1       0.341   1.287  -0.068  1.00  0.00    -0.497 OA
ATOM     26  C   UNL     1       1.250   0.401   0.569  1.00  0.00     0.278 C 
ENDBRANCH  15  25
ENDBRANCH   9  14
ENDBRANCH   5   8
ENDBRANCH   3   4
ENDBRANCH   2   3
ENDBRANCH   1   2
BRANCH   1  27
ATOM     27  C   UNL     1       2.438   0.022  -4.496  1.00  0.00     0.116 C 
BRANCH  27  28
ATOM     28  N   UNL     1       1.163   0.457  -3.939  1.00  0.00    -0.352 N 
ATOM     29  C   UNL     1       0.219  -0.239  -3.211  1.00  0.00     0.251 C 
ATOM     30  H   UNL     1       0.938   1.400  -4.111  1.00  0.00     0.163 HD
ATOM     31  O   UNL     1      -0.845   0.313  -2.935  1.00  0.00    -0.269 OA
BRANCH  29  32
ATOM     32  C   UNL     1       0.417  -1.664  -2.841  1.00  0.00     0.039 A 
ATOM     33  C   UNL     1      -0.698  -2.508  -2.903  1.00  0.00     0.014 A 
ATOM     34  C   UNL     1       1.673  -2.201  -2.555  1.00  0.00     0.014 A 
ATOM     35  C   UNL     1      -0.524  -3.892  -2.889  1.00  0.00     0.010 A 
ATOM     36  C   UNL     1       1.862  -3.578  -2.635  1.00  0.00     0.010 A 
ATOM     37  C   UNL     1       0.773  -4.426  -2.877  1.00  0.00    -0.014 A 
BRANCH  37  38
ATOM     38  C   UNL     1       1.008  -5.821  -3.327  1.00  0.00     0.031 A 
ATOM     39  C   UNL     1       1.612  -6.845  -2.418  1.00  0.00     0.074 A 
ATOM     40  C   UNL     1       0.770  -6.112  -4.624  1.00  0.00     0.049 A 
ATOM     41  N   UNL     1       1.877  -8.101  -2.663  1.00  0.00    -0.248 NA
ATOM     42  C   UNL     1       1.992  -6.400  -1.070  1.00  0.00     0.031 C 
ATOM     43  C   UNL     1       0.290  -5.155  -5.628  1.00  0.00     0.029 A 
ATOM     44  N   UNL     1       0.912  -7.279  -5.330  1.00  0.00    -0.354 N 
ATOM     45  C   UNL     1       2.472  -8.595  -1.511  1.00  0.00     0.074 A 
ATOM     46  C   UNL     1       2.562  -7.491  -0.578  1.00  0.00     0.031 C 
ATOM     47  C   UNL     1       0.154  -5.777  -6.808  1.00  0.00     0.029 A 
ATOM     48  C   UNL     1       0.568  -7.166  -6.659  1.00  0.00     0.049 A 
ATOM     49  H   UNL     1       1.231  -8.118  -4.926  1.00  0.00     0.167 HD
ATOM     50  C   UNL     1       2.881  -9.859  -1.248  1.00  0.00     0.034 A 
ATOM     51  C   UNL     1       0.581  -8.079  -7.648  1.00  0.00     0.034 A 
ATOM     52  C   UNL     1       2.777 -10.945  -2.186  1.00  0.00     0.049 A 
ATOM     53  C   UNL     1       1.006  -9.482  -7.320  1.00  0.00     0.074 A 
ATOM     54  C   UNL     1       3.079 -12.282  -1.996  1.00  0.00     0.029 A 
ATOM     55  N   UNL     1       2.358 -10.814  -3.503  1.00  0.00    -0.354 N 
ATOM     56  N   UNL     1       1.385  -9.977  -6.166  1.00  0.00    -0.248 NA
ATOM     57  C   UNL     1       0.977 -10.459  -8.416  1.00  0.00     0.031 C 
ATOM     58  C   UNL     1       2.870 -12.953  -3.207  1.00  0.00     0.029 A 
ATOM     59  C   UNL     1       2.414 -12.040  -4.145  1.00  0.00     0.049 A 
ATOM     60  H   UNL     1       2.065  -9.972  -3.920  1.00  0.00     0.167 HD
ATOM     61  C   UNL     1       1.621 -11.327  -6.390  1.00  0.00     0.074 A 
ATOM     62  C   UNL     1       1.311 -11.576  -7.785  1.00  0.00     0.031 C 
ATOM     63  C   UNL     1       2.071 -12.271  -5.527  1.00  0.00     0.034 A 
BRANCH  50  64
ATOM     64  C   UNL     1       3.438 -10.133   0.126  1.00  0.00     0.023 A 
ATOM     65  C   UNL     1       2.573 -10.114   1.240  1.00  0.00     0.012 A 
ATOM     66  C   UNL     1       4.801 -10.426   0.318  1.00  0.00     0.148 A 
ATOM     67  C   UNL     1       3.063 -10.334   2.527  1.00  0.00     0.002 A 
ATOM     68  C   UNL     1       5.275 -10.687   1.599  1.00  0.00     0.091 A 
ATOM     69  F   UNL     1       5.614 -10.420  -0.748  1.00  0.00    -0.205 F 
ATOM     70  C   UNL     1       4.411 -10.628   2.705  1.00  0.00     0.022 A 
BRANCH  68  71
ATOM     71  S   UNL     1       6.982 -11.140   1.927  1.00  0.00     0.127 S 
ATOM     72  O   UNL     1       7.494  -9.922   2.554  1.00  0.00    -0.237 OA
ATOM     73  O   UNL     1       6.830 -12.276   2.837  1.00  0.00    -0.237 OA
ATOM     74  O   UNL     1       7.563 -11.472   0.634  1.00  0.00    -0.744 OA
ENDBRANCH  68  71
ENDBRANCH  50  64
BRANCH  51  75
ATOM     75  C   UNL     1       0.104  -7.708  -9.012  1.00  0.00     0.023 A 
ATOM     76  C   UNL     1      -1.120  -8.224  -9.478  1.00  0.00     0.012 A 
ATOM     77  C   UNL     1       0.823  -6.808  -9.824  1.00  0.00     0.148 A 
ATOM     78  C   UNL     1      -1.609  -7.872 -10.737  1.00  0.00     0.002 A 
ATOM     79  C   UNL     1       0.304  -6.419 -11.055  1.00  0.00     0.091 A 
ATOM     80  F   UNL     1       1.989  -6.332  -9.366  1.00  0.00    -0.205 F 
ATOM     81  C   UNL     1      -0.904  -6.962 -11.520  1.00  0.00     0.022 A 
BRANCH  79  82
ATOM     82  S   UNL     1       1.075  -5.154 -12.072  1.00  0.00     0.127 S 
ATOM     83  O   UNL     1       1.554  -5.936 -13.209  1.00  0.00    -0.237 OA
ATOM     84  O   UNL     1      -0.056  -4.272 -12.364  1.00  0.00    -0.237 OA
ATOM     85  O   UNL     1       2.106  -4.553 -11.238  1.00  0.00    -0.744 OA
ENDBRANCH  79  82
ENDBRANCH  51  75
BRANCH  63  86
ATOM     86  C   UNL     1       2.254 -13.665  -6.066  1.00  0.00     0.023 A 
ATOM     87  C   UNL     1       3.329 -13.939  -6.935  1.00  0.00     0.012 A 
ATOM     88  C   UNL     1       1.408 -14.713  -5.657  1.00  0.00     0.148 A 
ATOM     89  C   UNL     1       3.541 -15.232  -7.412  1.00  0.00     0.002 A 
ATOM     90  C   UNL     1       1.656 -16.008  -6.096  1.00  0.00     0.091 A 
ATOM     91  F   UNL     1       0.379 -14.425  -4.847  1.00  0.00    -0.205 F 
ATOM     92  C   UNL     1       2.714 -16.267  -6.983  1.00  0.00     0.022 A 
BRANCH  90  93
ATOM     93  S   UNL     1       0.705 -17.418  -5.520  1.00  0.00     0.127 S 
ATOM     94  O   UNL     1      -0.067 -17.764  -6.713  1.00  0.00    -0.237 OA
ATOM     95  O   UNL     1       1.754 -18.377  -5.173  1.00  0.00    -0.237 OA
ATOM     96  O   UNL     1      -0.076 -16.941  -4.387  1.00  0.00    -0.744 OA
ENDBRANCH  90  93
ENDBRANCH  63  86
ENDBRANCH  37  38
ENDBRANCH  29  32
ENDBRANCH  27  28
ENDBRANCH   1  27
TORSDOF 16
