REMARK SMILES COc1ccc(-c2ccc([C@H](C)[NH+]3CCOCC3)cc2)c(C(=O)NCCCCNC(=O)c2ccc(-c3c4nc(c(-c5cccc(S(=O)(=O)[O-])c5F)c5ccc([nH]5)c(-c5cccc(S(=O)(=O)[O-])c5F)c5nc(c(-c6cccc(S(=O)(=O)[O-])c6F)c6ccc3[nH]6)C=C5)C=C4)cc2)c1
REMARK SMILES IDX 26 1 25 2 24 3 22 4 23 5 21 7 3 8 4 9 95 10 5 11 6 12 2 13
REMARK SMILES IDX 1 14 7 15 8 16 20 17 9 18 19 19 10 20 11 21 12 22 13 23
REMARK SMILES IDX 14 24 18 25 15 27 17 28 16 29 27 30 28 31 29 32 30 33 31 35
REMARK SMILES IDX 32 36 33 37 94 38 34 39 93 40 35 41 36 42 37 43 87 44 38 45
REMARK SMILES IDX 92 46 86 47 88 48 39 49 91 50 85 51 84 52 40 54 72 55 52 56
REMARK SMILES IDX 71 57 53 58 56 59 70 60 89 61 54 62 55 63 69 65 90 66 57 67
REMARK SMILES IDX 41 68 42 69 50 70 43 71 45 72 51 73 44 74 46 75 47 76 48 77
REMARK SMILES IDX 49 78 73 79 74 80 82 81 75 82 77 83 83 84 76 85 78 86 79 87
REMARK SMILES IDX 80 88 81 89 58 90 59 91 67 92 60 93 62 94 68 95 61 96 63 97
REMARK SMILES IDX 64 98 65 99 66 100
REMARK H PARENT 24 6 13 26 29 34 88 53 56 64
REMARK Flexibility Score: inf
ROOT
ATOM      1  C   UNL     1      -6.952  12.182  -1.326  1.00  0.00     0.023 C 
ENDROOT
BRANCH   1   2
ATOM      2  C   UNL     1      -5.918  13.258  -1.018  1.00  0.00     0.116 C 
BRANCH   2   3
ATOM      3  N   UNL     1      -4.665  12.787  -0.446  1.00  0.00    -0.352 N 
ATOM      4  C   UNL     1      -3.360  13.204  -0.645  1.00  0.00     0.252 C 
ATOM      5  O   UNL     1      -2.490  12.750   0.092  1.00  0.00    -0.269 OA
ATOM      6  H   UNL     1      -4.763  12.043   0.192  1.00  0.00     0.163 HD
BRANCH   4   7
ATOM      7  C   UNL     1      -3.010  14.163  -1.738  1.00  0.00     0.051 A 
ATOM      8  C   UNL     1      -3.679  16.112  -3.046  1.00  0.00     0.119 A 
ATOM      9  C   UNL     1      -2.625  15.877  -3.921  1.00  0.00     0.047 A 
ATOM     10  C   UNL     1      -3.832  15.288  -1.934  1.00  0.00     0.060 A 
ATOM     11  C   UNL     1      -1.717  14.850  -3.664  1.00  0.00     0.013 A 
ATOM     12  C   UNL     1      -1.869  13.989  -2.555  1.00  0.00    -0.005 A 
BRANCH   8  13
ATOM     13  O   UNL     1      -4.488  17.164  -3.376  1.00  0.00    -0.497 OA
ATOM     14  C   UNL     1      -5.718  17.265  -2.666  1.00  0.00     0.278 C 
ENDBRANCH   8  13
BRANCH  12  15
ATOM     15  C   UNL     1      -0.762  13.058  -2.270  1.00  0.00    -0.018 A 
ATOM     16  C   UNL     1       0.468  13.581  -1.832  1.00  0.00     0.009 A 
ATOM     17  C   UNL     1      -0.866  11.673  -2.426  1.00  0.00     0.009 A 
ATOM     18  C   UNL     1       1.552  12.749  -1.545  1.00  0.00     0.010 A 
ATOM     19  C   UNL     1       0.220  10.833  -2.127  1.00  0.00     0.010 A 
ATOM     20  C   UNL     1       1.445  11.356  -1.677  1.00  0.00     0.009 A 
BRANCH  20  21
ATOM     21  C   UNL     1       2.643  10.491  -1.270  1.00  0.00     0.212 C 
ATOM     22  C   UNL     1       2.583   9.052  -1.800  1.00  0.00     0.081 C 
BRANCH  21  23
ATOM     23  N   UNL     1       2.979  10.648   0.160  1.00  0.00    -0.325 N 
ATOM     24  C   UNL     1       4.201   9.967   0.616  1.00  0.00     0.291 C 
ATOM     25  C   UNL     1       1.892  10.450   1.138  1.00  0.00     0.291 C 
ATOM     26  H   UNL     1       3.170  11.650   0.154  1.00  0.00     0.348 HD
ATOM     27  C   UNL     1       3.991   8.548   1.177  1.00  0.00     0.221 C 
ATOM     28  C   UNL     1       1.737   9.014   1.654  1.00  0.00     0.221 C 
ATOM     29  O   UNL     1       2.974   8.519   2.181  1.00  0.00    -0.370 OA
ENDBRANCH  21  23
ENDBRANCH  20  21
ENDBRANCH  12  15
ENDBRANCH   4   7
ENDBRANCH   2   3
ENDBRANCH   1   2
BRANCH   1  30
ATOM     30  C   UNL     1      -7.415  11.304  -0.169  1.00  0.00     0.023 C 
BRANCH  30  31
ATOM     31  C   UNL     1      -7.828  12.015   1.114  1.00  0.00     0.116 C 
BRANCH  31  32
ATOM     32  N   UNL     1      -8.889  12.997   0.939  1.00  0.00    -0.352 N 
ATOM     33  C   UNL     1     -10.078  13.140   1.617  1.00  0.00     0.251 C 
ATOM     34  H   UNL     1      -8.731  13.659   0.228  1.00  0.00     0.163 HD
ATOM     35  O   UNL     1     -10.869  14.018   1.275  1.00  0.00    -0.269 OA
BRANCH  33  36
ATOM     36  C   UNL     1     -10.431  12.219   2.722  1.00  0.00     0.039 A 
ATOM     37  C   UNL     1     -11.708  11.650   2.743  1.00  0.00     0.014 A 
ATOM     38  C   UNL     1      -9.506  11.891   3.715  1.00  0.00     0.014 A 
ATOM     39  C   UNL     1     -12.023  10.682   3.701  1.00  0.00     0.010 A 
ATOM     40  C   UNL     1      -9.793  10.869   4.617  1.00  0.00     0.010 A 
ATOM     41  C   UNL     1     -11.051  10.247   4.616  1.00  0.00    -0.014 A 
BRANCH  41  42
ATOM     42  C   UNL     1     -11.314   9.126   5.557  1.00  0.00     0.031 A 
ATOM     43  C   UNL     1     -11.256   9.350   7.044  1.00  0.00     0.074 A 
ATOM     44  C   UNL     1     -11.495   7.880   5.074  1.00  0.00     0.049 A 
ATOM     45  N   UNL     1     -11.377   8.482   8.015  1.00  0.00    -0.248 NA
ATOM     46  C   UNL     1     -10.997  10.726   7.500  1.00  0.00     0.031 C 
ATOM     47  C   UNL     1     -11.482   7.511   3.657  1.00  0.00     0.029 A 
ATOM     48  N   UNL     1     -11.694   6.685   5.724  1.00  0.00    -0.354 N 
ATOM     49  C   UNL     1     -11.167   9.193   9.190  1.00  0.00     0.074 A 
ATOM     50  C   UNL     1     -10.879  10.559   8.810  1.00  0.00     0.031 C 
ATOM     51  C   UNL     1     -11.666   6.185   3.544  1.00  0.00     0.029 A 
ATOM     52  C   UNL     1     -11.784   5.604   4.878  1.00  0.00     0.049 A 
ATOM     53  H   UNL     1     -11.764   6.610   6.703  1.00  0.00     0.167 HD
ATOM     54  C   UNL     1     -11.238   8.759  10.471  1.00  0.00     0.034 A 
ATOM     55  C   UNL     1     -11.940   4.292   5.143  1.00  0.00     0.034 A 
ATOM     56  C   UNL     1     -11.581   7.415  10.849  1.00  0.00     0.049 A 
ATOM     57  C   UNL     1     -12.080   3.846   6.574  1.00  0.00     0.074 A 
ATOM     58  C   UNL     1     -11.780   6.903  12.119  1.00  0.00     0.029 A 
ATOM     59  N   UNL     1     -11.773   6.368   9.961  1.00  0.00    -0.354 N 
ATOM     60  N   UNL     1     -12.051   4.566   7.668  1.00  0.00    -0.248 NA
ATOM     61  C   UNL     1     -12.313   2.412   6.805  1.00  0.00     0.031 C 
ATOM     62  C   UNL     1     -12.081   5.542  11.999  1.00  0.00     0.029 A 
ATOM     63  C   UNL     1     -12.085   5.211  10.653  1.00  0.00     0.049 A 
ATOM     64  H   UNL     1     -11.699   6.438   8.982  1.00  0.00     0.167 HD
ATOM     65  C   UNL     1     -12.295   3.683   8.714  1.00  0.00     0.074 A 
ATOM     66  C   UNL     1     -12.491   2.377   8.119  1.00  0.00     0.031 C 
ATOM     67  C   UNL     1     -12.336   3.929  10.047  1.00  0.00     0.034 A 
BRANCH  54  68
ATOM     68  C   UNL     1     -11.006   9.771  11.563  1.00  0.00     0.023 A 
ATOM     69  C   UNL     1     -11.983  10.758  11.809  1.00  0.00     0.012 A 
ATOM     70  C   UNL     1      -9.856   9.722  12.374  1.00  0.00     0.148 A 
ATOM     71  C   UNL     1     -11.802  11.703  12.818  1.00  0.00     0.002 A 
ATOM     72  C   UNL     1      -9.702  10.641  13.406  1.00  0.00     0.091 A 
ATOM     73  F   UNL     1      -8.927   8.791  12.112  1.00  0.00    -0.205 F 
ATOM     74  C   UNL     1     -10.668  11.638  13.622  1.00  0.00     0.022 A 
BRANCH  72  75
ATOM     75  S   UNL     1      -8.313  10.591  14.545  1.00  0.00     0.127 S 
ATOM     76  O   UNL     1      -7.511  11.721  14.080  1.00  0.00    -0.237 OA
ATOM     77  O   UNL     1      -8.965  10.798  15.839  1.00  0.00    -0.237 OA
ATOM     78  O   UNL     1      -7.708   9.277  14.377  1.00  0.00    -0.744 OA
ENDBRANCH  72  75
ENDBRANCH  54  68
BRANCH  55  79
ATOM     79  C   UNL     1     -12.057   3.316   4.022  1.00  0.00     0.023 A 
ATOM     80  C   UNL     1     -13.308   2.728   3.752  1.00  0.00     0.012 A 
ATOM     81  C   UNL     1     -10.958   2.998   3.202  1.00  0.00     0.148 A 
ATOM     82  C   UNL     1     -13.457   1.819   2.704  1.00  0.00     0.002 A 
ATOM     83  C   UNL     1     -11.125   2.133   2.126  1.00  0.00     0.091 A 
ATOM     84  F   UNL     1      -9.773   3.558   3.482  1.00  0.00    -0.205 F 
ATOM     85  C   UNL     1     -12.370   1.530   1.885  1.00  0.00     0.022 A 
BRANCH  83  86
ATOM     86  S   UNL     1      -9.815   1.806   0.940  1.00  0.00     0.127 S 
ATOM     87  O   UNL     1      -9.441   0.435   1.277  1.00  0.00    -0.237 OA
ATOM     88  O   UNL     1     -10.515   1.958  -0.336  1.00  0.00    -0.237 OA
ATOM     89  O   UNL     1      -8.800   2.821   1.189  1.00  0.00    -0.744 OA
ENDBRANCH  83  86
ENDBRANCH  55  79
BRANCH  67  90
ATOM     90  C   UNL     1     -12.633   2.771  10.963  1.00  0.00     0.023 A 
ATOM     91  C   UNL     1     -11.644   1.796  11.198  1.00  0.00     0.012 A 
ATOM     92  C   UNL     1     -13.859   2.695  11.653  1.00  0.00     0.148 A 
ATOM     93  C   UNL     1     -11.880   0.747  12.086  1.00  0.00     0.002 A 
ATOM     94  C   UNL     1     -14.070   1.672  12.571  1.00  0.00     0.091 A 
ATOM     95  F   UNL     1     -14.795   3.620  11.400  1.00  0.00    -0.205 F 
ATOM     96  C   UNL     1     -13.087   0.692  12.780  1.00  0.00     0.022 A 
BRANCH  94  97
ATOM     97  S   UNL     1     -15.556   1.577  13.577  1.00  0.00     0.127 S 
ATOM     98  O   UNL     1     -16.286   0.489  12.930  1.00  0.00    -0.237 OA
ATOM     99  O   UNL     1     -15.018   1.250  14.899  1.00  0.00    -0.237 OA
ATOM    100  O   UNL     1     -16.180   2.891  13.491  1.00  0.00    -0.744 OA
ENDBRANCH  94  97
ENDBRANCH  67  90
ENDBRANCH  41  42
ENDBRANCH  33  36
ENDBRANCH  31  32
ENDBRANCH  30  31
ENDBRANCH   1  30
TORSDOF 18
