REMARK SMILES C[C@H](C(=O)NCCCCNC(=O)c1ccc(-c2c3nc(c(-c4cccc(S(=O)(=O)[O-])c4F)c4ccc([nH]4)c(-c4cccc(S(=O)(=O)[O-])c4F)c4nc(c(-c5cccc(S(=O)(=O)[O-])c5F)c5ccc2[nH]5)C=C4)C=C3)cc1)[C@H](C)S(C)(=O)=O
REMARK SMILES IDX 8 1 7 2 6 3 5 4 3 5 4 6 2 8 1 9 76 10 77 11 78 12 79 13
REMARK SMILES IDX 80 14 81 15 9 16 10 17 11 18 12 20 13 21 14 22 75 23 15 24
REMARK SMILES IDX 74 25 16 26 17 27 18 28 68 29 19 30 73 31 67 32 69 33 20 34
REMARK SMILES IDX 72 35 66 36 65 37 21 39 53 40 33 41 52 42 34 43 37 44 51 45
REMARK SMILES IDX 70 46 35 47 36 48 50 50 71 51 38 52 22 53 23 54 31 55 24 56
REMARK SMILES IDX 26 57 32 58 25 59 27 60 28 61 29 62 30 63 54 64 55 65 63 66
REMARK SMILES IDX 56 67 58 68 64 69 57 70 59 71 60 72 61 73 62 74 39 75 40 76
REMARK SMILES IDX 48 77 41 78 43 79 49 80 42 81 44 82 45 83 46 84 47 85
REMARK H PARENT 5 7 10 19 69 38 37 49
REMARK Flexibility Score: inf
ROOT
ATOM      1  C   UNL     1       0.389   1.054   4.581  1.00  0.00     0.023 C 
ENDROOT
BRANCH   1   2
ATOM      2  C   UNL     1      -0.786   0.654   3.686  1.00  0.00     0.023 C 
BRANCH   2   3
ATOM      3  C   UNL     1      -1.380   1.788   2.852  1.00  0.00     0.116 C 
BRANCH   3   4
ATOM      4  N   UNL     1      -0.444   2.325   1.876  1.00  0.00    -0.356 N 
ATOM      5  C   UNL     1      -0.460   2.247   0.510  1.00  0.00     0.224 C 
ATOM      6  O   UNL     1       0.398   2.853  -0.126  1.00  0.00    -0.275 OA
ATOM      7  H   UNL     1       0.316   2.820   2.257  1.00  0.00     0.163 HD
BRANCH   5   8
ATOM      8  C   UNL     1      -1.556   1.430  -0.162  1.00  0.00     0.093 C 
ATOM      9  C   UNL     1      -2.805   2.312  -0.261  1.00  0.00     0.019 C 
BRANCH   8  10
ATOM     10  C   UNL     1      -1.122   0.704  -1.465  1.00  0.00     0.117 C 
ATOM     11  C   UNL     1       0.350   0.283  -1.491  1.00  0.00     0.026 C 
BRANCH  10  12
ATOM     12  S   UNL     1      -1.619   1.508  -2.997  1.00  0.00     0.150 S 
ATOM     13  C   UNL     1      -0.945   0.484  -4.285  1.00  0.00     0.158 C 
ATOM     14  O   UNL     1      -3.062   1.373  -3.113  1.00  0.00    -0.229 OA
ATOM     15  O   UNL     1      -0.994   2.809  -3.108  1.00  0.00    -0.229 OA
ENDBRANCH  10  12
ENDBRANCH   8  10
ENDBRANCH   5   8
ENDBRANCH   3   4
ENDBRANCH   2   3
ENDBRANCH   1   2
BRANCH   1  16
ATOM     16  C   UNL     1       0.146   2.246   5.503  1.00  0.00     0.116 C 
BRANCH  16  17
ATOM     17  N   UNL     1      -0.957   2.040   6.433  1.00  0.00    -0.352 N 
ATOM     18  C   UNL     1      -0.998   2.264   7.790  1.00  0.00     0.251 C 
ATOM     19  H   UNL     1      -1.788   1.693   6.035  1.00  0.00     0.163 HD
ATOM     20  O   UNL     1      -1.984   1.930   8.440  1.00  0.00    -0.269 OA
BRANCH  18  21
ATOM     21  C   UNL     1       0.169   2.871   8.469  1.00  0.00     0.039 A 
ATOM     22  C   UNL     1       0.697   2.239   9.597  1.00  0.00     0.014 A 
ATOM     23  C   UNL     1       0.770   4.026   7.963  1.00  0.00     0.014 A 
ATOM     24  C   UNL     1       1.888   2.707  10.159  1.00  0.00     0.010 A 
ATOM     25  C   UNL     1       1.988   4.454   8.485  1.00  0.00     0.010 A 
ATOM     26  C   UNL     1       2.572   3.785   9.573  1.00  0.00    -0.014 A 
BRANCH  26  27
ATOM     27  C   UNL     1       3.934   4.179  10.022  1.00  0.00     0.031 A 
ATOM     28  C   UNL     1       4.189   5.552  10.581  1.00  0.00     0.074 A 
ATOM     29  C   UNL     1       4.969   3.343   9.794  1.00  0.00     0.049 A 
ATOM     30  N   UNL     1       5.327   6.108  10.907  1.00  0.00    -0.248 NA
ATOM     31  C   UNL     1       3.018   6.423  10.776  1.00  0.00     0.031 C 
ATOM     32  C   UNL     1       4.865   2.016   9.181  1.00  0.00     0.029 A 
ATOM     33  N   UNL     1       6.318   3.503  10.004  1.00  0.00    -0.354 N 
ATOM     34  C   UNL     1       5.019   7.404  11.300  1.00  0.00     0.074 A 
ATOM     35  C   UNL     1       3.586   7.556  11.167  1.00  0.00     0.031 C 
ATOM     36  C   UNL     1       6.094   1.495   9.044  1.00  0.00     0.029 A 
ATOM     37  C   UNL     1       7.078   2.461   9.521  1.00  0.00     0.049 A 
ATOM     38  H   UNL     1       6.704   4.287  10.457  1.00  0.00     0.167 HD
ATOM     39  C   UNL     1       5.853   8.373  11.745  1.00  0.00     0.034 A 
ATOM     40  C   UNL     1       8.415   2.310   9.439  1.00  0.00     0.034 A 
ATOM     41  C   UNL     1       7.269   8.203  11.925  1.00  0.00     0.049 A 
ATOM     42  C   UNL     1       9.311   3.396   9.972  1.00  0.00     0.074 A 
ATOM     43  C   UNL     1       8.171   9.082  12.499  1.00  0.00     0.029 A 
ATOM     44  N   UNL     1       7.994   7.097  11.515  1.00  0.00    -0.354 N 
ATOM     45  N   UNL     1       8.983   4.534  10.533  1.00  0.00    -0.248 NA
ATOM     46  C   UNL     1      10.762   3.166   9.887  1.00  0.00     0.031 C 
ATOM     47  C   UNL     1       9.449   8.524  12.402  1.00  0.00     0.029 A 
ATOM     48  C   UNL     1       9.338   7.285  11.793  1.00  0.00     0.049 A 
ATOM     49  H   UNL     1       7.612   6.296  11.089  1.00  0.00     0.167 HD
ATOM     50  C   UNL     1      10.181   5.142  10.889  1.00  0.00     0.074 A 
ATOM     51  C   UNL     1      11.242   4.234  10.510  1.00  0.00     0.031 C 
ATOM     52  C   UNL     1      10.384   6.354  11.460  1.00  0.00     0.034 A 
BRANCH  39  53
ATOM     53  C   UNL     1       5.263   9.707  12.117  1.00  0.00     0.023 A 
ATOM     54  C   UNL     1       4.536   9.839  13.316  1.00  0.00     0.012 A 
ATOM     55  C   UNL     1       5.531  10.851  11.338  1.00  0.00     0.148 A 
ATOM     56  C   UNL     1       4.070  11.086  13.729  1.00  0.00     0.002 A 
ATOM     57  C   UNL     1       5.099  12.097  11.777  1.00  0.00     0.091 A 
ATOM     58  F   UNL     1       6.210  10.698  10.192  1.00  0.00    -0.205 F 
ATOM     59  C   UNL     1       4.363  12.215  12.967  1.00  0.00     0.022 A 
BRANCH  57  60
ATOM     60  S   UNL     1       5.493  13.621  10.912  1.00  0.00     0.127 S 
ATOM     61  O   UNL     1       4.173  14.042  10.443  1.00  0.00    -0.237 OA
ATOM     62  O   UNL     1       6.050  14.446  11.985  1.00  0.00    -0.237 OA
ATOM     63  O   UNL     1       6.438  13.260   9.865  1.00  0.00    -0.744 OA
ENDBRANCH  57  60
ENDBRANCH  39  53
BRANCH  40  64
ATOM     64  C   UNL     1       8.996   1.072   8.843  1.00  0.00     0.023 A 
ATOM     65  C   UNL     1       9.694   0.166   9.665  1.00  0.00     0.012 A 
ATOM     66  C   UNL     1       8.860   0.788   7.470  1.00  0.00     0.148 A 
ATOM     67  C   UNL     1      10.281  -0.978   9.123  1.00  0.00     0.002 A 
ATOM     68  C   UNL     1       9.395  -0.385   6.949  1.00  0.00     0.091 A 
ATOM     69  F   UNL     1       8.209   1.669   6.698  1.00  0.00    -0.205 F 
ATOM     70  C   UNL     1      10.124  -1.259   7.769  1.00  0.00     0.022 A 
BRANCH  68  71
ATOM     71  S   UNL     1       9.114  -0.887   5.247  1.00  0.00     0.127 S 
ATOM     72  O   UNL     1      10.397  -0.576   4.625  1.00  0.00    -0.237 OA
ATOM     73  O   UNL     1       8.828  -2.315   5.392  1.00  0.00    -0.237 OA
ATOM     74  O   UNL     1       7.975  -0.097   4.795  1.00  0.00    -0.744 OA
ENDBRANCH  68  71
ENDBRANCH  40  64
BRANCH  52  75
ATOM     75  C   UNL     1      11.804   6.774  11.734  1.00  0.00     0.023 A 
ATOM     76  C   UNL     1      12.638   7.151  10.663  1.00  0.00     0.012 A 
ATOM     77  C   UNL     1      12.283   6.880  13.055  1.00  0.00     0.148 A 
ATOM     78  C   UNL     1      13.936   7.602  10.900  1.00  0.00     0.002 A 
ATOM     79  C   UNL     1      13.560   7.376  13.287  1.00  0.00     0.091 A 
ATOM     80  F   UNL     1      11.478   6.502  14.058  1.00  0.00    -0.205 F 
ATOM     81  C   UNL     1      14.392   7.727  12.210  1.00  0.00     0.022 A 
BRANCH  79  82
ATOM     82  S   UNL     1      14.201   7.662  14.940  1.00  0.00     0.127 S 
ATOM     83  O   UNL     1      15.243   6.641  15.036  1.00  0.00    -0.237 OA
ATOM     84  O   UNL     1      14.699   9.034  14.846  1.00  0.00    -0.237 OA
ATOM     85  O   UNL     1      13.074   7.486  15.846  1.00  0.00    -0.744 OA
ENDBRANCH  79  82
ENDBRANCH  52  75
ENDBRANCH  26  27
ENDBRANCH  18  21
ENDBRANCH  16  17
ENDBRANCH   1  16
TORSDOF 16
