REMARK SMILES CSCC[C@@H](C(=O)NCCCCNC(=O)c1ccc(-c2c3nc(c(-c4cccc(S(=O)(=O)[O-])c4F)c4ccc([nH]4)c(-c4cccc(S(=O)(=O)[O-])c4F)c4nc(c(-c5cccc(S(=O)(=O)[O-])c5F)c5ccc2[nH]5)C=C4)C=C3)cc1)N1C(=O)/C(=C/c2ccc(O)c(O)c2)SC1=S
REMARK SMILES IDX 10 1 9 2 8 3 6 4 7 5 5 7 4 8 3 9 2 10 1 11 79 12 80 13 93 14
REMARK SMILES IDX 81 15 82 16 92 17 94 18 83 19 84 20 85 21 91 22 86 23 89 24
REMARK SMILES IDX 87 25 90 26 88 28 11 30 12 31 13 32 14 33 15 35 16 36 17 37
REMARK SMILES IDX 78 38 18 39 77 40 19 41 20 42 21 43 71 44 22 45 76 46 70 47
REMARK SMILES IDX 72 48 23 49 75 50 69 51 68 52 24 54 56 55 36 56 55 57 37 58
REMARK SMILES IDX 40 59 54 60 73 61 38 62 39 63 53 65 74 66 41 67 25 68 26 69
REMARK SMILES IDX 34 70 27 71 29 72 35 73 28 74 30 75 31 76 32 77 33 78 57 79
REMARK SMILES IDX 58 80 66 81 59 82 61 83 67 84 60 85 62 86 63 87 64 88 65 89
REMARK SMILES IDX 42 90 43 91 51 92 44 93 46 94 52 95 45 96 47 97 48 98 49 99
REMARK SMILES IDX 50 100
REMARK H PARENT 8 6 90 27 88 29 13 34 72 53 40 64
REMARK Flexibility Score: inf
ROOT
ATOM      1  C   UNL     1       3.195   0.978  -3.036  1.00  0.00     0.023 C 
ENDROOT
BRANCH   1   2
ATOM      2  C   UNL     1       3.092   0.860  -1.518  1.00  0.00     0.116 C 
BRANCH   2   3
ATOM      3  N   UNL     1       3.438   2.087  -0.848  1.00  0.00    -0.354 N 
ATOM      4  C   UNL     1       2.661   2.944  -0.133  1.00  0.00     0.243 C 
ATOM      5  O   UNL     1       3.271   3.732   0.600  1.00  0.00    -0.273 OA
ATOM      6  H   UNL     1       4.385   2.346  -0.920  1.00  0.00     0.163 HD
BRANCH   4   7
ATOM      7  C   UNL     1       1.102   2.888  -0.143  1.00  0.00     0.182 C 
BRANCH   7   8
ATOM      8  C   UNL     1       0.361   2.894  -1.496  1.00  0.00     0.046 C 
BRANCH   8   9
ATOM      9  C   UNL     1      -0.263   1.597  -2.029  1.00  0.00     0.072 C 
BRANCH   9  10
ATOM     10  S   UNL     1      -1.508   0.792  -0.967  1.00  0.00    -0.165 SA
ATOM     11  C   UNL     1      -0.472  -0.316   0.031  1.00  0.00     0.085 C 
ENDBRANCH   9  10
ENDBRANCH   8   9
ENDBRANCH   7   8
BRANCH   7  12
ATOM     12  N   UNL     1       0.659   4.046   0.692  1.00  0.00    -0.280 N 
ATOM     13  C   UNL     1       0.068   3.797   1.920  1.00  0.00     0.266 C 
ATOM     14  C   UNL     1       0.834   5.381   0.358  1.00  0.00     0.149 C 
ATOM     15  O   UNL     1      -0.185   2.696   2.393  1.00  0.00    -0.268 OA
ATOM     16  C   UNL     1      -0.289   5.076   2.596  1.00  0.00     0.081 C 
ATOM     17  S   UNL     1       0.287   6.404   1.676  1.00  0.00    -0.054 SA
ATOM     18  S   UNL     1       1.417   6.067  -1.052  1.00  0.00    -0.052 S 
ATOM     19  C   UNL     1      -0.980   5.124   3.746  1.00  0.00     0.029 C 
BRANCH  19  20
ATOM     20  C   UNL     1      -1.378   6.351   4.456  1.00  0.00    -0.020 A 
ATOM     21  C   UNL     1      -0.997   6.518   5.797  1.00  0.00     0.012 A 
ATOM     22  C   UNL     1      -2.131   7.354   3.824  1.00  0.00     0.058 A 
ATOM     23  C   UNL     1      -1.327   7.689   6.488  1.00  0.00     0.051 A 
ATOM     24  C   UNL     1      -2.435   8.523   4.513  1.00  0.00     0.157 A 
ATOM     25  C   UNL     1      -2.035   8.685   5.835  1.00  0.00     0.157 A 
BRANCH  24  26
ATOM     26  O   UNL     1      -3.118   9.551   3.922  1.00  0.00    -0.504 OA
ATOM     27  H   UNL     1      -3.310  10.328   4.410  1.00  0.00     0.293 HD
ENDBRANCH  24  26
BRANCH  25  28
ATOM     28  O   UNL     1      -2.332   9.841   6.498  1.00  0.00    -0.504 OA
ATOM     29  H   UNL     1      -2.064   9.953   7.389  1.00  0.00     0.293 HD
ENDBRANCH  25  28
ENDBRANCH  19  20
ENDBRANCH   7  12
ENDBRANCH   4   7
ENDBRANCH   2   3
ENDBRANCH   1   2
BRANCH   1  30
ATOM     30  C   UNL     1       4.607   0.767  -3.585  1.00  0.00     0.023 C 
BRANCH  30  31
ATOM     31  C   UNL     1       5.217  -0.603  -3.299  1.00  0.00     0.116 C 
BRANCH  31  32
ATOM     32  N   UNL     1       4.416  -1.719  -3.788  1.00  0.00    -0.352 N 
ATOM     33  C   UNL     1       4.864  -2.929  -4.268  1.00  0.00     0.251 C 
ATOM     34  H   UNL     1       3.440  -1.592  -3.774  1.00  0.00     0.163 HD
ATOM     35  O   UNL     1       4.077  -3.752  -4.724  1.00  0.00    -0.269 OA
BRANCH  33  36
ATOM     36  C   UNL     1       6.316  -3.195  -4.263  1.00  0.00     0.039 A 
ATOM     37  C   UNL     1       6.951  -3.523  -5.463  1.00  0.00     0.014 A 
ATOM     38  C   UNL     1       7.054  -3.015  -3.091  1.00  0.00     0.014 A 
ATOM     39  C   UNL     1       8.345  -3.589  -5.504  1.00  0.00     0.010 A 
ATOM     40  C   UNL     1       8.442  -3.007  -3.153  1.00  0.00     0.010 A 
ATOM     41  C   UNL     1       9.102  -3.288  -4.359  1.00  0.00    -0.014 A 
BRANCH  41  42
ATOM     42  C   UNL     1      10.585  -3.234  -4.402  1.00  0.00     0.031 A 
ATOM     43  C   UNL     1      11.396  -4.174  -3.553  1.00  0.00     0.074 A 
ATOM     44  C   UNL     1      11.198  -2.268  -5.115  1.00  0.00     0.049 A 
ATOM     45  N   UNL     1      12.692  -4.229  -3.392  1.00  0.00    -0.248 NA
ATOM     46  C   UNL     1      10.651  -5.159  -2.750  1.00  0.00     0.031 C 
ATOM     47  C   UNL     1      10.520  -1.236  -5.903  1.00  0.00     0.029 A 
ATOM     48  N   UNL     1      12.531  -1.978  -5.269  1.00  0.00    -0.354 N 
ATOM     49  C   UNL     1      12.914  -5.215  -2.439  1.00  0.00     0.074 A 
ATOM     50  C   UNL     1      11.618  -5.711  -2.032  1.00  0.00     0.031 C 
ATOM     51  C   UNL     1      11.439  -0.433  -6.464  1.00  0.00     0.029 A 
ATOM     52  C   UNL     1      12.770  -0.876  -6.059  1.00  0.00     0.049 A 
ATOM     53  H   UNL     1      13.249  -2.508  -4.854  1.00  0.00     0.167 HD
ATOM     54  C   UNL     1      14.091  -5.692  -1.970  1.00  0.00     0.034 A 
ATOM     55  C   UNL     1      13.930  -0.292  -6.418  1.00  0.00     0.034 A 
ATOM     56  C   UNL     1      15.378  -5.248  -2.431  1.00  0.00     0.049 A 
ATOM     57  C   UNL     1      15.226  -0.892  -5.943  1.00  0.00     0.074 A 
ATOM     58  C   UNL     1      16.627  -5.745  -2.106  1.00  0.00     0.029 A 
ATOM     59  N   UNL     1      15.581  -4.203  -3.319  1.00  0.00    -0.354 N 
ATOM     60  N   UNL     1      15.418  -1.941  -5.181  1.00  0.00    -0.248 NA
ATOM     61  C   UNL     1      16.466  -0.252  -6.408  1.00  0.00     0.031 C 
ATOM     62  C   UNL     1      17.587  -4.995  -2.792  1.00  0.00     0.029 A 
ATOM     63  C   UNL     1      16.934  -4.037  -3.552  1.00  0.00     0.049 A 
ATOM     64  H   UNL     1      14.867  -3.659  -3.724  1.00  0.00     0.167 HD
ATOM     65  C   UNL     1      16.796  -2.109  -5.104  1.00  0.00     0.074 A 
ATOM     66  C   UNL     1      17.390  -1.065  -5.915  1.00  0.00     0.031 C 
ATOM     67  C   UNL     1      17.507  -3.034  -4.412  1.00  0.00     0.034 A 
BRANCH  54  68
ATOM     68  C   UNL     1      14.039  -6.802  -0.955  1.00  0.00     0.023 A 
ATOM     69  C   UNL     1      13.656  -8.096  -1.364  1.00  0.00     0.012 A 
ATOM     70  C   UNL     1      14.412  -6.583   0.385  1.00  0.00     0.148 A 
ATOM     71  C   UNL     1      13.609  -9.146  -0.450  1.00  0.00     0.002 A 
ATOM     72  C   UNL     1      14.404  -7.645   1.282  1.00  0.00     0.091 A 
ATOM     73  F   UNL     1      14.749  -5.341   0.762  1.00  0.00    -0.205 F 
ATOM     74  C   UNL     1      13.993  -8.923   0.870  1.00  0.00     0.022 A 
BRANCH  72  75
ATOM     75  S   UNL     1      14.952  -7.474   2.984  1.00  0.00     0.127 S 
ATOM     76  O   UNL     1      13.682  -7.503   3.707  1.00  0.00    -0.237 OA
ATOM     77  O   UNL     1      15.783  -8.666   3.164  1.00  0.00    -0.237 OA
ATOM     78  O   UNL     1      15.681  -6.215   3.044  1.00  0.00    -0.744 OA
ENDBRANCH  72  75
ENDBRANCH  54  68
BRANCH  55  79
ATOM     79  C   UNL     1      13.922   0.871  -7.350  1.00  0.00     0.023 A 
ATOM     80  C   UNL     1      14.375   0.691  -8.672  1.00  0.00     0.012 A 
ATOM     81  C   UNL     1      13.446   2.135  -6.955  1.00  0.00     0.148 A 
ATOM     82  C   UNL     1      14.382   1.754  -9.575  1.00  0.00     0.002 A 
ATOM     83  C   UNL     1      13.407   3.179  -7.874  1.00  0.00     0.091 A 
ATOM     84  F   UNL     1      13.032   2.292  -5.689  1.00  0.00    -0.205 F 
ATOM     85  C   UNL     1      13.889   2.995  -9.179  1.00  0.00     0.022 A 
BRANCH  83  86
ATOM     86  S   UNL     1      12.668   4.770  -7.489  1.00  0.00     0.127 S 
ATOM     87  O   UNL     1      13.847   5.618  -7.334  1.00  0.00    -0.237 OA
ATOM     88  O   UNL     1      11.871   5.035  -8.687  1.00  0.00    -0.237 OA
ATOM     89  O   UNL     1      11.879   4.549  -6.284  1.00  0.00    -0.744 OA
ENDBRANCH  83  86
ENDBRANCH  55  79
BRANCH  67  90
ATOM     90  C   UNL     1      19.007  -2.987  -4.519  1.00  0.00     0.023 A 
ATOM     91  C   UNL     1      19.722  -1.981  -3.841  1.00  0.00     0.012 A 
ATOM     92  C   UNL     1      19.711  -3.989  -5.216  1.00  0.00     0.148 A 
ATOM     93  C   UNL     1      21.116  -1.958  -3.876  1.00  0.00     0.002 A 
ATOM     94  C   UNL     1      21.101  -3.985  -5.210  1.00  0.00     0.091 A 
ATOM     95  F   UNL     1      19.010  -4.925  -5.873  1.00  0.00    -0.205 F 
ATOM     96  C   UNL     1      21.804  -2.965  -4.548  1.00  0.00     0.022 A 
BRANCH  94  97
ATOM     97  S   UNL     1      22.065  -5.297  -5.969  1.00  0.00     0.127 S 
ATOM     98  O   UNL     1      22.530  -4.654  -7.196  1.00  0.00    -0.237 OA
ATOM     99  O   UNL     1      23.109  -5.536  -4.972  1.00  0.00    -0.237 OA
ATOM    100  O   UNL     1      21.144  -6.411  -6.152  1.00  0.00    -0.744 OA
ENDBRANCH  94  97
ENDBRANCH  67  90
ENDBRANCH  41  42
ENDBRANCH  33  36
ENDBRANCH  31  32
ENDBRANCH  30  31
ENDBRANCH   1  30
TORSDOF 21
