REMARK SMILES C[C@H]1[C@H](C(=O)NCCCCNC(=O)c2ccc(-c3c4nc(c(-c5cccc(S(=O)(=O)[O-])c5F)c5ccc([nH]5)c(-c5cccc(S(=O)(=O)[O-])c5F)c5nc(c(-c6cccc(S(=O)(=O)[O-])c6F)c6ccc3[nH]6)C=C5)C=C4)cc2)CC[N@@H+]1CC(=O)N1CCCC1
REMARK SMILES IDX 9 1 8 2 7 3 6 4 4 5 5 6 3 8 1 9 2 10 79 11 77 12 78 13 80 15
REMARK SMILES IDX 81 16 82 17 83 18 84 19 87 20 85 21 86 22 10 23 11 24 12 25
REMARK SMILES IDX 13 27 14 28 15 29 76 30 16 31 75 32 17 33 18 34 19 35 69 36
REMARK SMILES IDX 20 37 74 38 68 39 70 40 21 41 73 42 67 43 66 44 22 46 54 47
REMARK SMILES IDX 34 48 53 49 35 50 38 51 52 52 71 53 36 54 37 55 51 57 72 58
REMARK SMILES IDX 39 59 23 60 24 61 32 62 25 63 27 64 33 65 26 66 28 67 29 68
REMARK SMILES IDX 30 69 31 70 55 71 56 72 64 73 57 74 59 75 65 76 58 77 60 78
REMARK SMILES IDX 61 79 62 80 63 81 40 82 41 83 49 84 42 85 44 86 50 87 43 88
REMARK SMILES IDX 45 89 46 90 47 91 48 92
REMARK H PARENT 6 7 79 14 11 26 70 45 38 56
REMARK Flexibility Score: inf
ROOT
ATOM      1  C   UNL     1      -1.308   0.597   5.522  1.00  0.00     0.023 C 
ENDROOT
BRANCH   1   2
ATOM      2  C   UNL     1      -1.556  -0.111   4.206  1.00  0.00     0.023 C 
BRANCH   2   3
ATOM      3  C   UNL     1      -2.283   0.553   2.998  1.00  0.00     0.116 C 
BRANCH   3   4
ATOM      4  N   UNL     1      -1.643   1.665   2.270  1.00  0.00    -0.356 N 
ATOM      5  C   UNL     1      -1.254   1.984   1.002  1.00  0.00     0.229 C 
ATOM      6  O   UNL     1      -0.943   3.185   0.880  1.00  0.00    -0.275 OA
ATOM      7  H   UNL     1      -1.432   2.402   2.888  1.00  0.00     0.163 HD
BRANCH   5   8
ATOM      8  C   UNL     1      -1.062   1.118  -0.276  1.00  0.00     0.142 C 
ATOM      9  C   UNL     1       1.051   0.997  -1.866  1.00  0.00     0.076 C 
ATOM     10  C   UNL     1       0.389   0.666  -0.527  1.00  0.00     0.194 C 
ATOM     11  N   UNL     1       0.421  -0.805  -0.491  1.00  0.00    -0.324 N 
ATOM     12  C   UNL     1      -1.908  -0.109  -0.488  1.00  0.00     0.081 C 
ATOM     13  C   UNL     1      -0.960  -1.299  -0.377  1.00  0.00     0.263 C 
ATOM     14  H   UNL     1       0.791  -1.193  -1.358  1.00  0.00     0.348 HD
BRANCH  11  15
ATOM     15  C   UNL     1       1.375  -1.298   0.536  1.00  0.00     0.364 C 
BRANCH  15  16
ATOM     16  C   UNL     1       1.051  -0.660   1.873  1.00  0.00     0.277 C 
ATOM     17  O   UNL     1       0.034  -1.114   2.387  1.00  0.00    -0.268 OA
ATOM     18  N   UNL     1       1.772   0.444   2.312  1.00  0.00    -0.338 N 
ATOM     19  C   UNL     1       3.118   0.796   1.917  1.00  0.00     0.119 C 
ATOM     20  C   UNL     1       1.245   1.539   3.111  1.00  0.00     0.119 C 
ATOM     21  C   UNL     1       3.563   1.902   2.885  1.00  0.00     0.023 C 
ATOM     22  C   UNL     1       2.421   2.084   3.874  1.00  0.00     0.023 C 
ENDBRANCH  15  16
ENDBRANCH  11  15
ENDBRANCH   5   8
ENDBRANCH   3   4
ENDBRANCH   2   3
ENDBRANCH   1   2
BRANCH   1  23
ATOM     23  C   UNL     1      -2.525   0.706   6.380  1.00  0.00     0.116 C 
BRANCH  23  24
ATOM     24  N   UNL     1      -3.102  -0.602   6.698  1.00  0.00    -0.352 N 
ATOM     25  C   UNL     1      -3.390  -1.111   7.940  1.00  0.00     0.251 C 
ATOM     26  H   UNL     1      -3.308  -1.184   5.931  1.00  0.00     0.163 HD
ATOM     27  O   UNL     1      -3.678  -2.294   8.100  1.00  0.00    -0.269 OA
BRANCH  25  28
ATOM     28  C   UNL     1      -3.322  -0.177   9.074  1.00  0.00     0.039 A 
ATOM     29  C   UNL     1      -2.615  -0.513  10.226  1.00  0.00     0.014 A 
ATOM     30  C   UNL     1      -3.840   1.106   8.890  1.00  0.00     0.014 A 
ATOM     31  C   UNL     1      -2.395   0.473  11.184  1.00  0.00     0.010 A 
ATOM     32  C   UNL     1      -3.442   2.117   9.736  1.00  0.00     0.010 A 
ATOM     33  C   UNL     1      -2.790   1.798  10.931  1.00  0.00    -0.014 A 
BRANCH  33  34
ATOM     34  C   UNL     1      -2.659   2.867  11.943  1.00  0.00     0.031 A 
ATOM     35  C   UNL     1      -3.909   3.582  12.395  1.00  0.00     0.074 A 
ATOM     36  C   UNL     1      -1.443   3.239  12.381  1.00  0.00     0.049 A 
ATOM     37  N   UNL     1      -4.029   4.594  13.210  1.00  0.00    -0.248 NA
ATOM     38  C   UNL     1      -5.191   3.143  11.806  1.00  0.00     0.031 C 
ATOM     39  C   UNL     1      -0.165   2.684  11.928  1.00  0.00     0.029 A 
ATOM     40  N   UNL     1      -1.085   4.188  13.302  1.00  0.00    -0.354 N 
ATOM     41  C   UNL     1      -5.376   4.936  13.182  1.00  0.00     0.074 A 
ATOM     42  C   UNL     1      -6.020   4.089  12.211  1.00  0.00     0.031 C 
ATOM     43  C   UNL     1       0.835   3.281  12.597  1.00  0.00     0.029 A 
ATOM     44  C   UNL     1       0.272   4.277  13.502  1.00  0.00     0.049 A 
ATOM     45  H   UNL     1      -1.738   4.752  13.775  1.00  0.00     0.167 HD
ATOM     46  C   UNL     1      -6.036   5.835  13.944  1.00  0.00     0.034 A 
ATOM     47  C   UNL     1       0.971   5.074  14.332  1.00  0.00     0.034 A 
ATOM     48  C   UNL     1      -5.397   6.606  14.968  1.00  0.00     0.049 A 
ATOM     49  C   UNL     1       0.208   6.012  15.229  1.00  0.00     0.074 A 
ATOM     50  C   UNL     1      -5.970   7.469  15.881  1.00  0.00     0.029 A 
ATOM     51  N   UNL     1      -4.033   6.596  15.216  1.00  0.00    -0.354 N 
ATOM     52  N   UNL     1      -1.088   6.209  15.307  1.00  0.00    -0.248 NA
ATOM     53  C   UNL     1       0.995   6.808  16.179  1.00  0.00     0.031 C 
ATOM     54  C   UNL     1      -4.944   8.005  16.665  1.00  0.00     0.029 A 
ATOM     55  C   UNL     1      -3.739   7.447  16.263  1.00  0.00     0.049 A 
ATOM     56  H   UNL     1      -3.372   6.062  14.719  1.00  0.00     0.167 HD
ATOM     57  C   UNL     1      -1.274   7.124  16.336  1.00  0.00     0.074 A 
ATOM     58  C   UNL     1       0.042   7.423  16.866  1.00  0.00     0.031 C 
ATOM     59  C   UNL     1      -2.422   7.681  16.795  1.00  0.00     0.034 A 
BRANCH  46  60
ATOM     60  C   UNL     1      -7.521   5.974  13.735  1.00  0.00     0.023 A 
ATOM     61  C   UNL     1      -8.384   4.914  14.087  1.00  0.00     0.012 A 
ATOM     62  C   UNL     1      -8.065   7.160  13.208  1.00  0.00     0.148 A 
ATOM     63  C   UNL     1      -9.758   5.015  13.876  1.00  0.00     0.002 A 
ATOM     64  C   UNL     1      -9.441   7.274  13.053  1.00  0.00     0.091 A 
ATOM     65  F   UNL     1      -7.228   8.145  12.852  1.00  0.00    -0.205 F 
ATOM     66  C   UNL     1     -10.287   6.198  13.371  1.00  0.00     0.022 A 
BRANCH  64  67
ATOM     67  S   UNL     1     -10.230   8.785  12.490  1.00  0.00     0.127 S 
ATOM     68  O   UNL     1     -10.742   8.381  11.181  1.00  0.00    -0.237 OA
ATOM     69  O   UNL     1     -11.258   8.991  13.510  1.00  0.00    -0.237 OA
ATOM     70  O   UNL     1      -9.186   9.799  12.463  1.00  0.00    -0.744 OA
ENDBRANCH  64  67
ENDBRANCH  46  60
BRANCH  47  71
ATOM     71  C   UNL     1       2.454   4.955  14.412  1.00  0.00     0.023 A 
ATOM     72  C   UNL     1       3.046   4.414  15.570  1.00  0.00     0.012 A 
ATOM     73  C   UNL     1       3.278   5.344  13.339  1.00  0.00     0.148 A 
ATOM     74  C   UNL     1       4.433   4.295  15.672  1.00  0.00     0.002 A 
ATOM     75  C   UNL     1       4.655   5.172  13.425  1.00  0.00     0.091 A 
ATOM     76  F   UNL     1       2.697   5.862  12.248  1.00  0.00    -0.205 F 
ATOM     77  C   UNL     1       5.236   4.666  14.598  1.00  0.00     0.022 A 
BRANCH  75  78
ATOM     78  S   UNL     1       5.754   5.498  12.042  1.00  0.00     0.127 S 
ATOM     79  O   UNL     1       6.467   6.688  12.499  1.00  0.00    -0.237 OA
ATOM     80  O   UNL     1       6.558   4.276  12.000  1.00  0.00    -0.237 OA
ATOM     81  O   UNL     1       4.888   5.684  10.886  1.00  0.00    -0.744 OA
ENDBRANCH  75  78
ENDBRANCH  47  71
BRANCH  59  82
ATOM     82  C   UNL     1      -2.315   8.639  17.949  1.00  0.00     0.023 A 
ATOM     83  C   UNL     1      -1.775   9.923  17.746  1.00  0.00     0.012 A 
ATOM     84  C   UNL     1      -2.837   8.293  19.210  1.00  0.00     0.148 A 
ATOM     85  C   UNL     1      -1.723  10.839  18.794  1.00  0.00     0.002 A 
ATOM     86  C   UNL     1      -2.832   9.230  20.234  1.00  0.00     0.091 A 
ATOM     87  F   UNL     1      -3.334   7.059  19.381  1.00  0.00    -0.205 F 
ATOM     88  C   UNL     1      -2.263  10.498  20.032  1.00  0.00     0.022 A 
BRANCH  86  89
ATOM     89  S   UNL     1      -3.601   8.917  21.826  1.00  0.00     0.127 S 
ATOM     90  O   UNL     1      -2.436   8.789  22.698  1.00  0.00    -0.237 OA
ATOM     91  O   UNL     1      -4.390  10.132  22.032  1.00  0.00    -0.237 OA
ATOM     92  O   UNL     1      -4.392   7.705  21.659  1.00  0.00    -0.744 OA
ENDBRANCH  86  89
ENDBRANCH  59  82
ENDBRANCH  33  34
ENDBRANCH  25  28
ENDBRANCH  23  24
ENDBRANCH   1  23
TORSDOF 16
