REMARK SMILES O=CN1CCC[C@@H](C(=O)NCCCCNC(=O)c2ccc(-c3c4nc(c(-c5cccc(S(=O)(=O)[O-])c5F)c5ccc([nH]5)c(-c5cccc(S(=O)(=O)[O-])c5F)c5nc(c(-c6cccc(S(=O)(=O)[O-])c6F)c6ccc3[nH]6)C=C5)C=C4)cc2)C1
REMARK SMILES IDX 13 1 12 2 11 3 10 4 8 5 9 6 7 8 3 9 4 10 81 11 5 12 6 13
REMARK SMILES IDX 2 14 1 15 14 16 15 17 16 18 17 20 18 21 19 22 80 23 20 24
REMARK SMILES IDX 79 25 21 26 22 27 23 28 73 29 24 30 78 31 72 32 74 33 25 34
REMARK SMILES IDX 77 35 71 36 70 37 26 39 58 40 38 41 57 42 39 43 42 44 56 45
REMARK SMILES IDX 75 46 40 47 41 48 55 50 76 51 43 52 27 53 28 54 36 55 29 56
REMARK SMILES IDX 31 57 37 58 30 59 32 60 33 61 34 62 35 63 59 64 60 65 68 66
REMARK SMILES IDX 61 67 63 68 69 69 62 70 64 71 65 72 66 73 67 74 44 75 45 76
REMARK SMILES IDX 53 77 46 78 48 79 54 80 47 81 49 82 50 83 51 84 52 85
REMARK H PARENT 10 7 15 19 74 38 42 49
REMARK Flexibility Score: inf
ROOT
ATOM      1  C   UNL     1       2.622   7.145   2.470  1.00  0.00     0.023 C 
ENDROOT
BRANCH   1   2
ATOM      2  C   UNL     1       3.772   6.149   2.324  1.00  0.00     0.023 C 
BRANCH   2   3
ATOM      3  C   UNL     1       3.469   4.925   1.466  1.00  0.00     0.116 C 
BRANCH   3   4
ATOM      4  N   UNL     1       3.225   5.259   0.076  1.00  0.00    -0.356 N 
ATOM      5  C   UNL     1       3.326   4.448  -1.016  1.00  0.00     0.224 C 
ATOM      6  O   UNL     1       3.087   4.911  -2.131  1.00  0.00    -0.275 OA
ATOM      7  H   UNL     1       2.952   6.189  -0.102  1.00  0.00     0.163 HD
BRANCH   5   8
ATOM      8  C   UNL     1       3.730   3.001  -0.826  1.00  0.00     0.098 C 
ATOM      9  N   UNL     1       2.987   0.705  -1.149  1.00  0.00    -0.344 N 
ATOM     10  C   UNL     1       4.190   0.300  -1.860  1.00  0.00     0.119 C 
ATOM     11  C   UNL     1       2.587   2.102  -1.291  1.00  0.00     0.132 C 
ATOM     12  C   UNL     1       5.368   1.200  -1.484  1.00  0.00     0.022 C 
ATOM     13  C   UNL     1       5.009   2.684  -1.616  1.00  0.00     0.017 C 
BRANCH   9  14
ATOM     14  C   UNL     1       2.311  -0.142  -0.301  1.00  0.00     0.339 C 
ATOM     15  O   UNL     1       1.353   0.160   0.401  1.00  0.00    -0.279 OA
ENDBRANCH   9  14
ENDBRANCH   5   8
ENDBRANCH   3   4
ENDBRANCH   2   3
ENDBRANCH   1   2
BRANCH   1  16
ATOM     16  C   UNL     1       1.334   6.571   3.047  1.00  0.00     0.116 C 
BRANCH  16  17
ATOM     17  N   UNL     1       1.509   6.039   4.391  1.00  0.00    -0.352 N 
ATOM     18  C   UNL     1       0.834   6.348   5.548  1.00  0.00     0.251 C 
ATOM     19  H   UNL     1       2.213   5.358   4.484  1.00  0.00     0.163 HD
ATOM     20  O   UNL     1       1.239   5.914   6.623  1.00  0.00    -0.269 OA
BRANCH  18  21
ATOM     21  C   UNL     1      -0.360   7.222   5.502  1.00  0.00     0.039 A 
ATOM     22  C   UNL     1      -0.498   8.229   6.460  1.00  0.00     0.014 A 
ATOM     23  C   UNL     1      -1.339   7.054   4.519  1.00  0.00     0.014 A 
ATOM     24  C   UNL     1      -1.583   9.106   6.392  1.00  0.00     0.010 A 
ATOM     25  C   UNL     1      -2.370   7.982   4.400  1.00  0.00     0.010 A 
ATOM     26  C   UNL     1      -2.510   9.014   5.340  1.00  0.00    -0.014 A 
BRANCH  26  27
ATOM     27  C   UNL     1      -3.620   9.995   5.205  1.00  0.00     0.031 A 
ATOM     28  C   UNL     1      -5.054   9.541   5.266  1.00  0.00     0.074 A 
ATOM     29  C   UNL     1      -3.336  11.290   4.957  1.00  0.00     0.049 A 
ATOM     30  N   UNL     1      -6.148  10.249   5.150  1.00  0.00    -0.248 NA
ATOM     31  C   UNL     1      -5.294   8.100   5.455  1.00  0.00     0.031 C 
ATOM     32  C   UNL     1      -1.991  11.845   4.789  1.00  0.00     0.029 A 
ATOM     33  N   UNL     1      -4.163  12.372   4.781  1.00  0.00    -0.354 N 
ATOM     34  C   UNL     1      -7.199   9.342   5.218  1.00  0.00     0.074 A 
ATOM     35  C   UNL     1      -6.612   8.027   5.346  1.00  0.00     0.031 C 
ATOM     36  C   UNL     1      -2.084  13.162   4.548  1.00  0.00     0.029 A 
ATOM     37  C   UNL     1      -3.492  13.542   4.512  1.00  0.00     0.049 A 
ATOM     38  H   UNL     1      -5.144  12.315   4.841  1.00  0.00     0.167 HD
ATOM     39  C   UNL     1      -8.533   9.581   5.206  1.00  0.00     0.034 A 
ATOM     40  C   UNL     1      -3.957  14.782   4.260  1.00  0.00     0.034 A 
ATOM     41  C   UNL     1      -9.115  10.893   5.112  1.00  0.00     0.049 A 
ATOM     42  C   UNL     1      -5.441  15.027   4.292  1.00  0.00     0.074 A 
ATOM     43  C   UNL     1     -10.451  11.248   5.177  1.00  0.00     0.029 A 
ATOM     44  N   UNL     1      -8.401  12.066   4.921  1.00  0.00    -0.354 N 
ATOM     45  N   UNL     1      -6.414  14.178   4.520  1.00  0.00    -0.248 NA
ATOM     46  C   UNL     1      -5.890  16.409   4.072  1.00  0.00     0.031 C 
ATOM     47  C   UNL     1     -10.547  12.631   4.994  1.00  0.00     0.029 A 
ATOM     48  C   UNL     1      -9.267  13.144   4.856  1.00  0.00     0.049 A 
ATOM     49  H   UNL     1      -7.421  12.123   4.844  1.00  0.00     0.167 HD
ATOM     50  C   UNL     1      -7.585  14.929   4.511  1.00  0.00     0.074 A 
ATOM     51  C   UNL     1      -7.196  16.304   4.277  1.00  0.00     0.031 C 
ATOM     52  C   UNL     1      -8.866  14.515   4.670  1.00  0.00     0.034 A 
BRANCH  39  53
ATOM     53  C   UNL     1      -9.458   8.399   5.343  1.00  0.00     0.023 A 
ATOM     54  C   UNL     1      -9.536   7.712   6.572  1.00  0.00     0.012 A 
ATOM     55  C   UNL     1     -10.292   8.003   4.279  1.00  0.00     0.148 A 
ATOM     56  C   UNL     1     -10.398   6.627   6.729  1.00  0.00     0.002 A 
ATOM     57  C   UNL     1     -11.185   6.952   4.458  1.00  0.00     0.091 A 
ATOM     58  F   UNL     1     -10.193   8.654   3.111  1.00  0.00    -0.205 F 
ATOM     59  C   UNL     1     -11.229   6.255   5.676  1.00  0.00     0.022 A 
BRANCH  57  60
ATOM     60  S   UNL     1     -12.359   6.450   3.194  1.00  0.00     0.127 S 
ATOM     61  O   UNL     1     -11.831   5.143   2.804  1.00  0.00    -0.237 OA
ATOM     62  O   UNL     1     -13.614   6.400   3.945  1.00  0.00    -0.237 OA
ATOM     63  O   UNL     1     -12.306   7.477   2.164  1.00  0.00    -0.744 OA
ENDBRANCH  57  60
ENDBRANCH  39  53
BRANCH  40  64
ATOM     64  C   UNL     1      -3.003  15.902   4.018  1.00  0.00     0.023 A 
ATOM     65  C   UNL     1      -2.873  16.923   4.981  1.00  0.00     0.012 A 
ATOM     66  C   UNL     1      -2.215  15.953   2.853  1.00  0.00     0.148 A 
ATOM     67  C   UNL     1      -2.004  17.994   4.770  1.00  0.00     0.002 A 
ATOM     68  C   UNL     1      -1.308  16.992   2.676  1.00  0.00     0.091 A 
ATOM     69  F   UNL     1      -2.360  14.977   1.946  1.00  0.00    -0.205 F 
ATOM     70  C   UNL     1      -1.216  18.023   3.623  1.00  0.00     0.022 A 
BRANCH  68  71
ATOM     71  S   UNL     1      -0.159  17.043   1.297  1.00  0.00     0.127 S 
ATOM     72  O   UNL     1      -0.670  18.173   0.524  1.00  0.00    -0.237 OA
ATOM     73  O   UNL     1       1.114  17.286   1.976  1.00  0.00    -0.237 OA
ATOM     74  O   UNL     1      -0.257  15.740   0.653  1.00  0.00    -0.744 OA
ENDBRANCH  68  71
ENDBRANCH  40  64
BRANCH  52  75
ATOM     75  C   UNL     1      -9.947  15.566   4.645  1.00  0.00     0.023 A 
ATOM     76  C   UNL     1     -10.274  16.217   3.439  1.00  0.00     0.012 A 
ATOM     77  C   UNL     1     -10.676  15.870   5.812  1.00  0.00     0.148 A 
ATOM     78  C   UNL     1     -11.278  17.183   3.404  1.00  0.00     0.002 A 
ATOM     79  C   UNL     1     -11.712  16.794   5.758  1.00  0.00     0.091 A 
ATOM     80  F   UNL     1     -10.340  15.255   6.956  1.00  0.00    -0.205 F 
ATOM     81  C   UNL     1     -12.004  17.464   4.559  1.00  0.00     0.022 A 
BRANCH  79  82
ATOM     82  S   UNL     1     -12.764  17.143   7.172  1.00  0.00     0.127 S 
ATOM     83  O   UNL     1     -12.303  18.475   7.564  1.00  0.00    -0.237 OA
ATOM     84  O   UNL     1     -14.101  17.111   6.579  1.00  0.00    -0.237 OA
ATOM     85  O   UNL     1     -12.505  16.083   8.136  1.00  0.00    -0.744 OA
ENDBRANCH  79  82
ENDBRANCH  52  75
ENDBRANCH  26  27
ENDBRANCH  18  21
ENDBRANCH  16  17
ENDBRANCH   1  16
TORSDOF 15
