REMARK SMILES CC[C@@H](C)CN(C)c1cccc(Cl)c1/C=C/C(=O)NCCCCNC(=O)c1ccc(-c2c3nc(c(-c4cccc(S(=O)(=O)[O-])c4F)c4ccc([nH]4)c(-c4cccc(S(=O)(=O)[O-])c4F)c4nc(c(-c5cccc(S(=O)(=O)[O-])c5F)c5ccc2[nH]5)C=C4)C=C3)cc1
REMARK SMILES IDX 20 1 19 2 17 3 18 4 16 6 15 7 14 8 8 9 9 10 10 11 12 12
REMARK SMILES IDX 11 13 13 14 6 15 7 16 5 17 3 18 4 19 2 20 1 21 21 22 22 23
REMARK SMILES IDX 23 24 24 25 25 26 26 28 27 29 28 30 89 31 29 32 88 33 30 34
REMARK SMILES IDX 31 35 32 36 82 37 33 38 87 39 81 40 83 41 34 42 86 43 80 44
REMARK SMILES IDX 79 45 35 47 67 48 47 49 66 50 48 51 51 52 65 53 84 54 49 55
REMARK SMILES IDX 50 56 64 58 85 59 52 60 36 61 37 62 45 63 38 64 40 65 46 66
REMARK SMILES IDX 39 67 41 68 42 69 43 70 44 71 68 72 69 73 77 74 70 75 72 76
REMARK SMILES IDX 78 77 71 78 73 79 74 80 75 81 76 82 53 83 54 84 62 85 55 86
REMARK SMILES IDX 57 87 63 88 56 89 58 90 59 91 60 92 61 93
REMARK H PARENT 19 5 24 27 83 46 51 57
REMARK Flexibility Score: inf
ROOT
ATOM      1  C   UNL     1      -1.167   8.214  -3.891  1.00  0.00     0.116 C 
ENDROOT
BRANCH   1   2
ATOM      2  N   UNL     1      -0.566   7.460  -4.977  1.00  0.00    -0.353 N 
ATOM      3  C   UNL     1      -0.272   6.130  -5.038  1.00  0.00     0.244 C 
ATOM      4  O   UNL     1       0.073   5.612  -6.097  1.00  0.00    -0.270 OA
ATOM      5  H   UNL     1      -0.340   7.981  -5.781  1.00  0.00     0.163 HD
BRANCH   3   6
ATOM      6  C   UNL     1      -0.400   5.288  -3.828  1.00  0.00     0.072 C 
ATOM      7  C   UNL     1       0.242   5.626  -2.702  1.00  0.00     0.017 C 
BRANCH   7   8
ATOM      8  C   UNL     1       0.334   4.831  -1.465  1.00  0.00     0.017 A 
ATOM      9  C   UNL     1       1.065   3.621  -1.421  1.00  0.00     0.045 A 
ATOM     10  C   UNL     1       1.397   3.094  -0.160  1.00  0.00     0.026 A 
ATOM     11  C   UNL     1       0.901   3.638   1.023  1.00  0.00     0.004 A 
ATOM     12  C   UNL     1      -0.183   5.361  -0.262  1.00  0.00     0.050 A 
ATOM     13  C   UNL     1       0.076   4.751   0.968  1.00  0.00     0.021 A 
ATOM     14  Cl  UNL     1      -1.172   6.785  -0.231  1.00  0.00    -0.084 Cl
BRANCH   9  15
ATOM     15  N   UNL     1       1.429   2.891  -2.546  1.00  0.00    -0.374 N 
ATOM     16  C   UNL     1       2.536   3.349  -3.371  1.00  0.00     0.143 C 
BRANCH  15  17
ATOM     17  C   UNL     1       0.538   1.819  -3.017  1.00  0.00     0.119 C 
BRANCH  17  18
ATOM     18  C   UNL     1       0.789   0.488  -2.265  1.00  0.00     0.005 C 
ATOM     19  C   UNL     1       0.564  -0.705  -3.202  1.00  0.00     0.009 C 
BRANCH  18  20
ATOM     20  C   UNL     1      -0.129   0.336  -1.030  1.00  0.00     0.002 C 
ATOM     21  C   UNL     1       0.540  -0.449   0.093  1.00  0.00     0.004 C 
ENDBRANCH  18  20
ENDBRANCH  17  18
ENDBRANCH  15  17
ENDBRANCH   9  15
ENDBRANCH   7   8
ENDBRANCH   3   6
ENDBRANCH   1   2
BRANCH   1  22
ATOM     22  C   UNL     1      -0.196   9.231  -3.292  1.00  0.00     0.023 C 
BRANCH  22  23
ATOM     23  C   UNL     1      -0.025  10.513  -4.111  1.00  0.00     0.023 C 
BRANCH  23  24
ATOM     24  C   UNL     1      -1.314  11.273  -4.410  1.00  0.00     0.116 C 
BRANCH  24  25
ATOM     25  N   UNL     1      -2.101  11.577  -3.224  1.00  0.00    -0.352 N 
ATOM     26  C   UNL     1      -2.936  12.651  -3.009  1.00  0.00     0.251 C 
ATOM     27  H   UNL     1      -2.027  10.934  -2.482  1.00  0.00     0.163 HD
ATOM     28  O   UNL     1      -3.465  12.823  -1.922  1.00  0.00    -0.269 OA
BRANCH  26  29
ATOM     29  C   UNL     1      -3.146  13.617  -4.109  1.00  0.00     0.039 A 
ATOM     30  C   UNL     1      -2.920  14.973  -3.864  1.00  0.00     0.014 A 
ATOM     31  C   UNL     1      -3.504  13.173  -5.384  1.00  0.00     0.014 A 
ATOM     32  C   UNL     1      -2.984  15.881  -4.923  1.00  0.00     0.010 A 
ATOM     33  C   UNL     1      -3.501  14.069  -6.448  1.00  0.00     0.010 A 
ATOM     34  C   UNL     1      -3.238  15.430  -6.229  1.00  0.00    -0.014 A 
BRANCH  34  35
ATOM     35  C   UNL     1      -3.205  16.359  -7.385  1.00  0.00     0.031 A 
ATOM     36  C   UNL     1      -4.448  16.606  -8.193  1.00  0.00     0.074 A 
ATOM     37  C   UNL     1      -2.030  16.900  -7.766  1.00  0.00     0.049 A 
ATOM     38  N   UNL     1      -4.600  17.333  -9.268  1.00  0.00    -0.248 NA
ATOM     39  C   UNL     1      -5.676  15.923  -7.752  1.00  0.00     0.031 C 
ATOM     40  C   UNL     1      -0.739  16.663  -7.117  1.00  0.00     0.029 A 
ATOM     41  N   UNL     1      -1.727  17.736  -8.812  1.00  0.00    -0.354 N 
ATOM     42  C   UNL     1      -5.925  17.169  -9.653  1.00  0.00     0.074 A 
ATOM     43  C   UNL     1      -6.526  16.246  -8.716  1.00  0.00     0.031 C 
ATOM     44  C   UNL     1       0.216  17.338  -7.777  1.00  0.00     0.029 A 
ATOM     45  C   UNL     1      -0.388  18.036  -8.907  1.00  0.00     0.049 A 
ATOM     46  H   UNL     1      -2.404  18.088  -9.434  1.00  0.00     0.167 HD
ATOM     47  C   UNL     1      -6.590  17.758 -10.675  1.00  0.00     0.034 A 
ATOM     48  C   UNL     1       0.279  18.787  -9.807  1.00  0.00     0.034 A 
ATOM     49  C   UNL     1      -6.001  18.713 -11.573  1.00  0.00     0.049 A 
ATOM     50  C   UNL     1      -0.495  19.473 -10.899  1.00  0.00     0.074 A 
ATOM     51  C   UNL     1      -6.613  19.441 -12.578  1.00  0.00     0.029 A 
ATOM     52  N   UNL     1      -4.662  19.072 -11.579  1.00  0.00    -0.354 N 
ATOM     53  N   UNL     1      -1.783  19.443 -11.142  1.00  0.00    -0.248 NA
ATOM     54  C   UNL     1       0.269  20.328 -11.819  1.00  0.00     0.031 C 
ATOM     55  C   UNL     1      -5.640  20.229 -13.201  1.00  0.00     0.029 A 
ATOM     56  C   UNL     1      -4.425  20.005 -12.573  1.00  0.00     0.049 A 
ATOM     57  H   UNL     1      -3.979  18.715 -10.965  1.00  0.00     0.167 HD
ATOM     58  C   UNL     1      -1.989  20.298 -12.219  1.00  0.00     0.074 A 
ATOM     59  C   UNL     1      -0.695  20.849 -12.567  1.00  0.00     0.031 C 
ATOM     60  C   UNL     1      -3.142  20.587 -12.871  1.00  0.00     0.034 A 
BRANCH  47  61
ATOM     61  C   UNL     1      -8.052  17.433 -10.836  1.00  0.00     0.023 A 
ATOM     62  C   UNL     1      -8.979  17.944  -9.904  1.00  0.00     0.012 A 
ATOM     63  C   UNL     1      -8.515  16.675 -11.928  1.00  0.00     0.148 A 
ATOM     64  C   UNL     1     -10.341  17.678 -10.037  1.00  0.00     0.002 A 
ATOM     65  C   UNL     1      -9.879  16.448 -12.077  1.00  0.00     0.091 A 
ATOM     66  F   UNL     1      -7.617  16.177 -12.790  1.00  0.00    -0.205 F 
ATOM     67  C   UNL     1     -10.791  16.939 -11.128  1.00  0.00     0.022 A 
BRANCH  65  68
ATOM     68  S   UNL     1     -10.567  15.574 -13.488  1.00  0.00     0.127 S 
ATOM     69  O   UNL     1     -10.961  14.303 -12.883  1.00  0.00    -0.237 OA
ATOM     70  O   UNL     1     -11.683  16.438 -13.873  1.00  0.00    -0.237 OA
ATOM     71  O   UNL     1      -9.495  15.495 -14.470  1.00  0.00    -0.744 OA
ENDBRANCH  65  68
ENDBRANCH  47  61
BRANCH  48  72
ATOM     72  C   UNL     1       1.748  18.992  -9.662  1.00  0.00     0.023 A 
ATOM     73  C   UNL     1       2.230  20.254  -9.264  1.00  0.00     0.012 A 
ATOM     74  C   UNL     1       2.663  17.945  -9.881  1.00  0.00     0.148 A 
ATOM     75  C   UNL     1       3.599  20.479  -9.117  1.00  0.00     0.002 A 
ATOM     76  C   UNL     1       4.022  18.161  -9.681  1.00  0.00     0.091 A 
ATOM     77  F   UNL     1       2.187  16.754 -10.271  1.00  0.00    -0.205 F 
ATOM     78  C   UNL     1       4.494  19.431  -9.315  1.00  0.00     0.022 A 
BRANCH  76  79
ATOM     79  S   UNL     1       5.231  16.836  -9.784  1.00  0.00     0.127 S 
ATOM     80  O   UNL     1       5.907  17.145 -11.042  1.00  0.00    -0.237 OA
ATOM     81  O   UNL     1       6.034  17.062  -8.582  1.00  0.00    -0.237 OA
ATOM     82  O   UNL     1       4.459  15.601  -9.763  1.00  0.00    -0.744 OA
ENDBRANCH  76  79
ENDBRANCH  48  72
BRANCH  60  83
ATOM     83  C   UNL     1      -3.070  21.564 -14.015  1.00  0.00     0.023 A 
ATOM     84  C   UNL     1      -2.498  21.165 -15.238  1.00  0.00     0.012 A 
ATOM     85  C   UNL     1      -3.640  22.848 -13.903  1.00  0.00     0.148 A 
ATOM     86  C   UNL     1      -2.468  22.038 -16.325  1.00  0.00     0.002 A 
ATOM     87  C   UNL     1      -3.648  23.695 -15.005  1.00  0.00     0.091 A 
ATOM     88  F   UNL     1      -4.162  23.216 -12.724  1.00  0.00    -0.205 F 
ATOM     89  C   UNL     1      -3.053  23.296 -16.212  1.00  0.00     0.022 A 
BRANCH  87  90
ATOM     90  S   UNL     1      -4.463  25.296 -14.978  1.00  0.00     0.127 S 
ATOM     91  O   UNL     1      -3.325  26.210 -14.907  1.00  0.00    -0.237 OA
ATOM     92  O   UNL     1      -5.175  25.306 -16.256  1.00  0.00    -0.237 OA
ATOM     93  O   UNL     1      -5.331  25.283 -13.807  1.00  0.00    -0.744 OA
ENDBRANCH  87  90
ENDBRANCH  60  83
ENDBRANCH  34  35
ENDBRANCH  26  29
ENDBRANCH  24  25
ENDBRANCH  23  24
ENDBRANCH  22  23
ENDBRANCH   1  22
TORSDOF 19
