REMARK SMILES COc1ccc(-c2cc(CC3(C(=O)NCCCCNC(=O)c4ccc(-c5c6nc(c(-c7cccc(S(=O)(=O)[O-])c7F)c7ccc([nH]7)c(-c7cccc(S(=O)(=O)[O-])c7F)c7nc(c(-c8cccc(S(=O)(=O)[O-])c8F)c8ccc5[nH]8)C=C7)C=C6)cc4)CCN(C(=O)C4CCCC4)CC3)on2)cc1
REMARK SMILES IDX 16 1 15 2 14 3 12 4 13 5 11 7 85 8 96 9 86 10 95 11 87 12
REMARK SMILES IDX 88 13 89 14 10 15 9 16 7 17 8 18 98 19 97 20 6 21 3 22 4 23
REMARK SMILES IDX 100 24 5 25 99 26 2 27 1 28 90 29 91 30 94 31 92 32 93 33
REMARK SMILES IDX 17 34 18 35 19 36 20 37 21 39 22 40 23 41 84 42 24 43 83 44
REMARK SMILES IDX 25 45 26 46 27 47 77 48 28 49 82 50 76 51 78 52 29 53 81 54
REMARK SMILES IDX 75 55 74 56 30 58 62 59 42 60 61 61 43 62 46 63 60 64 79 65
REMARK SMILES IDX 44 66 45 67 59 69 80 70 47 71 31 72 32 73 40 74 33 75 35 76
REMARK SMILES IDX 41 77 34 78 36 79 37 80 38 81 39 82 63 83 64 84 72 85 65 86
REMARK SMILES IDX 67 87 73 88 66 89 68 90 69 91 70 92 71 93 48 94 49 95 57 96
REMARK SMILES IDX 50 97 52 98 58 99 51 100 53 101 54 102 55 103 56 104
REMARK H PARENT 14 6 19 38 78 57 46 68
REMARK Flexibility Score: inf
ROOT
ATOM      1  C   UNL     1       1.659  12.104   8.049  1.00  0.00     0.023 C 
ENDROOT
BRANCH   1   2
ATOM      2  C   UNL     1       1.918  11.237   6.822  1.00  0.00     0.116 C 
BRANCH   2   3
ATOM      3  N   UNL     1       3.335  10.963   6.631  1.00  0.00    -0.356 N 
ATOM      4  C   UNL     1       3.989   9.854   6.179  1.00  0.00     0.226 C 
ATOM      5  O   UNL     1       5.212   9.952   6.052  1.00  0.00    -0.274 OA
ATOM      6  H   UNL     1       3.927  11.713   6.870  1.00  0.00     0.163 HD
BRANCH   4   7
ATOM      7  C   UNL     1       3.245   8.539   5.832  1.00  0.00     0.060 C 
ATOM      8  C   UNL     1       2.615   7.978   7.131  1.00  0.00     0.039 C 
ATOM      9  C   UNL     1       2.231   8.853   4.701  1.00  0.00     0.039 C 
ATOM     10  C   UNL     1       1.361   7.138   6.936  1.00  0.00     0.120 C 
ATOM     11  C   UNL     1       0.926   8.069   4.704  1.00  0.00     0.120 C 
ATOM     12  N   UNL     1       0.407   7.749   6.023  1.00  0.00    -0.342 N 
ATOM     13  C   UNL     1      -0.940   7.514   6.287  1.00  0.00     0.225 C 
ATOM     14  O   UNL     1      -1.292   6.696   7.145  1.00  0.00    -0.275 OA
BRANCH   7  15
ATOM     15  C   UNL     1       4.342   7.544   5.314  1.00  0.00     0.095 C 
BRANCH  15  16
ATOM     16  C   UNL     1       3.819   6.229   4.872  1.00  0.00     0.138 A 
ATOM     17  C   UNL     1       2.856   4.456   3.994  1.00  0.00     0.114 A 
ATOM     18  C   UNL     1       3.316   5.757   3.687  1.00  0.00     0.077 A 
ATOM     19  N   UNL     1       3.163   4.120   5.253  1.00  0.00    -0.080 NA
ATOM     20  O   UNL     1       3.780   5.234   5.800  1.00  0.00    -0.361 OA
BRANCH  17  21
ATOM     21  C   UNL     1       2.151   3.561   3.101  1.00  0.00     0.004 A 
ATOM     22  C   UNL     1       0.863   1.919   1.233  1.00  0.00     0.118 A 
ATOM     23  C   UNL     1       0.168   2.961   1.855  1.00  0.00     0.047 A 
ATOM     24  C   UNL     1       2.203   1.696   1.558  1.00  0.00     0.047 A 
ATOM     25  C   UNL     1       0.805   3.779   2.791  1.00  0.00     0.014 A 
ATOM     26  C   UNL     1       2.844   2.513   2.492  1.00  0.00     0.014 A 
BRANCH  22  27
ATOM     27  O   UNL     1       0.140   1.211   0.313  1.00  0.00    -0.497 OA
ATOM     28  C   UNL     1       0.703  -0.021  -0.119  1.00  0.00     0.278 C 
ENDBRANCH  22  27
ENDBRANCH  17  21
ENDBRANCH  15  16
ENDBRANCH   7  15
BRANCH  13  29
ATOM     29  C   UNL     1      -2.026   8.308   5.572  1.00  0.00     0.078 C 
ATOM     30  C   UNL     1      -1.815   9.818   5.594  1.00  0.00     0.013 C 
ATOM     31  C   UNL     1      -2.328   7.942   4.121  1.00  0.00     0.013 C 
ATOM     32  C   UNL     1      -2.777  10.320   4.534  1.00  0.00     0.001 C 
ATOM     33  C   UNL     1      -2.781   9.242   3.454  1.00  0.00     0.001 C 
ENDBRANCH  13  29
ENDBRANCH   4   7
ENDBRANCH   2   3
ENDBRANCH   1   2
BRANCH   1  34
ATOM     34  C   UNL     1       2.062  13.570   7.881  1.00  0.00     0.023 C 
BRANCH  34  35
ATOM     35  C   UNL     1       1.386  14.303   6.725  1.00  0.00     0.116 C 
BRANCH  35  36
ATOM     36  N   UNL     1      -0.068  14.305   6.825  1.00  0.00    -0.352 N 
ATOM     37  C   UNL     1      -0.939  15.368   6.870  1.00  0.00     0.251 C 
ATOM     38  H   UNL     1      -0.488  13.416   6.867  1.00  0.00     0.163 HD
ATOM     39  O   UNL     1      -2.129  15.174   7.105  1.00  0.00    -0.269 OA
BRANCH  37  40
ATOM     40  C   UNL     1      -0.437  16.743   6.660  1.00  0.00     0.039 A 
ATOM     41  C   UNL     1      -0.830  17.751   7.543  1.00  0.00     0.014 A 
ATOM     42  C   UNL     1       0.436  17.032   5.609  1.00  0.00     0.014 A 
ATOM     43  C   UNL     1      -0.285  19.032   7.417  1.00  0.00     0.010 A 
ATOM     44  C   UNL     1       1.041  18.283   5.537  1.00  0.00     0.010 A 
ATOM     45  C   UNL     1       0.687  19.299   6.439  1.00  0.00    -0.014 A 
BRANCH  45  46
ATOM     46  C   UNL     1       1.357  20.623   6.351  1.00  0.00     0.031 A 
ATOM     47  C   UNL     1       1.235  21.455   5.102  1.00  0.00     0.074 A 
ATOM     48  C   UNL     1       2.154  21.036   7.358  1.00  0.00     0.049 A 
ATOM     49  N   UNL     1       1.804  22.597   4.814  1.00  0.00    -0.248 NA
ATOM     50  C   UNL     1       0.385  20.922   4.024  1.00  0.00     0.031 C 
ATOM     51  C   UNL     1       2.421  20.288   8.589  1.00  0.00     0.029 A 
ATOM     52  N   UNL     1       2.909  22.175   7.495  1.00  0.00    -0.354 N 
ATOM     53  C   UNL     1       1.414  22.899   3.514  1.00  0.00     0.074 A 
ATOM     54  C   UNL     1       0.589  21.804   3.056  1.00  0.00     0.031 C 
ATOM     55  C   UNL     1       3.273  20.988   9.355  1.00  0.00     0.029 A 
ATOM     56  C   UNL     1       3.642  22.216   8.659  1.00  0.00     0.049 A 
ATOM     57  H   UNL     1       2.925  22.895   6.823  1.00  0.00     0.167 HD
ATOM     58  C   UNL     1       1.692  24.002   2.778  1.00  0.00     0.034 A 
ATOM     59  C   UNL     1       4.520  23.133   9.111  1.00  0.00     0.034 A 
ATOM     60  C   UNL     1       2.477  25.110   3.250  1.00  0.00     0.049 A 
ATOM     61  C   UNL     1       4.783  24.365   8.287  1.00  0.00     0.074 A 
ATOM     62  C   UNL     1       2.740  26.310   2.612  1.00  0.00     0.029 A 
ATOM     63  N   UNL     1       3.133  25.154   4.470  1.00  0.00    -0.354 N 
ATOM     64  N   UNL     1       4.278  24.705   7.126  1.00  0.00    -0.248 NA
ATOM     65  C   UNL     1       5.710  25.357   8.851  1.00  0.00     0.031 C 
ATOM     66  C   UNL     1       3.579  27.067   3.436  1.00  0.00     0.029 A 
ATOM     67  C   UNL     1       3.809  26.354   4.601  1.00  0.00     0.049 A 
ATOM     68  H   UNL     1       3.119  24.437   5.144  1.00  0.00     0.167 HD
ATOM     69  C   UNL     1       4.793  25.964   6.840  1.00  0.00     0.074 A 
ATOM     70  C   UNL     1       5.634  26.335   7.959  1.00  0.00     0.031 C 
ATOM     71  C   UNL     1       4.599  26.737   5.743  1.00  0.00     0.034 A 
BRANCH  58  72
ATOM     72  C   UNL     1       1.099  24.089   1.395  1.00  0.00     0.023 A 
ATOM     73  C   UNL     1      -0.289  24.288   1.244  1.00  0.00     0.012 A 
ATOM     74  C   UNL     1       1.917  24.040   0.250  1.00  0.00     0.148 A 
ATOM     75  C   UNL     1      -0.858  24.399  -0.024  1.00  0.00     0.002 A 
ATOM     76  C   UNL     1       1.349  24.200  -1.009  1.00  0.00     0.091 A 
ATOM     77  F   UNL     1       3.232  23.831   0.412  1.00  0.00    -0.205 F 
ATOM     78  C   UNL     1      -0.038  24.366  -1.148  1.00  0.00     0.022 A 
BRANCH  76  79
ATOM     79  S   UNL     1       2.327  24.253  -2.515  1.00  0.00     0.127 S 
ATOM     80  O   UNL     1       1.943  22.998  -3.160  1.00  0.00    -0.237 OA
ATOM     81  O   UNL     1       1.814  25.457  -3.170  1.00  0.00    -0.237 OA
ATOM     82  O   UNL     1       3.717  24.336  -2.091  1.00  0.00    -0.744 OA
ENDBRANCH  76  79
ENDBRANCH  58  72
BRANCH  59  83
ATOM     83  C   UNL     1       5.175  22.952  10.438  1.00  0.00     0.023 A 
ATOM     84  C   UNL     1       4.832  23.808  11.503  1.00  0.00     0.012 A 
ATOM     85  C   UNL     1       6.122  21.932  10.655  1.00  0.00     0.148 A 
ATOM     86  C   UNL     1       5.447  23.677  12.749  1.00  0.00     0.002 A 
ATOM     87  C   UNL     1       6.689  21.771  11.914  1.00  0.00     0.091 A 
ATOM     88  F   UNL     1       6.443  21.135   9.627  1.00  0.00    -0.205 F 
ATOM     89  C   UNL     1       6.368  22.654  12.957  1.00  0.00     0.022 A 
BRANCH  87  90
ATOM     90  S   UNL     1       7.784  20.402  12.309  1.00  0.00     0.127 S 
ATOM     91  O   UNL     1       9.067  21.081  12.464  1.00  0.00    -0.237 OA
ATOM     92  O   UNL     1       7.198  19.898  13.552  1.00  0.00    -0.237 OA
ATOM     93  O   UNL     1       7.684  19.483  11.183  1.00  0.00    -0.744 OA
ENDBRANCH  87  90
ENDBRANCH  59  83
BRANCH  71  94
ATOM     94  C   UNL     1       5.268  28.086   5.708  1.00  0.00     0.023 A 
ATOM     95  C   UNL     1       6.663  28.177   5.532  1.00  0.00     0.012 A 
ATOM     96  C   UNL     1       4.501  29.267   5.776  1.00  0.00     0.148 A 
ATOM     97  C   UNL     1       7.288  29.422   5.459  1.00  0.00     0.002 A 
ATOM     98  C   UNL     1       5.124  30.502   5.650  1.00  0.00     0.091 A 
ATOM     99  F   UNL     1       3.177  29.159   5.962  1.00  0.00    -0.205 F 
ATOM    100  C   UNL     1       6.519  30.582   5.505  1.00  0.00     0.022 A 
BRANCH  98 101
ATOM    101  S   UNL     1       4.205  32.044   5.597  1.00  0.00     0.127 S 
ATOM    102  O   UNL     1       4.546  32.639   6.889  1.00  0.00    -0.237 OA
ATOM    103  O   UNL     1       4.796  32.718   4.440  1.00  0.00    -0.237 OA
ATOM    104  O   UNL     1       2.806  31.673   5.431  1.00  0.00    -0.744 OA
ENDBRANCH  98 101
ENDBRANCH  71  94
ENDBRANCH  45  46
ENDBRANCH  37  40
ENDBRANCH  35  36
ENDBRANCH  34  35
ENDBRANCH   1  34
TORSDOF 19
