REMARK SMILES O=C(NCCCCNC(=O)c1ccccc1Nc1nc(Cl)nc(Nc2ccc(N3CCOCC3=O)cc2)n1)c1ccc(-c2c3nc(c(-c4cccc(S(=O)(=O)[O-])c4F)c4ccc([nH]4)c(-c4cccc(S(=O)(=O)[O-])c4F)c4nc(c(-c5cccc(S(=O)(=O)[O-])c5F)c5ccc2[nH]5)C=C4)C=C3)cc1
REMARK SMILES IDX 6 1 5 2 4 3 3 4 1 5 2 6 39 8 40 9 101 10 41 11 100 12 42 13
REMARK SMILES IDX 43 14 44 15 94 16 45 17 99 18 93 19 95 20 46 21 98 22 92 23
REMARK SMILES IDX 91 24 47 26 79 27 59 28 78 29 60 30 63 31 77 32 96 33 61 34
REMARK SMILES IDX 62 35 76 37 97 38 64 39 48 40 49 41 57 42 50 43 52 44 58 45
REMARK SMILES IDX 51 46 53 47 54 48 55 49 56 50 80 51 81 52 89 53 82 54 84 55
REMARK SMILES IDX 90 56 83 57 85 58 86 59 87 60 88 61 65 62 66 63 74 64 67 65
REMARK SMILES IDX 69 66 75 67 68 68 70 69 71 70 72 71 73 72 7 73 8 74 9 75
REMARK SMILES IDX 10 77 11 78 12 79 16 80 13 81 15 82 14 83 17 84 18 86 19 87
REMARK SMILES IDX 38 88 20 89 23 90 21 91 22 92 24 93 25 95 26 96 37 97 27 98
REMARK SMILES IDX 36 99 28 100 29 101 30 102 34 103 31 104 33 105 35 106
REMARK SMILES IDX 32 107
REMARK H PARENT 3 7 95 25 63 36 8 76 17 85 24 94
REMARK Flexibility Score: inf
ROOT
ATOM      1  C   UNL     1       4.413  -3.558  -1.327  1.00  0.00     0.023 C 
ENDROOT
BRANCH   1   2
ATOM      2  C   UNL     1       4.881  -2.530  -0.301  1.00  0.00     0.023 C 
BRANCH   2   3
ATOM      3  C   UNL     1       4.577  -1.076  -0.642  1.00  0.00     0.116 C 
BRANCH   3   4
ATOM      4  N   UNL     1       3.152  -0.786  -0.715  1.00  0.00    -0.352 N 
ATOM      5  O   UNL     1       1.171   0.095  -0.098  1.00  0.00    -0.269 OA
ATOM      6  C   UNL     1       2.391   0.086   0.033  1.00  0.00     0.251 C 
ATOM      7  H   UNL     1       2.657  -1.290  -1.402  1.00  0.00     0.163 HD
BRANCH   6   8
ATOM      8  C   UNL     1       3.044   0.974   1.021  1.00  0.00     0.039 A 
ATOM      9  C   UNL     1       4.210   1.668   0.694  1.00  0.00     0.014 A 
ATOM     10  C   UNL     1       2.504   1.084   2.305  1.00  0.00     0.014 A 
ATOM     11  C   UNL     1       4.942   2.292   1.697  1.00  0.00     0.010 A 
ATOM     12  C   UNL     1       3.192   1.805   3.289  1.00  0.00     0.010 A 
ATOM     13  C   UNL     1       4.448   2.363   3.011  1.00  0.00    -0.014 A 
BRANCH  13  14
ATOM     14  C   UNL     1       5.263   3.039   4.057  1.00  0.00     0.031 A 
ATOM     15  C   UNL     1       5.772   2.291   5.262  1.00  0.00     0.074 A 
ATOM     16  C   UNL     1       5.577   4.341   3.896  1.00  0.00     0.049 A 
ATOM     17  N   UNL     1       6.557   2.715   6.221  1.00  0.00    -0.248 NA
ATOM     18  C   UNL     1       5.342   0.892   5.424  1.00  0.00     0.031 C 
ATOM     19  C   UNL     1       5.107   5.189   2.798  1.00  0.00     0.029 A 
ATOM     20  N   UNL     1       6.372   5.174   4.641  1.00  0.00    -0.354 N 
ATOM     21  C   UNL     1       6.674   1.660   7.120  1.00  0.00     0.074 A 
ATOM     22  C   UNL     1       5.875   0.574   6.596  1.00  0.00     0.031 C 
ATOM     23  C   UNL     1       5.658   6.406   2.914  1.00  0.00     0.029 A 
ATOM     24  C   UNL     1       6.480   6.441   4.119  1.00  0.00     0.049 A 
ATOM     25  H   UNL     1       6.823   4.891   5.470  1.00  0.00     0.167 HD
ATOM     26  C   UNL     1       7.395   1.594   8.266  1.00  0.00     0.034 A 
ATOM     27  C   UNL     1       7.163   7.516   4.556  1.00  0.00     0.034 A 
ATOM     28  C   UNL     1       8.235   2.655   8.756  1.00  0.00     0.049 A 
ATOM     29  C   UNL     1       7.997   7.395   5.799  1.00  0.00     0.074 A 
ATOM     30  C   UNL     1       9.063   2.654   9.866  1.00  0.00     0.029 A 
ATOM     31  N   UNL     1       8.357   3.906   8.171  1.00  0.00    -0.354 N 
ATOM     32  N   UNL     1       8.201   6.344   6.555  1.00  0.00    -0.248 NA
ATOM     33  C   UNL     1       8.720   8.599   6.231  1.00  0.00     0.031 C 
ATOM     34  C   UNL     1       9.674   3.909   9.960  1.00  0.00     0.029 A 
ATOM     35  C   UNL     1       9.240   4.687   8.899  1.00  0.00     0.049 A 
ATOM     36  H   UNL     1       7.885   4.197   7.358  1.00  0.00     0.167 HD
ATOM     37  C   UNL     1       9.097   6.751   7.536  1.00  0.00     0.074 A 
ATOM     38  C   UNL     1       9.418   8.137   7.260  1.00  0.00     0.031 C 
ATOM     39  C   UNL     1       9.595   6.046   8.582  1.00  0.00     0.034 A 
BRANCH  26  40
ATOM     40  C   UNL     1       7.345   0.313   9.059  1.00  0.00     0.023 A 
ATOM     41  C   UNL     1       8.036  -0.823   8.592  1.00  0.00     0.012 A 
ATOM     42  C   UNL     1       6.681   0.254  10.301  1.00  0.00     0.148 A 
ATOM     43  C   UNL     1       8.044  -2.006   9.332  1.00  0.00     0.002 A 
ATOM     44  C   UNL     1       6.727  -0.916  11.053  1.00  0.00     0.091 A 
ATOM     45  F   UNL     1       6.011   1.336  10.721  1.00  0.00    -0.205 F 
ATOM     46  C   UNL     1       7.400  -2.049  10.566  1.00  0.00     0.022 A 
BRANCH  44  47
ATOM     47  S   UNL     1       5.993  -1.042  12.688  1.00  0.00     0.127 S 
ATOM     48  O   UNL     1       4.796  -1.836  12.415  1.00  0.00    -0.237 OA
ATOM     49  O   UNL     1       7.031  -1.746  13.442  1.00  0.00    -0.237 OA
ATOM     50  O   UNL     1       5.755   0.327  13.124  1.00  0.00    -0.744 OA
ENDBRANCH  44  47
ENDBRANCH  26  40
BRANCH  27  51
ATOM     51  C   UNL     1       7.137   8.778   3.765  1.00  0.00     0.023 A 
ATOM     52  C   UNL     1       8.299   9.192   3.086  1.00  0.00     0.012 A 
ATOM     53  C   UNL     1       5.960   9.541   3.642  1.00  0.00     0.148 A 
ATOM     54  C   UNL     1       8.295  10.355   2.315  1.00  0.00     0.002 A 
ATOM     55  C   UNL     1       5.946  10.665   2.825  1.00  0.00     0.091 A 
ATOM     56  F   UNL     1       4.869   9.141   4.311  1.00  0.00    -0.205 F 
ATOM     57  C   UNL     1       7.117  11.084   2.174  1.00  0.00     0.022 A 
BRANCH  55  58
ATOM     58  S   UNL     1       4.436  11.572   2.477  1.00  0.00     0.127 S 
ATOM     59  O   UNL     1       4.610  12.768   3.296  1.00  0.00    -0.237 OA
ATOM     60  O   UNL     1       4.538  11.793   1.033  1.00  0.00    -0.237 OA
ATOM     61  O   UNL     1       3.351  10.683   2.868  1.00  0.00    -0.744 OA
ENDBRANCH  55  58
ENDBRANCH  27  51
BRANCH  39  62
ATOM     62  C   UNL     1      10.565   6.750   9.493  1.00  0.00     0.023 A 
ATOM     63  C   UNL     1      10.095   7.732  10.387  1.00  0.00     0.012 A 
ATOM     64  C   UNL     1      11.929   6.400   9.503  1.00  0.00     0.148 A 
ATOM     65  C   UNL     1      10.975   8.381  11.253  1.00  0.00     0.002 A 
ATOM     66  C   UNL     1      12.792   7.018  10.400  1.00  0.00     0.091 A 
ATOM     67  F   UNL     1      12.362   5.481   8.628  1.00  0.00    -0.205 F 
ATOM     68  C   UNL     1      12.319   8.017  11.268  1.00  0.00     0.022 A 
BRANCH  66  69
ATOM     69  S   UNL     1      14.517   6.540  10.545  1.00  0.00     0.127 S 
ATOM     70  O   UNL     1      15.186   7.601   9.795  1.00  0.00    -0.237 OA
ATOM     71  O   UNL     1      14.737   6.584  11.992  1.00  0.00    -0.237 OA
ATOM     72  O   UNL     1      14.606   5.205   9.967  1.00  0.00    -0.744 OA
ENDBRANCH  66  69
ENDBRANCH  39  62
ENDBRANCH  13  14
ENDBRANCH   6   8
ENDBRANCH   3   4
ENDBRANCH   2   3
ENDBRANCH   1   2
BRANCH   1  73
ATOM     73  C   UNL     1       4.831  -3.286  -2.768  1.00  0.00     0.116 C 
BRANCH  73  74
ATOM     74  N   UNL     1       6.274  -3.210  -2.946  1.00  0.00    -0.352 N 
ATOM     75  C   UNL     1       7.034  -3.765  -3.948  1.00  0.00     0.253 C 
ATOM     76  H   UNL     1       6.767  -2.698  -2.265  1.00  0.00     0.163 HD
ATOM     77  O   UNL     1       8.250  -3.609  -3.984  1.00  0.00    -0.269 OA
BRANCH  75  78
ATOM     78  C   UNL     1       6.378  -4.593  -4.978  1.00  0.00     0.063 A 
ATOM     79  C   UNL     1       6.703  -5.957  -4.990  1.00  0.00     0.016 A 
ATOM     80  C   UNL     1       5.436  -4.055  -5.874  1.00  0.00     0.054 A 
ATOM     81  C   UNL     1       6.041  -6.819  -5.860  1.00  0.00     0.001 A 
ATOM     82  C   UNL     1       4.747  -4.955  -6.702  1.00  0.00     0.027 A 
ATOM     83  C   UNL     1       5.050  -6.320  -6.701  1.00  0.00     0.002 A 
BRANCH  80  84
ATOM     84  N   UNL     1       5.175  -2.677  -5.923  1.00  0.00    -0.323 N 
ATOM     85  H   UNL     1       5.923  -2.100  -5.644  1.00  0.00     0.170 HD
BRANCH  84  86
ATOM     86  C   UNL     1       4.023  -2.001  -6.306  1.00  0.00     0.233 A 
ATOM     87  N   UNL     1       2.838  -2.522  -6.037  1.00  0.00    -0.182 NA
ATOM     88  N   UNL     1       4.202  -0.845  -6.935  1.00  0.00    -0.176 NA
ATOM     89  C   UNL     1       1.826  -1.769  -6.430  1.00  0.00     0.228 A 
ATOM     90  C   UNL     1       3.107  -0.222  -7.363  1.00  0.00     0.233 A 
ATOM     91  Cl  UNL     1       0.265  -2.380  -6.099  1.00  0.00    -0.041 Cl
ATOM     92  N   UNL     1       1.878  -0.636  -7.105  1.00  0.00    -0.182 NA
BRANCH  90  93
ATOM     93  N   UNL     1       3.325   0.837  -8.242  1.00  0.00    -0.324 N 
ATOM     94  H   UNL     1       4.261   1.121  -8.350  1.00  0.00     0.170 HD
BRANCH  93  95
ATOM     95  C   UNL     1       2.383   1.548  -8.988  1.00  0.00     0.041 A 
ATOM     96  C   UNL     1       2.459   1.544 -10.384  1.00  0.00     0.028 A 
ATOM     97  C   UNL     1       1.295   2.179  -8.383  1.00  0.00     0.028 A 
ATOM     98  C   UNL     1       1.457   2.139 -11.159  1.00  0.00     0.028 A 
ATOM     99  C   UNL     1       0.325   2.827  -9.152  1.00  0.00     0.028 A 
ATOM    100  C   UNL     1       0.383   2.795 -10.549  1.00  0.00     0.044 A 
BRANCH 100 101
ATOM    101  N   UNL     1      -0.660   3.369 -11.335  1.00  0.00    -0.308 N 
ATOM    102  C   UNL     1      -1.298   2.497 -12.327  1.00  0.00     0.154 C 
ATOM    103  C   UNL     1      -1.263   4.576 -10.960  1.00  0.00     0.253 C 
ATOM    104  C   UNL     1      -2.181   3.253 -13.311  1.00  0.00     0.183 C 
ATOM    105  C   UNL     1      -2.463   5.013 -11.816  1.00  0.00     0.260 C 
ATOM    106  O   UNL     1      -0.836   5.330 -10.084  1.00  0.00    -0.272 OA
ATOM    107  O   UNL     1      -3.133   4.031 -12.591  1.00  0.00    -0.370 OA
ENDBRANCH 100 101
ENDBRANCH  93  95
ENDBRANCH  90  93
ENDBRANCH  84  86
ENDBRANCH  80  84
ENDBRANCH  75  78
ENDBRANCH  73  74
ENDBRANCH   1  73
TORSDOF 19
