REMARK SMILES O=C(/C=C/c1ccc(O)c(O)c1)NCCCCNC(=O)c1ccc(-c2c3nc(c(-c4cccc(S(=O)(=O)[O-])c4F)c4ccc([nH]4)c(-c4cccc(S(=O)(=O)[O-])c4F)c4nc(c(-c5cccc(S(=O)(=O)[O-])c5F)c5ccc2[nH]5)C=C4)C=C3)cc1
REMARK SMILES IDX 16 1 15 2 14 3 13 4 1 5 2 6 3 8 4 9 5 10 6 11 12 12 7 13
REMARK SMILES IDX 10 14 8 15 11 16 9 18 17 20 18 21 19 22 20 24 21 25 22 26
REMARK SMILES IDX 83 27 23 28 82 29 24 30 25 31 26 32 76 33 27 34 81 35 75 36
REMARK SMILES IDX 77 37 28 38 80 39 74 40 73 41 29 43 61 44 41 45 60 46 42 47
REMARK SMILES IDX 45 48 59 49 78 50 43 51 44 52 58 54 79 55 46 56 30 57 31 58
REMARK SMILES IDX 39 59 32 60 34 61 40 62 33 63 35 64 36 65 37 66 38 67 62 68
REMARK SMILES IDX 63 69 71 70 64 71 66 72 72 73 65 74 67 75 68 76 69 77 70 78
REMARK SMILES IDX 47 79 48 80 56 81 49 82 51 83 57 84 50 85 52 86 53 87 54 88
REMARK SMILES IDX 55 89
REMARK H PARENT 13 7 11 17 9 19 18 23 77 42 45 53
REMARK Flexibility Score: inf
ROOT
ATOM      1  C   UNL     1       4.013   3.047   2.336  1.00  0.00     0.023 C 
ENDROOT
BRANCH   1   2
ATOM      2  C   UNL     1       2.535   2.716   2.104  1.00  0.00     0.023 C 
BRANCH   2   3
ATOM      3  C   UNL     1       2.188   2.260   0.688  1.00  0.00     0.116 C 
BRANCH   3   4
ATOM      4  N   UNL     1       2.899   1.056   0.306  1.00  0.00    -0.353 N 
ATOM      5  O   UNL     1       1.041  -0.284   0.163  1.00  0.00    -0.270 OA
ATOM      6  C   UNL     1       2.257  -0.134   0.090  1.00  0.00     0.243 C 
ATOM      7  H   UNL     1       3.877   1.094   0.199  1.00  0.00     0.163 HD
BRANCH   6   8
ATOM      8  C   UNL     1       3.102  -1.296  -0.295  1.00  0.00     0.072 C 
ATOM      9  C   UNL     1       4.441  -1.379  -0.263  1.00  0.00     0.014 C 
BRANCH   9  10
ATOM     10  C   UNL     1       5.168  -2.606  -0.628  1.00  0.00    -0.022 A 
ATOM     11  C   UNL     1       4.803  -3.390  -1.737  1.00  0.00     0.012 A 
ATOM     12  C   UNL     1       6.286  -2.979   0.129  1.00  0.00     0.058 A 
ATOM     13  C   UNL     1       5.519  -4.546  -2.068  1.00  0.00     0.051 A 
ATOM     14  C   UNL     1       6.990  -4.129  -0.206  1.00  0.00     0.157 A 
ATOM     15  C   UNL     1       6.612  -4.910  -1.293  1.00  0.00     0.157 A 
BRANCH  14  16
ATOM     16  O   UNL     1       8.068  -4.488   0.550  1.00  0.00    -0.504 OA
ATOM     17  H   UNL     1       8.554  -5.260   0.338  1.00  0.00     0.293 HD
ENDBRANCH  14  16
BRANCH  15  18
ATOM     18  O   UNL     1       7.349  -6.029  -1.564  1.00  0.00    -0.504 OA
ATOM     19  H   UNL     1       7.121  -6.577  -2.290  1.00  0.00     0.293 HD
ENDBRANCH  15  18
ENDBRANCH   9  10
ENDBRANCH   6   8
ENDBRANCH   3   4
ENDBRANCH   2   3
ENDBRANCH   1   2
BRANCH   1  20
ATOM     20  C   UNL     1       4.605   4.103   1.409  1.00  0.00     0.116 C 
BRANCH  20  21
ATOM     21  N   UNL     1       3.984   5.410   1.563  1.00  0.00    -0.352 N 
ATOM     22  C   UNL     1       4.572   6.638   1.751  1.00  0.00     0.251 C 
ATOM     23  H   UNL     1       3.000   5.415   1.527  1.00  0.00     0.163 HD
ATOM     24  O   UNL     1       3.870   7.617   1.998  1.00  0.00    -0.269 OA
BRANCH  22  25
ATOM     25  C   UNL     1       6.045   6.784   1.686  1.00  0.00     0.039 A 
ATOM     26  C   UNL     1       6.691   7.548   2.662  1.00  0.00     0.014 A 
ATOM     27  C   UNL     1       6.791   6.173   0.675  1.00  0.00     0.014 A 
ATOM     28  C   UNL     1       8.086   7.641   2.664  1.00  0.00     0.010 A 
ATOM     29  C   UNL     1       8.184   6.203   0.723  1.00  0.00     0.010 A 
ATOM     30  C   UNL     1       8.849   6.937   1.717  1.00  0.00    -0.014 A 
BRANCH  30  31
ATOM     31  C   UNL     1      10.336   6.939   1.767  1.00  0.00     0.031 A 
ATOM     32  C   UNL     1      11.140   7.490   0.619  1.00  0.00     0.074 A 
ATOM     33  C   UNL     1      10.969   6.365   2.811  1.00  0.00     0.049 A 
ATOM     34  N   UNL     1      12.439   7.526   0.464  1.00  0.00    -0.248 NA
ATOM     35  C   UNL     1      10.388   8.053  -0.515  1.00  0.00     0.031 C 
ATOM     36  C   UNL     1      10.310   5.729   3.954  1.00  0.00     0.029 A 
ATOM     37  N   UNL     1      12.308   6.199   3.068  1.00  0.00    -0.354 N 
ATOM     38  C   UNL     1      12.659   8.076  -0.793  1.00  0.00     0.074 A 
ATOM     39  C   UNL     1      11.359   8.333  -1.373  1.00  0.00     0.031 C 
ATOM     40  C   UNL     1      11.243   5.250   4.792  1.00  0.00     0.029 A 
ATOM     41  C   UNL     1      12.566   5.510   4.232  1.00  0.00     0.049 A 
ATOM     42  H   UNL     1      13.017   6.540   2.477  1.00  0.00     0.167 HD
ATOM     43  C   UNL     1      13.835   8.364  -1.403  1.00  0.00     0.034 A 
ATOM     44  C   UNL     1      13.733   5.120   4.782  1.00  0.00     0.034 A 
ATOM     45  C   UNL     1      15.127   8.143  -0.810  1.00  0.00     0.049 A 
ATOM     46  C   UNL     1      15.024   5.474   4.094  1.00  0.00     0.074 A 
ATOM     47  C   UNL     1      16.370   8.489  -1.310  1.00  0.00     0.029 A 
ATOM     48  N   UNL     1      15.346   7.508   0.402  1.00  0.00    -0.354 N 
ATOM     49  N   UNL     1      15.211   6.140   2.981  1.00  0.00    -0.248 NA
ATOM     50  C   UNL     1      16.267   5.055   4.758  1.00  0.00     0.031 C 
ATOM     51  C   UNL     1      17.344   8.029  -0.417  1.00  0.00     0.029 A 
ATOM     52  C   UNL     1      16.705   7.435   0.659  1.00  0.00     0.049 A 
ATOM     53  H   UNL     1      14.640   7.161   0.993  1.00  0.00     0.167 HD
ATOM     54  C   UNL     1      16.588   6.254   2.832  1.00  0.00     0.074 A 
ATOM     55  C   UNL     1      17.188   5.606   3.979  1.00  0.00     0.031 C 
ATOM     56  C   UNL     1      17.293   6.834   1.829  1.00  0.00     0.034 A 
BRANCH  43  57
ATOM     57  C   UNL     1      13.783   8.989  -2.774  1.00  0.00     0.023 A 
ATOM     58  C   UNL     1      13.339  10.319  -2.921  1.00  0.00     0.012 A 
ATOM     59  C   UNL     1      14.239   8.284  -3.905  1.00  0.00     0.148 A 
ATOM     60  C   UNL     1      13.316  10.926  -4.176  1.00  0.00     0.002 A 
ATOM     61  C   UNL     1      14.259   8.912  -5.146  1.00  0.00     0.091 A 
ATOM     62  F   UNL     1      14.641   7.015  -3.750  1.00  0.00    -0.205 F 
ATOM     63  C   UNL     1      13.786  10.227  -5.285  1.00  0.00     0.022 A 
BRANCH  61  64
ATOM     64  S   UNL     1      14.923   8.129  -6.620  1.00  0.00     0.127 S 
ATOM     65  O   UNL     1      13.712   7.926  -7.415  1.00  0.00    -0.237 OA
ATOM     66  O   UNL     1      15.825   9.159  -7.135  1.00  0.00    -0.237 OA
ATOM     67  O   UNL     1      15.582   6.912  -6.168  1.00  0.00    -0.744 OA
ENDBRANCH  61  64
ENDBRANCH  43  57
BRANCH  44  68
ATOM     68  C   UNL     1      13.742   4.394   6.085  1.00  0.00     0.023 A 
ATOM     69  C   UNL     1      14.252   5.034   7.231  1.00  0.00     0.012 A 
ATOM     70  C   UNL     1      13.242   3.082   6.197  1.00  0.00     0.148 A 
ATOM     71  C   UNL     1      14.301   4.369   8.456  1.00  0.00     0.002 A 
ATOM     72  C   UNL     1      13.240   2.446   7.433  1.00  0.00     0.091 A 
ATOM     73  F   UNL     1      12.770   2.486   5.093  1.00  0.00    -0.205 F 
ATOM     74  C   UNL     1      13.787   3.080   8.560  1.00  0.00     0.022 A 
BRANCH  72  75
ATOM     75  S   UNL     1      12.483   0.838   7.689  1.00  0.00     0.127 S 
ATOM     76  O   UNL     1      13.649  -0.005   7.939  1.00  0.00    -0.237 OA
ATOM     77  O   UNL     1      11.638   1.086   8.857  1.00  0.00    -0.237 OA
ATOM     78  O   UNL     1      11.746   0.551   6.465  1.00  0.00    -0.744 OA
ENDBRANCH  72  75
ENDBRANCH  44  68
BRANCH  56  79
ATOM     79  C   UNL     1      18.796   6.845   1.941  1.00  0.00     0.023 A 
ATOM     80  C   UNL     1      19.526   5.651   1.781  1.00  0.00     0.012 A 
ATOM     81  C   UNL     1      19.489   8.057   2.135  1.00  0.00     0.148 A 
ATOM     82  C   UNL     1      20.919   5.657   1.848  1.00  0.00     0.002 A 
ATOM     83  C   UNL     1      20.878   8.064   2.146  1.00  0.00     0.091 A 
ATOM     84  F   UNL     1      18.776   9.181   2.302  1.00  0.00    -0.205 F 
ATOM     85  C   UNL     1      21.594   6.863   2.018  1.00  0.00     0.022 A 
BRANCH  83  86
ATOM     86  S   UNL     1      21.834   9.580   2.259  1.00  0.00     0.127 S 
ATOM     87  O   UNL     1      22.402   9.475   3.602  1.00  0.00    -0.237 OA
ATOM     88  O   UNL     1      22.802   9.416   1.173  1.00  0.00    -0.237 OA
ATOM     89  O   UNL     1      20.887  10.669   2.065  1.00  0.00    -0.744 OA
ENDBRANCH  83  86
ENDBRANCH  56  79
ENDBRANCH  30  31
ENDBRANCH  22  25
ENDBRANCH  20  21
ENDBRANCH   1  20
TORSDOF 17
