REMARK SMILES O=C(NCCCCNC(=O)[C@@H]1CC[C@@H](CN2C(=O)CC3(CCCC3)CC2=O)O1)c1ccc(-c2c3nc(c(-c4cccc(S(=O)(=O)[O-])c4F)c4ccc([nH]4)c(-c4cccc(S(=O)(=O)[O-])c4F)c4nc(c(-c5cccc(S(=O)(=O)[O-])c5F)c5ccc2[nH]5)C=C4)C=C3)cc1
REMARK SMILES IDX 5 1 4 2 3 3 1 4 2 5 29 7 30 8 91 9 31 10 90 11 32 12 33 13
REMARK SMILES IDX 34 14 84 15 35 16 89 17 83 18 85 19 36 20 88 21 82 22 81 23
REMARK SMILES IDX 37 25 69 26 49 27 68 28 50 29 53 30 67 31 86 32 51 33 52 34
REMARK SMILES IDX 66 36 87 37 54 38 38 39 39 40 47 41 40 42 42 43 48 44 41 45
REMARK SMILES IDX 43 46 44 47 45 48 46 49 70 50 71 51 79 52 72 53 74 54 80 55
REMARK SMILES IDX 73 56 75 57 76 58 77 59 78 60 55 61 56 62 64 63 57 64 59 65
REMARK SMILES IDX 65 66 58 67 60 68 61 69 62 70 63 71 6 72 7 73 8 74 9 75
REMARK SMILES IDX 10 77 11 78 12 79 28 80 13 81 14 82 15 83 16 84 17 85 26 86
REMARK SMILES IDX 18 87 19 88 25 89 27 90 20 91 21 92 24 93 22 94 23 95
REMARK H PARENT 3 6 85 24 53 35 8 76
REMARK Flexibility Score: inf
ROOT
ATOM      1  C   UNL     1       4.873  -2.418  -1.269  1.00  0.00     0.023 C 
ENDROOT
BRANCH   1   2
ATOM      2  C   UNL     1       4.568  -0.955  -0.972  1.00  0.00     0.116 C 
BRANCH   2   3
ATOM      3  N   UNL     1       3.147  -0.642  -1.016  1.00  0.00    -0.352 N 
ATOM      4  O   UNL     1       1.174   0.130  -0.243  1.00  0.00    -0.269 OA
ATOM      5  C   UNL     1       2.393   0.068  -0.108  1.00  0.00     0.251 C 
ATOM      6  H   UNL     1       2.660  -0.982  -1.801  1.00  0.00     0.163 HD
BRANCH   5   7
ATOM      7  C   UNL     1       3.056   0.712   1.049  1.00  0.00     0.039 A 
ATOM      8  C   UNL     1       4.235   1.440   0.876  1.00  0.00     0.014 A 
ATOM      9  C   UNL     1       2.515   0.548   2.327  1.00  0.00     0.014 A 
ATOM     10  C   UNL     1       4.961   1.850   1.990  1.00  0.00     0.010 A 
ATOM     11  C   UNL     1       3.204   1.042   3.441  1.00  0.00     0.010 A 
ATOM     12  C   UNL     1       4.458   1.652   3.287  1.00  0.00    -0.014 A 
BRANCH  12  13
ATOM     13  C   UNL     1       5.253   2.122   4.452  1.00  0.00     0.031 A 
ATOM     14  C   UNL     1       5.795   1.158   5.475  1.00  0.00     0.074 A 
ATOM     15  C   UNL     1       5.513   3.440   4.569  1.00  0.00     0.049 A 
ATOM     16  N   UNL     1       6.573   1.401   6.500  1.00  0.00    -0.248 NA
ATOM     17  C   UNL     1       5.412  -0.256   5.342  1.00  0.00     0.031 C 
ATOM     18  C   UNL     1       5.005   4.479   3.671  1.00  0.00     0.029 A 
ATOM     19  N   UNL     1       6.276   4.130   5.476  1.00  0.00    -0.354 N 
ATOM     20  C   UNL     1       6.734   0.187   7.158  1.00  0.00     0.074 A 
ATOM     21  C   UNL     1       5.969  -0.794   6.419  1.00  0.00     0.031 C 
ATOM     22  C   UNL     1       5.506   5.665   4.042  1.00  0.00     0.029 A 
ATOM     23  C   UNL     1       6.333   5.482   5.229  1.00  0.00     0.049 A 
ATOM     24  H   UNL     1       6.739   3.699   6.231  1.00  0.00     0.167 HD
ATOM     25  C   UNL     1       7.467  -0.089   8.264  1.00  0.00     0.034 A 
ATOM     26  C   UNL     1       6.982   6.466   5.880  1.00  0.00     0.034 A 
ATOM     27  C   UNL     1       8.274   0.876   8.964  1.00  0.00     0.049 A 
ATOM     28  C   UNL     1       7.828   6.120   7.071  1.00  0.00     0.074 A 
ATOM     29  C   UNL     1       9.117   0.672  10.043  1.00  0.00     0.029 A 
ATOM     30  N   UNL     1       8.339   2.226   8.658  1.00  0.00    -0.354 N 
ATOM     31  N   UNL     1       8.080   4.942   7.588  1.00  0.00    -0.248 NA
ATOM     32  C   UNL     1       8.500   7.235   7.752  1.00  0.00     0.031 C 
ATOM     33  C   UNL     1       9.682   1.902  10.398  1.00  0.00     0.029 A 
ATOM     34  C   UNL     1       9.200   2.870   9.532  1.00  0.00     0.049 A 
ATOM     35  H   UNL     1       7.847   2.663   7.926  1.00  0.00     0.167 HD
ATOM     36  C   UNL     1       8.959   5.170   8.639  1.00  0.00     0.074 A 
ATOM     37  C   UNL     1       9.217   6.596   8.667  1.00  0.00     0.031 C 
ATOM     38  C   UNL     1       9.488   4.281   9.516  1.00  0.00     0.034 A 
BRANCH  25  39
ATOM     39  C   UNL     1       7.473  -1.510   8.768  1.00  0.00     0.023 A 
ATOM     40  C   UNL     1       8.219  -2.488   8.081  1.00  0.00     0.012 A 
ATOM     41  C   UNL     1       6.804  -1.861   9.957  1.00  0.00     0.148 A 
ATOM     42  C   UNL     1       8.278  -3.799   8.553  1.00  0.00     0.002 A 
ATOM     43  C   UNL     1       6.897  -3.162  10.441  1.00  0.00     0.091 A 
ATOM     44  F   UNL     1       6.079  -0.925  10.586  1.00  0.00    -0.205 F 
ATOM     45  C   UNL     1       7.627  -4.133   9.737  1.00  0.00     0.022 A 
BRANCH  43  46
ATOM     46  S   UNL     1       6.149  -3.663  11.997  1.00  0.00     0.127 S 
ATOM     47  O   UNL     1       4.955  -4.369  11.537  1.00  0.00    -0.237 OA
ATOM     48  O   UNL     1       7.180  -4.525  12.578  1.00  0.00    -0.237 OA
ATOM     49  O   UNL     1       5.911  -2.431  12.736  1.00  0.00    -0.744 OA
ENDBRANCH  43  46
ENDBRANCH  25  39
BRANCH  26  50
ATOM     50  C   UNL     1       6.912   7.861   5.361  1.00  0.00     0.023 A 
ATOM     51  C   UNL     1       8.056   8.434   4.773  1.00  0.00     0.012 A 
ATOM     52  C   UNL     1       5.712   8.596   5.391  1.00  0.00     0.148 A 
ATOM     53  C   UNL     1       8.010   9.723   4.240  1.00  0.00     0.002 A 
ATOM     54  C   UNL     1       5.658   9.856   4.807  1.00  0.00     0.091 A 
ATOM     55  F   UNL     1       4.639   8.041   5.974  1.00  0.00    -0.205 F 
ATOM     56  C   UNL     1       6.809  10.428   4.244  1.00  0.00     0.022 A 
BRANCH  54  57
ATOM     57  S   UNL     1       4.115  10.762   4.641  1.00  0.00     0.127 S 
ATOM     58  O   UNL     1       4.239  11.761   5.699  1.00  0.00    -0.237 OA
ATOM     59  O   UNL     1       4.213  11.289   3.279  1.00  0.00    -0.237 OA
ATOM     60  O   UNL     1       3.064   9.769   4.820  1.00  0.00    -0.744 OA
ENDBRANCH  54  57
ENDBRANCH  26  50
BRANCH  38  61
ATOM     61  C   UNL     1      10.414   4.821  10.573  1.00  0.00     0.023 A 
ATOM     62  C   UNL     1       9.881   5.546  11.658  1.00  0.00     0.012 A 
ATOM     63  C   UNL     1      11.797   4.564  10.525  1.00  0.00     0.148 A 
ATOM     64  C   UNL     1      10.716   6.034  12.662  1.00  0.00     0.002 A 
ATOM     65  C   UNL     1      12.618   5.017  11.552  1.00  0.00     0.091 A 
ATOM     66  F   UNL     1      12.290   3.894   9.473  1.00  0.00    -0.205 F 
ATOM     67  C   UNL     1      12.081   5.761  12.615  1.00  0.00     0.022 A 
BRANCH  65  68
ATOM     68  S   UNL     1      14.371   4.629  11.609  1.00  0.00     0.127 S 
ATOM     69  O   UNL     1      14.967   5.862  11.099  1.00  0.00    -0.237 OA
ATOM     70  O   UNL     1      14.596   4.388  13.035  1.00  0.00    -0.237 OA
ATOM     71  O   UNL     1      14.539   3.450  10.769  1.00  0.00    -0.744 OA
ENDBRANCH  65  68
ENDBRANCH  38  61
ENDBRANCH  12  13
ENDBRANCH   5   7
ENDBRANCH   2   3
ENDBRANCH   1   2
BRANCH   1  72
ATOM     72  C   UNL     1       4.514  -2.887  -2.679  1.00  0.00     0.023 C 
BRANCH  72  73
ATOM     73  C   UNL     1       5.149  -2.072  -3.805  1.00  0.00     0.116 C 
BRANCH  73  74
ATOM     74  N   UNL     1       6.600  -2.164  -3.808  1.00  0.00    -0.354 N 
ATOM     75  C   UNL     1       7.463  -2.665  -4.745  1.00  0.00     0.249 C 
ATOM     76  H   UNL     1       7.035  -1.806  -3.000  1.00  0.00     0.163 HD
ATOM     77  O   UNL     1       8.674  -2.566  -4.532  1.00  0.00    -0.272 OA
BRANCH  75  78
ATOM     78  C   UNL     1       6.914  -3.344  -6.005  1.00  0.00     0.207 C 
ATOM     79  C   UNL     1       7.308  -4.804  -6.086  1.00  0.00     0.045 C 
ATOM     80  O   UNL     1       7.356  -2.768  -7.234  1.00  0.00    -0.363 OA
ATOM     81  C   UNL     1       7.068  -5.115  -7.547  1.00  0.00     0.037 C 
ATOM     82  C   UNL     1       7.356  -3.788  -8.253  1.00  0.00     0.139 C 
BRANCH  82  83
ATOM     83  C   UNL     1       6.375  -3.400  -9.394  1.00  0.00     0.160 C 
BRANCH  83  84
ATOM     84  N   UNL     1       4.971  -3.553  -8.990  1.00  0.00    -0.280 N 
ATOM     85  C   UNL     1       4.238  -4.599  -9.521  1.00  0.00     0.229 C 
ATOM     86  C   UNL     1       4.394  -2.549  -8.231  1.00  0.00     0.229 C 
ATOM     87  O   UNL     1       4.624  -5.277 -10.476  1.00  0.00    -0.274 OA
ATOM     88  C   UNL     1       2.961  -4.987  -8.805  1.00  0.00     0.108 C 
ATOM     89  C   UNL     1       3.300  -3.015  -7.306  1.00  0.00     0.108 C 
ATOM     90  O   UNL     1       4.770  -1.381  -8.224  1.00  0.00    -0.274 OA
ATOM     91  C   UNL     1       2.265  -3.898  -7.985  1.00  0.00    -0.012 C 
ATOM     92  C   UNL     1       1.374  -4.570  -6.902  1.00  0.00     0.008 C 
ATOM     93  C   UNL     1       1.285  -3.054  -8.833  1.00  0.00     0.008 C 
ATOM     94  C   UNL     1       0.029  -3.872  -6.978  1.00  0.00     0.001 C 
ATOM     95  C   UNL     1      -0.104  -3.554  -8.455  1.00  0.00     0.001 C 
ENDBRANCH  83  84
ENDBRANCH  82  83
ENDBRANCH  75  78
ENDBRANCH  73  74
ENDBRANCH  72  73
ENDBRANCH   1  72
TORSDOF 16
