REMARK SMILES COc1ccc(Cn2c(SCCC(=O)NCCCCNC(=O)c3ccc(-c4c5nc(c(-c6cccc(S(=O)(=O)[O-])c6F)c6ccc([nH]6)c(-c6cccc(S(=O)(=O)[O-])c6F)c6nc(c(-c7cccc(S(=O)(=O)[O-])c7F)c7ccc4[nH]7)C=C6)C=C5)cc3)nc3ccc(Cl)cc3c2=O)cc1
REMARK SMILES IDX 16 1 15 2 13 3 14 4 12 6 11 7 10 8 9 9 8 10 94 11 86 12
REMARK SMILES IDX 93 13 95 14 87 15 92 16 88 17 90 18 89 19 91 20 7 21 6 22
REMARK SMILES IDX 3 23 4 24 97 25 5 26 96 27 2 28 1 29 17 30 18 31 19 32 20 33
REMARK SMILES IDX 21 34 22 36 23 37 24 38 85 39 25 40 84 41 26 42 27 43 28 44
REMARK SMILES IDX 78 45 29 46 83 47 77 48 79 49 30 50 82 51 76 52 75 53 31 55
REMARK SMILES IDX 63 56 43 57 62 58 44 59 47 60 61 61 80 62 45 63 46 64 60 66
REMARK SMILES IDX 81 67 48 68 32 69 33 70 41 71 34 72 36 73 42 74 35 75 37 76
REMARK SMILES IDX 38 77 39 78 40 79 64 80 65 81 73 82 66 83 68 84 74 85 67 86
REMARK SMILES IDX 69 87 70 88 71 89 72 90 49 91 50 92 58 93 51 94 53 95 59 96
REMARK SMILES IDX 52 97 54 98 55 99 56 100 57 101
REMARK H PARENT 15 5 20 35 79 54 47 65
REMARK Flexibility Score: inf
ROOT
ATOM      1  C   UNL     1       5.373  -0.924   8.866  1.00  0.00     0.116 C 
ENDROOT
BRANCH   1   2
ATOM      2  N   UNL     1       4.319  -1.655   8.200  1.00  0.00    -0.356 N 
ATOM      3  C   UNL     1       4.263  -2.152   6.947  1.00  0.00     0.220 C 
ATOM      4  O   UNL     1       3.340  -2.917   6.660  1.00  0.00    -0.275 OA
ATOM      5  H   UNL     1       3.517  -1.817   8.747  1.00  0.00     0.163 HD
BRANCH   3   6
ATOM      6  C   UNL     1       5.279  -1.743   5.915  1.00  0.00     0.111 C 
BRANCH   6   7
ATOM      7  C   UNL     1       4.535  -1.155   4.734  1.00  0.00     0.088 C 
BRANCH   7   8
ATOM      8  S   UNL     1       4.506   0.622   4.565  1.00  0.00    -0.087 SA
BRANCH   8   9
ATOM      9  C   UNL     1       3.528   1.425   5.776  1.00  0.00     0.171 A 
ATOM     10  N   UNL     1       2.144   1.348   5.776  1.00  0.00    -0.283 N 
ATOM     11  C   UNL     1       1.409   2.467   6.171  1.00  0.00     0.262 A 
ATOM     12  N   UNL     1       4.195   2.348   6.401  1.00  0.00    -0.224 NA
ATOM     13  C   UNL     1       2.164   3.669   6.531  1.00  0.00     0.067 A 
ATOM     14  O   UNL     1       0.188   2.517   6.277  1.00  0.00    -0.269 OA
ATOM     15  C   UNL     1       3.506   3.486   6.838  1.00  0.00     0.079 A 
ATOM     16  C   UNL     1       1.563   4.931   6.575  1.00  0.00     0.036 A 
ATOM     17  C   UNL     1       4.221   4.566   7.360  1.00  0.00     0.031 A 
ATOM     18  C   UNL     1       2.318   6.017   7.003  1.00  0.00     0.042 A 
ATOM     19  C   UNL     1       3.626   5.830   7.449  1.00  0.00     0.023 A 
ATOM     20  Cl  UNL     1       1.654   7.603   6.939  1.00  0.00    -0.084 Cl
BRANCH  10  21
ATOM     21  C   UNL     1       1.366   0.110   5.603  1.00  0.00     0.163 C 
BRANCH  21  22
ATOM     22  C   UNL     1       0.748  -0.048   4.232  1.00  0.00    -0.028 A 
ATOM     23  C   UNL     1      -0.132  -0.061   1.569  1.00  0.00     0.118 A 
ATOM     24  C   UNL     1      -0.774   0.738   2.507  1.00  0.00     0.047 A 
ATOM     25  C   UNL     1       0.829  -0.974   1.988  1.00  0.00     0.047 A 
ATOM     26  C   UNL     1      -0.336   0.744   3.831  1.00  0.00     0.009 A 
ATOM     27  C   UNL     1       1.244  -0.980   3.316  1.00  0.00     0.009 A 
BRANCH  23  28
ATOM     28  O   UNL     1      -0.507   0.096   0.263  1.00  0.00    -0.497 OA
ATOM     29  C   UNL     1       0.593   0.008  -0.642  1.00  0.00     0.278 C 
ENDBRANCH  23  28
ENDBRANCH  21  22
ENDBRANCH  10  21
ENDBRANCH   8   9
ENDBRANCH   7   8
ENDBRANCH   6   7
ENDBRANCH   3   6
ENDBRANCH   1   2
BRANCH   1  30
ATOM     30  C   UNL     1       4.971   0.464   9.355  1.00  0.00     0.023 C 
BRANCH  30  31
ATOM     31  C   UNL     1       3.477   0.673   9.620  1.00  0.00     0.023 C 
BRANCH  31  32
ATOM     32  C   UNL     1       3.228   1.655  10.753  1.00  0.00     0.116 C 
BRANCH  32  33
ATOM     33  N   UNL     1       3.932   2.918  10.629  1.00  0.00    -0.352 N 
ATOM     34  C   UNL     1       3.814   4.048  11.413  1.00  0.00     0.251 C 
ATOM     35  H   UNL     1       4.579   2.976   9.889  1.00  0.00     0.163 HD
ATOM     36  O   UNL     1       4.435   5.057  11.118  1.00  0.00    -0.269 OA
BRANCH  34  37
ATOM     37  C   UNL     1       2.893   4.046  12.580  1.00  0.00     0.039 A 
ATOM     38  C   UNL     1       2.121   5.184  12.837  1.00  0.00     0.014 A 
ATOM     39  C   UNL     1       2.779   2.938  13.418  1.00  0.00     0.014 A 
ATOM     40  C   UNL     1       1.199   5.180  13.890  1.00  0.00     0.010 A 
ATOM     41  C   UNL     1       1.782   2.888  14.380  1.00  0.00     0.010 A 
ATOM     42  C   UNL     1       1.003   4.019  14.650  1.00  0.00    -0.014 A 
BRANCH  42  43
ATOM     43  C   UNL     1       0.043   3.941  15.779  1.00  0.00     0.031 A 
ATOM     44  C   UNL     1       0.560   3.585  17.150  1.00  0.00     0.074 A 
ATOM     45  C   UNL     1      -1.280   4.029  15.544  1.00  0.00     0.049 A 
ATOM     46  N   UNL     1      -0.101   3.239  18.222  1.00  0.00    -0.248 NA
ATOM     47  C   UNL     1       2.025   3.551  17.316  1.00  0.00     0.031 C 
ATOM     48  C   UNL     1      -1.895   4.274  14.237  1.00  0.00     0.029 A 
ATOM     49  N   UNL     1      -2.348   3.878  16.390  1.00  0.00    -0.354 N 
ATOM     50  C   UNL     1       0.862   2.869  19.156  1.00  0.00     0.074 A 
ATOM     51  C   UNL     1       2.150   3.001  18.514  1.00  0.00     0.031 C 
ATOM     52  C   UNL     1      -3.231   4.257  14.369  1.00  0.00     0.029 A 
ATOM     53  C   UNL     1      -3.567   3.971  15.760  1.00  0.00     0.049 A 
ATOM     54  H   UNL     1      -2.252   3.718  17.357  1.00  0.00     0.167 HD
ATOM     55  C   UNL     1       0.690   2.488  20.444  1.00  0.00     0.034 A 
ATOM     56  C   UNL     1      -4.814   3.836  16.253  1.00  0.00     0.034 A 
ATOM     57  C   UNL     1      -0.591   2.470  21.094  1.00  0.00     0.049 A 
ATOM     58  C   UNL     1      -4.975   3.557  17.723  1.00  0.00     0.074 A 
ATOM     59  C   UNL     1      -0.883   2.220  22.422  1.00  0.00     0.029 A 
ATOM     60  N   UNL     1      -1.795   2.740  20.460  1.00  0.00    -0.354 N 
ATOM     61  N   UNL     1      -4.049   3.340  18.626  1.00  0.00    -0.248 NA
ATOM     62  C   UNL     1      -6.346   3.544  18.252  1.00  0.00     0.031 C 
ATOM     63  C   UNL     1      -2.267   2.347  22.592  1.00  0.00     0.029 A 
ATOM     64  C   UNL     1      -2.833   2.682  21.372  1.00  0.00     0.049 A 
ATOM     65  H   UNL     1      -1.896   2.943  19.502  1.00  0.00     0.167 HD
ATOM     66  C   UNL     1      -4.719   3.197  19.834  1.00  0.00     0.074 A 
ATOM     67  C   UNL     1      -6.130   3.373  19.550  1.00  0.00     0.031 C 
ATOM     68  C   UNL     1      -4.220   2.925  21.066  1.00  0.00     0.034 A 
BRANCH  55  69
ATOM     69  C   UNL     1       1.920   2.141  21.246  1.00  0.00     0.023 A 
ATOM     70  C   UNL     1       2.831   3.159  21.598  1.00  0.00     0.012 A 
ATOM     71  C   UNL     1       2.167   0.821  21.675  1.00  0.00     0.148 A 
ATOM     72  C   UNL     1       3.988   2.865  22.318  1.00  0.00     0.002 A 
ATOM     73  C   UNL     1       3.300   0.543  22.433  1.00  0.00     0.091 A 
ATOM     74  F   UNL     1       1.305  -0.141  21.316  1.00  0.00    -0.205 F 
ATOM     75  C   UNL     1       4.218   1.560  22.743  1.00  0.00     0.022 A 
BRANCH  73  76
ATOM     76  S   UNL     1       3.648  -1.091  23.096  1.00  0.00     0.127 S 
ATOM     77  O   UNL     1       4.748  -1.530  22.239  1.00  0.00    -0.237 OA
ATOM     78  O   UNL     1       4.034  -0.790  24.475  1.00  0.00    -0.237 OA
ATOM     79  O   UNL     1       2.410  -1.846  22.965  1.00  0.00    -0.744 OA
ENDBRANCH  73  76
ENDBRANCH  55  69
BRANCH  56  80
ATOM     80  C   UNL     1      -5.989   4.073  15.369  1.00  0.00     0.023 A 
ATOM     81  C   UNL     1      -6.728   5.263  15.522  1.00  0.00     0.012 A 
ATOM     82  C   UNL     1      -6.342   3.175  14.342  1.00  0.00     0.148 A 
ATOM     83  C   UNL     1      -7.809   5.545  14.686  1.00  0.00     0.002 A 
ATOM     84  C   UNL     1      -7.390   3.485  13.481  1.00  0.00     0.091 A 
ATOM     85  F   UNL     1      -5.635   2.043  14.217  1.00  0.00    -0.205 F 
ATOM     86  C   UNL     1      -8.133   4.663  13.659  1.00  0.00     0.022 A 
BRANCH  84  87
ATOM     87  S   UNL     1      -7.791   2.472  12.052  1.00  0.00     0.127 S 
ATOM     88  O   UNL     1      -9.012   1.802  12.493  1.00  0.00    -0.237 OA
ATOM     89  O   UNL     1      -7.985   3.479  11.007  1.00  0.00    -0.237 OA
ATOM     90  O   UNL     1      -6.632   1.614  11.847  1.00  0.00    -0.744 OA
ENDBRANCH  84  87
ENDBRANCH  56  80
BRANCH  68  91
ATOM     91  C   UNL     1      -5.197   2.834  22.204  1.00  0.00     0.023 A 
ATOM     92  C   UNL     1      -6.006   1.689  22.336  1.00  0.00     0.012 A 
ATOM     93  C   UNL     1      -5.249   3.840  23.187  1.00  0.00     0.148 A 
ATOM     94  C   UNL     1      -6.872   1.558  23.419  1.00  0.00     0.002 A 
ATOM     95  C   UNL     1      -6.083   3.683  24.287  1.00  0.00     0.091 A 
ATOM     96  F   UNL     1      -4.486   4.932  23.029  1.00  0.00    -0.205 F 
ATOM     97  C   UNL     1      -6.902   2.547  24.400  1.00  0.00     0.022 A 
BRANCH  95  98
ATOM     98  S   UNL     1      -6.111   4.863  25.641  1.00  0.00     0.127 S 
ATOM     99  O   UNL     1      -7.347   5.595  25.373  1.00  0.00    -0.237 OA
ATOM    100  O   UNL     1      -6.160   3.992  26.816  1.00  0.00    -0.237 OA
ATOM    101  O   UNL     1      -4.882   5.636  25.518  1.00  0.00    -0.744 OA
ENDBRANCH  95  98
ENDBRANCH  68  91
ENDBRANCH  42  43
ENDBRANCH  34  37
ENDBRANCH  32  33
ENDBRANCH  31  32
ENDBRANCH  30  31
ENDBRANCH   1  30
TORSDOF 20
