REMARK SMILES Nc1ncccc1C[N@@H+]1CC2(CC[NH2+]CC2)C[C@H]1C(=O)NCCCCNC(=O)c1ccc(-c2c3nc(c(-c4cccc(S(=O)(=O)[O-])c4F)c4ccc([nH]4)c(-c4cccc(S(=O)(=O)[O-])c4F)c4nc(c(-c5cccc(S(=O)(=O)[O-])c5F)c5ccc2[nH]5)C=C4)C=C3)cc1
REMARK SMILES IDX 23 1 22 2 21 3 19 4 20 5 18 7 9 8 10 9 11 11 17 12 12 13
REMARK SMILES IDX 16 14 13 15 15 16 14 17 8 20 7 21 2 22 3 23 4 24 6 25 5 26
REMARK SMILES IDX 1 27 24 30 25 31 26 32 27 33 28 35 29 36 30 37 91 38 31 39
REMARK SMILES IDX 90 40 32 41 33 42 34 43 84 44 35 45 89 46 83 47 85 48 36 49
REMARK SMILES IDX 88 50 82 51 81 52 37 54 69 55 49 56 68 57 50 58 53 59 67 60
REMARK SMILES IDX 86 61 51 62 52 63 66 65 87 66 54 67 38 68 39 69 47 70 40 71
REMARK SMILES IDX 42 72 48 73 41 74 43 75 44 76 45 77 46 78 70 79 71 80 79 81
REMARK SMILES IDX 72 82 74 83 80 84 73 85 75 86 76 87 77 88 78 89 55 90 56 91
REMARK SMILES IDX 64 92 57 93 59 94 65 95 58 96 60 97 61 98 62 99 63 100
REMARK H PARENT 21 6 9 10 14 18 14 19 1 28 1 29 26 34 85 53 53 64
REMARK Flexibility Score: inf
ROOT
ATOM      1  C   UNL     1      -1.192  -5.938   3.494  1.00  0.00     0.023 C 
ENDROOT
BRANCH   1   2
ATOM      2  C   UNL     1      -1.138  -4.489   3.960  1.00  0.00     0.116 C 
BRANCH   2   3
ATOM      3  N   UNL     1       0.167  -3.923   4.141  1.00  0.00    -0.351 N 
ATOM      4  C   UNL     1       0.697  -2.788   3.600  1.00  0.00     0.278 C 
ATOM      5  O   UNL     1       1.770  -2.413   4.096  1.00  0.00    -0.268 OA
ATOM      6  H   UNL     1       0.765  -4.424   4.741  1.00  0.00     0.163 HD
BRANCH   4   7
ATOM      7  C   UNL     1       0.083  -1.983   2.406  1.00  0.00     0.275 C 
ATOM      8  N   UNL     1      -0.047  -2.824   1.206  1.00  0.00    -0.320 N 
ATOM      9  C   UNL     1      -1.472  -2.987   0.894  1.00  0.00     0.270 C 
ATOM     10  H   UNL     1       0.306  -3.763   1.388  1.00  0.00     0.349 HD
ATOM     11  C   UNL     1      -2.300  -1.930   1.684  1.00  0.00     0.036 C 
ATOM     12  C   UNL     1      -1.234  -1.208   2.538  1.00  0.00     0.089 C 
ATOM     13  C   UNL     1      -3.447  -2.400   2.627  1.00  0.00     0.074 C 
ATOM     14  C   UNL     1      -3.069  -1.048   0.666  1.00  0.00     0.074 C 
ATOM     15  C   UNL     1      -4.500  -3.232   1.911  1.00  0.00     0.261 C 
ATOM     16  C   UNL     1      -4.156  -1.866  -0.064  1.00  0.00     0.261 C 
ATOM     17  N   UNL     1      -5.135  -2.454   0.849  1.00  0.00    -0.346 N 
ATOM     18  H   UNL     1      -5.681  -1.704   1.272  1.00  0.00     0.346 HD
ATOM     19  H   UNL     1      -5.728  -3.084   0.309  1.00  0.00     0.346 HD
BRANCH   8  20
ATOM     20  C   UNL     1       0.852  -2.418   0.099  1.00  0.00     0.303 C 
BRANCH  20  21
ATOM     21  C   UNL     1       0.754  -0.985  -0.400  1.00  0.00     0.048 A 
ATOM     22  C   UNL     1       1.586   0.048   0.049  1.00  0.00     0.132 A 
ATOM     23  N   UNL     1       1.340   1.350  -0.204  1.00  0.00    -0.239 NA
ATOM     24  C   UNL     1       0.283   1.653  -0.982  1.00  0.00     0.113 A 
ATOM     25  C   UNL     1      -0.250  -0.634  -1.311  1.00  0.00     0.015 A 
ATOM     26  C   UNL     1      -0.509   0.704  -1.590  1.00  0.00     0.021 A 
BRANCH  22  27
ATOM     27  N   UNL     1       2.695  -0.168   0.836  1.00  0.00    -0.383 N 
ATOM     28  H   UNL     1       3.248   0.594   1.126  1.00  0.00     0.158 HD
ATOM     29  H   UNL     1       2.936  -1.083   1.108  1.00  0.00     0.158 HD
ENDBRANCH  22  27
ENDBRANCH  20  21
ENDBRANCH   8  20
ENDBRANCH   4   7
ENDBRANCH   2   3
ENDBRANCH   1   2
BRANCH   1  30
ATOM     30  C   UNL     1      -1.609  -6.945   4.563  1.00  0.00     0.023 C 
BRANCH  30  31
ATOM     31  C   UNL     1      -2.923  -6.666   5.293  1.00  0.00     0.116 C 
BRANCH  31  32
ATOM     32  N   UNL     1      -4.101  -6.575   4.442  1.00  0.00    -0.352 N 
ATOM     33  C   UNL     1      -5.400  -6.930   4.764  1.00  0.00     0.251 C 
ATOM     34  H   UNL     1      -3.958  -6.222   3.534  1.00  0.00     0.163 HD
ATOM     35  O   UNL     1      -6.297  -6.838   3.943  1.00  0.00    -0.269 OA
BRANCH  33  36
ATOM     36  C   UNL     1      -5.669  -7.476   6.117  1.00  0.00     0.039 A 
ATOM     37  C   UNL     1      -6.260  -8.737   6.231  1.00  0.00     0.014 A 
ATOM     38  C   UNL     1      -5.239  -6.791   7.255  1.00  0.00     0.014 A 
ATOM     39  C   UNL     1      -6.331  -9.353   7.484  1.00  0.00     0.010 A 
ATOM     40  C   UNL     1      -5.242  -7.438   8.487  1.00  0.00     0.010 A 
ATOM     41  C   UNL     1      -5.776  -8.730   8.614  1.00  0.00    -0.014 A 
BRANCH  41  42
ATOM     42  C   UNL     1      -5.713  -9.421   9.930  1.00  0.00     0.031 A 
ATOM     43  C   UNL     1      -6.433  -8.850  11.122  1.00  0.00     0.074 A 
ATOM     44  C   UNL     1      -4.928 -10.507  10.078  1.00  0.00     0.049 A 
ATOM     45  N   UNL     1      -6.452  -9.279  12.357  1.00  0.00    -0.248 NA
ATOM     46  C   UNL     1      -7.208  -7.617  10.903  1.00  0.00     0.031 C 
ATOM     47  C   UNL     1      -4.105 -11.109   9.025  1.00  0.00     0.029 A 
ATOM     48  N   UNL     1      -4.673 -11.287  11.180  1.00  0.00    -0.354 N 
ATOM     49  C   UNL     1      -7.207  -8.355  13.068  1.00  0.00     0.074 A 
ATOM     50  C   UNL     1      -7.593  -7.318  12.135  1.00  0.00     0.031 C 
ATOM     51  C   UNL     1      -3.453 -12.170   9.527  1.00  0.00     0.029 A 
ATOM     52  C   UNL     1      -3.790 -12.314  10.940  1.00  0.00     0.049 A 
ATOM     53  H   UNL     1      -5.085 -11.126  12.059  1.00  0.00     0.167 HD
ATOM     54  C   UNL     1      -7.583  -8.383  14.369  1.00  0.00     0.034 A 
ATOM     55  C   UNL     1      -3.311 -13.269  11.763  1.00  0.00     0.034 A 
ATOM     56  C   UNL     1      -7.246  -9.441  15.282  1.00  0.00     0.049 A 
ATOM     57  C   UNL     1      -3.785 -13.308  13.191  1.00  0.00     0.074 A 
ATOM     58  C   UNL     1      -7.651  -9.608  16.594  1.00  0.00     0.029 A 
ATOM     59  N   UNL     1      -6.425 -10.515  14.977  1.00  0.00    -0.354 N 
ATOM     60  N   UNL     1      -4.633 -12.517  13.802  1.00  0.00    -0.248 NA
ATOM     61  C   UNL     1      -3.265 -14.395  14.035  1.00  0.00     0.031 C 
ATOM     62  C   UNL     1      -7.067 -10.781  17.086  1.00  0.00     0.029 A 
ATOM     63  C   UNL     1      -6.309 -11.350  16.075  1.00  0.00     0.049 A 
ATOM     64  H   UNL     1      -5.988 -10.663  14.107  1.00  0.00     0.167 HD
ATOM     65  C   UNL     1      -4.779 -13.030  15.085  1.00  0.00     0.074 A 
ATOM     66  C   UNL     1      -3.945 -14.212  15.159  1.00  0.00     0.031 C 
ATOM     67  C   UNL     1      -5.524 -12.557  16.115  1.00  0.00     0.034 A 
BRANCH  54  68
ATOM     68  C   UNL     1      -8.468  -7.266  14.858  1.00  0.00     0.023 A 
ATOM     69  C   UNL     1      -9.810  -7.213  14.427  1.00  0.00     0.012 A 
ATOM     70  C   UNL     1      -7.995  -6.295  15.760  1.00  0.00     0.148 A 
ATOM     71  C   UNL     1     -10.655  -6.189  14.850  1.00  0.00     0.002 A 
ATOM     72  C   UNL     1      -8.856  -5.300  16.212  1.00  0.00     0.091 A 
ATOM     73  F   UNL     1      -6.711  -6.345  16.142  1.00  0.00    -0.205 F 
ATOM     74  C   UNL     1     -10.181  -5.239  15.750  1.00  0.00     0.022 A 
BRANCH  72  75
ATOM     75  S   UNL     1      -8.358  -4.075  17.429  1.00  0.00     0.127 S 
ATOM     76  O   UNL     1      -8.170  -2.890  16.594  1.00  0.00    -0.237 OA
ATOM     77  O   UNL     1      -9.525  -4.021  18.311  1.00  0.00    -0.237 OA
ATOM     78  O   UNL     1      -7.154  -4.604  18.054  1.00  0.00    -0.744 OA
ENDBRANCH  72  75
ENDBRANCH  54  68
BRANCH  55  79
ATOM     79  C   UNL     1      -2.408 -14.329  11.230  1.00  0.00     0.023 A 
ATOM     80  C   UNL     1      -2.906 -15.639  11.084  1.00  0.00     0.012 A 
ATOM     81  C   UNL     1      -1.084 -14.051  10.841  1.00  0.00     0.148 A 
ATOM     82  C   UNL     1      -2.095 -16.659  10.587  1.00  0.00     0.002 A 
ATOM     83  C   UNL     1      -0.296 -15.062  10.299  1.00  0.00     0.091 A 
ATOM     84  F   UNL     1      -0.624 -12.802  10.999  1.00  0.00    -0.205 F 
ATOM     85  C   UNL     1      -0.794 -16.369  10.186  1.00  0.00     0.022 A 
BRANCH  83  86
ATOM     86  S   UNL     1       1.347 -14.754   9.641  1.00  0.00     0.127 S 
ATOM     87  O   UNL     1       2.196 -15.384  10.648  1.00  0.00    -0.237 OA
ATOM     88  O   UNL     1       1.294 -15.450   8.355  1.00  0.00    -0.237 OA
ATOM     89  O   UNL     1       1.459 -13.305   9.532  1.00  0.00    -0.744 OA
ENDBRANCH  83  86
ENDBRANCH  55  79
BRANCH  67  90
ATOM     90  C   UNL     1      -5.503 -13.330  17.407  1.00  0.00     0.023 A 
ATOM     91  C   UNL     1      -4.367 -13.269  18.238  1.00  0.00     0.012 A 
ATOM     92  C   UNL     1      -6.636 -14.048  17.836  1.00  0.00     0.148 A 
ATOM     93  C   UNL     1      -4.349 -13.932  19.464  1.00  0.00     0.002 A 
ATOM     94  C   UNL     1      -6.628 -14.670  19.079  1.00  0.00     0.091 A 
ATOM     95  F   UNL     1      -7.700 -14.113  17.021  1.00  0.00    -0.205 F 
ATOM     96  C   UNL     1      -5.483 -14.621  19.890  1.00  0.00     0.022 A 
BRANCH  94  97
ATOM     97  S   UNL     1      -8.076 -15.499  19.747  1.00  0.00     0.127 S 
ATOM     98  O   UNL     1      -7.718 -16.906  19.577  1.00  0.00    -0.237 OA
ATOM     99  O   UNL     1      -8.089 -15.036  21.135  1.00  0.00    -0.237 OA
ATOM    100  O   UNL     1      -9.203 -15.037  18.948  1.00  0.00    -0.744 OA
ENDBRANCH  94  97
ENDBRANCH  67  90
ENDBRANCH  41  42
ENDBRANCH  33  36
ENDBRANCH  31  32
ENDBRANCH  30  31
ENDBRANCH   1  30
TORSDOF 17
