REMARK SMILES COc1c[nH]c(C[N@H+]2CCC[C@@H](c3ccc(C(=O)NCCCCNC(=O)c4ccc(-c5c6nc(c(-c7cccc(S(=O)(=O)[O-])c7F)c7ccc([nH]7)c(-c7cccc(S(=O)(=O)[O-])c7F)c7nc(c(-c8cccc(S(=O)(=O)[O-])c8F)c8ccc5[nH]8)C=C7)C=C6)cc4)cc3)C2)cc1=O
REMARK SMILES IDX 21 1 20 2 19 3 17 4 18 5 16 7 13 8 14 9 91 10 15 11 90 12
REMARK SMILES IDX 12 13 8 14 9 15 92 16 10 18 11 19 7 20 6 21 3 22 4 23 94 24
REMARK SMILES IDX 5 25 93 26 95 27 2 29 1 30 22 31 23 32 24 33 25 34 26 36
REMARK SMILES IDX 27 37 28 38 89 39 29 40 88 41 30 42 31 43 32 44 82 45 33 46
REMARK SMILES IDX 87 47 81 48 83 49 34 50 86 51 80 52 79 53 35 55 67 56 47 57
REMARK SMILES IDX 66 58 48 59 51 60 65 61 84 62 49 63 50 64 64 66 85 67 52 68
REMARK SMILES IDX 36 69 37 70 45 71 38 72 40 73 46 74 39 75 41 76 42 77 43 78
REMARK SMILES IDX 44 79 68 80 69 81 77 82 70 83 72 84 78 85 71 86 73 87 74 88
REMARK SMILES IDX 75 89 76 90 53 91 54 92 62 93 55 94 57 95 63 96 56 97 58 98
REMARK SMILES IDX 59 99 60 100 61 101
REMARK H PARENT 19 6 8 17 5 28 24 35 83 54 51 65
REMARK Flexibility Score: inf
ROOT
ATOM      1  C   UNL     1      -6.796  -6.983  -8.895  1.00  0.00     0.023 C 
ENDROOT
BRANCH   1   2
ATOM      2  C   UNL     1      -6.844  -5.671  -8.109  1.00  0.00     0.116 C 
BRANCH   2   3
ATOM      3  N   UNL     1      -6.836  -5.926  -6.684  1.00  0.00    -0.352 N 
ATOM      4  C   UNL     1      -5.815  -5.951  -5.770  1.00  0.00     0.251 C 
ATOM      5  O   UNL     1      -6.104  -6.146  -4.589  1.00  0.00    -0.269 OA
ATOM      6  H   UNL     1      -7.724  -6.116  -6.303  1.00  0.00     0.163 HD
BRANCH   4   7
ATOM      7  C   UNL     1      -4.389  -5.697  -6.127  1.00  0.00     0.039 A 
ATOM      8  C   UNL     1      -1.665  -5.097  -6.623  1.00  0.00    -0.039 A 
ATOM      9  C   UNL     1      -2.231  -4.886  -5.356  1.00  0.00     0.005 A 
ATOM     10  C   UNL     1      -2.462  -5.676  -7.614  1.00  0.00     0.005 A 
ATOM     11  C   UNL     1      -3.577  -5.167  -5.117  1.00  0.00     0.014 A 
ATOM     12  C   UNL     1      -3.801  -5.991  -7.359  1.00  0.00     0.014 A 
BRANCH   8  13
ATOM     13  C   UNL     1      -0.223  -4.733  -6.936  1.00  0.00     0.074 C 
ATOM     14  N   UNL     1       1.523  -2.933  -6.639  1.00  0.00    -0.329 N 
ATOM     15  C   UNL     1       2.425  -3.908  -6.010  1.00  0.00     0.262 C 
ATOM     16  C   UNL     1       0.117  -3.310  -6.446  1.00  0.00     0.270 C 
ATOM     17  H   UNL     1       1.705  -2.952  -7.643  1.00  0.00     0.348 HD
ATOM     18  C   UNL     1       2.187  -5.320  -6.550  1.00  0.00     0.062 C 
ATOM     19  C   UNL     1       0.743  -5.761  -6.334  1.00  0.00     0.020 C 
BRANCH  14  20
ATOM     20  C   UNL     1       1.803  -1.548  -6.199  1.00  0.00     0.317 C 
BRANCH  20  21
ATOM     21  C   UNL     1       1.604  -1.250  -4.715  1.00  0.00     0.074 A 
ATOM     22  C   UNL     1       0.977  -0.985  -1.939  1.00  0.00     0.182 A 
ATOM     23  C   UNL     1       0.038  -1.061  -2.892  1.00  0.00     0.133 A 
ATOM     24  C   UNL     1       2.406  -0.954  -2.416  1.00  0.00     0.223 A 
ATOM     25  N   UNL     1       0.314  -1.118  -4.231  1.00  0.00    -0.357 N 
ATOM     26  C   UNL     1       2.651  -1.135  -3.877  1.00  0.00     0.083 A 
ATOM     27  O   UNL     1       3.364  -0.815  -1.660  1.00  0.00    -0.286 OA
ATOM     28  H   UNL     1      -0.431  -1.062  -4.872  1.00  0.00     0.166 HD
BRANCH  22  29
ATOM     29  O   UNL     1       0.628  -1.027  -0.604  1.00  0.00    -0.491 OA
ATOM     30  C   UNL     1       1.155   0.062   0.144  1.00  0.00     0.278 C 
ENDBRANCH  22  29
ENDBRANCH  20  21
ENDBRANCH  14  20
ENDBRANCH   8  13
ENDBRANCH   4   7
ENDBRANCH   2   3
ENDBRANCH   1   2
BRANCH   1  31
ATOM     31  C   UNL     1      -8.132  -7.723  -8.975  1.00  0.00     0.023 C 
BRANCH  31  32
ATOM     32  C   UNL     1      -9.238  -6.970  -9.702  1.00  0.00     0.116 C 
BRANCH  32  33
ATOM     33  N   UNL     1      -8.877  -6.589 -11.060  1.00  0.00    -0.352 N 
ATOM     34  C   UNL     1      -9.708  -6.430 -12.146  1.00  0.00     0.251 C 
ATOM     35  H   UNL     1      -7.920  -6.423 -11.222  1.00  0.00     0.163 HD
ATOM     36  O   UNL     1      -9.248  -6.202 -13.253  1.00  0.00    -0.269 OA
BRANCH  34  37
ATOM     37  C   UNL     1     -11.165  -6.586 -11.950  1.00  0.00     0.039 A 
ATOM     38  C   UNL     1     -11.862  -7.476 -12.770  1.00  0.00     0.014 A 
ATOM     39  C   UNL     1     -11.819  -5.902 -10.923  1.00  0.00     0.014 A 
ATOM     40  C   UNL     1     -13.210  -7.730 -12.516  1.00  0.00     0.010 A 
ATOM     41  C   UNL     1     -13.143  -6.208 -10.630  1.00  0.00     0.010 A 
ATOM     42  C   UNL     1     -13.851  -7.124 -11.423  1.00  0.00    -0.014 A 
BRANCH  42  43
ATOM     43  C   UNL     1     -15.257  -7.445 -11.077  1.00  0.00     0.031 A 
ATOM     44  C   UNL     1     -16.312  -6.377 -11.148  1.00  0.00     0.074 A 
ATOM     45  C   UNL     1     -15.561  -8.670 -10.604  1.00  0.00     0.049 A 
ATOM     46  N   UNL     1     -17.577  -6.447 -10.825  1.00  0.00    -0.248 NA
ATOM     47  C   UNL     1     -15.884  -5.047 -11.613  1.00  0.00     0.031 C 
ATOM     48  C   UNL     1     -14.605  -9.762 -10.405  1.00  0.00     0.029 A 
ATOM     49  N   UNL     1     -16.755  -9.193 -10.175  1.00  0.00    -0.354 N 
ATOM     50  C   UNL     1     -18.086  -5.168 -11.010  1.00  0.00     0.074 A 
ATOM     51  C   UNL     1     -16.988  -4.333 -11.443  1.00  0.00     0.031 C 
ATOM     52  C   UNL     1     -15.249 -10.823  -9.895  1.00  0.00     0.029 A 
ATOM     53  C   UNL     1     -16.657 -10.483  -9.710  1.00  0.00     0.049 A 
ATOM     54  H   UNL     1     -17.601  -8.691 -10.198  1.00  0.00     0.167 HD
ATOM     55  C   UNL     1     -19.361  -4.735 -10.867  1.00  0.00     0.034 A 
ATOM     56  C   UNL     1     -17.596 -11.300  -9.193  1.00  0.00     0.034 A 
ATOM     57  C   UNL     1     -20.460  -5.582 -10.492  1.00  0.00     0.049 A 
ATOM     58  C   UNL     1     -19.016 -10.812  -9.103  1.00  0.00     0.074 A 
ATOM     59  C   UNL     1     -21.804  -5.264 -10.415  1.00  0.00     0.029 A 
ATOM     60  N   UNL     1     -20.342  -6.915 -10.130  1.00  0.00    -0.354 N 
ATOM     61  N   UNL     1     -19.512  -9.648  -9.449  1.00  0.00    -0.248 NA
ATOM     62  C   UNL     1     -20.015 -11.760  -8.589  1.00  0.00     0.031 C 
ATOM     63  C   UNL     1     -22.498  -6.405  -9.997  1.00  0.00     0.029 A 
ATOM     64  C   UNL     1     -21.587  -7.435  -9.825  1.00  0.00     0.049 A 
ATOM     65  H   UNL     1     -19.496  -7.418 -10.095  1.00  0.00     0.167 HD
ATOM     66  C   UNL     1     -20.881  -9.735  -9.227  1.00  0.00     0.074 A 
ATOM     67  C   UNL     1     -21.140 -11.074  -8.737  1.00  0.00     0.031 C 
ATOM     68  C   UNL     1     -21.836  -8.787  -9.397  1.00  0.00     0.034 A 
BRANCH  55  69
ATOM     69  C   UNL     1     -19.647  -3.292 -11.186  1.00  0.00     0.023 A 
ATOM     70  C   UNL     1     -19.635  -2.867 -12.530  1.00  0.00     0.012 A 
ATOM     71  C   UNL     1     -19.977  -2.371 -10.173  1.00  0.00     0.148 A 
ATOM     72  C   UNL     1     -19.914  -1.542 -12.860  1.00  0.00     0.002 A 
ATOM     73  C   UNL     1     -20.294  -1.060 -10.514  1.00  0.00     0.091 A 
ATOM     74  F   UNL     1     -19.959  -2.786  -8.898  1.00  0.00    -0.205 F 
ATOM     75  C   UNL     1     -20.254  -0.643 -11.854  1.00  0.00     0.022 A 
BRANCH  73  76
ATOM     76  S   UNL     1     -20.815   0.155  -9.297  1.00  0.00     0.127 S 
ATOM     77  O   UNL     1     -19.628   1.003  -9.202  1.00  0.00    -0.237 OA
ATOM     78  O   UNL     1     -21.961   0.782  -9.957  1.00  0.00    -0.237 OA
ATOM     79  O   UNL     1     -21.147  -0.600  -8.097  1.00  0.00    -0.744 OA
ENDBRANCH  73  76
ENDBRANCH  55  69
BRANCH  56  80
ATOM     80  C   UNL     1     -17.236 -12.691  -8.802  1.00  0.00     0.023 A 
ATOM     81  C   UNL     1     -17.692 -13.766  -9.590  1.00  0.00     0.012 A 
ATOM     82  C   UNL     1     -16.421 -12.957  -7.684  1.00  0.00     0.148 A 
ATOM     83  C   UNL     1     -17.369 -15.081  -9.257  1.00  0.00     0.002 A 
ATOM     84  C   UNL     1     -16.059 -14.267  -7.388  1.00  0.00     0.091 A 
ATOM     85  F   UNL     1     -16.008 -11.923  -6.938  1.00  0.00    -0.205 F 
ATOM     86  C   UNL     1     -16.544 -15.331  -8.164  1.00  0.00     0.022 A 
BRANCH  84  87
ATOM     87  S   UNL     1     -14.896 -14.668  -6.079  1.00  0.00     0.127 S 
ATOM     88  O   UNL     1     -15.778 -15.213  -5.051  1.00  0.00    -0.237 OA
ATOM     89  O   UNL     1     -14.028 -15.649  -6.732  1.00  0.00    -0.237 OA
ATOM     90  O   UNL     1     -14.235 -13.412  -5.750  1.00  0.00    -0.744 OA
ENDBRANCH  84  87
ENDBRANCH  56  80
BRANCH  68  91
ATOM     91  C   UNL     1     -23.258  -9.164  -9.080  1.00  0.00     0.023 A 
ATOM     92  C   UNL     1     -23.662  -9.287  -7.736  1.00  0.00     0.012 A 
ATOM     93  C   UNL     1     -24.211  -9.312 -10.107  1.00  0.00     0.148 A 
ATOM     94  C   UNL     1     -24.989  -9.577  -7.420  1.00  0.00     0.002 A 
ATOM     95  C   UNL     1     -25.540  -9.557  -9.783  1.00  0.00     0.091 A 
ATOM     96  F   UNL     1     -23.801  -9.211 -11.380  1.00  0.00    -0.205 F 
ATOM     97  C   UNL     1     -25.929  -9.699  -8.441  1.00  0.00     0.022 A 
BRANCH  95  98
ATOM     98  S   UNL     1     -26.832  -9.635 -11.029  1.00  0.00     0.127 S 
ATOM     99  O   UNL     1     -27.086 -11.072 -11.106  1.00  0.00    -0.237 OA
ATOM    100  O   UNL     1     -27.908  -8.857 -10.413  1.00  0.00    -0.237 OA
ATOM    101  O   UNL     1     -26.265  -9.032 -12.228  1.00  0.00    -0.744 OA
ENDBRANCH  95  98
ENDBRANCH  68  91
ENDBRANCH  42  43
ENDBRANCH  34  37
ENDBRANCH  32  33
ENDBRANCH  31  32
ENDBRANCH   1  31
TORSDOF 18
