REMARK SMILES Cc1ccc2nc(Cl)c([C@@H]3CC(c4cccs4)=NN3C(=O)CCCC(=O)NCCCCNC(=O)c3ccc(-c4c5nc(c(-c6cccc(S(=O)(=O)[O-])c6F)c6ccc([nH]6)c(-c6cccc(S(=O)(=O)[O-])c6F)c6nc(c(-c7cccc(S(=O)(=O)[O-])c7F)c7ccc4[nH]7)C=C6)C=C5)cc3)cc2c1
REMARK SMILES IDX 28 1 27 2 25 3 26 4 24 6 23 7 22 8 20 9 21 10 19 11 10 12
REMARK SMILES IDX 11 13 12 14 18 15 9 16 1 17 2 18 3 19 100 20 4 21 99 22 5 23
REMARK SMILES IDX 98 24 6 25 7 26 8 27 13 28 14 29 17 30 15 31 16 32 29 33
REMARK SMILES IDX 30 34 31 35 32 36 33 37 34 39 35 40 36 41 97 42 37 43 96 44
REMARK SMILES IDX 38 45 39 46 40 47 90 48 41 49 95 50 89 51 91 52 42 53 94 54
REMARK SMILES IDX 88 55 87 56 43 58 75 59 55 60 74 61 56 62 59 63 73 64 92 65
REMARK SMILES IDX 57 66 58 67 72 69 93 70 60 71 44 72 45 73 53 74 46 75 48 76
REMARK SMILES IDX 54 77 47 78 49 79 50 80 51 81 52 82 76 83 77 84 85 85 78 86
REMARK SMILES IDX 80 87 86 88 79 89 81 90 82 91 83 92 84 93 61 94 62 95 70 96
REMARK SMILES IDX 63 97 65 98 71 99 64 100 66 101 67 102 68 103 69 104
REMARK H PARENT 27 5 32 38 91 57 59 68
REMARK Flexibility Score: inf
ROOT
ATOM      1  C   UNL     1      -4.480   0.961  -2.489  1.00  0.00     0.116 C 
ENDROOT
BRANCH   1   2
ATOM      2  N   UNL     1      -3.582  -0.140  -2.785  1.00  0.00    -0.356 N 
ATOM      3  C   UNL     1      -2.280  -0.384  -2.507  1.00  0.00     0.220 C 
ATOM      4  O   UNL     1      -1.942  -1.573  -2.450  1.00  0.00    -0.275 OA
ATOM      5  H   UNL     1      -4.012  -0.864  -3.297  1.00  0.00     0.163 HD
BRANCH   3   6
ATOM      6  C   UNL     1      -1.247   0.672  -2.171  1.00  0.00     0.100 C 
BRANCH   6   7
ATOM      7  C   UNL     1      -1.039   1.849  -3.094  1.00  0.00     0.020 C 
BRANCH   7   8
ATOM      8  C   UNL     1      -2.022   3.000  -3.026  1.00  0.00     0.103 C 
BRANCH   8   9
ATOM      9  C   UNL     1      -2.036   3.974  -1.846  1.00  0.00     0.243 C 
ATOM     10  O   UNL     1      -1.511   5.077  -2.092  1.00  0.00    -0.273 OA
BRANCH   9  11
ATOM     11  N   UNL     1      -2.713   3.772  -0.627  1.00  0.00    -0.225 N 
ATOM     12  C   UNL     1      -2.575   2.717   0.451  1.00  0.00     0.150 C 
ATOM     13  C   UNL     1      -2.242   3.524   1.711  1.00  0.00     0.092 C 
ATOM     14  C   UNL     1      -2.635   4.889   1.254  1.00  0.00     0.081 C 
ATOM     15  N   UNL     1      -2.942   4.995   0.001  1.00  0.00    -0.173 NA
BRANCH  12  16
ATOM     16  C   UNL     1      -3.756   1.766   0.679  1.00  0.00     0.015 A 
ATOM     17  C   UNL     1      -5.435  -3.947  -1.000  1.00  0.00     0.044 C 
ATOM     18  C   UNL     1      -5.611  -2.627  -0.302  1.00  0.00    -0.050 A 
ATOM     19  C   UNL     1      -6.885  -2.105  -0.083  1.00  0.00     0.005 A 
ATOM     20  C   UNL     1      -4.493  -1.861   0.064  1.00  0.00     0.013 A 
ATOM     21  C   UNL     1      -7.032  -0.823   0.455  1.00  0.00     0.029 A 
ATOM     22  C   UNL     1      -4.645  -0.532   0.515  1.00  0.00     0.001 A 
ATOM     23  C   UNL     1      -5.934  -0.012   0.715  1.00  0.00     0.072 A 
ATOM     24  C   UNL     1      -3.555   0.370   0.593  1.00  0.00     0.019 A 
ATOM     25  N   UNL     1      -6.126   1.279   1.012  1.00  0.00    -0.236 NA
ATOM     26  C   UNL     1      -5.071   2.132   0.961  1.00  0.00     0.135 A 
ATOM     27  Cl  UNL     1      -5.609   3.737   1.235  1.00  0.00    -0.062 Cl
ENDBRANCH  12  16
BRANCH  14  28
ATOM     28  C   UNL     1      -2.546   6.041   2.101  1.00  0.00     0.050 A 
ATOM     29  C   UNL     1      -1.468   6.454   2.857  1.00  0.00     0.022 A 
ATOM     30  S   UNL     1      -3.840   7.153   2.168  1.00  0.00    -0.142 S 
ATOM     31  C   UNL     1      -1.697   7.725   3.460  1.00  0.00     0.012 A 
ATOM     32  C   UNL     1      -2.955   8.210   3.179  1.00  0.00     0.065 A 
ENDBRANCH  14  28
ENDBRANCH   9  11
ENDBRANCH   8   9
ENDBRANCH   7   8
ENDBRANCH   6   7
ENDBRANCH   3   6
ENDBRANCH   1   2
BRANCH   1  33
ATOM     33  C   UNL     1      -5.422   1.325  -3.635  1.00  0.00     0.023 C 
BRANCH  33  34
ATOM     34  C   UNL     1      -6.880   0.976  -3.293  1.00  0.00     0.023 C 
BRANCH  34  35
ATOM     35  C   UNL     1      -7.487   1.818  -2.168  1.00  0.00     0.116 C 
BRANCH  35  36
ATOM     36  N   UNL     1      -7.950   3.120  -2.603  1.00  0.00    -0.352 N 
ATOM     37  C   UNL     1      -9.154   3.737  -2.333  1.00  0.00     0.251 C 
ATOM     38  H   UNL     1      -7.323   3.631  -3.164  1.00  0.00     0.163 HD
ATOM     39  O   UNL     1      -9.410   4.822  -2.826  1.00  0.00    -0.269 OA
BRANCH  37  40
ATOM     40  C   UNL     1     -10.164   3.048  -1.491  1.00  0.00     0.039 A 
ATOM     41  C   UNL     1     -11.454   2.900  -2.007  1.00  0.00     0.014 A 
ATOM     42  C   UNL     1      -9.856   2.550  -0.221  1.00  0.00     0.014 A 
ATOM     43  C   UNL     1     -12.423   2.210  -1.274  1.00  0.00     0.010 A 
ATOM     44  C   UNL     1     -10.813   1.815   0.488  1.00  0.00     0.010 A 
ATOM     45  C   UNL     1     -12.107   1.640  -0.029  1.00  0.00    -0.014 A 
BRANCH  45  46
ATOM     46  C   UNL     1     -13.134   0.864   0.721  1.00  0.00     0.031 A 
ATOM     47  C   UNL     1     -13.673   1.369   2.033  1.00  0.00     0.074 A 
ATOM     48  C   UNL     1     -13.569  -0.317   0.236  1.00  0.00     0.049 A 
ATOM     49  N   UNL     1     -14.601   0.850   2.797  1.00  0.00    -0.248 NA
ATOM     50  C   UNL     1     -13.082   2.607   2.566  1.00  0.00     0.031 C 
ATOM     51  C   UNL     1     -13.082  -0.960  -0.986  1.00  0.00     0.029 A 
ATOM     52  N   UNL     1     -14.511  -1.195   0.718  1.00  0.00    -0.354 N 
ATOM     53  C   UNL     1     -14.688   1.679   3.909  1.00  0.00     0.074 A 
ATOM     54  C   UNL     1     -13.695   2.718   3.736  1.00  0.00     0.031 C 
ATOM     55  C   UNL     1     -13.733  -2.122  -1.162  1.00  0.00     0.029 A 
ATOM     56  C   UNL     1     -14.671  -2.318  -0.060  1.00  0.00     0.049 A 
ATOM     57  H   UNL     1     -15.023  -1.035   1.543  1.00  0.00     0.167 HD
ATOM     58  C   UNL     1     -15.536   1.605   4.964  1.00  0.00     0.034 A 
ATOM     59  C   UNL     1     -15.484  -3.384   0.090  1.00  0.00     0.034 A 
ATOM     60  C   UNL     1     -16.551   0.597   5.120  1.00  0.00     0.049 A 
ATOM     61  C   UNL     1     -16.448  -3.419   1.247  1.00  0.00     0.074 A 
ATOM     62  C   UNL     1     -17.511   0.489   6.111  1.00  0.00     0.029 A 
ATOM     63  N   UNL     1     -16.735  -0.481   4.268  1.00  0.00    -0.354 N 
ATOM     64  N   UNL     1     -16.632  -2.534   2.195  1.00  0.00    -0.248 NA
ATOM     65  C   UNL     1     -17.348  -4.580   1.329  1.00  0.00     0.031 C 
ATOM     66  C   UNL     1     -18.261  -0.668   5.872  1.00  0.00     0.029 A 
ATOM     67  C   UNL     1     -17.786  -1.264   4.715  1.00  0.00     0.049 A 
ATOM     68  H   UNL     1     -16.197  -0.663   3.464  1.00  0.00     0.167 HD
ATOM     69  C   UNL     1     -17.692  -3.007   2.961  1.00  0.00     0.074 A 
ATOM     70  C   UNL     1     -18.123  -4.250   2.354  1.00  0.00     0.031 C 
ATOM     71  C   UNL     1     -18.249  -2.467   4.073  1.00  0.00     0.034 A 
BRANCH  58  72
ATOM     72  C   UNL     1     -15.440   2.681   6.015  1.00  0.00     0.023 A 
ATOM     73  C   UNL     1     -15.885   3.985   5.715  1.00  0.00     0.012 A 
ATOM     74  C   UNL     1     -14.972   2.392   7.312  1.00  0.00     0.148 A 
ATOM     75  C   UNL     1     -15.832   4.993   6.677  1.00  0.00     0.002 A 
ATOM     76  C   UNL     1     -14.963   3.392   8.278  1.00  0.00     0.091 A 
ATOM     77  F   UNL     1     -14.536   1.152   7.574  1.00  0.00    -0.205 F 
ATOM     78  C   UNL     1     -15.381   4.695   7.959  1.00  0.00     0.022 A 
BRANCH  76  79
ATOM     79  S   UNL     1     -14.478   3.088   9.981  1.00  0.00     0.127 S 
ATOM     80  O   UNL     1     -13.188   3.775  10.048  1.00  0.00    -0.237 OA
ATOM     81  O   UNL     1     -15.554   3.739  10.730  1.00  0.00    -0.237 OA
ATOM     82  O   UNL     1     -14.425   1.641  10.132  1.00  0.00    -0.744 OA
ENDBRANCH  76  79
ENDBRANCH  58  72
BRANCH  59  83
ATOM     83  C   UNL     1     -15.479  -4.475  -0.927  1.00  0.00     0.023 A 
ATOM     84  C   UNL     1     -16.590  -4.636  -1.778  1.00  0.00     0.012 A 
ATOM     85  C   UNL     1     -14.376  -5.339  -1.068  1.00  0.00     0.148 A 
ATOM     86  C   UNL     1     -16.618  -5.660  -2.726  1.00  0.00     0.002 A 
ATOM     87  C   UNL     1     -14.387  -6.321  -2.053  1.00  0.00     0.091 A 
ATOM     88  F   UNL     1     -13.333  -5.179  -0.241  1.00  0.00    -0.205 F 
ATOM     89  C   UNL     1     -15.514  -6.495  -2.871  1.00  0.00     0.022 A 
BRANCH  87  90
ATOM     90  S   UNL     1     -12.956  -7.351  -2.396  1.00  0.00     0.127 S 
ATOM     91  O   UNL     1     -13.388  -8.647  -1.878  1.00  0.00    -0.237 OA
ATOM     92  O   UNL     1     -12.866  -7.269  -3.855  1.00  0.00    -0.237 OA
ATOM     93  O   UNL     1     -11.844  -6.725  -1.693  1.00  0.00    -0.744 OA
ENDBRANCH  87  90
ENDBRANCH  59  83
BRANCH  71  94
ATOM     94  C   UNL     1     -19.419  -3.187   4.694  1.00  0.00     0.023 A 
ATOM     95  C   UNL     1     -19.215  -4.397   5.386  1.00  0.00     0.012 A 
ATOM     96  C   UNL     1     -20.711  -2.623   4.657  1.00  0.00     0.148 A 
ATOM     97  C   UNL     1     -20.281  -5.051   6.002  1.00  0.00     0.002 A 
ATOM     98  C   UNL     1     -21.759  -3.256   5.314  1.00  0.00     0.091 A 
ATOM     99  F   UNL     1     -20.892  -1.482   3.977  1.00  0.00    -0.205 F 
ATOM    100  C   UNL     1     -21.549  -4.475   5.977  1.00  0.00     0.022 A 
BRANCH  98 101
ATOM    101  S   UNL     1     -23.403  -2.536   5.416  1.00  0.00     0.127 S 
ATOM    102  O   UNL     1     -24.150  -3.365   4.471  1.00  0.00    -0.237 OA
ATOM    103  O   UNL     1     -23.751  -2.749   6.821  1.00  0.00    -0.237 OA
ATOM    104  O   UNL     1     -23.251  -1.138   5.039  1.00  0.00    -0.744 OA
ENDBRANCH  98 101
ENDBRANCH  71  94
ENDBRANCH  45  46
ENDBRANCH  37  40
ENDBRANCH  35  36
ENDBRANCH  34  35
ENDBRANCH  33  34
ENDBRANCH   1  33
TORSDOF 20
