REMARK SMILES O=C(NCCCCNC(=O)[C@@H]1CN(C(=O)[C@H]2CC=CCC2)c2ccccc2O1)c1ccc(-c2c3nc(c(-c4cccc(S(=O)(=O)[O-])c4F)c4ccc([nH]4)c(-c4cccc(S(=O)(=O)[O-])c4F)c4nc(c(-c5cccc(S(=O)(=O)[O-])c5F)c5ccc2[nH]5)C=C4)C=C3)cc1
REMARK SMILES IDX 5 1 4 2 3 3 1 4 2 5 29 7 30 8 91 9 31 10 90 11 32 12 33 13
REMARK SMILES IDX 34 14 84 15 35 16 89 17 83 18 85 19 36 20 88 21 82 22 81 23
REMARK SMILES IDX 37 25 69 26 49 27 68 28 50 29 53 30 67 31 86 32 51 33 52 34
REMARK SMILES IDX 66 36 87 37 54 38 38 39 39 40 47 41 40 42 42 43 48 44 41 45
REMARK SMILES IDX 43 46 44 47 45 48 46 49 70 50 71 51 79 52 72 53 74 54 80 55
REMARK SMILES IDX 73 56 75 57 76 58 77 59 78 60 55 61 56 62 64 63 57 64 59 65
REMARK SMILES IDX 65 66 58 67 60 68 61 69 62 70 63 71 6 72 7 73 8 74 9 75
REMARK SMILES IDX 10 77 11 78 12 79 28 80 13 81 27 82 22 83 26 84 23 85 25 86
REMARK SMILES IDX 24 87 14 88 15 89 16 90 17 91 21 92 18 93 20 94 19 95
REMARK H PARENT 3 6 85 24 53 35 8 76
REMARK Flexibility Score: inf
ROOT
ATOM      1  C   UNL     1       5.621  -2.367   0.879  1.00  0.00     0.023 C 
ENDROOT
BRANCH   1   2
ATOM      2  C   UNL     1       5.032  -1.246   0.025  1.00  0.00     0.116 C 
BRANCH   2   3
ATOM      3  N   UNL     1       3.586  -1.279  -0.142  1.00  0.00    -0.352 N 
ATOM      4  O   UNL     1       1.460  -0.469  -0.080  1.00  0.00    -0.269 OA
ATOM      5  C   UNL     1       2.658  -0.291   0.127  1.00  0.00     0.251 C 
ATOM      6  H   UNL     1       3.219  -2.121  -0.496  1.00  0.00     0.163 HD
BRANCH   5   7
ATOM      7  C   UNL     1       3.114   0.976   0.740  1.00  0.00     0.039 A 
ATOM      8  C   UNL     1       4.182   1.686   0.191  1.00  0.00     0.014 A 
ATOM      9  C   UNL     1       2.553   1.379   1.954  1.00  0.00     0.014 A 
ATOM     10  C   UNL     1       4.850   2.620   0.977  1.00  0.00     0.010 A 
ATOM     11  C   UNL     1       3.163   2.399   2.692  1.00  0.00     0.010 A 
ATOM     12  C   UNL     1       4.371   2.961   2.254  1.00  0.00    -0.014 A 
BRANCH  12  13
ATOM     13  C   UNL     1       5.181   3.860   3.126  1.00  0.00     0.031 A 
ATOM     14  C   UNL     1       5.717   3.381   4.457  1.00  0.00     0.074 A 
ATOM     15  C   UNL     1       5.485   5.100   2.696  1.00  0.00     0.049 A 
ATOM     16  N   UNL     1       6.487   4.013   5.308  1.00  0.00    -0.248 NA
ATOM     17  C   UNL     1       5.336   2.029   4.898  1.00  0.00     0.031 C 
ATOM     18  C   UNL     1       5.005   5.698   1.449  1.00  0.00     0.029 A 
ATOM     19  N   UNL     1       6.281   6.073   3.246  1.00  0.00    -0.354 N 
ATOM     20  C   UNL     1       6.630   3.167   6.404  1.00  0.00     0.074 A 
ATOM     21  C   UNL     1       5.867   1.973   6.112  1.00  0.00     0.031 C 
ATOM     22  C   UNL     1       5.554   6.912   1.303  1.00  0.00     0.029 A 
ATOM     23  C   UNL     1       6.386   7.202   2.467  1.00  0.00     0.049 A 
ATOM     24  H   UNL     1       6.733   5.973   4.115  1.00  0.00     0.167 HD
ATOM     25  C   UNL     1       7.345   3.353   7.540  1.00  0.00     0.034 A 
ATOM     26  C   UNL     1       7.077   8.342   2.659  1.00  0.00     0.034 A 
ATOM     27  C   UNL     1       8.171   4.503   7.799  1.00  0.00     0.049 A 
ATOM     28  C   UNL     1       7.920   8.490   3.893  1.00  0.00     0.074 A 
ATOM     29  C   UNL     1       8.989   4.746   8.889  1.00  0.00     0.029 A 
ATOM     30  N   UNL     1       8.293   5.596   6.957  1.00  0.00    -0.354 N 
ATOM     31  N   UNL     1       8.131   7.626   4.856  1.00  0.00    -0.248 NA
ATOM     32  C   UNL     1       8.643   9.760   4.054  1.00  0.00     0.031 C 
ATOM     33  C   UNL     1       9.605   5.989   8.707  1.00  0.00     0.029 A 
ATOM     34  C   UNL     1       9.174   6.516   7.500  1.00  0.00     0.049 A 
ATOM     35  H   UNL     1       7.822   5.704   6.099  1.00  0.00     0.167 HD
ATOM     36  C   UNL     1       9.027   8.236   5.724  1.00  0.00     0.074 A 
ATOM     37  C   UNL     1       9.342   9.533   5.159  1.00  0.00     0.031 C 
ATOM     38  C   UNL     1       9.527   7.775   6.897  1.00  0.00     0.034 A 
BRANCH  25  39
ATOM     39  C   UNL     1       7.314   2.264   8.581  1.00  0.00     0.023 A 
ATOM     40  C   UNL     1       8.059   1.085   8.377  1.00  0.00     0.012 A 
ATOM     41  C   UNL     1       6.615   2.438   9.793  1.00  0.00     0.148 A 
ATOM     42  C   UNL     1       8.091   0.087   9.351  1.00  0.00     0.002 A 
ATOM     43  C   UNL     1       6.681   1.453  10.774  1.00  0.00     0.091 A 
ATOM     44  F   UNL     1       5.891   3.553   9.961  1.00  0.00    -0.205 F 
ATOM     45  C   UNL     1       7.411   0.275  10.552  1.00  0.00     0.022 A 
BRANCH  43  46
ATOM     46  S   UNL     1       5.899   1.649  12.381  1.00  0.00     0.127 S 
ATOM     47  O   UNL     1       4.689   0.845  12.221  1.00  0.00    -0.237 OA
ATOM     48  O   UNL     1       6.895   1.076  13.287  1.00  0.00    -0.237 OA
ATOM     49  O   UNL     1       5.691   3.081  12.545  1.00  0.00    -0.744 OA
ENDBRANCH  43  46
ENDBRANCH  25  39
BRANCH  26  50
ATOM     50  C   UNL     1       7.056   9.397   1.608  1.00  0.00     0.023 A 
ATOM     51  C   UNL     1       8.215   9.629   0.843  1.00  0.00     0.012 A 
ATOM     52  C   UNL     1       5.884  10.121   1.317  1.00  0.00     0.148 A 
ATOM     53  C   UNL     1       8.211  10.573  -0.184  1.00  0.00     0.002 A 
ATOM     54  C   UNL     1       5.870  11.016   0.254  1.00  0.00     0.091 A 
ATOM     55  F   UNL     1       4.797   9.905   2.072  1.00  0.00    -0.205 F 
ATOM     56  C   UNL     1       7.035  11.255  -0.489  1.00  0.00     0.022 A 
BRANCH  54  57
ATOM     57  S   UNL     1       4.353  11.808  -0.293  1.00  0.00     0.127 S 
ATOM     58  O   UNL     1       4.479  13.138   0.295  1.00  0.00    -0.237 OA
ATOM     59  O   UNL     1       4.489  11.763  -1.750  1.00  0.00    -0.237 OA
ATOM     60  O   UNL     1       3.278  10.974   0.227  1.00  0.00    -0.744 OA
ENDBRANCH  54  57
ENDBRANCH  26  50
BRANCH  38  61
ATOM     61  C   UNL     1      10.485   8.664   7.641  1.00  0.00     0.023 A 
ATOM     62  C   UNL     1       9.992   9.785   8.338  1.00  0.00     0.012 A 
ATOM     63  C   UNL     1      11.858   8.360   7.701  1.00  0.00     0.148 A 
ATOM     64  C   UNL     1      10.857  10.606   9.061  1.00  0.00     0.002 A 
ATOM     65  C   UNL     1      12.709   9.161   8.456  1.00  0.00     0.091 A 
ATOM     66  F   UNL     1      12.315   7.304   7.011  1.00  0.00    -0.205 F 
ATOM     67  C   UNL     1      12.212  10.289   9.128  1.00  0.00     0.022 A 
BRANCH  65  68
ATOM     68  S   UNL     1      14.449   8.763   8.655  1.00  0.00     0.127 S 
ATOM     69  O   UNL     1      15.068   9.602   7.631  1.00  0.00    -0.237 OA
ATOM     70  O   UNL     1      14.718   9.184  10.031  1.00  0.00    -0.237 OA
ATOM     71  O   UNL     1      14.545   7.325   8.441  1.00  0.00    -0.744 OA
ENDBRANCH  65  68
ENDBRANCH  38  61
ENDBRANCH  12  13
ENDBRANCH   5   7
ENDBRANCH   2   3
ENDBRANCH   1   2
BRANCH   1  72
ATOM     72  C   UNL     1       6.057  -3.641   0.147  1.00  0.00     0.023 C 
BRANCH  72  73
ATOM     73  C   UNL     1       6.814  -3.385  -1.153  1.00  0.00     0.116 C 
BRANCH  73  74
ATOM     74  N   UNL     1       7.757  -4.419  -1.524  1.00  0.00    -0.353 N 
ATOM     75  C   UNL     1       7.820  -5.305  -2.547  1.00  0.00     0.262 C 
ATOM     76  H   UNL     1       8.515  -4.494  -0.900  1.00  0.00     0.163 HD
ATOM     77  O   UNL     1       8.960  -5.727  -2.801  1.00  0.00    -0.271 OA
BRANCH  75  78
ATOM     78  C   UNL     1       6.628  -5.905  -3.323  1.00  0.00     0.281 C 
ATOM     79  C   UNL     1       5.449  -5.067  -3.781  1.00  0.00     0.181 C 
ATOM     80  O   UNL     1       6.223  -7.134  -2.741  1.00  0.00    -0.477 OA
ATOM     81  N   UNL     1       4.404  -4.849  -2.784  1.00  0.00    -0.304 N 
ATOM     82  C   UNL     1       5.238  -6.978  -1.806  1.00  0.00     0.144 A 
ATOM     83  C   UNL     1       4.294  -5.931  -1.809  1.00  0.00     0.086 A 
ATOM     84  C   UNL     1       5.245  -7.974  -0.820  1.00  0.00     0.049 A 
ATOM     85  C   UNL     1       3.315  -5.984  -0.802  1.00  0.00     0.030 A 
ATOM     86  C   UNL     1       4.310  -7.952   0.204  1.00  0.00     0.004 A 
ATOM     87  C   UNL     1       3.336  -6.964   0.203  1.00  0.00     0.002 A 
BRANCH  81  88
ATOM     88  C   UNL     1       3.643  -3.678  -2.717  1.00  0.00     0.230 C 
ATOM     89  O   UNL     1       2.923  -3.429  -1.739  1.00  0.00    -0.274 OA
BRANCH  88  90
ATOM     90  C   UNL     1       3.610  -2.586  -3.824  1.00  0.00     0.083 C 
ATOM     91  C   UNL     1       4.892  -1.919  -4.346  1.00  0.00     0.040 C 
ATOM     92  C   UNL     1       2.600  -2.894  -4.933  1.00  0.00     0.018 C 
ATOM     93  C   UNL     1       5.293  -2.312  -5.741  1.00  0.00    -0.030 C 
ATOM     94  C   UNL     1       3.196  -3.611  -6.139  1.00  0.00     0.028 C 
ATOM     95  C   UNL     1       4.542  -3.088  -6.535  1.00  0.00    -0.031 C 
ENDBRANCH  88  90
ENDBRANCH  81  88
ENDBRANCH  75  78
ENDBRANCH  73  74
ENDBRANCH  72  73
ENDBRANCH   1  72
TORSDOF 16
