REMARK SMILES CC[C@@H]1C=CC[C@@H]2C(=O)N(CCCC(=O)NCCCCNC(=O)c3ccc(-c4c5nc(c(-c6cccc(S(=O)(=O)[O-])c6F)c6ccc([nH]6)c(-c6cccc(S(=O)(=O)[O-])c6F)c6nc(c(-c7cccc(S(=O)(=O)[O-])c7F)c7ccc4[nH]7)C=C6)C=C5)cc3)C(=O)[C@@H]21
REMARK SMILES IDX 18 1 17 2 16 3 14 4 15 5 13 7 12 8 11 9 10 10 3 11 4 12
REMARK SMILES IDX 89 13 5 14 7 15 87 16 6 17 8 18 88 19 9 20 2 21 1 22 19 23
REMARK SMILES IDX 20 24 21 25 22 26 23 28 24 29 25 30 86 31 26 32 85 33 27 34
REMARK SMILES IDX 28 35 29 36 79 37 30 38 84 39 78 40 80 41 31 42 83 43 77 44
REMARK SMILES IDX 76 45 32 47 64 48 44 49 63 50 45 51 48 52 62 53 81 54 46 55
REMARK SMILES IDX 47 56 61 58 82 59 49 60 33 61 34 62 42 63 35 64 37 65 43 66
REMARK SMILES IDX 36 67 38 68 39 69 40 70 41 71 65 72 66 73 74 74 67 75 69 76
REMARK SMILES IDX 75 77 68 78 70 79 71 80 72 81 73 82 50 83 51 84 59 85 52 86
REMARK SMILES IDX 54 87 60 88 53 89 55 90 56 91 57 92 58 93
REMARK H PARENT 16 6 21 27 80 46 48 57
REMARK Flexibility Score: inf
ROOT
ATOM      1  C   UNL     1      -0.230   5.555   5.675  1.00  0.00     0.023 C 
ENDROOT
BRANCH   1   2
ATOM      2  C   UNL     1       0.682   5.976   4.516  1.00  0.00     0.116 C 
BRANCH   2   3
ATOM      3  N   UNL     1       1.913   6.559   5.006  1.00  0.00    -0.356 N 
ATOM      4  C   UNL     1       3.191   6.101   5.008  1.00  0.00     0.220 C 
ATOM      5  O   UNL     1       4.055   6.834   5.499  1.00  0.00    -0.275 OA
ATOM      6  H   UNL     1       1.804   7.449   5.412  1.00  0.00     0.163 HD
BRANCH   4   7
ATOM      7  C   UNL     1       3.600   4.783   4.374  1.00  0.00     0.102 C 
BRANCH   7   8
ATOM      8  C   UNL     1       3.260   3.477   5.087  1.00  0.00     0.032 C 
BRANCH   8   9
ATOM      9  C   UNL     1       1.841   2.915   5.063  1.00  0.00     0.129 C 
BRANCH   9  10
ATOM     10  N   UNL     1       1.275   2.384   3.828  1.00  0.00    -0.282 N 
ATOM     11  C   UNL     1       0.887  -0.473   2.439  1.00  0.00     0.024 C 
ATOM     12  C   UNL     1       2.328  -0.235   2.037  1.00  0.00    -0.027 C 
ATOM     13  C   UNL     1       0.068   0.837   2.562  1.00  0.00     0.099 C 
ATOM     14  C   UNL     1       2.605   0.657   1.072  1.00  0.00    -0.030 C 
ATOM     15  C   UNL     1       0.561   1.954   1.628  1.00  0.00     0.096 C 
ATOM     16  C   UNL     1       0.216   1.525   3.888  1.00  0.00     0.233 C 
ATOM     17  C   UNL     1       1.506   1.514   0.508  1.00  0.00     0.041 C 
ATOM     18  C   UNL     1       1.344   2.858   2.555  1.00  0.00     0.233 C 
ATOM     19  O   UNL     1      -0.546   1.386   4.833  1.00  0.00    -0.274 OA
ATOM     20  O   UNL     1       1.865   3.885   2.148  1.00  0.00    -0.274 OA
BRANCH  11  21
ATOM     21  C   UNL     1       0.737  -1.528   3.556  1.00  0.00     0.005 C 
ATOM     22  C   UNL     1       1.124  -1.140   4.975  1.00  0.00     0.004 C 
ENDBRANCH  11  21
ENDBRANCH   9  10
ENDBRANCH   8   9
ENDBRANCH   7   8
ENDBRANCH   4   7
ENDBRANCH   2   3
ENDBRANCH   1   2
BRANCH   1  23
ATOM     23  C   UNL     1      -1.293   6.576   6.047  1.00  0.00     0.023 C 
BRANCH  23  24
ATOM     24  C   UNL     1      -2.360   6.766   4.980  1.00  0.00     0.116 C 
BRANCH  24  25
ATOM     25  N   UNL     1      -3.165   5.577   4.714  1.00  0.00    -0.352 N 
ATOM     26  C   UNL     1      -4.508   5.530   4.407  1.00  0.00     0.251 C 
ATOM     27  H   UNL     1      -2.696   4.712   4.760  1.00  0.00     0.163 HD
ATOM     28  O   UNL     1      -5.088   4.464   4.241  1.00  0.00    -0.269 OA
BRANCH  26  29
ATOM     29  C   UNL     1      -5.244   6.809   4.339  1.00  0.00     0.039 A 
ATOM     30  C   UNL     1      -6.323   7.014   5.199  1.00  0.00     0.014 A 
ATOM     31  C   UNL     1      -4.751   7.848   3.546  1.00  0.00     0.014 A 
ATOM     32  C   UNL     1      -6.854   8.298   5.333  1.00  0.00     0.010 A 
ATOM     33  C   UNL     1      -5.215   9.140   3.757  1.00  0.00     0.010 A 
ATOM     34  C   UNL     1      -6.269   9.381   4.654  1.00  0.00    -0.014 A 
BRANCH  34  35
ATOM     35  C   UNL     1      -6.729  10.776   4.875  1.00  0.00     0.031 A 
ATOM     36  C   UNL     1      -7.260  11.582   3.721  1.00  0.00     0.074 A 
ATOM     37  C   UNL     1      -6.574  11.351   6.086  1.00  0.00     0.049 A 
ATOM     38  N   UNL     1      -7.645  12.831   3.696  1.00  0.00    -0.248 NA
ATOM     39  C   UNL     1      -7.331  10.909   2.413  1.00  0.00     0.031 C 
ATOM     40  C   UNL     1      -5.979  10.710   7.262  1.00  0.00     0.029 A 
ATOM     41  N   UNL     1      -6.881  12.617   6.522  1.00  0.00    -0.354 N 
ATOM     42  C   UNL     1      -7.962  13.103   2.371  1.00  0.00     0.074 A 
ATOM     43  C   UNL     1      -7.681  11.905   1.613  1.00  0.00     0.031 C 
ATOM     44  C   UNL     1      -5.977  11.580   8.285  1.00  0.00     0.029 A 
ATOM     45  C   UNL     1      -6.543  12.848   7.836  1.00  0.00     0.049 A 
ATOM     46  H   UNL     1      -7.303  13.296   5.948  1.00  0.00     0.167 HD
ATOM     47  C   UNL     1      -8.478  14.234   1.836  1.00  0.00     0.034 A 
ATOM     48  C   UNL     1      -6.676  13.956   8.593  1.00  0.00     0.034 A 
ATOM     49  C   UNL     1      -8.816  15.402   2.602  1.00  0.00     0.049 A 
ATOM     50  C   UNL     1      -7.315  15.178   7.990  1.00  0.00     0.074 A 
ATOM     51  C   UNL     1      -9.439  16.559   2.174  1.00  0.00     0.029 A 
ATOM     52  N   UNL     1      -8.557  15.561   3.954  1.00  0.00    -0.354 N 
ATOM     53  N   UNL     1      -7.770  15.356   6.773  1.00  0.00    -0.248 NA
ATOM     54  C   UNL     1      -7.495  16.340   8.873  1.00  0.00     0.031 C 
ATOM     55  C   UNL     1      -9.544  17.427   3.266  1.00  0.00     0.029 A 
ATOM     56  C   UNL     1      -9.005  16.799   4.378  1.00  0.00     0.049 A 
ATOM     57  H   UNL     1      -8.120  14.891   4.529  1.00  0.00     0.167 HD
ATOM     58  C   UNL     1      -8.322  16.632   6.755  1.00  0.00     0.074 A 
ATOM     59  C   UNL     1      -8.163  17.175   8.089  1.00  0.00     0.031 C 
ATOM     60  C   UNL     1      -8.893  17.301   5.723  1.00  0.00     0.034 A 
BRANCH  47  61
ATOM     61  C   UNL     1      -8.773  14.234   0.359  1.00  0.00     0.023 A 
ATOM     62  C   UNL     1      -9.842  13.457  -0.134  1.00  0.00     0.012 A 
ATOM     63  C   UNL     1      -8.031  15.034  -0.531  1.00  0.00     0.148 A 
ATOM     64  C   UNL     1     -10.143  13.444  -1.495  1.00  0.00     0.002 A 
ATOM     65  C   UNL     1      -8.368  15.052  -1.880  1.00  0.00     0.091 A 
ATOM     66  F   UNL     1      -7.005  15.748  -0.048  1.00  0.00    -0.205 F 
ATOM     67  C   UNL     1      -9.414  14.249  -2.365  1.00  0.00     0.022 A 
BRANCH  65  68
ATOM     68  S   UNL     1      -7.542  16.114  -3.070  1.00  0.00     0.127 S 
ATOM     69  O   UNL     1      -6.773  15.144  -3.848  1.00  0.00    -0.237 OA
ATOM     70  O   UNL     1      -8.671  16.711  -3.784  1.00  0.00    -0.237 OA
ATOM     71  O   UNL     1      -6.753  17.055  -2.287  1.00  0.00    -0.744 OA
ENDBRANCH  65  68
ENDBRANCH  47  61
BRANCH  48  72
ATOM     72  C   UNL     1      -6.270  13.935  10.028  1.00  0.00     0.023 A 
ATOM     73  C   UNL     1      -7.264  13.972  11.026  1.00  0.00     0.012 A 
ATOM     74  C   UNL     1      -4.917  13.857  10.411  1.00  0.00     0.148 A 
ATOM     75  C   UNL     1      -6.918  13.965  12.377  1.00  0.00     0.002 A 
ATOM     76  C   UNL     1      -4.582  13.796  11.759  1.00  0.00     0.091 A 
ATOM     77  F   UNL     1      -3.984  13.835   9.448  1.00  0.00    -0.205 F 
ATOM     78  C   UNL     1      -5.579  13.868  12.744  1.00  0.00     0.022 A 
BRANCH  76  79
ATOM     79  S   UNL     1      -2.895  13.539  12.321  1.00  0.00     0.127 S 
ATOM     80  O   UNL     1      -2.557  14.852  12.864  1.00  0.00    -0.237 OA
ATOM     81  O   UNL     1      -3.066  12.483  13.320  1.00  0.00    -0.237 OA
ATOM     82  O   UNL     1      -2.148  13.129  11.139  1.00  0.00    -0.744 OA
ENDBRANCH  76  79
ENDBRANCH  48  72
BRANCH  60  83
ATOM     83  C   UNL     1      -9.428  18.683   5.994  1.00  0.00     0.023 A 
ATOM     84  C   UNL     1      -8.534  19.756   6.175  1.00  0.00     0.012 A 
ATOM     85  C   UNL     1     -10.815  18.930   5.983  1.00  0.00     0.148 A 
ATOM     86  C   UNL     1      -9.013  21.051   6.370  1.00  0.00     0.002 A 
ATOM     87  C   UNL     1     -11.284  20.230   6.130  1.00  0.00     0.091 A 
ATOM     88  F   UNL     1     -11.649  17.892   5.828  1.00  0.00    -0.205 F 
ATOM     89  C   UNL     1     -10.385  21.289   6.335  1.00  0.00     0.022 A 
BRANCH  87  90
ATOM     90  S   UNL     1     -13.027  20.643   5.999  1.00  0.00     0.127 S 
ATOM     91  O   UNL     1     -13.374  20.916   7.392  1.00  0.00    -0.237 OA
ATOM     92  O   UNL     1     -13.003  21.824   5.134  1.00  0.00    -0.237 OA
ATOM     93  O   UNL     1     -13.672  19.478   5.409  1.00  0.00    -0.744 OA
ENDBRANCH  87  90
ENDBRANCH  60  83
ENDBRANCH  34  35
ENDBRANCH  26  29
ENDBRANCH  24  25
ENDBRANCH  23  24
ENDBRANCH   1  23
TORSDOF 18
