REMARK SMILES O=C(NCCCCNC(=O)C1(Cc2ccncc2)Cc2ccccc2C1)c1ccc(-c2c3nc(c(-c4cccc(S(=O)(=O)[O-])c4F)c4ccc([nH]4)c(-c4cccc(S(=O)(=O)[O-])c4F)c4nc(c(-c5cccc(S(=O)(=O)[O-])c5F)c5ccc2[nH]5)C=C4)C=C3)cc1
REMARK SMILES IDX 5 1 4 2 3 3 1 4 2 5 27 7 28 8 89 9 29 10 88 11 30 12 31 13
REMARK SMILES IDX 32 14 82 15 33 16 87 17 81 18 83 19 34 20 86 21 80 22 79 23
REMARK SMILES IDX 35 25 67 26 47 27 66 28 48 29 51 30 65 31 84 32 49 33 50 34
REMARK SMILES IDX 64 36 85 37 52 38 36 39 37 40 45 41 38 42 40 43 46 44 39 45
REMARK SMILES IDX 41 46 42 47 43 48 44 49 68 50 69 51 77 52 70 53 72 54 78 55
REMARK SMILES IDX 71 56 73 57 74 58 75 59 76 60 53 61 54 62 62 63 55 64 57 65
REMARK SMILES IDX 63 66 56 67 58 68 59 69 60 70 61 71 6 72 7 73 8 74 9 75
REMARK SMILES IDX 10 77 11 78 19 79 26 80 20 81 25 82 21 83 24 84 22 85 23 86
REMARK SMILES IDX 12 87 13 88 14 89 18 90 15 91 17 92 16 93
REMARK H PARENT 3 6 83 24 51 35 8 76
REMARK Flexibility Score: inf
ROOT
ATOM      1  C   UNL     1       4.883  -0.310  -2.790  1.00  0.00     0.023 C 
ENDROOT
BRANCH   1   2
ATOM      2  C   UNL     1       4.486  -0.090  -1.333  1.00  0.00     0.116 C 
BRANCH   2   3
ATOM      3  N   UNL     1       3.068   0.171  -1.125  1.00  0.00    -0.352 N 
ATOM      4  O   UNL     1       1.111   0.087   0.010  1.00  0.00    -0.269 OA
ATOM      5  C   UNL     1       2.312  -0.134  -0.011  1.00  0.00     0.251 C 
ATOM      6  H   UNL     1       2.594   0.615  -1.865  1.00  0.00     0.163 HD
BRANCH   5   7
ATOM      7  C   UNL     1       2.993  -0.781   1.131  1.00  0.00     0.039 A 
ATOM      8  C   UNL     1       4.158  -0.215   1.649  1.00  0.00     0.014 A 
ATOM      9  C   UNL     1       2.526  -2.011   1.600  1.00  0.00     0.014 A 
ATOM     10  C   UNL     1       4.951  -0.962   2.507  1.00  0.00     0.010 A 
ATOM     11  C   UNL     1       3.283  -2.719   2.538  1.00  0.00     0.010 A 
ATOM     12  C   UNL     1       4.524  -2.223   2.963  1.00  0.00    -0.014 A 
BRANCH  12  13
ATOM     13  C   UNL     1       5.384  -2.958   3.925  1.00  0.00     0.031 A 
ATOM     14  C   UNL     1       6.019  -4.276   3.574  1.00  0.00     0.074 A 
ATOM     15  C   UNL     1       5.632  -2.382   5.117  1.00  0.00     0.049 A 
ATOM     16  N   UNL     1       6.864  -4.989   4.274  1.00  0.00    -0.248 NA
ATOM     17  C   UNL     1       5.658  -4.881   2.281  1.00  0.00     0.031 C 
ATOM     18  C   UNL     1       5.025  -1.133   5.584  1.00  0.00     0.029 A 
ATOM     19  N   UNL     1       6.466  -2.749   6.140  1.00  0.00    -0.354 N 
ATOM     20  C   UNL     1       7.111  -6.137   3.531  1.00  0.00     0.074 A 
ATOM     21  C   UNL     1       6.318  -6.032   2.324  1.00  0.00     0.031 C 
ATOM     22  C   UNL     1       5.543  -0.811   6.776  1.00  0.00     0.029 A 
ATOM     23  C   UNL     1       6.480  -1.852   7.181  1.00  0.00     0.049 A 
ATOM     24  H   UNL     1       7.004  -3.574   6.130  1.00  0.00     0.167 HD
ATOM     25  C   UNL     1       7.936  -7.172   3.820  1.00  0.00     0.034 A 
ATOM     26  C   UNL     1       7.170  -1.862   8.338  1.00  0.00     0.034 A 
ATOM     27  C   UNL     1       8.752  -7.249   5.005  1.00  0.00     0.049 A 
ATOM     28  C   UNL     1       8.131  -2.984   8.595  1.00  0.00     0.074 A 
ATOM     29  C   UNL     1       9.642  -8.243   5.375  1.00  0.00     0.029 A 
ATOM     30  N   UNL     1       8.784  -6.293   6.009  1.00  0.00    -0.354 N 
ATOM     31  N   UNL     1       8.426  -4.005   7.827  1.00  0.00    -0.248 NA
ATOM     32  C   UNL     1       8.874  -2.943   9.861  1.00  0.00     0.031 C 
ATOM     33  C   UNL     1      10.212  -7.887   6.603  1.00  0.00     0.029 A 
ATOM     34  C   UNL     1       9.682  -6.668   6.995  1.00  0.00     0.049 A 
ATOM     35  H   UNL     1       8.247  -5.468   6.020  1.00  0.00     0.167 HD
ATOM     36  C   UNL     1       9.388  -4.731   8.516  1.00  0.00     0.074 A 
ATOM     37  C   UNL     1       9.663  -4.003   9.740  1.00  0.00     0.031 C 
ATOM     38  C   UNL     1       9.968  -5.910   8.185  1.00  0.00     0.034 A 
BRANCH  25  39
ATOM     39  C   UNL     1       8.052  -8.286   2.812  1.00  0.00     0.023 A 
ATOM     40  C   UNL     1       8.811  -8.079   1.643  1.00  0.00     0.012 A 
ATOM     41  C   UNL     1       7.489  -9.556   3.055  1.00  0.00     0.148 A 
ATOM     42  C   UNL     1       8.994  -9.111   0.722  1.00  0.00     0.002 A 
ATOM     43  C   UNL     1       7.705 -10.589   2.148  1.00  0.00     0.091 A 
ATOM     44  F   UNL     1       6.753  -9.728   4.161  1.00  0.00    -0.205 F 
ATOM     45  C   UNL     1       8.451 -10.367   0.979  1.00  0.00     0.022 A 
BRANCH  43  46
ATOM     46  S   UNL     1       7.104 -12.261   2.422  1.00  0.00     0.127 S 
ATOM     47  O   UNL     1       6.008 -12.342   1.459  1.00  0.00    -0.237 OA
ATOM     48  O   UNL     1       8.275 -13.071   2.082  1.00  0.00    -0.237 OA
ATOM     49  O   UNL     1       6.714 -12.320   3.824  1.00  0.00    -0.744 OA
ENDBRANCH  43  46
ENDBRANCH  25  39
BRANCH  26  50
ATOM     50  C   UNL     1       7.003  -0.735   9.297  1.00  0.00     0.023 A 
ATOM     51  C   UNL     1       8.055   0.179   9.489  1.00  0.00     0.012 A 
ATOM     52  C   UNL     1       5.777  -0.519   9.955  1.00  0.00     0.148 A 
ATOM     53  C   UNL     1       7.893   1.280  10.332  1.00  0.00     0.002 A 
ATOM     54  C   UNL     1       5.601   0.615  10.739  1.00  0.00     0.091 A 
ATOM     55  F   UNL     1       4.790  -1.411   9.781  1.00  0.00    -0.205 F 
ATOM     56  C   UNL     1       6.662   1.508  10.943  1.00  0.00     0.022 A 
BRANCH  54  57
ATOM     57  S   UNL     1       3.986   1.044  11.398  1.00  0.00     0.127 S 
ATOM     58  O   UNL     1       4.035   0.453  12.731  1.00  0.00    -0.237 OA
ATOM     59  O   UNL     1       4.012   2.508  11.371  1.00  0.00    -0.237 OA
ATOM     60  O   UNL     1       3.035   0.455  10.463  1.00  0.00    -0.744 OA
ENDBRANCH  54  57
ENDBRANCH  26  50
BRANCH  38  61
ATOM     61  C   UNL     1      10.944  -6.489   9.172  1.00  0.00     0.023 A 
ATOM     62  C   UNL     1      10.456  -7.075  10.358  1.00  0.00     0.012 A 
ATOM     63  C   UNL     1      12.328  -6.489   8.918  1.00  0.00     0.148 A 
ATOM     64  C   UNL     1      11.334  -7.621  11.292  1.00  0.00     0.002 A 
ATOM     65  C   UNL     1      13.194  -7.071   9.836  1.00  0.00     0.091 A 
ATOM     66  F   UNL     1      12.775  -5.905   7.797  1.00  0.00    -0.205 F 
ATOM     67  C   UNL     1      12.701  -7.628  11.027  1.00  0.00     0.022 A 
BRANCH  65  68
ATOM     68  S   UNL     1      14.960  -7.186   9.529  1.00  0.00     0.127 S 
ATOM     69  O   UNL     1      15.470  -6.042  10.281  1.00  0.00    -0.237 OA
ATOM     70  O   UNL     1      15.298  -8.491  10.100  1.00  0.00    -0.237 OA
ATOM     71  O   UNL     1      15.110  -7.112   8.081  1.00  0.00    -0.744 OA
ENDBRANCH  65  68
ENDBRANCH  38  61
ENDBRANCH  12  13
ENDBRANCH   5   7
ENDBRANCH   2   3
ENDBRANCH   1   2
BRANCH   1  72
ATOM     72  C   UNL     1       4.420   0.768  -3.768  1.00  0.00     0.023 C 
BRANCH  72  73
ATOM     73  C   UNL     1       4.769   2.189  -3.353  1.00  0.00     0.116 C 
BRANCH  73  74
ATOM     74  N   UNL     1       6.146   2.554  -3.634  1.00  0.00    -0.356 N 
ATOM     75  C   UNL     1       6.646   3.675  -4.223  1.00  0.00     0.227 C 
ATOM     76  H   UNL     1       6.819   1.891  -3.356  1.00  0.00     0.163 HD
ATOM     77  O   UNL     1       7.653   4.145  -3.679  1.00  0.00    -0.274 OA
BRANCH  75  78
ATOM     78  C   UNL     1       6.174   4.229  -5.582  1.00  0.00     0.061 C 
ATOM     79  C   UNL     1       4.674   4.048  -5.921  1.00  0.00     0.053 C 
ATOM     80  C   UNL     1       6.360   5.784  -5.555  1.00  0.00     0.053 C 
ATOM     81  C   UNL     1       4.326   5.282  -6.691  1.00  0.00    -0.044 A 
ATOM     82  C   UNL     1       5.255   6.287  -6.434  1.00  0.00    -0.044 A 
ATOM     83  C   UNL     1       3.158   5.532  -7.392  1.00  0.00     0.004 A 
ATOM     84  C   UNL     1       5.026   7.583  -6.861  1.00  0.00     0.004 A 
ATOM     85  C   UNL     1       2.923   6.833  -7.834  1.00  0.00     0.000 A 
ATOM     86  C   UNL     1       3.848   7.854  -7.564  1.00  0.00     0.000 A 
BRANCH  78  87
ATOM     87  C   UNL     1       7.008   3.528  -6.707  1.00  0.00     0.053 C 
BRANCH  87  88
ATOM     88  C   UNL     1       8.479   3.869  -6.834  1.00  0.00    -0.044 A 
ATOM     89  C   UNL     1       9.446   3.234  -6.052  1.00  0.00     0.024 A 
ATOM     90  C   UNL     1       8.911   4.829  -7.756  1.00  0.00     0.024 A 
ATOM     91  C   UNL     1      10.778   3.591  -6.208  1.00  0.00     0.111 A 
ATOM     92  C   UNL     1      10.266   5.116  -7.843  1.00  0.00     0.111 A 
ATOM     93  N   UNL     1      11.213   4.516  -7.092  1.00  0.00    -0.265 NA
ENDBRANCH  87  88
ENDBRANCH  78  87
ENDBRANCH  75  78
ENDBRANCH  73  74
ENDBRANCH  72  73
ENDBRANCH   1  72
TORSDOF 16
