REMARK SMILES Cc1cc(S(=O)(=O)Nc2ccc(Cl)cc2F)ccc1OCC(=O)NCCCCNC(=O)c1ccc(-c2c3nc(c(-c4cccc(S(=O)(=O)[O-])c4F)c4ccc([nH]4)c(-c4cccc(S(=O)(=O)[O-])c4F)c4nc(c(-c5cccc(S(=O)(=O)[O-])c5F)c5ccc2[nH]5)C=C4)C=C3)cc1
REMARK SMILES IDX 25 1 24 2 22 3 23 4 21 6 20 7 19 8 1 9 2 10 3 11 4 12 18 13
REMARK SMILES IDX 17 14 5 15 6 16 7 17 8 18 9 20 10 21 15 22 11 23 14 24 16 25
REMARK SMILES IDX 12 26 13 27 26 28 27 29 28 30 29 31 30 32 31 34 32 35 33 36
REMARK SMILES IDX 94 37 34 38 93 39 35 40 36 41 37 42 87 43 38 44 92 45 86 46
REMARK SMILES IDX 88 47 39 48 91 49 85 50 84 51 40 53 72 54 52 55 71 56 53 57
REMARK SMILES IDX 56 58 70 59 89 60 54 61 55 62 69 64 90 65 57 66 41 67 42 68
REMARK SMILES IDX 50 69 43 70 45 71 51 72 44 73 46 74 47 75 48 76 49 77 73 78
REMARK SMILES IDX 74 79 82 80 75 81 77 82 83 83 76 84 78 85 79 86 80 87 81 88
REMARK SMILES IDX 58 89 59 90 67 91 60 92 62 93 68 94 61 95 63 96 64 97 65 98
REMARK SMILES IDX 66 99
REMARK H PARENT 24 5 8 19 29 33 88 52 56 63
REMARK Flexibility Score: inf
ROOT
ATOM      1  C   UNL     1       1.396   3.575   2.600  1.00  0.00     0.116 C 
ENDROOT
BRANCH   1   2
ATOM      2  N   UNL     1       2.451   2.585   2.478  1.00  0.00    -0.353 N 
ATOM      3  C   UNL     1       3.018   2.063   1.352  1.00  0.00     0.257 C 
ATOM      4  O   UNL     1       3.980   1.302   1.468  1.00  0.00    -0.271 OA
ATOM      5  H   UNL     1       2.809   2.242   3.328  1.00  0.00     0.163 HD
BRANCH   3   6
ATOM      6  C   UNL     1       2.490   2.473  -0.023  1.00  0.00     0.329 C 
BRANCH   6   7
ATOM      7  O   UNL     1       1.139   2.228  -0.349  1.00  0.00    -0.484 OA
BRANCH   7   8
ATOM      8  C   UNL     1       0.573   1.002  -0.160  1.00  0.00     0.123 A 
ATOM      9  C   UNL     1       2.536  -0.591  -0.700  1.00  0.00     0.048 C 
ATOM     10  C   UNL     1       1.109  -0.273  -0.366  1.00  0.00    -0.008 A 
ATOM     11  C   UNL     1       0.242  -1.386  -0.241  1.00  0.00     0.029 A 
ATOM     12  C   UNL     1      -1.104  -1.249   0.130  1.00  0.00     0.088 A 
ATOM     13  C   UNL     1      -0.772   1.116   0.227  1.00  0.00     0.048 A 
ATOM     14  C   UNL     1      -1.575   0.004   0.471  1.00  0.00     0.026 A 
BRANCH  12  15
ATOM     15  S   UNL     1      -2.120  -2.700  -0.021  1.00  0.00     0.262 S 
ATOM     16  O   UNL     1      -1.881  -3.256  -1.336  1.00  0.00    -0.201 OA
ATOM     17  O   UNL     1      -1.860  -3.492   1.166  1.00  0.00    -0.201 OA
BRANCH  15  18
ATOM     18  N   UNL     1      -3.765  -2.366   0.089  1.00  0.00    -0.277 N 
ATOM     19  H   UNL     1      -4.354  -3.094   0.394  1.00  0.00     0.180 HD
BRANCH  18  20
ATOM     20  C   UNL     1      -4.378  -1.121  -0.223  1.00  0.00     0.085 A 
ATOM     21  C   UNL     1      -5.295  -0.643   0.724  1.00  0.00     0.031 A 
ATOM     22  C   UNL     1      -4.083  -0.332  -1.340  1.00  0.00     0.148 A 
ATOM     23  C   UNL     1      -5.816   0.647   0.615  1.00  0.00     0.023 A 
ATOM     24  C   UNL     1      -4.593   0.963  -1.449  1.00  0.00     0.062 A 
ATOM     25  F   UNL     1      -3.228  -0.763  -2.276  1.00  0.00    -0.205 F 
ATOM     26  C   UNL     1      -5.442   1.453  -0.458  1.00  0.00     0.044 A 
ATOM     27  Cl  UNL     1      -6.019   3.070  -0.538  1.00  0.00    -0.084 Cl
ENDBRANCH  18  20
ENDBRANCH  15  18
ENDBRANCH  12  15
ENDBRANCH   7   8
ENDBRANCH   6   7
ENDBRANCH   3   6
ENDBRANCH   1   2
BRANCH   1  28
ATOM     28  C   UNL     1       0.069   2.998   3.105  1.00  0.00     0.023 C 
BRANCH  28  29
ATOM     29  C   UNL     1       0.142   2.077   4.320  1.00  0.00     0.023 C 
BRANCH  29  30
ATOM     30  C   UNL     1       0.709   2.762   5.543  1.00  0.00     0.116 C 
BRANCH  30  31
ATOM     31  N   UNL     1      -0.247   3.593   6.245  1.00  0.00    -0.352 N 
ATOM     32  C   UNL     1      -0.090   4.348   7.391  1.00  0.00     0.251 C 
ATOM     33  H   UNL     1      -1.146   3.624   5.846  1.00  0.00     0.163 HD
ATOM     34  O   UNL     1      -1.113   4.752   7.944  1.00  0.00    -0.269 OA
BRANCH  32  35
ATOM     35  C   UNL     1       1.255   4.799   7.849  1.00  0.00     0.039 A 
ATOM     36  C   UNL     1       1.341   6.016   8.544  1.00  0.00     0.014 A 
ATOM     37  C   UNL     1       2.426   4.195   7.407  1.00  0.00     0.014 A 
ATOM     38  C   UNL     1       2.536   6.736   8.549  1.00  0.00     0.010 A 
ATOM     39  C   UNL     1       3.563   4.951   7.284  1.00  0.00     0.010 A 
ATOM     40  C   UNL     1       3.598   6.244   7.806  1.00  0.00    -0.014 A 
BRANCH  40  41
ATOM     41  C   UNL     1       4.821   6.951   7.484  1.00  0.00     0.031 A 
ATOM     42  C   UNL     1       6.050   6.630   8.231  1.00  0.00     0.074 A 
ATOM     43  C   UNL     1       4.861   7.581   6.289  1.00  0.00     0.049 A 
ATOM     44  N   UNL     1       7.163   7.258   8.093  1.00  0.00    -0.248 NA
ATOM     45  C   UNL     1       6.113   5.547   9.208  1.00  0.00     0.031 C 
ATOM     46  C   UNL     1       6.034   7.875   5.478  1.00  0.00     0.029 A 
ATOM     47  N   UNL     1       3.824   8.267   5.647  1.00  0.00    -0.354 N 
ATOM     48  C   UNL     1       8.139   6.520   8.732  1.00  0.00     0.074 A 
ATOM     49  C   UNL     1       7.424   5.502   9.461  1.00  0.00     0.031 C 
ATOM     50  C   UNL     1       5.737   8.881   4.641  1.00  0.00     0.029 A 
ATOM     51  C   UNL     1       4.430   9.379   5.037  1.00  0.00     0.049 A 
ATOM     52  H   UNL     1       2.870   8.022   5.628  1.00  0.00     0.167 HD
ATOM     53  C   UNL     1       9.445   6.785   8.447  1.00  0.00     0.034 A 
ATOM     54  C   UNL     1       4.155  10.669   5.391  1.00  0.00     0.034 A 
ATOM     55  C   UNL     1       9.542   7.916   7.517  1.00  0.00     0.049 A 
ATOM     56  C   UNL     1       5.385  11.428   5.859  1.00  0.00     0.074 A 
ATOM     57  C   UNL     1       9.665   7.997   6.139  1.00  0.00     0.029 A 
ATOM     58  N   UNL     1       9.203   9.186   7.960  1.00  0.00    -0.354 N 
ATOM     59  N   UNL     1       6.529  10.866   6.138  1.00  0.00    -0.248 NA
ATOM     60  C   UNL     1       5.431  12.875   6.049  1.00  0.00     0.031 C 
ATOM     61  C   UNL     1       9.319   9.318   5.747  1.00  0.00     0.029 A 
ATOM     62  C   UNL     1       9.018  10.043   6.888  1.00  0.00     0.049 A 
ATOM     63  H   UNL     1       9.107   9.442   8.905  1.00  0.00     0.167 HD
ATOM     64  C   UNL     1       7.415  11.795   6.617  1.00  0.00     0.074 A 
ATOM     65  C   UNL     1       6.695  13.050   6.480  1.00  0.00     0.031 C 
ATOM     66  C   UNL     1       8.637  11.432   7.122  1.00  0.00     0.034 A 
BRANCH  53  67
ATOM     67  C   UNL     1      10.632   5.891   8.763  1.00  0.00     0.023 A 
ATOM     68  C   UNL     1      11.793   6.073   7.974  1.00  0.00     0.012 A 
ATOM     69  C   UNL     1      10.701   4.866   9.733  1.00  0.00     0.148 A 
ATOM     70  C   UNL     1      12.913   5.242   8.071  1.00  0.00     0.002 A 
ATOM     71  C   UNL     1      11.799   3.999   9.796  1.00  0.00     0.091 A 
ATOM     72  F   UNL     1       9.743   4.760  10.657  1.00  0.00    -0.205 F 
ATOM     73  C   UNL     1      12.905   4.184   8.963  1.00  0.00     0.022 A 
BRANCH  71  74
ATOM     74  S   UNL     1      11.848   2.565  10.887  1.00  0.00     0.127 S 
ATOM     75  O   UNL     1      12.172   1.482   9.956  1.00  0.00    -0.237 OA
ATOM     76  O   UNL     1      12.923   2.909  11.815  1.00  0.00    -0.237 OA
ATOM     77  O   UNL     1      10.520   2.459  11.480  1.00  0.00    -0.744 OA
ENDBRANCH  71  74
ENDBRANCH  53  67
BRANCH  54  78
ATOM     78  C   UNL     1       2.756  10.862   5.881  1.00  0.00     0.023 A 
ATOM     79  C   UNL     1       1.726  10.616   4.940  1.00  0.00     0.012 A 
ATOM     80  C   UNL     1       2.443  10.828   7.252  1.00  0.00     0.148 A 
ATOM     81  C   UNL     1       0.463  10.189   5.353  1.00  0.00     0.002 A 
ATOM     82  C   UNL     1       1.173  10.410   7.656  1.00  0.00     0.091 A 
ATOM     83  F   UNL     1       3.408  11.109   8.136  1.00  0.00    -0.205 F 
ATOM     84  C   UNL     1       0.201  10.047   6.709  1.00  0.00     0.022 A 
BRANCH  82  85
ATOM     85  S   UNL     1       0.753  10.178   9.391  1.00  0.00     0.127 S 
ATOM     86  O   UNL     1       0.055  11.424   9.691  1.00  0.00    -0.237 OA
ATOM     87  O   UNL     1      -0.099   8.989   9.352  1.00  0.00    -0.237 OA
ATOM     88  O   UNL     1       2.028   9.973  10.061  1.00  0.00    -0.744 OA
ENDBRANCH  82  85
ENDBRANCH  54  78
BRANCH  66  89
ATOM     89  C   UNL     1       9.597  12.317   7.907  1.00  0.00     0.023 A 
ATOM     90  C   UNL     1       9.204  13.534   8.491  1.00  0.00     0.012 A 
ATOM     91  C   UNL     1      10.908  11.862   8.226  1.00  0.00     0.148 A 
ATOM     92  C   UNL     1      10.062  14.276   9.313  1.00  0.00     0.002 A 
ATOM     93  C   UNL     1      11.709  12.540   9.141  1.00  0.00     0.091 A 
ATOM     94  F   UNL     1      11.408  10.772   7.625  1.00  0.00    -0.205 F 
ATOM     95  C   UNL     1      11.303  13.765   9.665  1.00  0.00     0.022 A 
BRANCH  93  96
ATOM     96  S   UNL     1      13.197  11.775   9.806  1.00  0.00     0.127 S 
ATOM     97  O   UNL     1      14.229  12.277   8.902  1.00  0.00    -0.237 OA
ATOM     98  O   UNL     1      13.255  12.325  11.162  1.00  0.00    -0.237 OA
ATOM     99  O   UNL     1      12.933  10.343   9.755  1.00  0.00    -0.744 OA
ENDBRANCH  93  96
ENDBRANCH  66  89
ENDBRANCH  40  41
ENDBRANCH  32  35
ENDBRANCH  30  31
ENDBRANCH  29  30
ENDBRANCH  28  29
ENDBRANCH   1  28
TORSDOF 19
