REMARK SMILES O=C(Cc1ccc(S(=O)(=O)C[C@H]2CCCO2)cc1)NCCCCNC(=O)c1ccc(-c2c3nc(c(-c4cccc(S(=O)(=O)[O-])c4F)c4ccc([nH]4)c(-c4cccc(S(=O)(=O)[O-])c4F)c4nc(c(-c5cccc(S(=O)(=O)[O-])c5F)c5ccc2[nH]5)C=C4)C=C3)cc1
REMARK SMILES IDX 21 1 20 2 19 3 1 4 2 5 3 7 4 8 5 9 18 10 6 11 17 12 7 13
REMARK SMILES IDX 8 14 9 15 10 16 11 17 12 18 13 19 16 20 14 21 15 22 22 23
REMARK SMILES IDX 23 24 24 25 25 26 26 28 27 29 28 30 89 31 29 32 88 33 30 34
REMARK SMILES IDX 31 35 32 36 82 37 33 38 87 39 81 40 83 41 34 42 86 43 80 44
REMARK SMILES IDX 79 45 35 47 67 48 47 49 66 50 48 51 51 52 65 53 84 54 49 55
REMARK SMILES IDX 50 56 64 58 85 59 52 60 36 61 37 62 45 63 38 64 40 65 46 66
REMARK SMILES IDX 39 67 41 68 42 69 43 70 44 71 68 72 69 73 77 74 70 75 72 76
REMARK SMILES IDX 78 77 71 78 73 79 74 80 75 81 76 82 53 83 54 84 62 85 55 86
REMARK SMILES IDX 57 87 63 88 56 89 58 90 59 91 60 92 61 93
REMARK H PARENT 19 6 24 27 83 46 51 57
REMARK Flexibility Score: inf
ROOT
ATOM      1  C   UNL     1       9.657   6.019  -5.593  1.00  0.00     0.023 C 
ENDROOT
BRANCH   1   2
ATOM      2  C   UNL     1      10.177   4.957  -4.627  1.00  0.00     0.116 C 
BRANCH   2   3
ATOM      3  N   UNL     1       9.172   4.505  -3.688  1.00  0.00    -0.356 N 
ATOM      4  O   UNL     1       9.981   2.359  -3.512  1.00  0.00    -0.275 OA
ATOM      5  C   UNL     1       9.195   3.231  -3.153  1.00  0.00     0.224 C 
ATOM      6  H   UNL     1       8.453   5.123  -3.422  1.00  0.00     0.163 HD
BRANCH   5   7
ATOM      7  C   UNL     1       8.172   3.007  -2.051  1.00  0.00     0.135 C 
BRANCH   7   8
ATOM      8  C   UNL     1       8.733   3.216  -0.661  1.00  0.00    -0.039 A 
ATOM      9  C   UNL     1       9.385   4.409  -0.314  1.00  0.00     0.005 A 
ATOM     10  C   UNL     1       8.553   2.233   0.325  1.00  0.00     0.005 A 
ATOM     11  C   UNL     1       9.835   4.622   0.989  1.00  0.00     0.020 A 
ATOM     12  C   UNL     1       9.012   2.436   1.630  1.00  0.00     0.020 A 
ATOM     13  C   UNL     1       9.627   3.643   1.963  1.00  0.00     0.067 A 
BRANCH  13  14
ATOM     14  S   UNL     1      10.153   3.965   3.626  1.00  0.00     0.180 S 
ATOM     15  O   UNL     1      11.301   3.098   3.842  1.00  0.00    -0.224 OA
ATOM     16  O   UNL     1      10.303   5.401   3.764  1.00  0.00    -0.224 OA
BRANCH  14  17
ATOM     17  C   UNL     1       8.894   3.442   4.748  1.00  0.00     0.174 C 
BRANCH  17  18
ATOM     18  C   UNL     1       7.495   4.010   4.588  1.00  0.00     0.133 C 
ATOM     19  C   UNL     1       7.310   5.520   4.610  1.00  0.00     0.035 C 
ATOM     20  O   UNL     1       6.867   3.508   3.398  1.00  0.00    -0.377 OA
ATOM     21  C   UNL     1       6.896   5.853   3.198  1.00  0.00     0.031 C 
ATOM     22  C   UNL     1       6.183   4.596   2.759  1.00  0.00     0.160 C 
ENDBRANCH  17  18
ENDBRANCH  14  17
ENDBRANCH  13  14
ENDBRANCH   7   8
ENDBRANCH   5   7
ENDBRANCH   2   3
ENDBRANCH   1   2
BRANCH   1  23
ATOM     23  C   UNL     1       9.117   7.300  -4.947  1.00  0.00     0.023 C 
BRANCH  23  24
ATOM     24  C   UNL     1      10.085   8.043  -4.030  1.00  0.00     0.116 C 
BRANCH  24  25
ATOM     25  N   UNL     1      11.247   8.555  -4.737  1.00  0.00    -0.352 N 
ATOM     26  C   UNL     1      11.741   9.837  -4.808  1.00  0.00     0.251 C 
ATOM     27  H   UNL     1      11.759   7.882  -5.242  1.00  0.00     0.163 HD
ATOM     28  O   UNL     1      12.650  10.090  -5.595  1.00  0.00    -0.269 OA
BRANCH  26  29
ATOM     29  C   UNL     1      11.174  10.918  -3.967  1.00  0.00     0.039 A 
ATOM     30  C   UNL     1      10.934  12.167  -4.550  1.00  0.00     0.014 A 
ATOM     31  C   UNL     1      10.904  10.722  -2.610  1.00  0.00     0.014 A 
ATOM     32  C   UNL     1      10.363  13.195  -3.792  1.00  0.00     0.010 A 
ATOM     33  C   UNL     1      10.281  11.728  -1.871  1.00  0.00     0.010 A 
ATOM     34  C   UNL     1      10.002  12.975  -2.453  1.00  0.00    -0.014 A 
BRANCH  34  35
ATOM     35  C   UNL     1       9.308  14.021  -1.656  1.00  0.00     0.031 A 
ATOM     36  C   UNL     1       9.967  14.626  -0.446  1.00  0.00     0.074 A 
ATOM     37  C   UNL     1       8.039  14.359  -1.964  1.00  0.00     0.049 A 
ATOM     38  N   UNL     1       9.488  15.498   0.404  1.00  0.00    -0.248 NA
ATOM     39  C   UNL     1      11.333  14.175  -0.135  1.00  0.00     0.031 C 
ATOM     40  C   UNL     1       7.257  13.792  -3.064  1.00  0.00     0.029 A 
ATOM     41  N   UNL     1       7.174  15.240  -1.362  1.00  0.00    -0.354 N 
ATOM     42  C   UNL     1      10.472  15.671   1.369  1.00  0.00     0.074 A 
ATOM     43  C   UNL     1      11.569  14.796   1.013  1.00  0.00     0.031 C 
ATOM     44  C   UNL     1       6.030  14.336  -3.058  1.00  0.00     0.029 A 
ATOM     45  C   UNL     1       5.928  15.273  -1.943  1.00  0.00     0.049 A 
ATOM     46  H   UNL     1       7.423  15.795  -0.588  1.00  0.00     0.167 HD
ATOM     47  C   UNL     1      10.477  16.503   2.439  1.00  0.00     0.034 A 
ATOM     48  C   UNL     1       4.825  15.977  -1.616  1.00  0.00     0.034 A 
ATOM     49  C   UNL     1       9.416  17.419   2.759  1.00  0.00     0.049 A 
ATOM     50  C   UNL     1       4.878  16.935  -0.458  1.00  0.00     0.074 A 
ATOM     51  C   UNL     1       9.377  18.374   3.760  1.00  0.00     0.029 A 
ATOM     52  N   UNL     1       8.206  17.495   2.088  1.00  0.00    -0.354 N 
ATOM     53  N   UNL     1       5.882  17.208   0.340  1.00  0.00    -0.248 NA
ATOM     54  C   UNL     1       3.660  17.708  -0.176  1.00  0.00     0.031 C 
ATOM     55  C   UNL     1       8.139  19.024   3.698  1.00  0.00     0.029 A 
ATOM     56  C   UNL     1       7.410  18.476   2.655  1.00  0.00     0.049 A 
ATOM     57  H   UNL     1       7.950  16.934   1.320  1.00  0.00     0.167 HD
ATOM     58  C   UNL     1       5.429  18.206   1.195  1.00  0.00     0.074 A 
ATOM     59  C   UNL     1       4.066  18.503   0.806  1.00  0.00     0.031 C 
ATOM     60  C   UNL     1       6.078  18.808   2.222  1.00  0.00     0.034 A 
BRANCH  47  61
ATOM     61  C   UNL     1      11.706  16.513   3.309  1.00  0.00     0.023 A 
ATOM     62  C   UNL     1      12.877  17.140   2.840  1.00  0.00     0.012 A 
ATOM     63  C   UNL     1      11.686  15.967   4.607  1.00  0.00     0.148 A 
ATOM     64  C   UNL     1      14.020  17.198   3.636  1.00  0.00     0.002 A 
ATOM     65  C   UNL     1      12.818  16.062   5.410  1.00  0.00     0.091 A 
ATOM     66  F   UNL     1      10.570  15.354   5.029  1.00  0.00    -0.205 F 
ATOM     67  C   UNL     1      13.987  16.669   4.923  1.00  0.00     0.022 A 
BRANCH  65  68
ATOM     68  S   UNL     1      12.844  15.476   7.109  1.00  0.00     0.127 S 
ATOM     69  O   UNL     1      13.584  14.223   6.978  1.00  0.00    -0.237 OA
ATOM     70  O   UNL     1      13.571  16.544   7.797  1.00  0.00    -0.237 OA
ATOM     71  O   UNL     1      11.448  15.347   7.504  1.00  0.00    -0.744 OA
ENDBRANCH  65  68
ENDBRANCH  47  61
BRANCH  48  72
ATOM     72  C   UNL     1       3.600  15.862  -2.456  1.00  0.00     0.023 A 
ATOM     73  C   UNL     1       3.241  16.936  -3.293  1.00  0.00     0.012 A 
ATOM     74  C   UNL     1       2.817  14.692  -2.464  1.00  0.00     0.148 A 
ATOM     75  C   UNL     1       2.111  16.857  -4.107  1.00  0.00     0.002 A 
ATOM     76  C   UNL     1       1.720  14.600  -3.315  1.00  0.00     0.091 A 
ATOM     77  F   UNL     1       3.163  13.688  -1.647  1.00  0.00    -0.205 F 
ATOM     78  C   UNL     1       1.357  15.686  -4.127  1.00  0.00     0.022 A 
BRANCH  76  79
ATOM     79  S   UNL     1       0.779  13.080  -3.497  1.00  0.00     0.127 S 
ATOM     80  O   UNL     1      -0.423  13.377  -2.724  1.00  0.00    -0.237 OA
ATOM     81  O   UNL     1       0.581  13.012  -4.946  1.00  0.00    -0.237 OA
ATOM     82  O   UNL     1       1.637  12.029  -2.966  1.00  0.00    -0.744 OA
ENDBRANCH  76  79
ENDBRANCH  48  72
BRANCH  60  83
ATOM     83  C   UNL     1       5.338  19.868   2.992  1.00  0.00     0.023 A 
ATOM     84  C   UNL     1       4.338  19.488   3.909  1.00  0.00     0.012 A 
ATOM     85  C   UNL     1       5.685  21.228   2.871  1.00  0.00     0.148 A 
ATOM     86  C   UNL     1       3.678  20.447   4.676  1.00  0.00     0.002 A 
ATOM     87  C   UNL     1       5.050  22.174   3.668  1.00  0.00     0.091 A 
ATOM     88  F   UNL     1       6.622  21.573   1.976  1.00  0.00    -0.205 F 
ATOM     89  C   UNL     1       4.042  21.787   4.565  1.00  0.00     0.022 A 
BRANCH  87  90
ATOM     90  S   UNL     1       5.522  23.908   3.648  1.00  0.00     0.127 S 
ATOM     91  O   UNL     1       4.466  24.496   2.827  1.00  0.00    -0.237 OA
ATOM     92  O   UNL     1       5.463  24.268   5.066  1.00  0.00    -0.237 OA
ATOM     93  O   UNL     1       6.862  23.946   3.077  1.00  0.00    -0.744 OA
ENDBRANCH  87  90
ENDBRANCH  60  83
ENDBRANCH  34  35
ENDBRANCH  26  29
ENDBRANCH  24  25
ENDBRANCH  23  24
ENDBRANCH   1  23
TORSDOF 18
