REMARK SMILES O=C(CN(c1ccccc1)[C@@H]1CCO[C@]2(CCSC2)C1)NCCCCNC(=O)c1ccc(-c2c3nc(c(-c4cccc(S(=O)(=O)[O-])c4F)c4ccc([nH]4)c(-c4cccc(S(=O)(=O)[O-])c4F)c4nc(c(-c5cccc(S(=O)(=O)[O-])c5F)c5ccc2[nH]5)C=C4)C=C3)cc1
REMARK SMILES IDX 24 1 23 2 22 3 21 4 1 5 2 6 3 8 4 9 5 10 6 11 10 12 7 13
REMARK SMILES IDX 9 14 8 15 11 16 12 17 20 18 13 19 15 20 14 21 16 22 19 23
REMARK SMILES IDX 17 24 18 25 25 26 26 27 27 28 28 30 29 31 30 32 91 33 31 34
REMARK SMILES IDX 90 35 32 36 33 37 34 38 84 39 35 40 89 41 83 42 85 43 36 44
REMARK SMILES IDX 88 45 82 46 81 47 37 49 69 50 49 51 68 52 50 53 53 54 67 55
REMARK SMILES IDX 86 56 51 57 52 58 66 60 87 61 54 62 38 63 39 64 47 65 40 66
REMARK SMILES IDX 42 67 48 68 41 69 43 70 44 71 45 72 46 73 70 74 71 75 79 76
REMARK SMILES IDX 72 77 74 78 80 79 73 80 75 81 76 82 77 83 78 84 55 85 56 86
REMARK SMILES IDX 64 87 57 88 59 89 65 90 58 91 60 92 61 93 62 94 63 95
REMARK H PARENT 21 7 26 29 85 48 53 59
REMARK Flexibility Score: inf
ROOT
ATOM      1  C   UNL     1       4.008   0.980  -4.248  1.00  0.00     0.023 C 
ENDROOT
BRANCH   1   2
ATOM      2  C   UNL     1       2.529   0.900  -3.868  1.00  0.00     0.023 C 
BRANCH   2   3
ATOM      3  C   UNL     1       2.192  -0.235  -2.900  1.00  0.00     0.116 C 
BRANCH   3   4
ATOM      4  N   UNL     1       3.101  -0.298  -1.778  1.00  0.00    -0.355 N 
ATOM      5  O   UNL     1       2.255   1.571  -0.796  1.00  0.00    -0.273 OA
ATOM      6  C   UNL     1       3.044   0.626  -0.765  1.00  0.00     0.239 C 
ATOM      7  H   UNL     1       3.773  -1.016  -1.741  1.00  0.00     0.163 HD
BRANCH   6   8
ATOM      8  C   UNL     1       4.112   0.491   0.314  1.00  0.00     0.216 C 
BRANCH   8   9
ATOM      9  N   UNL     1       4.417  -0.848   0.922  1.00  0.00    -0.359 N 
BRANCH   9  10
ATOM     10  C   UNL     1       5.762  -0.957   1.334  1.00  0.00     0.037 A 
ATOM     11  C   UNL     1       6.508  -2.096   1.010  1.00  0.00     0.026 A 
ATOM     12  C   UNL     1       6.430   0.087   1.999  1.00  0.00     0.026 A 
ATOM     13  C   UNL     1       7.869  -2.185   1.327  1.00  0.00     0.002 A 
ATOM     14  C   UNL     1       7.785  -0.002   2.331  1.00  0.00     0.002 A 
ATOM     15  C   UNL     1       8.506  -1.139   1.990  1.00  0.00     0.000 A 
ENDBRANCH   9  10
BRANCH   9  16
ATOM     16  C   UNL     1       3.466  -1.845   1.518  1.00  0.00     0.088 C 
ATOM     17  C   UNL     1       2.279  -2.150   0.625  1.00  0.00     0.053 C 
ATOM     18  C   UNL     1       2.854  -1.560   2.914  1.00  0.00     0.061 C 
ATOM     19  C   UNL     1       1.169  -1.123   0.862  1.00  0.00     0.163 C 
ATOM     20  C   UNL     1       2.066  -0.240   2.933  1.00  0.00     0.080 C 
ATOM     21  O   UNL     1       1.651   0.041   1.580  1.00  0.00    -0.374 OA
ATOM     22  C   UNL     1       3.037   0.790   3.566  1.00  0.00     0.047 C 
ATOM     23  C   UNL     1       0.765  -0.149   3.765  1.00  0.00     0.105 C 
ATOM     24  C   UNL     1       2.296   1.990   4.088  1.00  0.00     0.072 C 
ATOM     25  S   UNL     1       0.932   1.210   4.966  1.00  0.00    -0.159 SA
ENDBRANCH   9  16
ENDBRANCH   8   9
ENDBRANCH   6   8
ENDBRANCH   3   4
ENDBRANCH   2   3
ENDBRANCH   1   2
BRANCH   1  26
ATOM     26  C   UNL     1       4.623  -0.346  -4.666  1.00  0.00     0.116 C 
BRANCH  26  27
ATOM     27  N   UNL     1       3.967  -0.911  -5.834  1.00  0.00    -0.352 N 
ATOM     28  C   UNL     1       4.542  -1.338  -7.008  1.00  0.00     0.251 C 
ATOM     29  H   UNL     1       2.988  -1.000  -5.778  1.00  0.00     0.163 HD
ATOM     30  O   UNL     1       3.855  -1.625  -7.973  1.00  0.00    -0.269 OA
BRANCH  28  31
ATOM     31  C   UNL     1       6.016  -1.417  -7.076  1.00  0.00     0.039 A 
ATOM     32  C   UNL     1       6.678  -0.785  -8.129  1.00  0.00     0.014 A 
ATOM     33  C   UNL     1       6.733  -2.068  -6.067  1.00  0.00     0.014 A 
ATOM     34  C   UNL     1       8.073  -0.768  -8.145  1.00  0.00     0.010 A 
ATOM     35  C   UNL     1       8.119  -1.976  -6.043  1.00  0.00     0.010 A 
ATOM     36  C   UNL     1       8.804  -1.339  -7.088  1.00  0.00    -0.014 A 
BRANCH  36  37
ATOM     37  C   UNL     1      10.287  -1.284  -7.066  1.00  0.00     0.031 A 
ATOM     38  C   UNL     1      11.087  -2.557  -7.108  1.00  0.00     0.074 A 
ATOM     39  C   UNL     1      10.909  -0.096  -6.936  1.00  0.00     0.049 A 
ATOM     40  N   UNL     1      12.384  -2.716  -7.065  1.00  0.00    -0.248 NA
ATOM     41  C   UNL     1      10.332  -3.820  -7.181  1.00  0.00     0.031 C 
ATOM     42  C   UNL     1      10.240   1.201  -6.807  1.00  0.00     0.029 A 
ATOM     43  N   UNL     1      12.244   0.213  -6.869  1.00  0.00    -0.354 N 
ATOM     44  C   UNL     1      12.599  -4.089  -7.069  1.00  0.00     0.074 A 
ATOM     45  C   UNL     1      11.299  -4.721  -7.081  1.00  0.00     0.031 C 
ATOM     46  C   UNL     1      11.167   2.165  -6.689  1.00  0.00     0.029 A 
ATOM     47  C   UNL     1      12.493   1.555  -6.699  1.00  0.00     0.049 A 
ATOM     48  H   UNL     1      12.957  -0.463  -6.936  1.00  0.00     0.167 HD
ATOM     49  C   UNL     1      13.772  -4.764  -7.091  1.00  0.00     0.034 A 
ATOM     50  C   UNL     1      13.658   2.218  -6.559  1.00  0.00     0.034 A 
ATOM     51  C   UNL     1      15.062  -4.130  -7.118  1.00  0.00     0.049 A 
ATOM     52  C   UNL     1      14.948   1.446  -6.617  1.00  0.00     0.074 A 
ATOM     53  C   UNL     1      16.307  -4.721  -7.231  1.00  0.00     0.029 A 
ATOM     54  N   UNL     1      15.274  -2.764  -7.017  1.00  0.00    -0.354 N 
ATOM     55  N   UNL     1      15.133   0.158  -6.781  1.00  0.00    -0.248 NA
ATOM     56  C   UNL     1      16.192   2.221  -6.506  1.00  0.00     0.031 C 
ATOM     57  C   UNL     1      17.275  -3.714  -7.162  1.00  0.00     0.029 A 
ATOM     58  C   UNL     1      16.631  -2.492  -7.049  1.00  0.00     0.049 A 
ATOM     59  H   UNL     1      14.565  -2.086  -6.935  1.00  0.00     0.167 HD
ATOM     60  C   UNL     1      16.510  -0.026  -6.833  1.00  0.00     0.074 A 
ATOM     61  C   UNL     1      17.111   1.285  -6.702  1.00  0.00     0.031 C 
ATOM     62  C   UNL     1      17.214  -1.177  -6.966  1.00  0.00     0.034 A 
BRANCH  49  63
ATOM     63  C   UNL     1      13.715  -6.269  -7.127  1.00  0.00     0.023 A 
ATOM     64  C   UNL     1      13.261  -6.925  -8.290  1.00  0.00     0.012 A 
ATOM     65  C   UNL     1      14.163  -7.035  -6.034  1.00  0.00     0.148 A 
ATOM     66  C   UNL     1      13.218  -8.317  -8.351  1.00  0.00     0.002 A 
ATOM     67  C   UNL     1      14.164  -8.422  -6.120  1.00  0.00     0.091 A 
ATOM     68  F   UNL     1      14.571  -6.395  -4.929  1.00  0.00    -0.205 F 
ATOM     69  C   UNL     1      13.680  -9.065  -7.271  1.00  0.00     0.022 A 
BRANCH  67  70
ATOM     70  S   UNL     1      14.814  -9.474  -4.817  1.00  0.00     0.127 S 
ATOM     71  O   UNL     1      13.595 -10.107  -4.314  1.00  0.00    -0.237 OA
ATOM     72  O   UNL     1      15.704 -10.367  -5.559  1.00  0.00    -0.237 OA
ATOM     73  O   UNL     1      15.486  -8.585  -3.879  1.00  0.00    -0.744 OA
ENDBRANCH  67  70
ENDBRANCH  49  63
BRANCH  50  74
ATOM     74  C   UNL     1      13.660   3.701  -6.410  1.00  0.00     0.023 A 
ATOM     75  C   UNL     1      14.156   4.503  -7.456  1.00  0.00     0.012 A 
ATOM     76  C   UNL     1      13.158   4.320  -5.249  1.00  0.00     0.148 A 
ATOM     77  C   UNL     1      14.186   5.892  -7.335  1.00  0.00     0.002 A 
ATOM     78  C   UNL     1      13.138   5.707  -5.158  1.00  0.00     0.091 A 
ATOM     79  F   UNL     1      12.699   3.539  -4.261  1.00  0.00    -0.205 F 
ATOM     80  C   UNL     1      13.669   6.495  -6.192  1.00  0.00     0.022 A 
BRANCH  78  81
ATOM     81  S   UNL     1      12.378   6.572  -3.780  1.00  0.00     0.127 S 
ATOM     82  O   UNL     1      13.539   7.165  -3.122  1.00  0.00    -0.237 OA
ATOM     83  O   UNL     1      11.505   7.524  -4.469  1.00  0.00    -0.237 OA
ATOM     84  O   UNL     1      11.671   5.553  -3.016  1.00  0.00    -0.744 OA
ENDBRANCH  78  81
ENDBRANCH  50  74
BRANCH  62  85
ATOM     85  C   UNL     1      18.716  -1.077  -7.022  1.00  0.00     0.023 A 
ATOM     86  C   UNL     1      19.446  -0.750  -5.863  1.00  0.00     0.012 A 
ATOM     87  C   UNL     1      19.407  -1.381  -8.212  1.00  0.00     0.148 A 
ATOM     88  C   UNL     1      20.839  -0.693  -5.896  1.00  0.00     0.002 A 
ATOM     89  C   UNL     1      20.796  -1.375  -8.224  1.00  0.00     0.091 A 
ATOM     90  F   UNL     1      18.693  -1.674  -9.309  1.00  0.00    -0.205 F 
ATOM     91  C   UNL     1      21.513  -1.017  -7.071  1.00  0.00     0.022 A 
BRANCH  89  92
ATOM     92  S   UNL     1      21.750  -1.877  -9.660  1.00  0.00     0.127 S 
ATOM     93  O   UNL     1      22.318  -0.603 -10.100  1.00  0.00    -0.237 OA
ATOM     94  O   UNL     1      22.717  -2.808  -9.079  1.00  0.00    -0.237 OA
ATOM     95  O   UNL     1      20.801  -2.487 -10.582  1.00  0.00    -0.744 OA
ENDBRANCH  89  92
ENDBRANCH  62  85
ENDBRANCH  36  37
ENDBRANCH  28  31
ENDBRANCH  26  27
ENDBRANCH   1  26
TORSDOF 17
