REMARK SMILES O=C(NCCCCNC(=O)[C@H]1C[C@H]2CCCC[C@@H]2[N@@H+]1C1CCSCC1)c1ccc(-c2c3nc(c(-c4cccc(S(=O)(=O)[O-])c4F)c4ccc([nH]4)c(-c4cccc(S(=O)(=O)[O-])c4F)c4nc(c(-c5cccc(S(=O)(=O)[O-])c5F)c5ccc2[nH]5)C=C4)C=C3)cc1
REMARK SMILES IDX 4 1 3 2 1 3 2 4 26 6 27 7 88 8 28 9 87 10 29 11 30 12 31 13
REMARK SMILES IDX 81 14 32 15 86 16 80 17 82 18 33 19 85 20 79 21 78 22 34 24
REMARK SMILES IDX 66 25 46 26 65 27 47 28 50 29 64 30 83 31 48 32 49 33 63 35
REMARK SMILES IDX 84 36 51 37 35 38 36 39 44 40 37 41 39 42 45 43 38 44 40 45
REMARK SMILES IDX 41 46 42 47 43 48 67 49 68 50 76 51 69 52 71 53 77 54 70 55
REMARK SMILES IDX 72 56 73 57 74 58 75 59 52 60 53 61 61 62 54 63 56 64 62 65
REMARK SMILES IDX 55 66 57 67 58 68 59 69 60 70 5 71 6 72 7 73 8 74 9 75 10 77
REMARK SMILES IDX 11 78 12 79 19 80 13 81 18 82 14 84 17 85 15 86 16 87 20 88
REMARK SMILES IDX 21 89 25 90 22 91 24 92 23 93
REMARK H PARENT 3 5 82 23 50 34 8 76 19 83
REMARK Flexibility Score: inf
ROOT
ATOM      1  C   UNL     1       1.072  -7.699   5.732  1.00  0.00     0.116 C 
ENDROOT
BRANCH   1   2
ATOM      2  N   UNL     1       1.160  -9.123   5.436  1.00  0.00    -0.352 N 
ATOM      3  O   UNL     1       0.416 -11.252   5.308  1.00  0.00    -0.269 OA
ATOM      4  C   UNL     1       0.168 -10.079   5.506  1.00  0.00     0.251 C 
ATOM      5  H   UNL     1       2.045  -9.446   5.148  1.00  0.00     0.163 HD
BRANCH   4   6
ATOM      6  C   UNL     1      -1.190  -9.631   5.875  1.00  0.00     0.039 A 
ATOM      7  C   UNL     1      -1.779  -8.563   5.193  1.00  0.00     0.014 A 
ATOM      8  C   UNL     1      -1.814 -10.211   6.979  1.00  0.00     0.014 A 
ATOM      9  C   UNL     1      -2.915  -7.965   5.719  1.00  0.00     0.010 A 
ATOM     10  C   UNL     1      -3.005  -9.662   7.452  1.00  0.00     0.010 A 
ATOM     11  C   UNL     1      -3.539  -8.509   6.853  1.00  0.00    -0.014 A 
BRANCH  11  12
ATOM     12  C   UNL     1      -4.781  -7.895   7.376  1.00  0.00     0.031 A 
ATOM     13  C   UNL     1      -4.828  -7.300   8.755  1.00  0.00     0.074 A 
ATOM     14  C   UNL     1      -5.880  -7.915   6.600  1.00  0.00     0.049 A 
ATOM     15  N   UNL     1      -5.851  -6.800   9.398  1.00  0.00    -0.248 NA
ATOM     16  C   UNL     1      -3.568  -7.270   9.517  1.00  0.00     0.031 C 
ATOM     17  C   UNL     1      -5.947  -8.493   5.256  1.00  0.00     0.029 A 
ATOM     18  N   UNL     1      -7.151  -7.460   6.832  1.00  0.00    -0.354 N 
ATOM     19  C   UNL     1      -5.376  -6.446  10.655  1.00  0.00     0.074 A 
ATOM     20  C   UNL     1      -3.969  -6.783  10.684  1.00  0.00     0.031 C 
ATOM     21  C   UNL     1      -7.192  -8.360   4.782  1.00  0.00     0.029 A 
ATOM     22  C   UNL     1      -8.023  -7.743   5.809  1.00  0.00     0.049 A 
ATOM     23  H   UNL     1      -7.413  -6.979   7.650  1.00  0.00     0.167 HD
ATOM     24  C   UNL     1      -6.053  -5.882  11.684  1.00  0.00     0.034 A 
ATOM     25  C   UNL     1      -9.353  -7.559   5.717  1.00  0.00     0.034 A 
ATOM     26  C   UNL     1      -7.442  -5.512  11.624  1.00  0.00     0.049 A 
ATOM     27  C   UNL     1     -10.072  -6.907   6.859  1.00  0.00     0.074 A 
ATOM     28  C   UNL     1      -8.206  -4.876  12.587  1.00  0.00     0.029 A 
ATOM     29  N   UNL     1      -8.277  -5.745  10.541  1.00  0.00    -0.354 N 
ATOM     30  N   UNL     1      -9.585  -6.480   7.999  1.00  0.00    -0.248 NA
ATOM     31  C   UNL     1     -11.514  -6.686   6.697  1.00  0.00     0.031 C 
ATOM     32  C   UNL     1      -9.507  -4.737  12.089  1.00  0.00     0.029 A 
ATOM     33  C   UNL     1      -9.549  -5.271  10.811  1.00  0.00     0.049 A 
ATOM     34  H   UNL     1      -8.005  -6.184   9.703  1.00  0.00     0.167 HD
ATOM     35  C   UNL     1     -10.653  -5.914   8.681  1.00  0.00     0.074 A 
ATOM     36  C   UNL     1     -11.811  -6.039   7.818  1.00  0.00     0.031 C 
ATOM     37  C   UNL     1     -10.675  -5.356   9.916  1.00  0.00     0.034 A 
BRANCH  24  38
ATOM     38  C   UNL     1      -5.293  -5.598  12.953  1.00  0.00     0.023 A 
ATOM     39  C   UNL     1      -4.389  -4.517  12.996  1.00  0.00     0.012 A 
ATOM     40  C   UNL     1      -5.511  -6.360  14.117  1.00  0.00     0.148 A 
ATOM     41  C   UNL     1      -3.693  -4.219  14.168  1.00  0.00     0.002 A 
ATOM     42  C   UNL     1      -4.841  -6.034  15.292  1.00  0.00     0.091 A 
ATOM     43  F   UNL     1      -6.354  -7.402  14.055  1.00  0.00    -0.205 F 
ATOM     44  C   UNL     1      -3.926  -4.970  15.317  1.00  0.00     0.022 A 
BRANCH  42  45
ATOM     45  S   UNL     1      -5.139  -6.908  16.834  1.00  0.00     0.127 S 
ATOM     46  O   UNL     1      -4.011  -7.837  16.870  1.00  0.00    -0.237 OA
ATOM     47  O   UNL     1      -5.072  -5.832  17.825  1.00  0.00    -0.237 OA
ATOM     48  O   UNL     1      -6.456  -7.511  16.694  1.00  0.00    -0.744 OA
ENDBRANCH  42  45
ENDBRANCH  24  38
BRANCH  25  49
ATOM     49  C   UNL     1     -10.052  -7.968   4.468  1.00  0.00     0.023 A 
ATOM     50  C   UNL     1     -10.499  -6.979   3.573  1.00  0.00     0.012 A 
ATOM     51  C   UNL     1     -10.173  -9.326   4.115  1.00  0.00     0.148 A 
ATOM     52  C   UNL     1     -11.062  -7.337   2.348  1.00  0.00     0.002 A 
ATOM     53  C   UNL     1     -10.681  -9.674   2.869  1.00  0.00     0.091 A 
ATOM     54  F   UNL     1      -9.748 -10.250   4.989  1.00  0.00    -0.205 F 
ATOM     55  C   UNL     1     -11.139  -8.681   1.990  1.00  0.00     0.022 A 
BRANCH  53  56
ATOM     56  S   UNL     1     -10.671 -11.366   2.265  1.00  0.00     0.127 S 
ATOM     57  O   UNL     1     -12.091 -11.705   2.304  1.00  0.00    -0.237 OA
ATOM     58  O   UNL     1     -10.112 -11.204   0.922  1.00  0.00    -0.237 OA
ATOM     59  O   UNL     1      -9.816 -12.106   3.184  1.00  0.00    -0.744 OA
ENDBRANCH  53  56
ENDBRANCH  25  49
BRANCH  37  60
ATOM     60  C   UNL     1     -11.987  -4.805  10.404  1.00  0.00     0.023 A 
ATOM     61  C   UNL     1     -12.987  -5.687  10.856  1.00  0.00     0.012 A 
ATOM     62  C   UNL     1     -12.190  -3.415  10.496  1.00  0.00     0.148 A 
ATOM     63  C   UNL     1     -14.181  -5.192  11.378  1.00  0.00     0.002 A 
ATOM     64  C   UNL     1     -13.366  -2.929  11.056  1.00  0.00     0.091 A 
ATOM     65  F   UNL     1     -11.233  -2.596  10.038  1.00  0.00    -0.205 F 
ATOM     66  C   UNL     1     -14.365  -3.815  11.489  1.00  0.00     0.022 A 
BRANCH  64  67
ATOM     67  S   UNL     1     -13.648  -1.174  11.320  1.00  0.00     0.127 S 
ATOM     68  O   UNL     1     -14.620  -0.868  10.273  1.00  0.00    -0.237 OA
ATOM     69  O   UNL     1     -14.187  -1.147  12.681  1.00  0.00    -0.237 OA
ATOM     70  O   UNL     1     -12.348  -0.534  11.175  1.00  0.00    -0.744 OA
ENDBRANCH  64  67
ENDBRANCH  37  60
ENDBRANCH  11  12
ENDBRANCH   4   6
ENDBRANCH   1   2
BRANCH   1  71
ATOM     71  C   UNL     1       2.209  -7.184   6.602  1.00  0.00     0.023 C 
BRANCH  71  72
ATOM     72  C   UNL     1       3.604  -7.537   6.110  1.00  0.00     0.023 C 
BRANCH  72  73
ATOM     73  C   UNL     1       3.865  -7.219   4.644  1.00  0.00     0.116 C 
BRANCH  73  74
ATOM     74  N   UNL     1       4.163  -5.834   4.384  1.00  0.00    -0.351 N 
ATOM     75  C   UNL     1       5.305  -5.247   3.926  1.00  0.00     0.278 C 
ATOM     76  H   UNL     1       3.423  -5.211   4.566  1.00  0.00     0.163 HD
ATOM     77  O   UNL     1       5.214  -4.046   3.637  1.00  0.00    -0.268 OA
BRANCH  75  78
ATOM     78  C   UNL     1       6.671  -5.972   3.786  1.00  0.00     0.275 C 
ATOM     79  C   UNL     1       7.119  -6.745   5.028  1.00  0.00     0.085 C 
ATOM     80  N   UNL     1       6.729  -6.908   2.628  1.00  0.00    -0.320 N 
ATOM     81  C   UNL     1       7.711  -8.028   4.473  1.00  0.00     0.054 C 
ATOM     82  C   UNL     1       6.954  -8.257   3.169  1.00  0.00     0.188 C 
ATOM     83  H   UNL     1       5.827  -6.871   2.154  1.00  0.00     0.349 HD
ATOM     84  C   UNL     1       7.600  -9.247   5.380  1.00  0.00     0.010 C 
ATOM     85  C   UNL     1       7.552  -9.431   2.391  1.00  0.00     0.065 C 
ATOM     86  C   UNL     1       8.116 -10.493   4.654  1.00  0.00     0.001 C 
ATOM     87  C   UNL     1       7.478 -10.692   3.273  1.00  0.00     0.006 C 
BRANCH  80  88
ATOM     88  C   UNL     1       7.520  -6.521   1.444  1.00  0.00     0.186 C 
ATOM     89  C   UNL     1       6.964  -5.286   0.699  1.00  0.00     0.076 C 
ATOM     90  C   UNL     1       9.058  -6.477   1.582  1.00  0.00     0.076 C 
ATOM     91  C   UNL     1       7.460  -3.913   1.137  1.00  0.00     0.075 C 
ATOM     92  C   UNL     1       9.671  -5.204   2.138  1.00  0.00     0.075 C 
ATOM     93  S   UNL     1       9.269  -3.775   1.106  1.00  0.00    -0.162 SA
ENDBRANCH  80  88
ENDBRANCH  75  78
ENDBRANCH  73  74
ENDBRANCH  72  73
ENDBRANCH  71  72
ENDBRANCH   1  71
TORSDOF 15
