REMARK SMILES CC[C@@H](C)[C@H](NC(=O)[C@H](C)N1C(=O)N2CCC3=c4cc(OC)ccc4=N[C@H]3[C@@]2(C)C1=O)C(=O)NCCCCNC(=O)c1ccc(-c2c3nc(c(-c4cccc(S(=O)(=O)[O-])c4F)c4ccc([nH]4)c(-c4cccc(S(=O)(=O)[O-])c4F)c4nc(c(-c5cccc(S(=O)(=O)[O-])c5F)c5ccc2[nH]5)C=C4)C=C3)cc1
REMARK SMILES IDX 36 1 35 2 34 3 32 4 33 5 5 7 3 8 4 9 2 10 1 11 6 12 7 13
REMARK SMILES IDX 8 15 9 16 10 17 11 18 12 19 30 20 14 21 13 22 28 23 31 24
REMARK SMILES IDX 15 25 27 26 29 27 16 28 17 29 26 30 18 31 25 32 19 33 24 34
REMARK SMILES IDX 20 35 23 36 21 37 22 38 37 39 38 40 39 41 40 42 41 44 42 45
REMARK SMILES IDX 43 46 104 47 44 48 103 49 45 50 46 51 47 52 97 53 48 54
REMARK SMILES IDX 102 55 96 56 98 57 49 58 101 59 95 60 94 61 50 63 82 64
REMARK SMILES IDX 62 65 81 66 63 67 66 68 80 69 99 70 64 71 65 72 79 74 100 75
REMARK SMILES IDX 67 76 51 77 52 78 60 79 53 80 55 81 61 82 54 83 56 84 57 85
REMARK SMILES IDX 58 86 59 87 83 88 84 89 92 90 85 91 87 92 93 93 86 94 88 95
REMARK SMILES IDX 89 96 90 97 91 98 68 99 69 100 77 101 70 102 72 103 78 104
REMARK SMILES IDX 71 105 73 106 74 107 75 108 76 109
REMARK H PARENT 34 6 6 14 39 43 98 62 66 73
REMARK Flexibility Score: inf
ROOT
ATOM      1  C   UNL     1      -0.607   1.562   3.603  1.00  0.00     0.023 C 
ENDROOT
BRANCH   1   2
ATOM      2  C   UNL     1      -0.504   2.754   4.567  1.00  0.00     0.116 C 
BRANCH   2   3
ATOM      3  N   UNL     1       0.814   3.301   4.784  1.00  0.00    -0.354 N 
ATOM      4  C   UNL     1       1.319   4.534   5.015  1.00  0.00     0.242 C 
ATOM      5  O   UNL     1       2.383   4.623   5.644  1.00  0.00    -0.273 OA
ATOM      6  H   UNL     1       1.514   2.610   4.756  1.00  0.00     0.163 HD
BRANCH   4   7
ATOM      7  C   UNL     1       0.639   5.820   4.587  1.00  0.00     0.174 C 
BRANCH   7   8
ATOM      8  C   UNL     1      -0.131   6.421   5.788  1.00  0.00     0.018 C 
ATOM      9  C   UNL     1       0.680   6.296   7.093  1.00  0.00     0.010 C 
BRANCH   8  10
ATOM     10  C   UNL     1      -1.591   5.922   5.913  1.00  0.00     0.002 C 
ATOM     11  C   UNL     1      -1.931   5.078   7.125  1.00  0.00     0.004 C 
ENDBRANCH   8  10
ENDBRANCH   7   8
BRANCH   7  12
ATOM     12  N   UNL     1      -0.160   5.658   3.393  1.00  0.00    -0.342 N 
ATOM     13  C   UNL     1       0.213   5.321   2.142  1.00  0.00     0.243 C 
ATOM     14  H   UNL     1      -1.125   5.818   3.511  1.00  0.00     0.164 HD
ATOM     15  O   UNL     1      -0.736   5.223   1.350  1.00  0.00    -0.273 OA
BRANCH  13  16
ATOM     16  C   UNL     1       1.675   5.393   1.667  1.00  0.00     0.181 C 
ATOM     17  C   UNL     1       1.585   5.516   0.075  1.00  0.00     0.042 C 
BRANCH  16  18
ATOM     18  N   UNL     1       2.976   4.931   2.317  1.00  0.00    -0.250 N 
ATOM     19  C   UNL     1       3.536   3.949   3.260  1.00  0.00     0.328 C 
ATOM     20  C   UNL     1       4.021   5.419   1.625  1.00  0.00     0.259 C 
ATOM     21  N   UNL     1       5.043   4.171   3.302  1.00  0.00    -0.307 N 
ATOM     22  O   UNL     1       3.022   2.958   3.760  1.00  0.00    -0.248 OA
ATOM     23  C   UNL     1       5.182   4.666   2.022  1.00  0.00     0.147 C 
ATOM     24  O   UNL     1       4.073   6.271   0.737  1.00  0.00    -0.271 OA
ATOM     25  C   UNL     1       6.418   3.236   3.457  1.00  0.00     0.127 C 
ATOM     26  C   UNL     1       5.025   3.242   1.326  1.00  0.00     0.168 C 
ATOM     27  C   UNL     1       6.273   5.751   2.154  1.00  0.00     0.048 C 
ATOM     28  C   UNL     1       7.176   2.894   1.761  1.00  0.00     0.055 C 
ATOM     29  C   UNL     1       6.066   2.818   0.442  1.00  0.00    -0.032 C 
ATOM     30  N   UNL     1       3.979   2.143   1.510  1.00  0.00    -0.274 NA
ATOM     31  C   UNL     1       5.292   1.973  -0.355  1.00  0.00     0.005 A 
ATOM     32  C   UNL     1       4.496   1.248   0.688  1.00  0.00     0.066 A 
ATOM     33  C   UNL     1       3.986   2.536  -1.154  1.00  0.00     0.056 A 
ATOM     34  C   UNL     1       3.749   0.057   0.282  1.00  0.00     0.032 A 
ATOM     35  C   UNL     1       2.766   1.896  -0.940  1.00  0.00     0.119 A 
ATOM     36  C   UNL     1       2.769   0.484  -0.531  1.00  0.00     0.048 A 
BRANCH  35  37
ATOM     37  O   UNL     1       1.754   2.635  -0.338  1.00  0.00    -0.497 OA
ATOM     38  C   UNL     1       0.391   2.228  -0.216  1.00  0.00     0.278 C 
ENDBRANCH  35  37
ENDBRANCH  16  18
ENDBRANCH  13  16
ENDBRANCH   7  12
ENDBRANCH   4   7
ENDBRANCH   2   3
ENDBRANCH   1   2
BRANCH   1  39
ATOM     39  C   UNL     1       0.619   0.676   3.388  1.00  0.00     0.023 C 
BRANCH  39  40
ATOM     40  C   UNL     1       1.217   0.072   4.651  1.00  0.00     0.116 C 
BRANCH  40  41
ATOM     41  N   UNL     1       0.332  -0.924   5.237  1.00  0.00    -0.352 N 
ATOM     42  C   UNL     1       0.297  -2.285   5.049  1.00  0.00     0.251 C 
ATOM     43  H   UNL     1      -0.343  -0.570   5.860  1.00  0.00     0.163 HD
ATOM     44  O   UNL     1      -0.718  -2.908   5.348  1.00  0.00    -0.269 OA
BRANCH  42  45
ATOM     45  C   UNL     1       1.469  -2.992   4.483  1.00  0.00     0.039 A 
ATOM     46  C   UNL     1       2.764  -2.607   4.829  1.00  0.00     0.014 A 
ATOM     47  C   UNL     1       1.279  -4.086   3.635  1.00  0.00     0.014 A 
ATOM     48  C   UNL     1       3.855  -3.182   4.192  1.00  0.00     0.010 A 
ATOM     49  C   UNL     1       2.386  -4.753   3.095  1.00  0.00     0.010 A 
ATOM     50  C   UNL     1       3.686  -4.284   3.341  1.00  0.00    -0.014 A 
BRANCH  50  51
ATOM     51  C   UNL     1       4.889  -4.951   2.775  1.00  0.00     0.031 A 
ATOM     52  C   UNL     1       5.091  -5.065   1.288  1.00  0.00     0.074 A 
ATOM     53  C   UNL     1       5.829  -5.425   3.620  1.00  0.00     0.049 A 
ATOM     54  N   UNL     1       6.086  -5.612   0.638  1.00  0.00    -0.248 NA
ATOM     55  C   UNL     1       4.050  -4.499   0.414  1.00  0.00     0.031 C 
ATOM     56  C   UNL     1       5.741  -5.389   5.083  1.00  0.00     0.029 A 
ATOM     57  N   UNL     1       7.046  -6.011   3.381  1.00  0.00    -0.354 N 
ATOM     58  C   UNL     1       5.769  -5.506  -0.710  1.00  0.00     0.074 A 
ATOM     59  C   UNL     1       4.491  -4.835  -0.792  1.00  0.00     0.031 C 
ATOM     60  C   UNL     1       6.875  -5.871   5.608  1.00  0.00     0.029 A 
ATOM     61  C   UNL     1       7.738  -6.328   4.527  1.00  0.00     0.049 A 
ATOM     62  H   UNL     1       7.391  -6.188   2.476  1.00  0.00     0.167 HD
ATOM     63  C   UNL     1       6.487  -5.918  -1.781  1.00  0.00     0.034 A 
ATOM     64  C   UNL     1       8.925  -6.939   4.701  1.00  0.00     0.034 A 
ATOM     65  C   UNL     1       7.780  -6.541  -1.698  1.00  0.00     0.049 A 
ATOM     66  C   UNL     1       9.700  -7.380   3.497  1.00  0.00     0.074 A 
ATOM     67  C   UNL     1       8.600  -6.951  -2.734  1.00  0.00     0.029 A 
ATOM     68  N   UNL     1       8.441  -6.844  -0.518  1.00  0.00    -0.354 N 
ATOM     69  N   UNL     1       9.404  -7.218   2.231  1.00  0.00    -0.248 NA
ATOM     70  C   UNL     1      10.970  -8.077   3.739  1.00  0.00     0.031 C 
ATOM     71  C   UNL     1       9.751  -7.518  -2.181  1.00  0.00     0.029 A 
ATOM     72  C   UNL     1       9.658  -7.438  -0.801  1.00  0.00     0.049 A 
ATOM     73  H   UNL     1       8.096  -6.663   0.386  1.00  0.00     0.167 HD
ATOM     74  C   UNL     1      10.457  -7.779   1.522  1.00  0.00     0.074 A 
ATOM     75  C   UNL     1      11.406  -8.272   2.500  1.00  0.00     0.031 C 
ATOM     76  C   UNL     1      10.612  -7.885   0.181  1.00  0.00     0.034 A 
BRANCH  63  77
ATOM     77  C   UNL     1       5.915  -5.684  -3.153  1.00  0.00     0.023 A 
ATOM     78  C   UNL     1       5.981  -4.398  -3.723  1.00  0.00     0.012 A 
ATOM     79  C   UNL     1       5.415  -6.758  -3.916  1.00  0.00     0.148 A 
ATOM     80  C   UNL     1       5.549  -4.181  -5.031  1.00  0.00     0.002 A 
ATOM     81  C   UNL     1       5.015  -6.541  -5.229  1.00  0.00     0.091 A 
ATOM     82  F   UNL     1       5.354  -7.970  -3.347  1.00  0.00    -0.205 F 
ATOM     83  C   UNL     1       5.077  -5.253  -5.786  1.00  0.00     0.022 A 
BRANCH  81  84
ATOM     84  S   UNL     1       4.441  -7.860  -6.305  1.00  0.00     0.127 S 
ATOM     85  O   UNL     1       3.054  -7.460  -6.544  1.00  0.00    -0.237 OA
ATOM     86  O   UNL     1       5.325  -7.718  -7.461  1.00  0.00    -0.237 OA
ATOM     87  O   UNL     1       4.605  -9.096  -5.553  1.00  0.00    -0.744 OA
ENDBRANCH  81  84
ENDBRANCH  63  77
BRANCH  64  88
ATOM     88  C   UNL     1       9.445  -7.133   6.081  1.00  0.00     0.023 A 
ATOM     89  C   UNL     1      10.488  -6.311   6.548  1.00  0.00     0.012 A 
ATOM     90  C   UNL     1       8.842  -8.054   6.960  1.00  0.00     0.148 A 
ATOM     91  C   UNL     1      10.921  -6.404   7.872  1.00  0.00     0.002 A 
ATOM     92  C   UNL     1       9.250  -8.111   8.286  1.00  0.00     0.091 A 
ATOM     93  F   UNL     1       7.849  -8.820   6.487  1.00  0.00    -0.205 F 
ATOM     94  C   UNL     1      10.295  -7.293   8.742  1.00  0.00     0.022 A 
BRANCH  92  95
ATOM     95  S   UNL     1       8.436  -9.147   9.507  1.00  0.00     0.127 S 
ATOM     96  O   UNL     1       9.518 -10.047   9.901  1.00  0.00    -0.237 OA
ATOM     97  O   UNL     1       8.051  -8.165  10.520  1.00  0.00    -0.237 OA
ATOM     98  O   UNL     1       7.321  -9.777   8.815  1.00  0.00    -0.744 OA
ENDBRANCH  92  95
ENDBRANCH  64  88
BRANCH  76  99
ATOM     99  C   UNL     1      11.864  -8.535  -0.333  1.00  0.00     0.023 A 
ATOM    100  C   UNL     1      11.976  -9.938  -0.322  1.00  0.00     0.012 A 
ATOM    101  C   UNL     1      12.869  -7.758  -0.942  1.00  0.00     0.148 A 
ATOM    102  C   UNL     1      13.076 -10.561  -0.907  1.00  0.00     0.002 A 
ATOM    103  C   UNL     1      13.945  -8.387  -1.554  1.00  0.00     0.091 A 
ATOM    104  F   UNL     1      12.739  -6.424  -0.929  1.00  0.00    -0.205 F 
ATOM    105  C   UNL     1      14.053  -9.788  -1.534  1.00  0.00     0.022 A 
BRANCH 103 106
ATOM    106  S   UNL     1      15.213  -7.482  -2.447  1.00  0.00     0.127 S 
ATOM    107  O   UNL     1      16.395  -7.738  -1.624  1.00  0.00    -0.237 OA
ATOM    108  O   UNL     1      15.215  -8.155  -3.745  1.00  0.00    -0.237 OA
ATOM    109  O   UNL     1      14.774  -6.094  -2.481  1.00  0.00    -0.744 OA
ENDBRANCH 103 106
ENDBRANCH  76  99
ENDBRANCH  50  51
ENDBRANCH  42  45
ENDBRANCH  40  41
ENDBRANCH  39  40
ENDBRANCH   1  39
TORSDOF 20
