REMARK SMILES O=C(Cn1nc(C(=O)NCCCCNC(=O)c2ccc(-c3c4nc(c(-c5cccc(S(=O)(=O)[O-])c5F)c5ccc([nH]5)c(-c5cccc(S(=O)(=O)[O-])c5F)c5nc(c(-c6cccc(S(=O)(=O)[O-])c6F)c6ccc3[nH]6)C=C5)C=C4)cc2)c2ccccc2c1=O)Nc1ccc2c(c1)C(=O)c1ccccc1C2=O
REMARK SMILES IDX 11 1 10 2 9 3 7 4 8 5 6 7 4 8 5 9 86 10 85 11 87 12 80 13
REMARK SMILES IDX 84 14 81 15 83 16 82 17 3 18 2 19 1 20 88 21 89 23 90 24
REMARK SMILES IDX 94 25 91 26 93 27 92 28 95 29 103 30 96 31 97 32 102 33
REMARK SMILES IDX 104 34 98 35 101 36 99 37 100 38 12 39 13 40 14 41 15 42
REMARK SMILES IDX 16 44 17 45 18 46 79 47 19 48 78 49 20 50 21 51 22 52 72 53
REMARK SMILES IDX 23 54 77 55 71 56 73 57 24 58 76 59 70 60 69 61 25 63 57 64
REMARK SMILES IDX 37 65 56 66 38 67 41 68 55 69 74 70 39 71 40 72 54 74 75 75
REMARK SMILES IDX 42 76 26 77 27 78 35 79 28 80 30 81 36 82 29 83 31 84 32 85
REMARK SMILES IDX 33 86 34 87 58 88 59 89 67 90 60 91 62 92 68 93 61 94 63 95
REMARK SMILES IDX 64 96 65 97 66 98 43 99 44 100 52 101 45 102 47 103 53 104
REMARK SMILES IDX 46 105 48 106 49 107 50 108 51 109
REMARK H PARENT 9 6 88 22 14 43 73 62 41 73
REMARK Flexibility Score: inf
ROOT
ATOM      1  C   UNL     1       2.351  -5.313  -1.079  1.00  0.00     0.023 C 
ENDROOT
BRANCH   1   2
ATOM      2  C   UNL     1       3.853  -5.207  -0.822  1.00  0.00     0.116 C 
BRANCH   2   3
ATOM      3  N   UNL     1       4.614  -5.213  -2.057  1.00  0.00    -0.351 N 
ATOM      4  C   UNL     1       5.056  -4.191  -2.865  1.00  0.00     0.272 C 
ATOM      5  O   UNL     1       5.691  -4.506  -3.865  1.00  0.00    -0.267 OA
ATOM      6  H   UNL     1       4.858  -6.113  -2.374  1.00  0.00     0.163 HD
BRANCH   4   7
ATOM      7  C   UNL     1       4.817  -2.702  -2.514  1.00  0.00     0.156 A 
ATOM      8  N   UNL     1       3.974  -1.162  -0.996  1.00  0.00    -0.219 N 
ATOM      9  N   UNL     1       4.128  -2.446  -1.441  1.00  0.00    -0.163 NA
ATOM     10  C   UNL     1       4.629  -0.072  -1.555  1.00  0.00     0.275 A 
ATOM     11  C   UNL     1       5.328  -0.317  -2.830  1.00  0.00     0.051 A 
ATOM     12  O   UNL     1       4.630   1.053  -1.059  1.00  0.00    -0.267 OA
ATOM     13  C   UNL     1       5.401  -1.611  -3.347  1.00  0.00     0.020 A 
ATOM     14  C   UNL     1       5.882   0.771  -3.526  1.00  0.00     0.014 A 
ATOM     15  C   UNL     1       6.003  -1.791  -4.601  1.00  0.00     0.011 A 
ATOM     16  C   UNL     1       6.500   0.573  -4.758  1.00  0.00     0.001 A 
ATOM     17  C   UNL     1       6.552  -0.708  -5.298  1.00  0.00     0.001 A 
BRANCH   8  18
ATOM     18  C   UNL     1       3.191  -0.983   0.228  1.00  0.00     0.248 C 
BRANCH  18  19
ATOM     19  C   UNL     1       1.936  -0.169  -0.095  1.00  0.00     0.246 C 
ATOM     20  O   UNL     1       1.148  -0.496  -0.980  1.00  0.00    -0.273 OA
ATOM     21  N   UNL     1       1.856   1.014   0.632  1.00  0.00    -0.324 N 
ATOM     22  H   UNL     1       2.007   0.970   1.604  1.00  0.00     0.169 HD
BRANCH  21  23
ATOM     23  C   UNL     1       1.571   2.273   0.061  1.00  0.00     0.042 A 
ATOM     24  C   UNL     1       1.782   3.408   0.862  1.00  0.00     0.027 A 
ATOM     25  C   UNL     1       1.350   2.426  -1.308  1.00  0.00     0.039 A 
ATOM     26  C   UNL     1       1.943   4.667   0.277  1.00  0.00     0.015 A 
ATOM     27  C   UNL     1       1.580   3.668  -1.893  1.00  0.00     0.036 A 
ATOM     28  C   UNL     1       1.929   4.770  -1.114  1.00  0.00     0.034 A 
ATOM     29  C   UNL     1       1.713   3.745  -3.358  1.00  0.00     0.194 C 
ATOM     30  C   UNL     1       2.515   5.957  -1.772  1.00  0.00     0.194 C 
ATOM     31  O   UNL     1       1.056   3.044  -4.111  1.00  0.00    -0.289 OA
ATOM     32  C   UNL     1       2.770   4.637  -3.860  1.00  0.00     0.034 A 
ATOM     33  C   UNL     1       3.170   5.723  -3.080  1.00  0.00     0.034 A 
ATOM     34  O   UNL     1       2.567   7.043  -1.213  1.00  0.00    -0.289 OA
ATOM     35  C   UNL     1       3.444   4.317  -5.040  1.00  0.00     0.013 A 
ATOM     36  C   UNL     1       4.258   6.501  -3.476  1.00  0.00     0.013 A 
ATOM     37  C   UNL     1       4.552   5.074  -5.417  1.00  0.00     0.001 A 
ATOM     38  C   UNL     1       4.958   6.161  -4.638  1.00  0.00     0.001 A 
ENDBRANCH  21  23
ENDBRANCH  18  19
ENDBRANCH   8  18
ENDBRANCH   4   7
ENDBRANCH   2   3
ENDBRANCH   1   2
BRANCH   1  39
ATOM     39  C   UNL     1       1.893  -6.678  -1.613  1.00  0.00     0.023 C 
BRANCH  39  40
ATOM     40  C   UNL     1       2.313  -7.888  -0.780  1.00  0.00     0.116 C 
BRANCH  40  41
ATOM     41  N   UNL     1       1.904  -7.810   0.613  1.00  0.00    -0.352 N 
ATOM     42  C   UNL     1       1.683  -8.850   1.488  1.00  0.00     0.251 C 
ATOM     43  H   UNL     1       1.770  -6.904   0.975  1.00  0.00     0.163 HD
ATOM     44  O   UNL     1       1.270  -8.632   2.622  1.00  0.00    -0.269 OA
BRANCH  42  45
ATOM     45  C   UNL     1       1.900 -10.232   1.016  1.00  0.00     0.039 A 
ATOM     46  C   UNL     1       3.122 -10.603   0.450  1.00  0.00     0.014 A 
ATOM     47  C   UNL     1       0.839 -11.139   1.074  1.00  0.00     0.014 A 
ATOM     48  C   UNL     1       3.237 -11.837  -0.184  1.00  0.00     0.010 A 
ATOM     49  C   UNL     1       0.974 -12.396   0.481  1.00  0.00     0.010 A 
ATOM     50  C   UNL     1       2.156 -12.733  -0.197  1.00  0.00    -0.014 A 
BRANCH  50  51
ATOM     51  C   UNL     1       2.267 -14.006  -0.951  1.00  0.00     0.031 A 
ATOM     52  C   UNL     1       1.471 -14.219  -2.210  1.00  0.00     0.074 A 
ATOM     53  C   UNL     1       3.116 -14.958  -0.521  1.00  0.00     0.049 A 
ATOM     54  N   UNL     1       1.459 -15.255  -3.007  1.00  0.00    -0.248 NA
ATOM     55  C   UNL     1       0.573 -13.130  -2.630  1.00  0.00     0.031 C 
ATOM     56  C   UNL     1       3.932 -14.870   0.690  1.00  0.00     0.029 A 
ATOM     57  N   UNL     1       3.441 -16.176  -1.059  1.00  0.00    -0.354 N 
ATOM     58  C   UNL     1       0.529 -14.964  -3.997  1.00  0.00     0.074 A 
ATOM     59  C   UNL     1      -0.002 -13.651  -3.707  1.00  0.00     0.031 C 
ATOM     60  C   UNL     1       4.691 -15.972   0.785  1.00  0.00     0.029 A 
ATOM     61  C   UNL     1       4.392 -16.857  -0.337  1.00  0.00     0.049 A 
ATOM     62  H   UNL     1       3.033 -16.529  -1.882  1.00  0.00     0.167 HD
ATOM     63  C   UNL     1       0.167 -15.714  -5.064  1.00  0.00     0.034 A 
ATOM     64  C   UNL     1       4.963 -18.058  -0.555  1.00  0.00     0.034 A 
ATOM     65  C   UNL     1       0.736 -16.993  -5.389  1.00  0.00     0.049 A 
ATOM     66  C   UNL     1       4.568 -18.855  -1.764  1.00  0.00     0.074 A 
ATOM     67  C   UNL     1       0.450 -17.810  -6.470  1.00  0.00     0.029 A 
ATOM     68  N   UNL     1       1.713 -17.636  -4.647  1.00  0.00    -0.354 N 
ATOM     69  N   UNL     1       3.737 -18.530  -2.725  1.00  0.00    -0.248 NA
ATOM     70  C   UNL     1       5.195 -20.174  -1.929  1.00  0.00     0.031 C 
ATOM     71  C   UNL     1       1.266 -18.943  -6.388  1.00  0.00     0.029 A 
ATOM     72  C   UNL     1       2.050 -18.835  -5.250  1.00  0.00     0.049 A 
ATOM     73  H   UNL     1       2.110 -17.290  -3.815  1.00  0.00     0.167 HD
ATOM     74  C   UNL     1       3.744 -19.600  -3.610  1.00  0.00     0.074 A 
ATOM     75  C   UNL     1       4.681 -20.573  -3.086  1.00  0.00     0.031 C 
ATOM     76  C   UNL     1       3.019 -19.769  -4.742  1.00  0.00     0.034 A 
BRANCH  63  77
ATOM     77  C   UNL     1      -0.859 -15.146  -6.003  1.00  0.00     0.023 A 
ATOM     78  C   UNL     1      -0.439 -14.264  -7.017  1.00  0.00     0.012 A 
ATOM     79  C   UNL     1      -2.208 -15.542  -5.937  1.00  0.00     0.148 A 
ATOM     80  C   UNL     1      -1.351 -13.777  -7.952  1.00  0.00     0.002 A 
ATOM     81  C   UNL     1      -3.107 -15.069  -6.885  1.00  0.00     0.091 A 
ATOM     82  F   UNL     1      -2.587 -16.361  -4.946  1.00  0.00    -0.205 F 
ATOM     83  C   UNL     1      -2.681 -14.186  -7.892  1.00  0.00     0.022 A 
BRANCH  81  84
ATOM     84  S   UNL     1      -4.831 -15.575  -6.917  1.00  0.00     0.127 S 
ATOM     85  O   UNL     1      -5.498 -14.380  -6.402  1.00  0.00    -0.237 OA
ATOM     86  O   UNL     1      -5.054 -15.833  -8.340  1.00  0.00    -0.237 OA
ATOM     87  O   UNL     1      -4.914 -16.756  -6.069  1.00  0.00    -0.744 OA
ENDBRANCH  81  84
ENDBRANCH  63  77
BRANCH  64  88
ATOM     88  C   UNL     1       6.029 -18.526   0.370  1.00  0.00     0.023 A 
ATOM     89  C   UNL     1       7.372 -18.457  -0.046  1.00  0.00     0.012 A 
ATOM     90  C   UNL     1       5.731 -18.934   1.684  1.00  0.00     0.148 A 
ATOM     91  C   UNL     1       8.403 -18.785   0.834  1.00  0.00     0.002 A 
ATOM     92  C   UNL     1       6.764 -19.216   2.569  1.00  0.00     0.091 A 
ATOM     93  F   UNL     1       4.443 -19.004   2.049  1.00  0.00    -0.205 F 
ATOM     94  C   UNL     1       8.100 -19.150   2.144  1.00  0.00     0.022 A 
BRANCH  92  95
ATOM     95  S   UNL     1       6.476 -19.569   4.307  1.00  0.00     0.127 S 
ATOM     96  O   UNL     1       6.847 -20.979   4.390  1.00  0.00    -0.237 OA
ATOM     97  O   UNL     1       7.407 -18.647   4.959  1.00  0.00    -0.237 OA
ATOM     98  O   UNL     1       5.071 -19.270   4.542  1.00  0.00    -0.744 OA
ENDBRANCH  92  95
ENDBRANCH  64  88
BRANCH  76  99
ATOM     99  C   UNL     1       3.189 -21.057  -5.496  1.00  0.00     0.023 A 
ATOM    100  C   UNL     1       2.464 -22.189  -5.077  1.00  0.00     0.012 A 
ATOM    101  C   UNL     1       3.967 -21.120  -6.667  1.00  0.00     0.148 A 
ATOM    102  C   UNL     1       2.514 -23.371  -5.814  1.00  0.00     0.002 A 
ATOM    103  C   UNL     1       3.993 -22.295  -7.409  1.00  0.00     0.091 A 
ATOM    104  F   UNL     1       4.662 -20.033  -7.032  1.00  0.00    -0.205 F 
ATOM    105  C   UNL     1       3.268 -23.421  -6.984  1.00  0.00     0.022 A 
BRANCH 103 106
ATOM    106  S   UNL     1       4.886 -22.429  -8.962  1.00  0.00     0.127 S 
ATOM    107  O   UNL     1       6.053 -23.215  -8.568  1.00  0.00    -0.237 OA
ATOM    108  O   UNL     1       3.931 -23.139  -9.814  1.00  0.00    -0.237 OA
ATOM    109  O   UNL     1       5.163 -21.061  -9.381  1.00  0.00    -0.744 OA
ENDBRANCH 103 106
ENDBRANCH  76  99
ENDBRANCH  50  51
ENDBRANCH  42  45
ENDBRANCH  40  41
ENDBRANCH  39  40
ENDBRANCH   1  39
TORSDOF 17
