REMARK SMILES CC(C)c1cc(C(=O)N[C@@H](Cc2c[nH]c3ccccc23)C(=O)NCCCCNC(=O)c2ccc(-c3c4nc(c(-c5cccc(S(=O)(=O)[O-])c5F)c5ccc([nH]5)c(-c5cccc(S(=O)(=O)[O-])c5F)c5nc(c(-c6cccc(S(=O)(=O)[O-])c6F)c6ccc3[nH]6)C=C5)C=C4)cc2)n(C)n1
REMARK SMILES IDX 25 1 24 2 23 3 21 4 22 5 10 7 9 8 7 9 8 10 6 12 4 13 5 14
REMARK SMILES IDX 96 15 94 16 95 17 2 18 1 19 3 20 11 21 12 22 13 23 20 24
REMARK SMILES IDX 14 25 15 26 19 27 16 29 18 30 17 31 26 32 27 33 28 34 29 35
REMARK SMILES IDX 30 37 31 38 32 39 93 40 33 41 92 42 34 43 35 44 36 45 86 46
REMARK SMILES IDX 37 47 91 48 85 49 87 50 38 51 90 52 84 53 83 54 39 56 71 57
REMARK SMILES IDX 51 58 70 59 52 60 55 61 69 62 88 63 53 64 54 65 68 67 89 68
REMARK SMILES IDX 56 69 40 70 41 71 49 72 42 73 44 74 50 75 43 76 45 77 46 78
REMARK SMILES IDX 47 79 48 80 72 81 73 82 81 83 74 84 76 85 82 86 75 87 77 88
REMARK SMILES IDX 78 89 79 90 80 91 57 92 58 93 66 94 59 95 61 96 67 97 60 98
REMARK SMILES IDX 62 99 63 100 64 101 65 102
REMARK H PARENT 23 6 9 11 14 28 28 36 87 55 55 66
REMARK Flexibility Score: inf
ROOT
ATOM      1  C   UNL     1      -8.988  -1.090   2.668  1.00  0.00     0.023 C 
ENDROOT
BRANCH   1   2
ATOM      2  C   UNL     1      -8.550   0.063   1.780  1.00  0.00     0.116 C 
BRANCH   2   3
ATOM      3  N   UNL     1      -7.857   1.123   2.472  1.00  0.00    -0.354 N 
ATOM      4  C   UNL     1      -6.950   2.010   1.981  1.00  0.00     0.242 C 
ATOM      5  O   UNL     1      -6.856   3.097   2.566  1.00  0.00    -0.273 OA
ATOM      6  H   UNL     1      -8.068   1.216   3.429  1.00  0.00     0.163 HD
BRANCH   4   7
ATOM      7  C   UNL     1      -6.115   1.776   0.701  1.00  0.00     0.176 C 
BRANCH   7   8
ATOM      8  N   UNL     1      -5.498   0.470   0.519  1.00  0.00    -0.339 N 
ATOM      9  C   UNL     1      -4.215   0.024   0.393  1.00  0.00     0.270 C 
ATOM     10  O   UNL     1      -4.152  -1.205   0.252  1.00  0.00    -0.268 OA
ATOM     11  H   UNL     1      -6.159  -0.259   0.476  1.00  0.00     0.164 HD
BRANCH   9  12
ATOM     12  C   UNL     1      -2.994   0.813   0.440  1.00  0.00     0.126 A 
ATOM     13  C   UNL     1      -0.768   1.212   0.554  1.00  0.00     0.066 A 
ATOM     14  C   UNL     1      -1.747   0.207   0.624  1.00  0.00     0.059 A 
ATOM     15  N   UNL     1      -1.351   2.401   0.430  1.00  0.00    -0.177 NA
ATOM     16  N   UNL     1      -2.661   2.137   0.251  1.00  0.00    -0.263 N 
ATOM     17  C   UNL     1      -3.412   3.257  -0.261  1.00  0.00     0.174 C 
BRANCH  13  18
ATOM     18  C   UNL     1       0.733   1.096   0.604  1.00  0.00     0.034 C 
ATOM     19  C   UNL     1       1.233  -0.196  -0.054  1.00  0.00     0.014 C 
ATOM     20  C   UNL     1       1.431   2.289  -0.068  1.00  0.00     0.014 C 
ENDBRANCH  13  18
ENDBRANCH   9  12
ENDBRANCH   7   8
BRANCH   7  21
ATOM     21  C   UNL     1      -6.762   2.287  -0.602  1.00  0.00     0.072 C 
BRANCH  21  22
ATOM     22  C   UNL     1      -8.089   1.706  -0.984  1.00  0.00    -0.020 A 
ATOM     23  C   UNL     1      -8.342   0.455  -1.518  1.00  0.00     0.087 A 
ATOM     24  C   UNL     1      -9.352   2.377  -0.896  1.00  0.00     0.003 A 
ATOM     25  N   UNL     1      -9.700   0.310  -1.653  1.00  0.00    -0.361 N 
ATOM     26  C   UNL     1     -10.340   1.465  -1.266  1.00  0.00     0.046 A 
ATOM     27  C   UNL     1      -9.744   3.673  -0.505  1.00  0.00     0.010 A 
ATOM     28  H   UNL     1     -10.151  -0.501  -1.980  1.00  0.00     0.166 HD
ATOM     29  C   UNL     1     -11.706   1.766  -1.212  1.00  0.00     0.026 A 
ATOM     30  C   UNL     1     -11.102   4.003  -0.480  1.00  0.00     0.001 A 
ATOM     31  C   UNL     1     -12.068   3.056  -0.813  1.00  0.00     0.002 A 
ENDBRANCH  21  22
ENDBRANCH   7  21
ENDBRANCH   4   7
ENDBRANCH   2   3
ENDBRANCH   1   2
BRANCH   1  32
ATOM     32  C   UNL     1     -10.078  -0.755   3.682  1.00  0.00     0.023 C 
BRANCH  32  33
ATOM     33  C   UNL     1     -11.283   0.013   3.145  1.00  0.00     0.116 C 
BRANCH  33  34
ATOM     34  N   UNL     1     -11.916  -0.609   1.988  1.00  0.00    -0.352 N 
ATOM     35  C   UNL     1     -13.251  -0.849   1.760  1.00  0.00     0.251 C 
ATOM     36  H   UNL     1     -11.304  -0.897   1.273  1.00  0.00     0.163 HD
ATOM     37  O   UNL     1     -13.614  -1.425   0.738  1.00  0.00    -0.269 OA
BRANCH  35  38
ATOM     38  C   UNL     1     -14.234  -0.436   2.782  1.00  0.00     0.039 A 
ATOM     39  C   UNL     1     -15.109  -1.388   3.309  1.00  0.00     0.014 A 
ATOM     40  C   UNL     1     -14.224   0.870   3.276  1.00  0.00     0.014 A 
ATOM     41  C   UNL     1     -15.915  -1.050   4.399  1.00  0.00     0.010 A 
ATOM     42  C   UNL     1     -14.966   1.179   4.412  1.00  0.00     0.010 A 
ATOM     43  C   UNL     1     -15.816   0.222   4.990  1.00  0.00    -0.014 A 
BRANCH  43  44
ATOM     44  C   UNL     1     -16.578   0.564   6.220  1.00  0.00     0.031 A 
ATOM     45  C   UNL     1     -17.594   1.675   6.196  1.00  0.00     0.074 A 
ATOM     46  C   UNL     1     -16.299  -0.069   7.378  1.00  0.00     0.049 A 
ATOM     47  N   UNL     1     -18.324   2.146   7.173  1.00  0.00    -0.248 NA
ATOM     48  C   UNL     1     -17.797   2.367   4.911  1.00  0.00     0.031 C 
ATOM     49  C   UNL     1     -15.276  -1.103   7.557  1.00  0.00     0.029 A 
ATOM     50  N   UNL     1     -16.839   0.077   8.632  1.00  0.00    -0.354 N 
ATOM     51  C   UNL     1     -19.052   3.199   6.631  1.00  0.00     0.074 A 
ATOM     52  C   UNL     1     -18.640   3.331   5.251  1.00  0.00     0.031 C 
ATOM     53  C   UNL     1     -15.274  -1.507   8.838  1.00  0.00     0.029 A 
ATOM     54  C   UNL     1     -16.276  -0.749   9.579  1.00  0.00     0.049 A 
ATOM     55  H   UNL     1     -17.562   0.714   8.836  1.00  0.00     0.167 HD
ATOM     56  C   UNL     1     -20.009   3.959   7.213  1.00  0.00     0.034 A 
ATOM     57  C   UNL     1     -16.544  -0.883  10.893  1.00  0.00     0.034 A 
ATOM     58  C   UNL     1     -20.453   3.796   8.570  1.00  0.00     0.049 A 
ATOM     59  C   UNL     1     -17.643  -0.052  11.502  1.00  0.00     0.074 A 
ATOM     60  C   UNL     1     -21.458   4.477   9.235  1.00  0.00     0.029 A 
ATOM     61  N   UNL     1     -19.925   2.884   9.469  1.00  0.00    -0.354 N 
ATOM     62  N   UNL     1     -18.424   0.832  10.930  1.00  0.00    -0.248 NA
ATOM     63  C   UNL     1     -17.925  -0.267  12.930  1.00  0.00     0.031 C 
ATOM     64  C   UNL     1     -21.536   3.976  10.539  1.00  0.00     0.029 A 
ATOM     65  C   UNL     1     -20.588   2.976  10.680  1.00  0.00     0.049 A 
ATOM     66  H   UNL     1     -19.188   2.261   9.275  1.00  0.00     0.167 HD
ATOM     67  C   UNL     1     -19.316   1.245  11.914  1.00  0.00     0.074 A 
ATOM     68  C   UNL     1     -18.992   0.498  13.112  1.00  0.00     0.031 C 
ATOM     69  C   UNL     1     -20.300   2.174  11.841  1.00  0.00     0.034 A 
BRANCH  56  70
ATOM     70  C   UNL     1     -20.704   4.982   6.352  1.00  0.00     0.023 A 
ATOM     71  C   UNL     1     -21.609   4.543   5.364  1.00  0.00     0.012 A 
ATOM     72  C   UNL     1     -20.515   6.363   6.553  1.00  0.00     0.148 A 
ATOM     73  C   UNL     1     -22.292   5.459   4.566  1.00  0.00     0.002 A 
ATOM     74  C   UNL     1     -21.232   7.272   5.781  1.00  0.00     0.091 A 
ATOM     75  F   UNL     1     -19.636   6.761   7.484  1.00  0.00    -0.205 F 
ATOM     76  C   UNL     1     -22.111   6.822   4.782  1.00  0.00     0.022 A 
BRANCH  74  77
ATOM     77  S   UNL     1     -21.129   9.049   6.026  1.00  0.00     0.127 S 
ATOM     78  O   UNL     1     -20.438   9.474   4.809  1.00  0.00    -0.237 OA
ATOM     79  O   UNL     1     -22.540   9.431   6.091  1.00  0.00    -0.237 OA
ATOM     80  O   UNL     1     -20.388   9.242   7.264  1.00  0.00    -0.744 OA
ENDBRANCH  74  77
ENDBRANCH  56  70
BRANCH  57  81
ATOM     81  C   UNL     1     -15.826  -1.903  11.711  1.00  0.00     0.023 A 
ATOM     82  C   UNL     1     -16.534  -3.028  12.181  1.00  0.00     0.012 A 
ATOM     83  C   UNL     1     -14.461  -1.772  12.031  1.00  0.00     0.148 A 
ATOM     84  C   UNL     1     -15.909  -3.978  12.989  1.00  0.00     0.002 A 
ATOM     85  C   UNL     1     -13.831  -2.752  12.791  1.00  0.00     0.091 A 
ATOM     86  F   UNL     1     -13.805  -0.689  11.591  1.00  0.00    -0.205 F 
ATOM     87  C   UNL     1     -14.556  -3.845  13.287  1.00  0.00     0.022 A 
BRANCH  85  88
ATOM     88  S   UNL     1     -12.063  -2.718  13.109  1.00  0.00     0.127 S 
ATOM     89  O   UNL     1     -12.013  -2.217  14.479  1.00  0.00    -0.237 OA
ATOM     90  O   UNL     1     -11.694  -4.126  12.953  1.00  0.00    -0.237 OA
ATOM     91  O   UNL     1     -11.507  -1.843  12.085  1.00  0.00    -0.744 OA
ENDBRANCH  85  88
ENDBRANCH  57  81
BRANCH  69  92
ATOM     92  C   UNL     1     -21.134   2.406  13.073  1.00  0.00     0.023 A 
ATOM     93  C   UNL     1     -20.580   3.093  14.171  1.00  0.00     0.012 A 
ATOM     94  C   UNL     1     -22.483   2.004  13.115  1.00  0.00     0.148 A 
ATOM     95  C   UNL     1     -21.348   3.347  15.307  1.00  0.00     0.002 A 
ATOM     96  C   UNL     1     -23.255   2.302  14.232  1.00  0.00     0.091 A 
ATOM     97  F   UNL     1     -22.986   1.334  12.068  1.00  0.00    -0.205 F 
ATOM     98  C   UNL     1     -22.686   2.962  15.333  1.00  0.00     0.022 A 
BRANCH  96  99
ATOM     99  S   UNL     1     -25.010   1.928  14.311  1.00  0.00     0.127 S 
ATOM    100  O   UNL     1     -25.028   0.764  15.195  1.00  0.00    -0.237 OA
ATOM    101  O   UNL     1     -25.564   3.149  14.898  1.00  0.00    -0.237 OA
ATOM    102  O   UNL     1     -25.427   1.680  12.937  1.00  0.00    -0.744 OA
ENDBRANCH  96  99
ENDBRANCH  69  92
ENDBRANCH  43  44
ENDBRANCH  35  38
ENDBRANCH  33  34
ENDBRANCH  32  33
ENDBRANCH   1  32
TORSDOF 19
