REMARK SMILES Cc1ccc(C(=O)N2C[C@H](C(=O)NCCCCNC(=O)c3ccc(-c4c5nc(c(-c6cccc(S(=O)(=O)[O-])c6F)c6ccc([nH]6)c(-c6cccc(S(=O)(=O)[O-])c6F)c6nc(c(-c7cccc(S(=O)(=O)[O-])c7F)c7ccc4[nH]7)C=C6)C=C5)cc3)Oc3ccccc32)o1
REMARK SMILES IDX 16 1 15 2 14 3 13 4 11 5 12 6 10 8 8 9 9 10 90 11 85 12
REMARK SMILES IDX 89 13 84 14 86 15 88 16 87 17 6 18 7 19 5 20 1 21 2 22 3 23
REMARK SMILES IDX 91 24 4 25 17 26 18 27 19 28 20 30 21 31 22 32 83 33 23 34
REMARK SMILES IDX 82 35 24 36 25 37 26 38 76 39 27 40 81 41 75 42 77 43 28 44
REMARK SMILES IDX 80 45 74 46 73 47 29 49 61 50 41 51 60 52 42 53 45 54 59 55
REMARK SMILES IDX 78 56 43 57 44 58 58 60 79 61 46 62 30 63 31 64 39 65 32 66
REMARK SMILES IDX 34 67 40 68 33 69 35 70 36 71 37 72 38 73 62 74 63 75 71 76
REMARK SMILES IDX 64 77 66 78 72 79 65 80 67 81 68 82 69 83 70 84 47 85 48 86
REMARK SMILES IDX 56 87 49 88 51 89 57 90 50 91 52 92 53 93 54 94 55 95
REMARK H PARENT 13 7 18 29 77 48 45 59
REMARK Flexibility Score: inf
ROOT
ATOM      1  C   UNL     1      -5.771  -3.959   2.298  1.00  0.00     0.023 C 
ENDROOT
BRANCH   1   2
ATOM      2  C   UNL     1      -5.491  -2.815   1.321  1.00  0.00     0.023 C 
BRANCH   2   3
ATOM      3  C   UNL     1      -6.518  -1.683   1.344  1.00  0.00     0.116 C 
BRANCH   3   4
ATOM      4  N   UNL     1      -6.401  -0.877   2.549  1.00  0.00    -0.353 N 
ATOM      5  C   UNL     1      -5.973   0.412   2.708  1.00  0.00     0.262 C 
ATOM      6  O   UNL     1      -5.935   0.870   3.854  1.00  0.00    -0.271 OA
ATOM      7  H   UNL     1      -6.671  -1.331   3.380  1.00  0.00     0.163 HD
BRANCH   5   8
ATOM      8  C   UNL     1      -5.496   1.250   1.517  1.00  0.00     0.281 C 
ATOM      9  N   UNL     1      -3.685   1.443  -0.157  1.00  0.00    -0.298 N 
ATOM     10  C   UNL     1      -4.144   0.736   1.039  1.00  0.00     0.181 C 
ATOM     11  C   UNL     1      -4.711   1.820  -1.077  1.00  0.00     0.087 A 
ATOM     12  C   UNL     1      -6.061   1.658  -0.725  1.00  0.00     0.144 A 
ATOM     13  C   UNL     1      -4.415   2.245  -2.380  1.00  0.00     0.030 A 
ATOM     14  O   UNL     1      -6.498   1.232   0.502  1.00  0.00    -0.477 OA
ATOM     15  C   UNL     1      -7.078   1.888  -1.657  1.00  0.00     0.049 A 
ATOM     16  C   UNL     1      -5.433   2.479  -3.309  1.00  0.00     0.002 A 
ATOM     17  C   UNL     1      -6.764   2.295  -2.950  1.00  0.00     0.004 A 
BRANCH   9  18
ATOM     18  C   UNL     1      -2.331   1.711  -0.386  1.00  0.00     0.294 C 
ATOM     19  O   UNL     1      -1.966   2.789  -0.881  1.00  0.00    -0.265 OA
BRANCH  18  20
ATOM     20  C   UNL     1      -1.374   0.655  -0.087  1.00  0.00     0.192 A 
ATOM     21  C   UNL     1       2.140   0.006   0.184  1.00  0.00     0.087 C 
ATOM     22  C   UNL     1       0.673  -0.146   0.144  1.00  0.00     0.101 A 
ATOM     23  C   UNL     1      -0.171  -1.231   0.211  1.00  0.00     0.046 A 
ATOM     24  O   UNL     1      -0.046   0.996  -0.024  1.00  0.00    -0.456 OA
ATOM     25  C   UNL     1      -1.482  -0.721   0.050  1.00  0.00     0.056 A 
ENDBRANCH  18  20
ENDBRANCH   9  18
ENDBRANCH   5   8
ENDBRANCH   3   4
ENDBRANCH   2   3
ENDBRANCH   1   2
BRANCH   1  26
ATOM     26  C   UNL     1      -7.111  -4.665   2.112  1.00  0.00     0.116 C 
BRANCH  26  27
ATOM     27  N   UNL     1      -7.295  -5.197   0.772  1.00  0.00    -0.352 N 
ATOM     28  C   UNL     1      -7.942  -6.342   0.376  1.00  0.00     0.251 C 
ATOM     29  H   UNL     1      -6.901  -4.662   0.046  1.00  0.00     0.163 HD
ATOM     30  O   UNL     1      -7.892  -6.685  -0.803  1.00  0.00    -0.269 OA
BRANCH  28  31
ATOM     31  C   UNL     1      -8.670  -7.174   1.361  1.00  0.00     0.039 A 
ATOM     32  C   UNL     1      -8.542  -8.565   1.286  1.00  0.00     0.014 A 
ATOM     33  C   UNL     1      -9.495  -6.601   2.333  1.00  0.00     0.014 A 
ATOM     34  C   UNL     1      -9.206  -9.376   2.209  1.00  0.00     0.010 A 
ATOM     35  C   UNL     1     -10.107  -7.407   3.290  1.00  0.00     0.010 A 
ATOM     36  C   UNL     1      -9.982  -8.802   3.228  1.00  0.00    -0.014 A 
BRANCH  36  37
ATOM     37  C   UNL     1     -10.691  -9.647   4.220  1.00  0.00     0.031 A 
ATOM     38  C   UNL     1     -12.195  -9.689   4.236  1.00  0.00     0.074 A 
ATOM     39  C   UNL     1      -9.986 -10.319   5.151  1.00  0.00     0.049 A 
ATOM     40  N   UNL     1     -12.992 -10.342   5.041  1.00  0.00    -0.248 NA
ATOM     41  C   UNL     1     -12.896  -8.867   3.235  1.00  0.00     0.031 C 
ATOM     42  C   UNL     1      -8.529 -10.290   5.293  1.00  0.00     0.029 A 
ATOM     43  N   UNL     1     -10.403 -11.141   6.167  1.00  0.00    -0.354 N 
ATOM     44  C   UNL     1     -14.283  -9.983   4.670  1.00  0.00     0.074 A 
ATOM     45  C   UNL     1     -14.163  -9.032   3.587  1.00  0.00     0.031 C 
ATOM     46  C   UNL     1      -8.174 -11.064   6.333  1.00  0.00     0.029 A 
ATOM     47  C   UNL     1      -9.375 -11.637   6.934  1.00  0.00     0.049 A 
ATOM     48  H   UNL     1     -11.350 -11.356   6.332  1.00  0.00     0.167 HD
ATOM     49  C   UNL     1     -15.462 -10.432   5.161  1.00  0.00     0.034 A 
ATOM     50  C   UNL     1      -9.399 -12.473   7.990  1.00  0.00     0.034 A 
ATOM     51  C   UNL     1     -15.580 -11.429   6.189  1.00  0.00     0.049 A 
ATOM     52  C   UNL     1     -10.717 -13.038   8.446  1.00  0.00     0.074 A 
ATOM     53  C   UNL     1     -16.727 -12.004   6.707  1.00  0.00     0.029 A 
ATOM     54  N   UNL     1     -14.508 -12.012   6.847  1.00  0.00    -0.354 N 
ATOM     55  N   UNL     1     -11.919 -12.806   7.976  1.00  0.00    -0.248 NA
ATOM     56  C   UNL     1     -10.680 -14.017   9.542  1.00  0.00     0.031 C 
ATOM     57  C   UNL     1     -16.347 -12.946   7.669  1.00  0.00     0.029 A 
ATOM     58  C   UNL     1     -14.964 -12.954   7.752  1.00  0.00     0.049 A 
ATOM     59  H   UNL     1     -13.562 -11.789   6.692  1.00  0.00     0.167 HD
ATOM     60  C   UNL     1     -12.774 -13.638   8.689  1.00  0.00     0.074 A 
ATOM     61  C   UNL     1     -11.950 -14.393   9.612  1.00  0.00     0.031 C 
ATOM     62  C   UNL     1     -14.122 -13.753   8.603  1.00  0.00     0.034 A 
BRANCH  49  63
ATOM     63  C   UNL     1     -16.722  -9.906   4.528  1.00  0.00     0.023 A 
ATOM     64  C   UNL     1     -17.095 -10.378   3.253  1.00  0.00     0.012 A 
ATOM     65  C   UNL     1     -17.555  -8.990   5.198  1.00  0.00     0.148 A 
ATOM     66  C   UNL     1     -18.262  -9.925   2.641  1.00  0.00     0.002 A 
ATOM     67  C   UNL     1     -18.736  -8.570   4.596  1.00  0.00     0.091 A 
ATOM     68  F   UNL     1     -17.171  -8.530   6.397  1.00  0.00    -0.205 F 
ATOM     69  C   UNL     1     -19.087  -9.029   3.316  1.00  0.00     0.022 A 
BRANCH  67  70
ATOM     70  S   UNL     1     -19.892  -7.468   5.420  1.00  0.00     0.127 S 
ATOM     71  O   UNL     1     -19.580  -6.187   4.791  1.00  0.00    -0.237 OA
ATOM     72  O   UNL     1     -21.189  -8.033   5.043  1.00  0.00    -0.237 OA
ATOM     73  O   UNL     1     -19.585  -7.569   6.841  1.00  0.00    -0.744 OA
ENDBRANCH  67  70
ENDBRANCH  49  63
BRANCH  50  74
ATOM     74  C   UNL     1      -8.119 -12.921   8.607  1.00  0.00     0.023 A 
ATOM     75  C   UNL     1      -7.672 -14.236   8.372  1.00  0.00     0.012 A 
ATOM     76  C   UNL     1      -7.326 -12.055   9.383  1.00  0.00     0.148 A 
ATOM     77  C   UNL     1      -6.472 -14.689   8.921  1.00  0.00     0.002 A 
ATOM     78  C   UNL     1      -6.107 -12.498   9.887  1.00  0.00     0.091 A 
ATOM     79  F   UNL     1      -7.774 -10.812   9.611  1.00  0.00    -0.205 F 
ATOM     80  C   UNL     1      -5.685 -13.818   9.669  1.00  0.00     0.022 A 
BRANCH  78  81
ATOM     81  S   UNL     1      -4.982 -11.392  10.747  1.00  0.00     0.127 S 
ATOM     82  O   UNL     1      -5.274 -11.693  12.145  1.00  0.00    -0.237 OA
ATOM     83  O   UNL     1      -3.673 -11.851  10.278  1.00  0.00    -0.237 OA
ATOM     84  O   UNL     1      -5.340 -10.056  10.287  1.00  0.00    -0.744 OA
ENDBRANCH  78  81
ENDBRANCH  50  74
BRANCH  62  85
ATOM     85  C   UNL     1     -14.796 -14.756   9.498  1.00  0.00     0.023 A 
ATOM     86  C   UNL     1     -14.977 -14.457  10.863  1.00  0.00     0.012 A 
ATOM     87  C   UNL     1     -15.319 -15.954   8.976  1.00  0.00     0.148 A 
ATOM     88  C   UNL     1     -15.649 -15.347  11.699  1.00  0.00     0.002 A 
ATOM     89  C   UNL     1     -16.021 -16.820   9.809  1.00  0.00     0.091 A 
ATOM     90  F   UNL     1     -15.116 -16.236   7.681  1.00  0.00    -0.205 F 
ATOM     91  C   UNL     1     -16.181 -16.521  11.171  1.00  0.00     0.022 A 
BRANCH  89  92
ATOM     92  S   UNL     1     -16.802 -18.306   9.169  1.00  0.00     0.127 S 
ATOM     93  O   UNL     1     -15.766 -19.311   9.392  1.00  0.00    -0.237 OA
ATOM     94  O   UNL     1     -17.981 -18.445  10.026  1.00  0.00    -0.237 OA
ATOM     95  O   UNL     1     -17.112 -18.007   7.777  1.00  0.00    -0.744 OA
ENDBRANCH  89  92
ENDBRANCH  62  85
ENDBRANCH  36  37
ENDBRANCH  28  31
ENDBRANCH  26  27
ENDBRANCH   1  26
TORSDOF 16
