REMARK SMILES O=C(NCCCCNC(=O)c1ccc(Cn2cc(Br)cc([N+](=O)[O-])c2=O)nc1)c1ccc(-c2c3nc(c(-c4cccc(S(=O)(=O)[O-])c4F)c4ccc([nH]4)c(-c4cccc(S(=O)(=O)[O-])c4F)c4nc(c(-c5cccc(S(=O)(=O)[O-])c5F)c5ccc2[nH]5)C=C4)C=C3)cc1
REMARK SMILES IDX 5 1 4 2 3 3 1 4 2 5 29 7 30 8 91 9 31 10 90 11 32 12 33 13
REMARK SMILES IDX 34 14 84 15 35 16 89 17 83 18 85 19 36 20 88 21 82 22 81 23
REMARK SMILES IDX 37 25 69 26 49 27 68 28 50 29 53 30 67 31 86 32 51 33 52 34
REMARK SMILES IDX 66 36 87 37 54 38 38 39 39 40 47 41 40 42 42 43 48 44 41 45
REMARK SMILES IDX 43 46 44 47 45 48 46 49 70 50 71 51 79 52 72 53 74 54 80 55
REMARK SMILES IDX 73 56 75 57 76 58 77 59 78 60 55 61 56 62 64 63 57 64 59 65
REMARK SMILES IDX 65 66 58 67 60 68 61 69 62 70 63 71 6 72 7 73 8 74 9 75
REMARK SMILES IDX 10 77 11 78 12 79 28 80 13 81 27 82 14 83 15 84 16 85 17 86
REMARK SMILES IDX 25 87 18 88 21 89 26 90 19 91 20 92 22 93 23 94 24 95
REMARK H PARENT 3 6 85 24 53 35 8 76
REMARK Flexibility Score: inf
ROOT
ATOM      1  C   UNL     1       5.005  -0.691  -2.554  1.00  0.00     0.023 C 
ENDROOT
BRANCH   1   2
ATOM      2  C   UNL     1       4.637   0.035  -1.267  1.00  0.00     0.116 C 
BRANCH   2   3
ATOM      3  N   UNL     1       3.202   0.204  -1.099  1.00  0.00    -0.352 N 
ATOM      4  O   UNL     1       1.194   0.007  -0.104  1.00  0.00    -0.269 OA
ATOM      5  C   UNL     1       2.415  -0.082  -0.009  1.00  0.00     0.251 C 
ATOM      6  H   UNL     1       2.727   0.575  -1.877  1.00  0.00     0.163 HD
BRANCH   5   7
ATOM      7  C   UNL     1       3.034  -0.514   1.264  1.00  0.00     0.039 A 
ATOM      8  C   UNL     1       2.445  -1.560   1.980  1.00  0.00     0.014 A 
ATOM      9  C   UNL     1       4.179   0.114   1.762  1.00  0.00     0.014 A 
ATOM     10  C   UNL     1       3.025  -1.996   3.174  1.00  0.00     0.010 A 
ATOM     11  C   UNL     1       4.806  -0.383   2.900  1.00  0.00     0.010 A 
ATOM     12  C   UNL     1       4.220  -1.422   3.636  1.00  0.00    -0.014 A 
BRANCH  12  13
ATOM     13  C   UNL     1       4.834  -1.849   4.920  1.00  0.00     0.031 A 
ATOM     14  C   UNL     1       4.979  -0.856   6.045  1.00  0.00     0.074 A 
ATOM     15  C   UNL     1       5.301  -3.105   5.067  1.00  0.00     0.049 A 
ATOM     16  N   UNL     1       5.540  -1.016   7.215  1.00  0.00    -0.248 NA
ATOM     17  C   UNL     1       4.449   0.502   5.821  1.00  0.00     0.031 C 
ATOM     18  C   UNL     1       5.284  -4.142   4.034  1.00  0.00     0.029 A 
ATOM     19  N   UNL     1       5.894  -3.718   6.143  1.00  0.00    -0.354 N 
ATOM     20  C   UNL     1       5.463   0.220   7.844  1.00  0.00     0.074 A 
ATOM     21  C   UNL     1       4.835   1.134   6.919  1.00  0.00     0.031 C 
ATOM     22  C   UNL     1       5.827  -5.266   4.530  1.00  0.00     0.029 A 
ATOM     23  C   UNL     1       6.255  -5.024   5.906  1.00  0.00     0.049 A 
ATOM     24  H   UNL     1       6.048  -3.266   7.004  1.00  0.00     0.167 HD
ATOM     25  C   UNL     1       5.840   0.556   9.098  1.00  0.00     0.034 A 
ATOM     26  C   UNL     1       6.864  -5.925   6.702  1.00  0.00     0.034 A 
ATOM     27  C   UNL     1       6.386  -0.367  10.050  1.00  0.00     0.049 A 
ATOM     28  C   UNL     1       7.224  -5.543   8.111  1.00  0.00     0.074 A 
ATOM     29  C   UNL     1       6.718  -0.133  11.372  1.00  0.00     0.029 A 
ATOM     30  N   UNL     1       6.663  -1.698   9.791  1.00  0.00    -0.354 N 
ATOM     31  N   UNL     1       7.042  -4.397   8.720  1.00  0.00    -0.248 NA
ATOM     32  C   UNL     1       7.847  -6.577   8.951  1.00  0.00     0.031 C 
ATOM     33  C   UNL     1       7.200  -1.325  11.915  1.00  0.00     0.029 A 
ATOM     34  C   UNL     1       7.158  -2.301  10.932  1.00  0.00     0.049 A 
ATOM     35  H   UNL     1       6.529  -2.147   8.926  1.00  0.00     0.167 HD
ATOM     36  C   UNL     1       7.507  -4.577  10.017  1.00  0.00     0.074 A 
ATOM     37  C   UNL     1       7.967  -5.946  10.114  1.00  0.00     0.031 C 
ATOM     38  C   UNL     1       7.559  -3.679  11.030  1.00  0.00     0.034 A 
BRANCH  25  39
ATOM     39  C   UNL     1       5.592   1.963   9.562  1.00  0.00     0.023 A 
ATOM     40  C   UNL     1       4.289   2.332   9.951  1.00  0.00     0.012 A 
ATOM     41  C   UNL     1       6.655   2.870   9.731  1.00  0.00     0.148 A 
ATOM     42  C   UNL     1       4.046   3.589  10.500  1.00  0.00     0.002 A 
ATOM     43  C   UNL     1       6.410   4.110  10.308  1.00  0.00     0.091 A 
ATOM     44  F   UNL     1       7.882   2.495   9.343  1.00  0.00    -0.205 F 
ATOM     45  C   UNL     1       5.106   4.471  10.690  1.00  0.00     0.022 A 
BRANCH  43  46
ATOM     46  S   UNL     1       7.708   5.302  10.648  1.00  0.00     0.127 S 
ATOM     47  O   UNL     1       7.288   6.438   9.827  1.00  0.00    -0.237 OA
ATOM     48  O   UNL     1       7.566   5.505  12.089  1.00  0.00    -0.237 OA
ATOM     49  O   UNL     1       8.955   4.674  10.233  1.00  0.00    -0.744 OA
ENDBRANCH  43  46
ENDBRANCH  25  39
BRANCH  26  50
ATOM     50  C   UNL     1       7.113  -7.300   6.190  1.00  0.00     0.023 A 
ATOM     51  C   UNL     1       6.290  -8.358   6.623  1.00  0.00     0.012 A 
ATOM     52  C   UNL     1       8.110  -7.549   5.228  1.00  0.00     0.148 A 
ATOM     53  C   UNL     1       6.463  -9.645   6.111  1.00  0.00     0.002 A 
ATOM     54  C   UNL     1       8.250  -8.824   4.693  1.00  0.00     0.091 A 
ATOM     55  F   UNL     1       8.881  -6.525   4.837  1.00  0.00    -0.205 F 
ATOM     56  C   UNL     1       7.434  -9.876   5.141  1.00  0.00     0.022 A 
BRANCH  54  57
ATOM     57  S   UNL     1       9.401  -9.198   3.366  1.00  0.00     0.127 S 
ATOM     58  O   UNL     1      10.316 -10.132   4.018  1.00  0.00    -0.237 OA
ATOM     59  O   UNL     1       8.517  -9.797   2.366  1.00  0.00    -0.237 OA
ATOM     60  O   UNL     1       9.983  -7.922   2.974  1.00  0.00    -0.744 OA
ENDBRANCH  54  57
ENDBRANCH  26  50
BRANCH  38  61
ATOM     61  C   UNL     1       8.116  -4.120  12.354  1.00  0.00     0.023 A 
ATOM     62  C   UNL     1       9.511  -4.157  12.533  1.00  0.00     0.012 A 
ATOM     63  C   UNL     1       7.262  -4.315  13.457  1.00  0.00     0.148 A 
ATOM     64  C   UNL     1      10.052  -4.380  13.798  1.00  0.00     0.002 A 
ATOM     65  C   UNL     1       7.808  -4.503  14.720  1.00  0.00     0.091 A 
ATOM     66  F   UNL     1       5.938  -4.271  13.254  1.00  0.00    -0.205 F 
ATOM     67  C   UNL     1       9.203  -4.538  14.892  1.00  0.00     0.022 A 
BRANCH  65  68
ATOM     68  S   UNL     1       6.802  -4.634  16.203  1.00  0.00     0.127 S 
ATOM     69  O   UNL     1       7.108  -5.993  16.649  1.00  0.00    -0.237 OA
ATOM     70  O   UNL     1       7.357  -3.575  17.045  1.00  0.00    -0.237 OA
ATOM     71  O   UNL     1       5.425  -4.421  15.779  1.00  0.00    -0.744 OA
ENDBRANCH  65  68
ENDBRANCH  38  61
ENDBRANCH  12  13
ENDBRANCH   5   7
ENDBRANCH   2   3
ENDBRANCH   1   2
BRANCH   1  72
ATOM     72  C   UNL     1       4.524  -0.025  -3.841  1.00  0.00     0.023 C 
BRANCH  72  73
ATOM     73  C   UNL     1       4.872   1.455  -3.974  1.00  0.00     0.116 C 
BRANCH  73  74
ATOM     74  N   UNL     1       6.305   1.698  -3.987  1.00  0.00    -0.352 N 
ATOM     75  C   UNL     1       7.085   2.206  -4.995  1.00  0.00     0.252 C 
ATOM     76  H   UNL     1       6.782   1.467  -3.157  1.00  0.00     0.163 HD
ATOM     77  O   UNL     1       8.307   2.233  -4.902  1.00  0.00    -0.269 OA
BRANCH  75  78
ATOM     78  C   UNL     1       6.444   2.696  -6.219  1.00  0.00     0.058 A 
ATOM     79  C   UNL     1       5.479   3.703  -6.208  1.00  0.00     0.017 A 
ATOM     80  C   UNL     1       6.783   2.114  -7.423  1.00  0.00     0.125 A 
ATOM     81  C   UNL     1       4.820   4.025  -7.394  1.00  0.00     0.026 A 
ATOM     82  N   UNL     1       6.158   2.415  -8.584  1.00  0.00    -0.259 NA
ATOM     83  C   UNL     1       5.164   3.340  -8.559  1.00  0.00     0.060 A 
BRANCH  83  84
ATOM     84  C   UNL     1       4.433   3.587  -9.864  1.00  0.00     0.181 C 
BRANCH  84  85
ATOM     85  N   UNL     1       5.268   4.309 -10.826  1.00  0.00    -0.303 N 
ATOM     86  C   UNL     1       5.103   5.678 -10.995  1.00  0.00     0.105 A 
ATOM     87  C   UNL     1       6.212   3.570 -11.567  1.00  0.00     0.329 A 
ATOM     88  C   UNL     1       5.892   6.383 -11.821  1.00  0.00     0.041 A 
ATOM     89  C   UNL     1       7.189   4.408 -12.301  1.00  0.00     0.335 A 
ATOM     90  O   UNL     1       6.187   2.349 -11.667  1.00  0.00    -0.261 OA
ATOM     91  Br  UNL     1       5.630   8.198 -12.142  1.00  0.00    -0.049 Br
ATOM     92  C   UNL     1       7.017   5.732 -12.453  1.00  0.00     0.109 A 
BRANCH  89  93
ATOM     93  N   UNL     1       8.370   3.805 -12.864  1.00  0.00     0.068 N 
ATOM     94  O   UNL     1       8.918   2.895 -12.233  1.00  0.00    -0.258 OA
ATOM     95  O   UNL     1       8.806   4.288 -13.922  1.00  0.00    -0.258 OA
ENDBRANCH  89  93
ENDBRANCH  84  85
ENDBRANCH  83  84
ENDBRANCH  75  78
ENDBRANCH  73  74
ENDBRANCH  72  73
ENDBRANCH   1  72
TORSDOF 17
