REMARK SMILES O=C(NCCCCNC(=O)c1ccc(O)c(Br)n1)c1ccc(-c2c3nc(c(-c4cccc(S(=O)(=O)[O-])c4F)c4ccc([nH]4)c(-c4cccc(S(=O)(=O)[O-])c4F)c4nc(c(-c5cccc(S(=O)(=O)[O-])c5F)c5ccc2[nH]5)C=C4)C=C3)cc1
REMARK SMILES IDX 4 1 3 2 1 3 2 4 19 6 20 7 81 8 21 9 80 10 22 11 23 12 24 13
REMARK SMILES IDX 74 14 25 15 79 16 73 17 75 18 26 19 78 20 72 21 71 22 27 24
REMARK SMILES IDX 59 25 39 26 58 27 40 28 43 29 57 30 76 31 41 32 42 33 56 35
REMARK SMILES IDX 77 36 44 37 28 38 29 39 37 40 30 41 32 42 38 43 31 44 33 45
REMARK SMILES IDX 34 46 35 47 36 48 60 49 61 50 69 51 62 52 64 53 70 54 63 55
REMARK SMILES IDX 65 56 66 57 67 58 68 59 45 60 46 61 54 62 47 63 49 64 55 65
REMARK SMILES IDX 48 66 50 67 51 68 52 69 53 70 5 71 6 72 7 73 8 74 9 75 10 77
REMARK SMILES IDX 11 78 12 79 18 80 13 81 16 82 14 83 17 84 15 85
REMARK H PARENT 3 5 75 23 43 34 8 76 15 86
REMARK Flexibility Score: inf
ROOT
ATOM      1  C   UNL     1       4.539  -0.143  -1.121  1.00  0.00     0.116 C 
ENDROOT
BRANCH   1   2
ATOM      2  N   UNL     1       3.094   0.001  -1.041  1.00  0.00    -0.352 N 
ATOM      3  O   UNL     1       1.076   0.047  -0.037  1.00  0.00    -0.269 OA
ATOM      4  C   UNL     1       2.297   0.107   0.073  1.00  0.00     0.251 C 
ATOM      5  H   UNL     1       2.622   0.026  -1.905  1.00  0.00     0.163 HD
BRANCH   4   6
ATOM      6  C   UNL     1       2.924   0.270   1.401  1.00  0.00     0.039 A 
ATOM      7  C   UNL     1       3.910   1.241   1.604  1.00  0.00     0.014 A 
ATOM      8  C   UNL     1       2.528  -0.565   2.448  1.00  0.00     0.014 A 
ATOM      9  C   UNL     1       4.585   1.295   2.820  1.00  0.00     0.010 A 
ATOM     10  C   UNL     1       3.171  -0.474   3.685  1.00  0.00     0.010 A 
ATOM     11  C   UNL     1       4.227   0.432   3.868  1.00  0.00    -0.014 A 
BRANCH  11  12
ATOM     12  C   UNL     1       4.948   0.511   5.161  1.00  0.00     0.031 A 
ATOM     13  C   UNL     1       5.865  -0.596   5.601  1.00  0.00     0.074 A 
ATOM     14  C   UNL     1       4.779   1.597   5.938  1.00  0.00     0.049 A 
ATOM     15  N   UNL     1       6.601  -0.668   6.680  1.00  0.00    -0.248 NA
ATOM     16  C   UNL     1       5.976  -1.771   4.721  1.00  0.00     0.031 C 
ATOM     17  C   UNL     1       3.896   2.723   5.628  1.00  0.00     0.029 A 
ATOM     18  N   UNL     1       5.335   1.930   7.147  1.00  0.00    -0.354 N 
ATOM     19  C   UNL     1       7.244  -1.897   6.623  1.00  0.00     0.074 A 
ATOM     20  C   UNL     1       6.807  -2.547   5.406  1.00  0.00     0.031 C 
ATOM     21  C   UNL     1       3.975   3.626   6.616  1.00  0.00     0.029 A 
ATOM     22  C   UNL     1       4.889   3.132   7.642  1.00  0.00     0.049 A 
ATOM     23  H   UNL     1       5.990   1.363   7.614  1.00  0.00     0.167 HD
ATOM     24  C   UNL     1       8.132  -2.426   7.497  1.00  0.00     0.034 A 
ATOM     25  C   UNL     1       5.175   3.765   8.796  1.00  0.00     0.034 A 
ATOM     26  C   UNL     1       8.585  -1.768   8.692  1.00  0.00     0.049 A 
ATOM     27  C   UNL     1       6.157   3.151   9.752  1.00  0.00     0.074 A 
ATOM     28  C   UNL     1       9.530  -2.207   9.603  1.00  0.00     0.029 A 
ATOM     29  N   UNL     1       8.123  -0.546   9.150  1.00  0.00    -0.354 N 
ATOM     30  N   UNL     1       6.838   2.040   9.624  1.00  0.00    -0.248 NA
ATOM     31  C   UNL     1       6.429   3.886  10.996  1.00  0.00     0.031 C 
ATOM     32  C   UNL     1       9.623  -1.260  10.626  1.00  0.00     0.029 A 
ATOM     33  C   UNL     1       8.753  -0.220  10.338  1.00  0.00     0.049 A 
ATOM     34  H   UNL     1       7.447   0.009   8.698  1.00  0.00     0.167 HD
ATOM     35  C   UNL     1       7.635   1.949  10.759  1.00  0.00     0.074 A 
ATOM     36  C   UNL     1       7.361   3.126  11.559  1.00  0.00     0.031 C 
ATOM     37  C   UNL     1       8.505   0.972  11.107  1.00  0.00     0.034 A 
BRANCH  24  38
ATOM     38  C   UNL     1       8.725  -3.772   7.183  1.00  0.00     0.023 A 
ATOM     39  C   UNL     1       9.768  -3.861   6.240  1.00  0.00     0.012 A 
ATOM     40  C   UNL     1       8.341  -4.917   7.907  1.00  0.00     0.148 A 
ATOM     41  C   UNL     1      10.419  -5.073   6.019  1.00  0.00     0.002 A 
ATOM     42  C   UNL     1       9.014  -6.116   7.701  1.00  0.00     0.091 A 
ATOM     43  F   UNL     1       7.340  -4.806   8.791  1.00  0.00    -0.205 F 
ATOM     44  C   UNL     1      10.050  -6.196   6.757  1.00  0.00     0.022 A 
BRANCH  42  45
ATOM     45  S   UNL     1       8.654  -7.608   8.634  1.00  0.00     0.127 S 
ATOM     46  O   UNL     1       8.169  -8.502   7.583  1.00  0.00    -0.237 OA
ATOM     47  O   UNL     1       9.969  -7.957   9.172  1.00  0.00    -0.237 OA
ATOM     48  O   UNL     1       7.662  -7.234   9.632  1.00  0.00    -0.744 OA
ENDBRANCH  42  45
ENDBRANCH  24  38
BRANCH  25  49
ATOM     49  C   UNL     1       4.548   5.084   9.070  1.00  0.00     0.023 A 
ATOM     50  C   UNL     1       5.313   6.256   8.920  1.00  0.00     0.012 A 
ATOM     51  C   UNL     1       3.180   5.184   9.392  1.00  0.00     0.148 A 
ATOM     52  C   UNL     1       4.726   7.509   9.091  1.00  0.00     0.002 A 
ATOM     53  C   UNL     1       2.594   6.437   9.523  1.00  0.00     0.091 A 
ATOM     54  F   UNL     1       2.478   4.051   9.525  1.00  0.00    -0.205 F 
ATOM     55  C   UNL     1       3.367   7.600   9.381  1.00  0.00     0.022 A 
BRANCH  53  56
ATOM     56  S   UNL     1       0.834   6.660   9.801  1.00  0.00     0.127 S 
ATOM     57  O   UNL     1       0.820   7.337  11.096  1.00  0.00    -0.237 OA
ATOM     58  O   UNL     1       0.458   7.499   8.663  1.00  0.00    -0.237 OA
ATOM     59  O   UNL     1       0.256   5.324   9.790  1.00  0.00    -0.744 OA
ENDBRANCH  53  56
ENDBRANCH  25  49
BRANCH  37  60
ATOM     60  C   UNL     1       9.252   1.112  12.405  1.00  0.00     0.023 A 
ATOM     61  C   UNL     1       8.601   0.801  13.614  1.00  0.00     0.012 A 
ATOM     62  C   UNL     1      10.628   1.411  12.410  1.00  0.00     0.148 A 
ATOM     63  C   UNL     1       9.310   0.790  14.814  1.00  0.00     0.002 A 
ATOM     64  C   UNL     1      11.336   1.365  13.605  1.00  0.00     0.091 A 
ATOM     65  F   UNL     1      11.221   1.707  11.245  1.00  0.00    -0.205 F 
ATOM     66  C   UNL     1      10.678   1.058  14.808  1.00  0.00     0.022 A 
BRANCH  64  67
ATOM     67  S   UNL     1      13.112   1.622  13.691  1.00  0.00     0.127 S 
ATOM     68  O   UNL     1      13.196   2.849  14.482  1.00  0.00    -0.237 OA
ATOM     69  O   UNL     1      13.564   0.416  14.385  1.00  0.00    -0.237 OA
ATOM     70  O   UNL     1      13.572   1.742  12.314  1.00  0.00    -0.744 OA
ENDBRANCH  64  67
ENDBRANCH  37  60
ENDBRANCH  11  12
ENDBRANCH   4   6
ENDBRANCH   1   2
BRANCH   1  71
ATOM     71  C   UNL     1       4.959  -1.370  -1.924  1.00  0.00     0.023 C 
BRANCH  71  72
ATOM     72  C   UNL     1       4.489  -1.381  -3.380  1.00  0.00     0.023 C 
BRANCH  72  73
ATOM     73  C   UNL     1       4.897  -0.156  -4.195  1.00  0.00     0.116 C 
BRANCH  73  74
ATOM     74  N   UNL     1       6.340  -0.068  -4.356  1.00  0.00    -0.351 N 
ATOM     75  C   UNL     1       7.075  -0.191  -5.513  1.00  0.00     0.269 C 
ATOM     76  H   UNL     1       6.855   0.100  -3.534  1.00  0.00     0.163 HD
ATOM     77  O   UNL     1       8.300  -0.277  -5.469  1.00  0.00    -0.268 OA
BRANCH  75  78
ATOM     78  C   UNL     1       6.374  -0.271  -6.823  1.00  0.00     0.129 A 
ATOM     79  C   UNL     1       6.688  -1.316  -7.684  1.00  0.00     0.038 A 
ATOM     80  N   UNL     1       5.429   0.672  -7.077  1.00  0.00    -0.232 NA
ATOM     81  C   UNL     1       5.954  -1.436  -8.860  1.00  0.00     0.051 A 
ATOM     82  C   UNL     1       4.743   0.533  -8.228  1.00  0.00     0.148 A 
ATOM     83  C   UNL     1       4.959  -0.505  -9.133  1.00  0.00     0.148 A 
ATOM     84  Br  UNL     1       3.392   1.822  -8.580  1.00  0.00    -0.025 Br
BRANCH  83  85
ATOM     85  O   UNL     1       4.237  -0.674 -10.280  1.00  0.00    -0.505 OA
ATOM     86  H   UNL     1       4.427  -1.391 -10.852  1.00  0.00     0.293 HD
ENDBRANCH  83  85
ENDBRANCH  75  78
ENDBRANCH  73  74
ENDBRANCH  72  73
ENDBRANCH  71  72
ENDBRANCH   1  71
TORSDOF 15
