REMARK SMILES COc1cc2nc(SCC(=O)NCCCCNC(=O)c3ccc(-c4c5nc(c(-c6cccc(S(=O)(=O)[O-])c6F)c6ccc([nH]6)c(-c6cccc(S(=O)(=O)[O-])c6F)c6nc(c(-c7cccc(S(=O)(=O)[O-])c7F)c7ccc4[nH]7)C=C6)C=C5)cc3)nc(O)c2cc1OC
REMARK SMILES IDX 14 1 13 2 12 3 10 4 11 5 9 7 8 8 7 9 3 10 4 11 88 12 5 13
REMARK SMILES IDX 87 14 6 15 86 16 84 17 83 18 2 19 1 20 89 21 90 22 85 23
REMARK SMILES IDX 15 25 16 26 17 27 18 28 19 30 20 31 21 32 82 33 22 34 81 35
REMARK SMILES IDX 23 36 24 37 25 38 75 39 26 40 80 41 74 42 76 43 27 44 79 45
REMARK SMILES IDX 73 46 72 47 28 49 60 50 40 51 59 52 41 53 44 54 58 55 77 56
REMARK SMILES IDX 42 57 43 58 57 60 78 61 45 62 29 63 30 64 38 65 31 66 33 67
REMARK SMILES IDX 39 68 32 69 34 70 35 71 36 72 37 73 61 74 62 75 70 76 63 77
REMARK SMILES IDX 65 78 71 79 64 80 66 81 67 82 68 83 69 84 46 85 47 86 55 87
REMARK SMILES IDX 48 88 50 89 56 90 49 91 51 92 52 93 53 94 54 95
REMARK H PARENT 12 6 85 24 17 29 76 48 44 59
REMARK Flexibility Score: inf
ROOT
ATOM      1  C   UNL     1      -3.688   6.503  -4.030  1.00  0.00     0.023 C 
ENDROOT
BRANCH   1   2
ATOM      2  C   UNL     1      -3.414   7.176  -5.377  1.00  0.00     0.116 C 
BRANCH   2   3
ATOM      3  N   UNL     1      -1.994   7.375  -5.604  1.00  0.00    -0.355 N 
ATOM      4  C   UNL     1      -1.142   6.714  -6.441  1.00  0.00     0.230 C 
ATOM      5  O   UNL     1       0.036   7.083  -6.472  1.00  0.00    -0.274 OA
ATOM      6  H   UNL     1      -1.583   8.096  -5.074  1.00  0.00     0.163 HD
BRANCH   4   7
ATOM      7  C   UNL     1      -1.652   5.634  -7.381  1.00  0.00     0.178 C 
BRANCH   7   8
ATOM      8  S   UNL     1      -2.261   4.134  -6.555  1.00  0.00    -0.076 SA
BRANCH   8   9
ATOM      9  C   UNL     1      -0.840   3.634  -5.620  1.00  0.00     0.192 A 
ATOM     10  C   UNL     1       0.917   0.801  -2.261  1.00  0.00     0.162 A 
ATOM     11  C   UNL     1      -0.146   1.238  -3.062  1.00  0.00     0.079 A 
ATOM     12  C   UNL     1       2.194   1.362  -2.401  1.00  0.00     0.161 A 
ATOM     13  C   UNL     1       0.011   2.255  -3.992  1.00  0.00     0.083 A 
ATOM     14  C   UNL     1       2.364   2.386  -3.333  1.00  0.00     0.066 A 
ATOM     15  N   UNL     1      -1.038   2.654  -4.725  1.00  0.00    -0.222 NA
ATOM     16  C   UNL     1       1.274   2.826  -4.124  1.00  0.00     0.066 A 
ATOM     17  C   UNL     1       1.339   3.826  -5.081  1.00  0.00     0.223 A 
ATOM     18  N   UNL     1       0.328   4.234  -5.849  1.00  0.00    -0.187 NA
BRANCH  10  19
ATOM     19  O   UNL     1       0.616  -0.238  -1.416  1.00  0.00    -0.493 OA
ATOM     20  C   UNL     1       0.935   0.038  -0.053  1.00  0.00     0.278 C 
ENDBRANCH  10  19
BRANCH  12  21
ATOM     21  O   UNL     1       3.198   0.835  -1.637  1.00  0.00    -0.493 OA
ATOM     22  C   UNL     1       4.468   1.473  -1.685  1.00  0.00     0.278 C 
ENDBRANCH  12  21
BRANCH  17  23
ATOM     23  O   UNL     1       2.487   4.519  -5.310  1.00  0.00    -0.493 OA
ATOM     24  H   UNL     1       2.507   5.191  -5.963  1.00  0.00     0.295 HD
ENDBRANCH  17  23
ENDBRANCH   8   9
ENDBRANCH   7   8
ENDBRANCH   4   7
ENDBRANCH   2   3
ENDBRANCH   1   2
BRANCH   1  25
ATOM     25  C   UNL     1      -3.271   7.318  -2.802  1.00  0.00     0.023 C 
BRANCH  25  26
ATOM     26  C   UNL     1      -3.934   8.684  -2.662  1.00  0.00     0.116 C 
BRANCH  26  27
ATOM     27  N   UNL     1      -5.380   8.620  -2.513  1.00  0.00    -0.352 N 
ATOM     28  C   UNL     1      -6.201   9.426  -1.753  1.00  0.00     0.251 C 
ATOM     29  H   UNL     1      -5.831   7.907  -3.021  1.00  0.00     0.163 HD
ATOM     30  O   UNL     1      -7.399   9.171  -1.666  1.00  0.00    -0.269 OA
BRANCH  28  31
ATOM     31  C   UNL     1      -5.619  10.563  -1.004  1.00  0.00     0.039 A 
ATOM     32  C   UNL     1      -4.710  11.429  -1.615  1.00  0.00     0.014 A 
ATOM     33  C   UNL     1      -5.943  10.729   0.346  1.00  0.00     0.014 A 
ATOM     34  C   UNL     1      -3.990  12.332  -0.838  1.00  0.00     0.010 A 
ATOM     35  C   UNL     1      -5.274  11.694   1.109  1.00  0.00     0.010 A 
ATOM     36  C   UNL     1      -4.245  12.459   0.539  1.00  0.00    -0.014 A 
BRANCH  36  37
ATOM     37  C   UNL     1      -3.396  13.371   1.352  1.00  0.00     0.031 A 
ATOM     38  C   UNL     1      -2.497  12.832   2.437  1.00  0.00     0.074 A 
ATOM     39  C   UNL     1      -3.384  14.690   1.072  1.00  0.00     0.049 A 
ATOM     40  N   UNL     1      -1.636  13.479   3.182  1.00  0.00    -0.248 NA
ATOM     41  C   UNL     1      -2.570  11.391   2.731  1.00  0.00     0.031 C 
ATOM     42  C   UNL     1      -4.234  15.346   0.077  1.00  0.00     0.029 A 
ATOM     43  N   UNL     1      -2.624  15.711   1.585  1.00  0.00    -0.354 N 
ATOM     44  C   UNL     1      -1.100  12.539   4.054  1.00  0.00     0.074 A 
ATOM     45  C   UNL     1      -1.730  11.274   3.752  1.00  0.00     0.031 C 
ATOM     46  C   UNL     1      -3.924  16.651   0.026  1.00  0.00     0.029 A 
ATOM     47  C   UNL     1      -2.880  16.932   1.008  1.00  0.00     0.049 A 
ATOM     48  H   UNL     1      -1.959  15.581   2.300  1.00  0.00     0.167 HD
ATOM     49  C   UNL     1      -0.148  12.706   5.001  1.00  0.00     0.034 A 
ATOM     50  C   UNL     1      -2.340  18.146   1.237  1.00  0.00     0.034 A 
ATOM     51  C   UNL     1       0.540  13.942   5.254  1.00  0.00     0.049 A 
ATOM     52  C   UNL     1      -1.251  18.292   2.259  1.00  0.00     0.074 A 
ATOM     53  C   UNL     1       1.576  14.176   6.143  1.00  0.00     0.029 A 
ATOM     54  N   UNL     1       0.273  15.144   4.623  1.00  0.00    -0.354 N 
ATOM     55  N   UNL     1      -0.677  17.363   2.984  1.00  0.00    -0.248 NA
ATOM     56  C   UNL     1      -0.721  19.645   2.486  1.00  0.00     0.031 C 
ATOM     57  C   UNL     1       1.936  15.522   6.048  1.00  0.00     0.029 A 
ATOM     58  C   UNL     1       1.121  16.124   5.104  1.00  0.00     0.049 A 
ATOM     59  H   UNL     1      -0.418  15.280   3.934  1.00  0.00     0.167 HD
ATOM     60  C   UNL     1       0.279  18.017   3.751  1.00  0.00     0.074 A 
ATOM     61  C   UNL     1       0.232  19.416   3.381  1.00  0.00     0.031 C 
ATOM     62  C   UNL     1       1.100  17.503   4.697  1.00  0.00     0.034 A 
BRANCH  49  63
ATOM     63  C   UNL     1       0.281  11.512   5.806  1.00  0.00     0.023 A 
ATOM     64  C   UNL     1       1.240  10.634   5.264  1.00  0.00     0.012 A 
ATOM     65  C   UNL     1      -0.145  11.345   7.138  1.00  0.00     0.148 A 
ATOM     66  C   UNL     1       1.772   9.604   6.038  1.00  0.00     0.002 A 
ATOM     67  C   UNL     1       0.407  10.331   7.911  1.00  0.00     0.091 A 
ATOM     68  F   UNL     1      -1.059  12.196   7.626  1.00  0.00    -0.205 F 
ATOM     69  C   UNL     1       1.364   9.459   7.362  1.00  0.00     0.022 A 
BRANCH  67  70
ATOM     70  S   UNL     1      -0.006  10.084   9.641  1.00  0.00     0.127 S 
ATOM     71  O   UNL     1      -0.535   8.720   9.627  1.00  0.00    -0.237 OA
ATOM     72  O   UNL     1       1.298  10.226  10.288  1.00  0.00    -0.237 OA
ATOM     73  O   UNL     1      -0.979  11.114   9.976  1.00  0.00    -0.744 OA
ENDBRANCH  67  70
ENDBRANCH  49  63
BRANCH  50  74
ATOM     74  C   UNL     1      -2.808  19.311   0.440  1.00  0.00     0.023 A 
ATOM     75  C   UNL     1      -1.984  19.833  -0.575  1.00  0.00     0.012 A 
ATOM     76  C   UNL     1      -4.090  19.857   0.639  1.00  0.00     0.148 A 
ATOM     77  C   UNL     1      -2.428  20.886  -1.375  1.00  0.00     0.002 A 
ATOM     78  C   UNL     1      -4.545  20.873  -0.192  1.00  0.00     0.091 A 
ATOM     79  F   UNL     1      -4.848  19.353   1.624  1.00  0.00    -0.205 F 
ATOM     80  C   UNL     1      -3.712  21.396  -1.193  1.00  0.00     0.022 A 
BRANCH  78  81
ATOM     81  S   UNL     1      -6.225  21.502  -0.107  1.00  0.00     0.127 S 
ATOM     82  O   UNL     1      -6.019  22.824   0.479  1.00  0.00    -0.237 OA
ATOM     83  O   UNL     1      -6.618  21.507  -1.516  1.00  0.00    -0.237 OA
ATOM     84  O   UNL     1      -6.958  20.550   0.716  1.00  0.00    -0.744 OA
ENDBRANCH  78  81
ENDBRANCH  50  74
BRANCH  62  85
ATOM     85  C   UNL     1       2.017  18.442   5.428  1.00  0.00     0.023 A 
ATOM     86  C   UNL     1       1.501  19.196   6.500  1.00  0.00     0.012 A 
ATOM     87  C   UNL     1       3.398  18.467   5.157  1.00  0.00     0.148 A 
ATOM     88  C   UNL     1       2.349  19.965   7.294  1.00  0.00     0.002 A 
ATOM     89  C   UNL     1       4.242  19.213   5.971  1.00  0.00     0.091 A 
ATOM     90  F   UNL     1       3.859  17.741   4.128  1.00  0.00    -0.205 F 
ATOM     91  C   UNL     1       3.719  19.964   7.037  1.00  0.00     0.022 A 
BRANCH  89  92
ATOM     92  S   UNL     1       6.027  19.220   5.771  1.00  0.00     0.127 S 
ATOM     93  O   UNL     1       6.279  20.610   5.393  1.00  0.00    -0.237 OA
ATOM     94  O   UNL     1       6.489  18.858   7.111  1.00  0.00    -0.237 OA
ATOM     95  O   UNL     1       6.323  18.237   4.738  1.00  0.00    -0.744 OA
ENDBRANCH  89  92
ENDBRANCH  62  85
ENDBRANCH  36  37
ENDBRANCH  28  31
ENDBRANCH  26  27
ENDBRANCH  25  26
ENDBRANCH   1  25
TORSDOF 19
