REMARK SMILES CCc1cccc2c3c([nH]c12)[C@](CC)(CC(=O)NCCCCNC(=O)c1ccc(-c2c4nc(c(-c5cccc(S(=O)(=O)[O-])c5F)c5ccc([nH]5)c(-c5cccc(S(=O)(=O)[O-])c5F)c5nc(c(-c6cccc(S(=O)(=O)[O-])c6F)c6ccc2[nH]6)C=C5)C=C4)cc1)OCC3
REMARK SMILES IDX 21 1 20 2 19 3 18 4 16 5 17 6 15 8 12 9 3 10 4 11 11 12 5 13
REMARK SMILES IDX 7 14 10 15 6 16 8 17 9 18 91 20 90 21 89 22 2 23 1 24 13 25
REMARK SMILES IDX 14 26 22 27 23 28 24 29 25 31 26 32 27 33 88 34 28 35 87 36
REMARK SMILES IDX 29 37 30 38 31 39 81 40 32 41 86 42 80 43 82 44 33 45 85 46
REMARK SMILES IDX 79 47 78 48 34 50 66 51 46 52 65 53 47 54 50 55 64 56 83 57
REMARK SMILES IDX 48 58 49 59 63 61 84 62 51 63 35 64 36 65 44 66 37 67 39 68
REMARK SMILES IDX 45 69 38 70 40 71 41 72 42 73 43 74 67 75 68 76 76 77 69 78
REMARK SMILES IDX 71 79 77 80 70 81 72 82 73 83 74 84 75 85 52 86 53 87 61 88
REMARK SMILES IDX 54 89 56 90 62 91 55 92 57 93 58 94 59 95 60 96
REMARK H PARENT 18 7 10 19 23 30 82 49 50 60
REMARK Flexibility Score: inf
ROOT
ATOM      1  C   UNL     1      -0.361 -10.874   1.500  1.00  0.00     0.023 C 
ENDROOT
BRANCH   1   2
ATOM      2  C   UNL     1      -0.624 -10.610   0.007  1.00  0.00     0.023 C 
BRANCH   2   3
ATOM      3  C   UNL     1      -1.965  -9.943  -0.344  1.00  0.00     0.116 C 
BRANCH   3   4
ATOM      4  N   UNL     1      -2.408  -8.899   0.576  1.00  0.00    -0.356 N 
ATOM      5  C   UNL     1      -2.436  -7.535   0.465  1.00  0.00     0.223 C 
ATOM      6  O   UNL     1      -2.886  -6.890   1.414  1.00  0.00    -0.275 OA
ATOM      7  H   UNL     1      -2.751  -9.239   1.434  1.00  0.00     0.163 HD
BRANCH   5   8
ATOM      8  C   UNL     1      -2.006  -6.848  -0.812  1.00  0.00     0.142 C 
BRANCH   8   9
ATOM      9  C   UNL     1      -0.518  -6.469  -1.020  1.00  0.00     0.117 C 
ATOM     10  C   UNL     1       0.953  -1.845   0.551  1.00  0.00    -0.024 A 
ATOM     11  C   UNL     1       1.708  -1.457   1.685  1.00  0.00     0.006 A 
ATOM     12  C   UNL     1       0.620  -3.217   0.480  1.00  0.00     0.049 A 
ATOM     13  C   UNL     1       2.102  -2.353   2.676  1.00  0.00     0.001 A 
ATOM     14  C   UNL     1       1.045  -4.125   1.445  1.00  0.00     0.003 A 
ATOM     15  N   UNL     1      -0.088  -3.950  -0.470  1.00  0.00    -0.356 N 
ATOM     16  C   UNL     1       1.778  -3.696   2.562  1.00  0.00     0.010 A 
ATOM     17  C   UNL     1       0.695  -5.405   0.982  1.00  0.00    -0.014 A 
ATOM     18  C   UNL     1      -0.039  -5.296  -0.178  1.00  0.00     0.052 A 
ATOM     19  H   UNL     1      -0.558  -3.560  -1.242  1.00  0.00     0.166 HD
ATOM     20  C   UNL     1       1.163  -6.683   1.524  1.00  0.00     0.066 C 
ATOM     21  C   UNL     1       0.693  -7.823   0.648  1.00  0.00     0.166 C 
ATOM     22  O   UNL     1       0.403  -7.548  -0.735  1.00  0.00    -0.368 OA
BRANCH  10  23
ATOM     23  C   UNL     1       0.571  -0.868  -0.532  1.00  0.00     0.034 C 
ATOM     24  C   UNL     1       1.021   0.575  -0.327  1.00  0.00     0.009 C 
ENDBRANCH  10  23
BRANCH   9  25
ATOM     25  C   UNL     1      -0.299  -6.160  -2.540  1.00  0.00     0.039 C 
ATOM     26  C   UNL     1      -0.729  -7.269  -3.509  1.00  0.00     0.007 C 
ENDBRANCH   9  25
ENDBRANCH   8   9
ENDBRANCH   5   8
ENDBRANCH   3   4
ENDBRANCH   2   3
ENDBRANCH   1   2
BRANCH   1  27
ATOM     27  C   UNL     1      -1.249 -11.970   2.063  1.00  0.00     0.116 C 
BRANCH  27  28
ATOM     28  N   UNL     1      -1.027 -13.228   1.390  1.00  0.00    -0.352 N 
ATOM     29  C   UNL     1      -0.045 -14.176   1.431  1.00  0.00     0.251 C 
ATOM     30  H   UNL     1      -1.746 -13.452   0.756  1.00  0.00     0.163 HD
ATOM     31  O   UNL     1      -0.106 -15.037   0.548  1.00  0.00    -0.269 OA
BRANCH  29  32
ATOM     32  C   UNL     1       1.078 -14.212   2.404  1.00  0.00     0.039 A 
ATOM     33  C   UNL     1       1.193 -13.419   3.549  1.00  0.00     0.014 A 
ATOM     34  C   UNL     1       2.089 -15.149   2.126  1.00  0.00     0.014 A 
ATOM     35  C   UNL     1       2.338 -13.476   4.332  1.00  0.00     0.010 A 
ATOM     36  C   UNL     1       3.214 -15.243   2.928  1.00  0.00     0.010 A 
ATOM     37  C   UNL     1       3.358 -14.363   3.995  1.00  0.00    -0.014 A 
BRANCH  37  38
ATOM     38  C   UNL     1       4.529 -14.420   4.857  1.00  0.00     0.031 A 
ATOM     39  C   UNL     1       4.257 -14.883   6.253  1.00  0.00     0.074 A 
ATOM     40  C   UNL     1       5.765 -14.211   4.360  1.00  0.00     0.049 A 
ATOM     41  N   UNL     1       4.521 -14.283   7.369  1.00  0.00    -0.248 NA
ATOM     42  C   UNL     1       3.471 -16.120   6.414  1.00  0.00     0.031 C 
ATOM     43  C   UNL     1       6.155 -14.040   2.957  1.00  0.00     0.029 A 
ATOM     44  N   UNL     1       6.962 -14.281   4.998  1.00  0.00    -0.354 N 
ATOM     45  C   UNL     1       4.108 -15.157   8.376  1.00  0.00     0.074 A 
ATOM     46  C   UNL     1       3.337 -16.191   7.737  1.00  0.00     0.031 C 
ATOM     47  C   UNL     1       7.471 -14.317   2.829  1.00  0.00     0.029 A 
ATOM     48  C   UNL     1       8.028 -14.559   4.147  1.00  0.00     0.049 A 
ATOM     49  H   UNL     1       7.066 -14.148   5.968  1.00  0.00     0.167 HD
ATOM     50  C   UNL     1       4.585 -15.101   9.650  1.00  0.00     0.034 A 
ATOM     51  C   UNL     1       9.223 -15.089   4.516  1.00  0.00     0.034 A 
ATOM     52  C   UNL     1       5.231 -13.855   9.941  1.00  0.00     0.049 A 
ATOM     53  C   UNL     1       9.367 -14.832   5.973  1.00  0.00     0.074 A 
ATOM     54  C   UNL     1       4.811 -12.540   9.980  1.00  0.00     0.029 A 
ATOM     55  N   UNL     1       6.600 -13.809   9.836  1.00  0.00    -0.354 N 
ATOM     56  N   UNL     1       9.431 -13.637   6.493  1.00  0.00    -0.248 NA
ATOM     57  C   UNL     1       8.963 -15.893   6.884  1.00  0.00     0.031 C 
ATOM     58  C   UNL     1       5.873 -11.805   9.380  1.00  0.00     0.029 A 
ATOM     59  C   UNL     1       6.900 -12.703   9.082  1.00  0.00     0.049 A 
ATOM     60  H   UNL     1       7.241 -14.446  10.227  1.00  0.00     0.167 HD
ATOM     61  C   UNL     1       8.666 -13.719   7.649  1.00  0.00     0.074 A 
ATOM     62  C   UNL     1       8.470 -15.150   7.878  1.00  0.00     0.031 C 
ATOM     63  C   UNL     1       8.005 -12.634   8.151  1.00  0.00     0.034 A 
BRANCH  50  64
ATOM     64  C   UNL     1       4.710 -16.305  10.539  1.00  0.00     0.023 A 
ATOM     65  C   UNL     1       4.804 -16.127  11.933  1.00  0.00     0.012 A 
ATOM     66  C   UNL     1       4.965 -17.600  10.030  1.00  0.00     0.148 A 
ATOM     67  C   UNL     1       5.118 -17.196  12.782  1.00  0.00     0.002 A 
ATOM     68  C   UNL     1       5.202 -18.672  10.878  1.00  0.00     0.091 A 
ATOM     69  F   UNL     1       5.094 -17.770   8.708  1.00  0.00    -0.205 F 
ATOM     70  C   UNL     1       5.298 -18.473  12.257  1.00  0.00     0.022 A 
BRANCH  68  71
ATOM     71  S   UNL     1       5.403 -20.344  10.256  1.00  0.00     0.127 S 
ATOM     72  O   UNL     1       6.830 -20.561  10.443  1.00  0.00    -0.237 OA
ATOM     73  O   UNL     1       4.533 -21.104  11.152  1.00  0.00    -0.237 OA
ATOM     74  O   UNL     1       4.936 -20.298   8.871  1.00  0.00    -0.744 OA
ENDBRANCH  68  71
ENDBRANCH  50  64
BRANCH  51  75
ATOM     75  C   UNL     1      10.024 -16.127   3.805  1.00  0.00     0.023 A 
ATOM     76  C   UNL     1      11.330 -16.420   4.250  1.00  0.00     0.012 A 
ATOM     77  C   UNL     1       9.438 -17.018   2.875  1.00  0.00     0.148 A 
ATOM     78  C   UNL     1      12.007 -17.570   3.816  1.00  0.00     0.002 A 
ATOM     79  C   UNL     1      10.123 -18.143   2.425  1.00  0.00     0.091 A 
ATOM     80  F   UNL     1       8.166 -16.831   2.501  1.00  0.00    -0.205 F 
ATOM     81  C   UNL     1      11.403 -18.433   2.906  1.00  0.00     0.022 A 
BRANCH  79  82
ATOM     82  S   UNL     1       9.392 -19.281   1.238  1.00  0.00     0.127 S 
ATOM     83  O   UNL     1      10.519 -19.563   0.348  1.00  0.00    -0.237 OA
ATOM     84  O   UNL     1       8.992 -20.396   2.091  1.00  0.00    -0.237 OA
ATOM     85  O   UNL     1       8.307 -18.541   0.605  1.00  0.00    -0.744 OA
ENDBRANCH  79  82
ENDBRANCH  51  75
BRANCH  63  86
ATOM     86  C   UNL     1       8.236 -11.287   7.511  1.00  0.00     0.023 A 
ATOM     87  C   UNL     1       7.762 -10.986   6.215  1.00  0.00     0.012 A 
ATOM     88  C   UNL     1       8.713 -10.242   8.317  1.00  0.00     0.148 A 
ATOM     89  C   UNL     1       7.763  -9.671   5.736  1.00  0.00     0.002 A 
ATOM     90  C   UNL     1       8.677  -8.932   7.853  1.00  0.00     0.091 A 
ATOM     91  F   UNL     1       9.139 -10.546   9.552  1.00  0.00    -0.205 F 
ATOM     92  C   UNL     1       8.206  -8.642   6.562  1.00  0.00     0.022 A 
BRANCH  90  93
ATOM     93  S   UNL     1       9.118  -7.545   8.901  1.00  0.00     0.127 S 
ATOM     94  O   UNL     1      10.322  -7.038   8.245  1.00  0.00    -0.237 OA
ATOM     95  O   UNL     1       7.945  -6.679   8.779  1.00  0.00    -0.237 OA
ATOM     96  O   UNL     1       9.323  -8.092  10.236  1.00  0.00    -0.744 OA
ENDBRANCH  90  93
ENDBRANCH  63  86
ENDBRANCH  37  38
ENDBRANCH  29  32
ENDBRANCH  27  28
ENDBRANCH   1  27
TORSDOF 17
