REMARK SMILES CCc1nn(-c2ccncn2)c(Cl)c1C(=O)NCCCCNC(=O)c1ccc(-c2c3nc(c(-c4cccc(S(=O)(=O)[O-])c4F)c4ccc([nH]4)c(-c4cccc(S(=O)(=O)[O-])c4F)c4nc(c(-c5cccc(S(=O)(=O)[O-])c5F)c5ccc2[nH]5)C=C4)C=C3)cc1
REMARK SMILES IDX 20 1 19 2 18 3 17 4 15 5 16 6 14 8 3 9 4 10 5 11 12 12 13 13
REMARK SMILES IDX 2 14 1 15 6 16 7 17 11 18 8 19 10 20 9 21 21 22 22 23 23 24
REMARK SMILES IDX 24 26 25 27 26 28 87 29 27 30 86 31 28 32 29 33 30 34 80 35
REMARK SMILES IDX 31 36 85 37 79 38 81 39 32 40 84 41 78 42 77 43 33 45 65 46
REMARK SMILES IDX 45 47 64 48 46 49 49 50 63 51 82 52 47 53 48 54 62 56 83 57
REMARK SMILES IDX 50 58 34 59 35 60 43 61 36 62 38 63 44 64 37 65 39 66 40 67
REMARK SMILES IDX 41 68 42 69 66 70 67 71 75 72 68 73 70 74 76 75 69 76 71 77
REMARK SMILES IDX 72 78 73 79 74 80 51 81 52 82 60 83 53 84 55 85 61 86 54 87
REMARK SMILES IDX 56 88 57 89 58 90 59 91
REMARK H PARENT 17 7 22 25 81 44 49 55
REMARK Flexibility Score: inf
ROOT
ATOM      1  C   UNL     1      -3.327   0.381  -2.307  1.00  0.00     0.023 C 
ENDROOT
BRANCH   1   2
ATOM      2  C   UNL     1      -1.866   0.016  -2.012  1.00  0.00     0.023 C 
BRANCH   2   3
ATOM      3  C   UNL     1      -1.665  -0.827  -0.748  1.00  0.00     0.116 C 
BRANCH   3   4
ATOM      4  N   UNL     1      -1.919  -2.215  -1.021  1.00  0.00    -0.352 N 
ATOM      5  C   UNL     1      -1.154  -3.286  -1.381  1.00  0.00     0.256 C 
ATOM      6  O   UNL     1      -1.827  -4.268  -1.712  1.00  0.00    -0.269 OA
ATOM      7  H   UNL     1      -2.871  -2.449  -0.927  1.00  0.00     0.163 HD
BRANCH   5   8
ATOM      8  C   UNL     1       0.312  -3.352  -1.401  1.00  0.00     0.100 A 
ATOM      9  C   UNL     1       1.432  -2.447  -1.450  1.00  0.00     0.077 A 
ATOM     10  N   UNL     1       2.616  -3.086  -1.438  1.00  0.00    -0.169 NA
ATOM     11  N   UNL     1       2.309  -4.401  -1.497  1.00  0.00    -0.203 N 
ATOM     12  C   UNL     1       0.954  -4.585  -1.407  1.00  0.00     0.147 A 
ATOM     13  Cl  UNL     1       0.329  -6.175  -1.189  1.00  0.00    -0.061 Cl
BRANCH   9  14
ATOM     14  C   UNL     1       1.531  -0.960  -1.576  1.00  0.00     0.056 C 
ATOM     15  C   UNL     1       1.776  -0.245  -0.252  1.00  0.00     0.011 C 
ENDBRANCH   9  14
BRANCH  11  16
ATOM     16  C   UNL     1       3.332  -5.370  -1.728  1.00  0.00     0.158 A 
ATOM     17  C   UNL     1       3.117  -6.357  -2.676  1.00  0.00     0.069 A 
ATOM     18  N   UNL     1       4.476  -5.286  -1.010  1.00  0.00    -0.217 NA
ATOM     19  C   UNL     1       4.113  -7.296  -2.804  1.00  0.00     0.117 A 
ATOM     20  C   UNL     1       5.351  -6.283  -1.187  1.00  0.00     0.224 A 
ATOM     21  N   UNL     1       5.234  -7.295  -2.063  1.00  0.00    -0.245 NA
ENDBRANCH  11  16
ENDBRANCH   5   8
ENDBRANCH   3   4
ENDBRANCH   2   3
ENDBRANCH   1   2
BRANCH   1  22
ATOM     22  C   UNL     1      -3.942   1.350  -1.301  1.00  0.00     0.116 C 
BRANCH  22  23
ATOM     23  N   UNL     1      -3.271   2.647  -1.304  1.00  0.00    -0.352 N 
ATOM     24  C   UNL     1      -3.421   3.675  -0.397  1.00  0.00     0.251 C 
ATOM     25  H   UNL     1      -2.637   2.806  -2.040  1.00  0.00     0.163 HD
ATOM     26  O   UNL     1      -3.158   4.827  -0.710  1.00  0.00    -0.269 OA
BRANCH  24  27
ATOM     27  C   UNL     1      -3.890   3.360   0.965  1.00  0.00     0.039 A 
ATOM     28  C   UNL     1      -4.883   4.137   1.567  1.00  0.00     0.014 A 
ATOM     29  C   UNL     1      -3.330   2.266   1.628  1.00  0.00     0.014 A 
ATOM     30  C   UNL     1      -5.372   3.756   2.813  1.00  0.00     0.010 A 
ATOM     31  C   UNL     1      -3.868   1.845   2.825  1.00  0.00     0.010 A 
ATOM     32  C   UNL     1      -4.879   2.594   3.428  1.00  0.00    -0.014 A 
BRANCH  32  33
ATOM     33  C   UNL     1      -5.595   2.016   4.571  1.00  0.00     0.031 A 
ATOM     34  C   UNL     1      -7.024   1.702   4.258  1.00  0.00     0.074 A 
ATOM     35  C   UNL     1      -4.963   1.581   5.686  1.00  0.00     0.049 A 
ATOM     36  N   UNL     1      -8.088   2.177   4.818  1.00  0.00    -0.248 NA
ATOM     37  C   UNL     1      -7.306   0.898   3.052  1.00  0.00     0.031 C 
ATOM     38  C   UNL     1      -3.513   1.583   5.921  1.00  0.00     0.029 A 
ATOM     39  N   UNL     1      -5.438   0.897   6.771  1.00  0.00    -0.354 N 
ATOM     40  C   UNL     1      -9.155   1.511   4.209  1.00  0.00     0.074 A 
ATOM     41  C   UNL     1      -8.637   0.953   2.994  1.00  0.00     0.031 C 
ATOM     42  C   UNL     1      -3.214   0.714   6.910  1.00  0.00     0.029 A 
ATOM     43  C   UNL     1      -4.447   0.202   7.475  1.00  0.00     0.049 A 
ATOM     44  H   UNL     1      -6.387   0.893   7.032  1.00  0.00     0.167 HD
ATOM     45  C   UNL     1     -10.272   1.194   4.922  1.00  0.00     0.034 A 
ATOM     46  C   UNL     1      -4.617  -0.771   8.408  1.00  0.00     0.034 A 
ATOM     47  C   UNL     1     -10.343   1.988   6.124  1.00  0.00     0.049 A 
ATOM     48  C   UNL     1      -6.010  -0.681   8.883  1.00  0.00     0.074 A 
ATOM     49  C   UNL     1     -10.405   3.332   6.427  1.00  0.00     0.029 A 
ATOM     50  N   UNL     1      -9.948   1.345   7.268  1.00  0.00    -0.354 N 
ATOM     51  N   UNL     1      -6.469   0.310   9.590  1.00  0.00    -0.248 NA
ATOM     52  C   UNL     1      -7.010  -1.520   8.248  1.00  0.00     0.031 C 
ATOM     53  C   UNL     1      -9.667   3.476   7.640  1.00  0.00     0.029 A 
ATOM     54  C   UNL     1      -9.260   2.210   8.065  1.00  0.00     0.049 A 
ATOM     55  H   UNL     1     -10.134   0.402   7.481  1.00  0.00     0.167 HD
ATOM     56  C   UNL     1      -7.744   0.512   9.086  1.00  0.00     0.074 A 
ATOM     57  C   UNL     1      -8.075  -0.730   8.391  1.00  0.00     0.031 C 
ATOM     58  C   UNL     1      -8.262   1.773   9.017  1.00  0.00     0.034 A 
BRANCH  45  59
ATOM     59  C   UNL     1     -11.020  -0.137   4.827  1.00  0.00     0.023 A 
ATOM     60  C   UNL     1     -12.121  -0.310   5.702  1.00  0.00     0.012 A 
ATOM     61  C   UNL     1     -10.543  -1.307   4.187  1.00  0.00     0.148 A 
ATOM     62  C   UNL     1     -12.643  -1.574   6.001  1.00  0.00     0.002 A 
ATOM     63  C   UNL     1     -11.110  -2.554   4.434  1.00  0.00     0.091 A 
ATOM     64  F   UNL     1      -9.462  -1.263   3.411  1.00  0.00    -0.205 F 
ATOM     65  C   UNL     1     -12.135  -2.700   5.369  1.00  0.00     0.022 A 
BRANCH  63  66
ATOM     66  S   UNL     1     -10.518  -4.043   3.612  1.00  0.00     0.127 S 
ATOM     67  O   UNL     1      -9.914  -4.769   4.725  1.00  0.00    -0.237 OA
ATOM     68  O   UNL     1     -11.766  -4.612   3.102  1.00  0.00    -0.237 OA
ATOM     69  O   UNL     1      -9.599  -3.589   2.576  1.00  0.00    -0.744 OA
ENDBRANCH  63  66
ENDBRANCH  45  59
BRANCH  46  70
ATOM     70  C   UNL     1      -3.765  -1.926   8.795  1.00  0.00     0.023 A 
ATOM     71  C   UNL     1      -3.991  -2.577  10.028  1.00  0.00     0.012 A 
ATOM     72  C   UNL     1      -2.949  -2.576   7.846  1.00  0.00     0.148 A 
ATOM     73  C   UNL     1      -3.463  -3.849  10.288  1.00  0.00     0.002 A 
ATOM     74  C   UNL     1      -2.421  -3.838   8.110  1.00  0.00     0.091 A 
ATOM     75  F   UNL     1      -2.773  -2.003   6.648  1.00  0.00    -0.205 F 
ATOM     76  C   UNL     1      -2.687  -4.484   9.324  1.00  0.00     0.022 A 
BRANCH  74  77
ATOM     77  S   UNL     1      -1.438  -4.735   6.900  1.00  0.00     0.127 S 
ATOM     78  O   UNL     1      -0.289  -5.161   7.699  1.00  0.00    -0.237 OA
ATOM     79  O   UNL     1      -2.348  -5.809   6.511  1.00  0.00    -0.237 OA
ATOM     80  O   UNL     1      -1.118  -3.768   5.857  1.00  0.00    -0.744 OA
ENDBRANCH  74  77
ENDBRANCH  46  70
BRANCH  58  81
ATOM     81  C   UNL     1      -7.619   2.843   9.860  1.00  0.00     0.023 A 
ATOM     82  C   UNL     1      -6.282   3.262   9.704  1.00  0.00     0.012 A 
ATOM     83  C   UNL     1      -8.446   3.529  10.764  1.00  0.00     0.148 A 
ATOM     84  C   UNL     1      -5.777   4.325  10.459  1.00  0.00     0.002 A 
ATOM     85  C   UNL     1      -7.957   4.617  11.471  1.00  0.00     0.091 A 
ATOM     86  F   UNL     1      -9.713   3.111  10.907  1.00  0.00    -0.205 F 
ATOM     87  C   UNL     1      -6.619   5.012  11.333  1.00  0.00     0.022 A 
BRANCH  85  88
ATOM     88  S   UNL     1      -9.037   5.600  12.510  1.00  0.00     0.127 S 
ATOM     89  O   UNL     1      -8.699   5.116  13.846  1.00  0.00    -0.237 OA
ATOM     90  O   UNL     1      -8.595   6.966  12.222  1.00  0.00    -0.237 OA
ATOM     91  O   UNL     1     -10.393   5.311  12.059  1.00  0.00    -0.744 OA
ENDBRANCH  85  88
ENDBRANCH  58  81
ENDBRANCH  32  33
ENDBRANCH  24  27
ENDBRANCH  22  23
ENDBRANCH   1  22
TORSDOF 16
