REMARK SMILES CC(C)c1ccc([C@]2(C(=O)NCCCCNC(=O)c3ccc(-c4c5nc(c(-c6cccc(S(=O)(=O)[O-])c6F)c6ccc([nH]6)c(-c6cccc(S(=O)(=O)[O-])c6F)c6nc(c(-c7cccc(S(=O)(=O)[O-])c7F)c7ccc4[nH]7)C=C6)C=C5)cc3)CCC[C@@H]2C)cc1
REMARK SMILES IDX 14 1 13 2 12 3 11 4 9 5 10 6 8 8 82 9 85 10 83 11 84 12
REMARK SMILES IDX 86 13 7 14 4 15 5 16 88 17 6 18 87 19 2 20 1 21 3 22 15 23
REMARK SMILES IDX 16 24 17 25 18 27 19 28 20 29 81 30 21 31 80 32 22 33 23 34
REMARK SMILES IDX 24 35 74 36 25 37 79 38 73 39 75 40 26 41 78 42 72 43 71 44
REMARK SMILES IDX 27 46 59 47 39 48 58 49 40 50 43 51 57 52 76 53 41 54 42 55
REMARK SMILES IDX 56 57 77 58 44 59 28 60 29 61 37 62 30 63 32 64 38 65 31 66
REMARK SMILES IDX 33 67 34 68 35 69 36 70 60 71 61 72 69 73 62 74 64 75 70 76
REMARK SMILES IDX 63 77 65 78 66 79 67 80 68 81 45 82 46 83 54 84 47 85 49 86
REMARK SMILES IDX 55 87 48 88 50 89 51 90 52 91 53 92
REMARK H PARENT 11 7 16 26 75 45 43 56
REMARK Flexibility Score: inf
ROOT
ATOM      1  C   UNL     1      -9.756  -2.169   2.716  1.00  0.00     0.023 C 
ENDROOT
BRANCH   1   2
ATOM      2  C   UNL     1      -8.892  -1.337   1.770  1.00  0.00     0.023 C 
BRANCH   2   3
ATOM      3  C   UNL     1      -8.294  -0.078   2.381  1.00  0.00     0.116 C 
BRANCH   3   4
ATOM      4  N   UNL     1      -6.970  -0.234   2.925  1.00  0.00    -0.355 N 
ATOM      5  C   UNL     1      -5.795   0.400   2.660  1.00  0.00     0.230 C 
ATOM      6  O   UNL     1      -5.046   0.459   3.648  1.00  0.00    -0.274 OA
ATOM      7  H   UNL     1      -6.902  -0.930   3.619  1.00  0.00     0.163 HD
BRANCH   5   8
ATOM      8  C   UNL     1      -5.332   0.990   1.253  1.00  0.00     0.077 C 
ATOM      9  C   UNL     1      -5.918   0.209   0.049  1.00  0.00     0.022 C 
ATOM     10  C   UNL     1      -5.833   2.462   0.975  1.00  0.00     0.006 C 
ATOM     11  C   UNL     1      -7.069   1.021  -0.548  1.00  0.00     0.002 C 
ATOM     12  C   UNL     1      -7.168   2.324   0.232  1.00  0.00     0.005 C 
ATOM     13  C   UNL     1      -4.982   3.358   0.049  1.00  0.00     0.009 C 
BRANCH   8  14
ATOM     14  C   UNL     1      -3.776   0.870   1.280  1.00  0.00    -0.032 A 
ATOM     15  C   UNL     1      -0.911   0.717   1.267  1.00  0.00    -0.045 A 
ATOM     16  C   UNL     1      -1.580   1.812   1.825  1.00  0.00     0.004 A 
ATOM     17  C   UNL     1      -1.708  -0.362   0.853  1.00  0.00     0.004 A 
ATOM     18  C   UNL     1      -2.979   1.867   1.862  1.00  0.00     0.005 A 
ATOM     19  C   UNL     1      -3.109  -0.286   0.851  1.00  0.00     0.005 A 
BRANCH  15  20
ATOM     20  C   UNL     1       0.613   0.660   1.192  1.00  0.00     0.013 C 
ATOM     21  C   UNL     1       1.126  -0.143  -0.015  1.00  0.00     0.012 C 
ATOM     22  C   UNL     1       1.287   2.043   1.142  1.00  0.00     0.012 C 
ENDBRANCH  15  20
ENDBRANCH   8  14
ENDBRANCH   5   8
ENDBRANCH   3   4
ENDBRANCH   2   3
ENDBRANCH   1   2
BRANCH   1  23
ATOM     23  C   UNL     1     -10.844  -1.408   3.469  1.00  0.00     0.116 C 
BRANCH  23  24
ATOM     24  N   UNL     1     -11.704  -0.587   2.628  1.00  0.00    -0.352 N 
ATOM     25  C   UNL     1     -13.022  -0.241   2.849  1.00  0.00     0.251 C 
ATOM     26  H   UNL     1     -11.297  -0.236   1.803  1.00  0.00     0.163 HD
ATOM     27  O   UNL     1     -13.643   0.406   2.020  1.00  0.00    -0.269 OA
BRANCH  25  28
ATOM     28  C   UNL     1     -13.679  -0.707   4.091  1.00  0.00     0.039 A 
ATOM     29  C   UNL     1     -14.897  -1.384   4.000  1.00  0.00     0.014 A 
ATOM     30  C   UNL     1     -13.056  -0.534   5.329  1.00  0.00     0.014 A 
ATOM     31  C   UNL     1     -15.458  -1.945   5.149  1.00  0.00     0.010 A 
ATOM     32  C   UNL     1     -13.570  -1.170   6.452  1.00  0.00     0.010 A 
ATOM     33  C   UNL     1     -14.783  -1.869   6.380  1.00  0.00    -0.014 A 
BRANCH  33  34
ATOM     34  C   UNL     1     -15.340  -2.498   7.604  1.00  0.00     0.031 A 
ATOM     35  C   UNL     1     -15.708  -1.642   8.788  1.00  0.00     0.074 A 
ATOM     36  C   UNL     1     -15.439  -3.840   7.684  1.00  0.00     0.049 A 
ATOM     37  N   UNL     1     -16.199  -2.003   9.944  1.00  0.00    -0.248 NA
ATOM     38  C   UNL     1     -15.459  -0.195   8.671  1.00  0.00     0.031 C 
ATOM     39  C   UNL     1     -15.021  -4.785   6.646  1.00  0.00     0.029 A 
ATOM     40  N   UNL     1     -15.909  -4.644   8.693  1.00  0.00    -0.354 N 
ATOM     41  C   UNL     1     -16.273  -0.841  10.704  1.00  0.00     0.074 A 
ATOM     42  C   UNL     1     -15.737   0.229   9.894  1.00  0.00     0.031 C 
ATOM     43  C   UNL     1     -15.274  -6.037   7.063  1.00  0.00     0.029 A 
ATOM     44  C   UNL     1     -15.857  -5.987   8.400  1.00  0.00     0.049 A 
ATOM     45  H   UNL     1     -16.251  -4.292   9.546  1.00  0.00     0.167 HD
ATOM     46  C   UNL     1     -16.778  -0.670  11.948  1.00  0.00     0.034 A 
ATOM     47  C   UNL     1     -16.251  -7.054   9.123  1.00  0.00     0.034 A 
ATOM     48  C   UNL     1     -17.375  -1.723  12.721  1.00  0.00     0.049 A 
ATOM     49  C   UNL     1     -16.892  -6.827  10.466  1.00  0.00     0.074 A 
ATOM     50  C   UNL     1     -18.020  -1.638  13.942  1.00  0.00     0.029 A 
ATOM     51  N   UNL     1     -17.402  -3.057  12.345  1.00  0.00    -0.354 N 
ATOM     52  N   UNL     1     -17.125  -5.697  11.090  1.00  0.00    -0.248 NA
ATOM     53  C   UNL     1     -17.366  -8.018  11.186  1.00  0.00     0.031 C 
ATOM     54  C   UNL     1     -18.425  -2.925  14.311  1.00  0.00     0.029 A 
ATOM     55  C   UNL     1     -18.050  -3.808  13.310  1.00  0.00     0.049 A 
ATOM     56  H   UNL     1     -17.018  -3.418  11.514  1.00  0.00     0.167 HD
ATOM     57  C   UNL     1     -17.811  -6.036  12.250  1.00  0.00     0.074 A 
ATOM     58  C   UNL     1     -17.971  -7.476  12.234  1.00  0.00     0.031 C 
ATOM     59  C   UNL     1     -18.258  -5.231  13.247  1.00  0.00     0.034 A 
BRANCH  46  60
ATOM     60  C   UNL     1     -16.763   0.724  12.521  1.00  0.00     0.023 A 
ATOM     61  C   UNL     1     -17.622   1.706  11.985  1.00  0.00     0.012 A 
ATOM     62  C   UNL     1     -15.932   1.054  13.609  1.00  0.00     0.148 A 
ATOM     63  C   UNL     1     -17.623   3.004  12.493  1.00  0.00     0.002 A 
ATOM     64  C   UNL     1     -15.973   2.338  14.141  1.00  0.00     0.091 A 
ATOM     65  F   UNL     1     -15.104   0.116  14.091  1.00  0.00    -0.205 F 
ATOM     66  C   UNL     1     -16.807   3.317  13.576  1.00  0.00     0.022 A 
BRANCH  64  67
ATOM     67  S   UNL     1     -15.020   2.815  15.587  1.00  0.00     0.127 S 
ATOM     68  O   UNL     1     -13.973   3.642  14.991  1.00  0.00    -0.237 OA
ATOM     69  O   UNL     1     -16.006   3.555  16.377  1.00  0.00    -0.237 OA
ATOM     70  O   UNL     1     -14.569   1.571  16.195  1.00  0.00    -0.744 OA
ENDBRANCH  64  67
ENDBRANCH  46  60
BRANCH  47  71
ATOM     71  C   UNL     1     -16.161  -8.424   8.542  1.00  0.00     0.023 A 
ATOM     72  C   UNL     1     -17.347  -9.086   8.164  1.00  0.00     0.012 A 
ATOM     73  C   UNL     1     -14.925  -9.065   8.340  1.00  0.00     0.148 A 
ATOM     74  C   UNL     1     -17.306 -10.373   7.627  1.00  0.00     0.002 A 
ATOM     75  C   UNL     1     -14.887 -10.328   7.758  1.00  0.00     0.091 A 
ATOM     76  F   UNL     1     -13.808  -8.425   8.716  1.00  0.00    -0.205 F 
ATOM     77  C   UNL     1     -16.077 -10.990   7.416  1.00  0.00     0.022 A 
BRANCH  75  78
ATOM     78  S   UNL     1     -13.346 -11.148   7.333  1.00  0.00     0.127 S 
ATOM     79  O   UNL     1     -13.291 -12.216   8.327  1.00  0.00    -0.237 OA
ATOM     80  O   UNL     1     -13.607 -11.593   5.963  1.00  0.00    -0.237 OA
ATOM     81  O   UNL     1     -12.315 -10.125   7.443  1.00  0.00    -0.744 OA
ENDBRANCH  75  78
ENDBRANCH  47  71
BRANCH  59  82
ATOM     82  C   UNL     1     -19.004  -5.877  14.384  1.00  0.00     0.023 A 
ATOM     83  C   UNL     1     -18.307  -6.653  15.330  1.00  0.00     0.012 A 
ATOM     84  C   UNL     1     -20.384  -5.652  14.555  1.00  0.00     0.148 A 
ATOM     85  C   UNL     1     -18.979  -7.226  16.409  1.00  0.00     0.002 A 
ATOM     86  C   UNL     1     -21.038  -6.185  15.660  1.00  0.00     0.091 A 
ATOM     87  F   UNL     1     -21.036  -4.928  13.633  1.00  0.00    -0.205 F 
ATOM     88  C   UNL     1     -20.340  -6.982  16.581  1.00  0.00     0.022 A 
BRANCH  86  89
ATOM     89  S   UNL     1     -22.765  -5.833  16.006  1.00  0.00     0.127 S 
ATOM     90  O   UNL     1     -23.416  -7.062  15.556  1.00  0.00    -0.237 OA
ATOM     91  O   UNL     1     -22.762  -5.641  17.457  1.00  0.00    -0.237 OA
ATOM     92  O   UNL     1     -23.084  -4.633  15.244  1.00  0.00    -0.744 OA
ENDBRANCH  86  89
ENDBRANCH  59  82
ENDBRANCH  33  34
ENDBRANCH  25  28
ENDBRANCH  23  24
ENDBRANCH   1  23
TORSDOF 16
