REMARK SMILES CN(/C=C\C(=O)NCCCCNC(=O)c1ccc(-c2c3nc(c(-c4cccc(S(=O)(=O)[O-])c4F)c4ccc([nH]4)c(-c4cccc(S(=O)(=O)[O-])c4F)c4nc(c(-c5cccc(S(=O)(=O)[O-])c5F)c5ccc2[nH]5)C=C4)C=C3)cc1)C[C@@H]1CCCO1
REMARK SMILES IDX 9 1 8 2 7 3 5 4 6 5 4 7 3 8 2 9 1 10 78 11 79 12 80 13 83 14
REMARK SMILES IDX 81 15 82 16 10 17 11 18 12 19 13 20 14 22 15 23 16 24 77 25
REMARK SMILES IDX 17 26 76 27 18 28 19 29 20 30 70 31 21 32 75 33 69 34 71 35
REMARK SMILES IDX 22 36 74 37 68 38 67 39 23 41 55 42 35 43 54 44 36 45 39 46
REMARK SMILES IDX 53 47 72 48 37 49 38 50 52 52 73 53 40 54 24 55 25 56 33 57
REMARK SMILES IDX 26 58 28 59 34 60 27 61 29 62 30 63 31 64 32 65 56 66 57 67
REMARK SMILES IDX 65 68 58 69 60 70 66 71 59 72 61 73 62 74 63 75 64 76 41 77
REMARK SMILES IDX 42 78 50 79 43 80 45 81 51 82 44 83 46 84 47 85 48 86 49 87
REMARK H PARENT 7 6 12 21 71 40 39 51
REMARK Flexibility Score: inf
ROOT
ATOM      1  C   UNL     1       3.912   0.481  -2.835  1.00  0.00     0.023 C 
ENDROOT
BRANCH   1   2
ATOM      2  C   UNL     1       2.455   0.094  -2.612  1.00  0.00     0.116 C 
BRANCH   2   3
ATOM      3  N   UNL     1       1.749  -0.285  -3.823  1.00  0.00    -0.353 N 
ATOM      4  C   UNL     1       0.697  -1.153  -3.928  1.00  0.00     0.245 C 
ATOM      5  O   UNL     1       0.151  -1.363  -5.008  1.00  0.00    -0.270 OA
ATOM      6  H   UNL     1       2.063   0.127  -4.661  1.00  0.00     0.163 HD
BRANCH   4   7
ATOM      7  C   UNL     1       0.285  -1.923  -2.732  1.00  0.00     0.088 C 
ATOM      8  C   UNL     1      -0.139  -1.420  -1.564  1.00  0.00     0.086 C 
BRANCH   8   9
ATOM      9  N   UNL     1      -0.429  -0.118  -1.167  1.00  0.00    -0.378 N 
ATOM     10  C   UNL     1      -0.081   0.319   0.184  1.00  0.00     0.143 C 
BRANCH   9  11
ATOM     11  C   UNL     1      -1.183   0.784  -2.074  1.00  0.00     0.147 C 
BRANCH  11  12
ATOM     12  C   UNL     1      -1.293   2.271  -1.715  1.00  0.00     0.137 C 
ATOM     13  C   UNL     1      -2.007   3.044  -2.818  1.00  0.00     0.036 C 
ATOM     14  O   UNL     1      -0.010   2.910  -1.578  1.00  0.00    -0.376 OA
ATOM     15  C   UNL     1      -1.531   4.451  -2.574  1.00  0.00     0.031 C 
ATOM     16  C   UNL     1      -0.101   4.231  -2.132  1.00  0.00     0.160 C 
ENDBRANCH  11  12
ENDBRANCH   9  11
ENDBRANCH   8   9
ENDBRANCH   4   7
ENDBRANCH   2   3
ENDBRANCH   1   2
BRANCH   1  17
ATOM     17  C   UNL     1       4.153   1.754  -3.644  1.00  0.00     0.023 C 
BRANCH  17  18
ATOM     18  C   UNL     1       3.362   2.985  -3.212  1.00  0.00     0.116 C 
BRANCH  18  19
ATOM     19  N   UNL     1       3.555   3.347  -1.814  1.00  0.00    -0.352 N 
ATOM     20  C   UNL     1       3.998   4.528  -1.262  1.00  0.00     0.251 C 
ATOM     21  H   UNL     1       3.336   2.640  -1.165  1.00  0.00     0.163 HD
ATOM     22  O   UNL     1       4.187   4.622  -0.056  1.00  0.00    -0.269 OA
BRANCH  20  23
ATOM     23  C   UNL     1       4.262   5.686  -2.143  1.00  0.00     0.039 A 
ATOM     24  C   UNL     1       5.505   6.320  -2.085  1.00  0.00     0.014 A 
ATOM     25  C   UNL     1       3.290   6.123  -3.044  1.00  0.00     0.014 A 
ATOM     26  C   UNL     1       5.805   7.332  -3.002  1.00  0.00     0.010 A 
ATOM     27  C   UNL     1       3.610   7.084  -3.996  1.00  0.00     0.010 A 
ATOM     28  C   UNL     1       4.875   7.689  -3.994  1.00  0.00    -0.014 A 
BRANCH  28  29
ATOM     29  C   UNL     1       5.219   8.641  -5.080  1.00  0.00     0.031 A 
ATOM     30  C   UNL     1       4.466   9.934  -5.229  1.00  0.00     0.074 A 
ATOM     31  C   UNL     1       6.120   8.274  -6.013  1.00  0.00     0.049 A 
ATOM     32  N   UNL     1       4.564  10.841  -6.165  1.00  0.00    -0.248 NA
ATOM     33  C   UNL     1       3.444  10.231  -4.211  1.00  0.00     0.031 C 
ATOM     34  C   UNL     1       6.842   6.998  -6.036  1.00  0.00     0.029 A 
ATOM     35  N   UNL     1       6.556   8.920  -7.143  1.00  0.00    -0.354 N 
ATOM     36  C   UNL     1       3.597  11.795  -5.873  1.00  0.00     0.074 A 
ATOM     37  C   UNL     1       2.901  11.341  -4.689  1.00  0.00     0.031 C 
ATOM     38  C   UNL     1       7.627   6.956  -7.124  1.00  0.00     0.029 A 
ATOM     39  C   UNL     1       7.450   8.186  -7.888  1.00  0.00     0.049 A 
ATOM     40  H   UNL     1       6.258   9.823  -7.395  1.00  0.00     0.167 HD
ATOM     41  C   UNL     1       3.333  12.958  -6.516  1.00  0.00     0.034 A 
ATOM     42  C   UNL     1       8.056   8.470  -9.058  1.00  0.00     0.034 A 
ATOM     43  C   UNL     1       4.064  13.429  -7.661  1.00  0.00     0.049 A 
ATOM     44  C   UNL     1       7.798   9.801  -9.710  1.00  0.00     0.074 A 
ATOM     45  C   UNL     1       3.942  14.639  -8.321  1.00  0.00     0.029 A 
ATOM     46  N   UNL     1       5.052  12.713  -8.319  1.00  0.00    -0.354 N 
ATOM     47  N   UNL     1       7.006  10.770  -9.318  1.00  0.00    -0.248 NA
ATOM     48  C   UNL     1       8.545  10.097 -10.941  1.00  0.00     0.031 C 
ATOM     49  C   UNL     1       4.850  14.650  -9.385  1.00  0.00     0.029 A 
ATOM     50  C   UNL     1       5.548  13.453  -9.377  1.00  0.00     0.049 A 
ATOM     51  H   UNL     1       5.356  11.810  -8.069  1.00  0.00     0.167 HD
ATOM     52  C   UNL     1       7.189  11.803 -10.230  1.00  0.00     0.074 A 
ATOM     53  C   UNL     1       8.179  11.348 -11.184  1.00  0.00     0.031 C 
ATOM     54  C   UNL     1       6.581  13.014 -10.280  1.00  0.00     0.034 A 
BRANCH  41  55
ATOM     55  C   UNL     1       2.250  13.839  -5.950  1.00  0.00     0.023 A 
ATOM     56  C   UNL     1       2.482  14.530  -4.743  1.00  0.00     0.012 A 
ATOM     57  C   UNL     1       1.034  14.034  -6.635  1.00  0.00     0.148 A 
ATOM     58  C   UNL     1       1.511  15.374  -4.208  1.00  0.00     0.002 A 
ATOM     59  C   UNL     1       0.086  14.910  -6.115  1.00  0.00     0.091 A 
ATOM     60  F   UNL     1       0.821  13.353  -7.769  1.00  0.00    -0.205 F 
ATOM     61  C   UNL     1       0.319  15.572  -4.898  1.00  0.00     0.022 A 
BRANCH  59  62
ATOM     62  S   UNL     1      -1.449  15.290  -6.968  1.00  0.00     0.127 S 
ATOM     63  O   UNL     1      -2.424  14.566  -6.154  1.00  0.00    -0.237 OA
ATOM     64  O   UNL     1      -1.518  16.747  -6.848  1.00  0.00    -0.237 OA
ATOM     65  O   UNL     1      -1.281  14.802  -8.329  1.00  0.00    -0.744 OA
ENDBRANCH  59  62
ENDBRANCH  41  55
BRANCH  42  66
ATOM     66  C   UNL     1       9.037   7.510  -9.638  1.00  0.00     0.023 A 
ATOM     67  C   UNL     1      10.409   7.828  -9.608  1.00  0.00     0.012 A 
ATOM     68  C   UNL     1       8.630   6.276 -10.180  1.00  0.00     0.148 A 
ATOM     69  C   UNL     1      11.355   6.949 -10.134  1.00  0.00     0.002 A 
ATOM     70  C   UNL     1       9.583   5.381 -10.655  1.00  0.00     0.091 A 
ATOM     71  F   UNL     1       7.319   5.995 -10.209  1.00  0.00    -0.205 F 
ATOM     72  C   UNL     1      10.944   5.723 -10.649  1.00  0.00     0.022 A 
BRANCH  70  73
ATOM     73  S   UNL     1       9.155   3.728 -11.213  1.00  0.00     0.127 S 
ATOM     74  O   UNL     1       9.305   3.852 -12.660  1.00  0.00    -0.237 OA
ATOM     75  O   UNL     1      10.175   2.911 -10.555  1.00  0.00    -0.237 OA
ATOM     76  O   UNL     1       7.800   3.494 -10.732  1.00  0.00    -0.744 OA
ENDBRANCH  70  73
ENDBRANCH  42  66
BRANCH  54  77
ATOM     77  C   UNL     1       6.991  13.959 -11.378  1.00  0.00     0.023 A 
ATOM     78  C   UNL     1       6.561  13.725 -12.699  1.00  0.00     0.012 A 
ATOM     79  C   UNL     1       7.726  15.124 -11.084  1.00  0.00     0.148 A 
ATOM     80  C   UNL     1       6.880  14.624 -13.716  1.00  0.00     0.002 A 
ATOM     81  C   UNL     1       8.001  16.038 -12.094  1.00  0.00     0.091 A 
ATOM     82  F   UNL     1       8.144  15.318  -9.824  1.00  0.00    -0.205 F 
ATOM     83  C   UNL     1       7.587  15.785 -13.412  1.00  0.00     0.022 A 
BRANCH  81  84
ATOM     84  S   UNL     1       8.822  17.604 -11.775  1.00  0.00     0.127 S 
ATOM     85  O   UNL     1      10.157  17.357 -12.318  1.00  0.00    -0.237 OA
ATOM     86  O   UNL     1       8.013  18.545 -12.550  1.00  0.00    -0.237 OA
ATOM     87  O   UNL     1       8.758  17.801 -10.333  1.00  0.00    -0.744 OA
ENDBRANCH  81  84
ENDBRANCH  54  77
ENDBRANCH  28  29
ENDBRANCH  20  23
ENDBRANCH  18  19
ENDBRANCH  17  18
ENDBRANCH   1  17
TORSDOF 17
