REMARK SMILES O=C(COCC(=O)Nc1cccc([N+](=O)[O-])c1)NCCCCNC(=O)c1ccc(-c2c3nc(c(-c4cccc(S(=O)(=O)[O-])c4F)c4ccc([nH]4)c(-c4cccc(S(=O)(=O)[O-])c4F)c4nc(c(-c5cccc(S(=O)(=O)[O-])c5F)c5ccc2[nH]5)C=C4)C=C3)cc1
REMARK SMILES IDX 19 1 18 2 1 3 2 4 3 6 4 7 5 8 6 9 7 10 8 11 9 13 10 14 17 15
REMARK SMILES IDX 11 16 13 17 12 18 14 19 15 20 16 21 20 22 21 23 22 24 23 25
REMARK SMILES IDX 24 26 25 28 26 29 27 30 88 31 28 32 87 33 29 34 30 35 31 36
REMARK SMILES IDX 81 37 32 38 86 39 80 40 82 41 33 42 85 43 79 44 78 45 34 47
REMARK SMILES IDX 66 48 46 49 65 50 47 51 50 52 64 53 83 54 48 55 49 56 63 58
REMARK SMILES IDX 84 59 51 60 35 61 36 62 44 63 37 64 39 65 45 66 38 67 40 68
REMARK SMILES IDX 41 69 42 70 43 71 67 72 68 73 76 74 69 75 71 76 77 77 70 78
REMARK SMILES IDX 72 79 73 80 74 81 75 82 52 83 53 84 61 85 54 86 56 87 62 88
REMARK SMILES IDX 55 89 57 90 58 91 59 92 60 93
REMARK H PARENT 18 5 8 12 23 27 82 46 50 57
REMARK Flexibility Score: inf
ROOT
ATOM      1  C   UNL     1       1.981  -2.609  -0.071  1.00  0.00     0.116 C 
ENDROOT
BRANCH   1   2
ATOM      2  N   UNL     1       2.578  -1.307   0.101  1.00  0.00    -0.354 N 
ATOM      3  O   UNL     1       0.753  -0.083  -0.596  1.00  0.00    -0.272 OA
ATOM      4  C   UNL     1       1.906  -0.138  -0.183  1.00  0.00     0.246 C 
ATOM      5  H   UNL     1       3.502  -1.252   0.436  1.00  0.00     0.163 HD
BRANCH   4   6
ATOM      6  C   UNL     1       2.771   1.101   0.019  1.00  0.00     0.260 C 
BRANCH   6   7
ATOM      7  O   UNL     1       3.574   1.042   1.193  1.00  0.00    -0.362 OA
BRANCH   7   8
ATOM      8  C   UNL     1       2.877   1.351   2.383  1.00  0.00     0.261 C 
BRANCH   8   9
ATOM      9  C   UNL     1       2.104   2.678   2.526  1.00  0.00     0.250 C 
ATOM     10  O   UNL     1       0.870   2.680   2.589  1.00  0.00    -0.272 OA
ATOM     11  N   UNL     1       2.758   3.864   2.724  1.00  0.00    -0.324 N 
ATOM     12  H   UNL     1       2.178   4.602   3.021  1.00  0.00     0.170 HD
BRANCH  11  13
ATOM     13  C   UNL     1       4.108   4.213   2.579  1.00  0.00     0.048 A 
ATOM     14  C   UNL     1       4.607   5.228   3.401  1.00  0.00     0.026 A 
ATOM     15  C   UNL     1       4.947   3.649   1.623  1.00  0.00     0.111 A 
ATOM     16  C   UNL     1       5.955   5.599   3.337  1.00  0.00     0.009 A 
ATOM     17  C   UNL     1       6.296   4.018   1.557  1.00  0.00     0.271 A 
ATOM     18  C   UNL     1       6.811   4.983   2.425  1.00  0.00     0.086 A 
BRANCH  17  19
ATOM     19  N   UNL     1       7.164   3.396   0.547  1.00  0.00     0.062 N 
ATOM     20  O   UNL     1       8.349   3.752   0.516  1.00  0.00    -0.258 OA
ATOM     21  O   UNL     1       6.653   2.567  -0.218  1.00  0.00    -0.258 OA
ENDBRANCH  17  19
ENDBRANCH  11  13
ENDBRANCH   8   9
ENDBRANCH   7   8
ENDBRANCH   6   7
ENDBRANCH   4   6
ENDBRANCH   1   2
BRANCH   1  22
ATOM     22  C   UNL     1       2.433  -3.278  -1.367  1.00  0.00     0.023 C 
BRANCH  22  23
ATOM     23  C   UNL     1       3.939  -3.543  -1.463  1.00  0.00     0.023 C 
BRANCH  23  24
ATOM     24  C   UNL     1       4.544  -4.332  -0.306  1.00  0.00     0.116 C 
BRANCH  24  25
ATOM     25  N   UNL     1       3.934  -5.642  -0.134  1.00  0.00    -0.352 N 
ATOM     26  C   UNL     1       4.528  -6.876  -0.032  1.00  0.00     0.251 C 
ATOM     27  H   UNL     1       2.950  -5.644  -0.084  1.00  0.00     0.163 HD
ATOM     28  O   UNL     1       3.831  -7.890  -0.035  1.00  0.00    -0.269 OA
BRANCH  26  29
ATOM     29  C   UNL     1       6.000  -6.992   0.056  1.00  0.00     0.039 A 
ATOM     30  C   UNL     1       6.648  -7.958  -0.720  1.00  0.00     0.014 A 
ATOM     31  C   UNL     1       6.742  -6.158   0.896  1.00  0.00     0.014 A 
ATOM     32  C   UNL     1       8.043  -8.041  -0.703  1.00  0.00     0.010 A 
ATOM     33  C   UNL     1       8.135  -6.191   0.852  1.00  0.00     0.010 A 
ATOM     34  C   UNL     1       8.801  -7.134   0.055  1.00  0.00    -0.014 A 
BRANCH  34  35
ATOM     35  C   UNL     1      10.288  -7.143   0.008  1.00  0.00     0.031 A 
ATOM     36  C   UNL     1      11.091  -7.415   1.252  1.00  0.00     0.074 A 
ATOM     37  C   UNL     1      10.919  -6.821  -1.139  1.00  0.00     0.049 A 
ATOM     38  N   UNL     1      12.389  -7.416   1.412  1.00  0.00    -0.248 NA
ATOM     39  C   UNL     1      10.337  -7.701   2.484  1.00  0.00     0.031 C 
ATOM     40  C   UNL     1      10.258  -6.464  -2.397  1.00  0.00     0.029 A 
ATOM     41  N   UNL     1      12.257  -6.717  -1.429  1.00  0.00    -0.354 N 
ATOM     42  C   UNL     1      12.607  -7.661   2.763  1.00  0.00     0.074 A 
ATOM     43  C   UNL     1      11.306  -7.774   3.385  1.00  0.00     0.031 C 
ATOM     44  C   UNL     1      11.191  -6.189  -3.322  1.00  0.00     0.029 A 
ATOM     45  C   UNL     1      12.514  -6.314  -2.719  1.00  0.00     0.049 A 
ATOM     46  H   UNL     1      12.967  -6.913  -0.775  1.00  0.00     0.167 HD
ATOM     47  C   UNL     1      13.782  -7.803   3.422  1.00  0.00     0.034 A 
ATOM     48  C   UNL     1      13.680  -6.060  -3.345  1.00  0.00     0.034 A 
ATOM     49  C   UNL     1      15.074  -7.725   2.794  1.00  0.00     0.049 A 
ATOM     50  C   UNL     1      14.971  -6.250  -2.595  1.00  0.00     0.074 A 
ATOM     51  C   UNL     1      16.318  -7.948   3.358  1.00  0.00     0.029 A 
ATOM     52  N   UNL     1      15.293  -7.384   1.469  1.00  0.00    -0.354 N 
ATOM     53  N   UNL     1      15.157  -6.641  -1.357  1.00  0.00    -0.248 NA
ATOM     54  C   UNL     1      16.214  -5.998  -3.338  1.00  0.00     0.031 C 
ATOM     55  C   UNL     1      17.291  -7.703   2.384  1.00  0.00     0.029 A 
ATOM     56  C   UNL     1      16.651  -7.371   1.201  1.00  0.00     0.049 A 
ATOM     57  H   UNL     1      14.586  -7.180   0.814  1.00  0.00     0.167 HD
ATOM     58  C   UNL     1      16.535  -6.720  -1.186  1.00  0.00     0.074 A 
ATOM     59  C   UNL     1      17.135  -6.355  -2.453  1.00  0.00     0.031 C 
ATOM     60  C   UNL     1      17.238  -7.054  -0.076  1.00  0.00     0.034 A 
BRANCH  47  61
ATOM     61  C   UNL     1      13.727  -8.095   4.900  1.00  0.00     0.023 A 
ATOM     62  C   UNL     1      13.269  -9.351   5.350  1.00  0.00     0.012 A 
ATOM     63  C   UNL     1      14.185  -7.151   5.841  1.00  0.00     0.148 A 
ATOM     64  C   UNL     1      13.231  -9.648   6.712  1.00  0.00     0.002 A 
ATOM     65  C   UNL     1      14.190  -7.473   7.193  1.00  0.00     0.091 A 
ATOM     66  F   UNL     1      14.600  -5.956   5.397  1.00  0.00    -0.205 F 
ATOM     67  C   UNL     1      13.700  -8.714   7.631  1.00  0.00     0.022 A 
BRANCH  65  68
ATOM     68  S   UNL     1      14.850  -6.372   8.450  1.00  0.00     0.127 S 
ATOM     69  O   UNL     1      13.635  -5.965   9.154  1.00  0.00    -0.237 OA
ATOM     70  O   UNL     1      15.726  -7.264   9.210  1.00  0.00    -0.237 OA
ATOM     71  O   UNL     1      15.540  -5.309   7.732  1.00  0.00    -0.744 OA
ENDBRANCH  65  68
ENDBRANCH  47  61
BRANCH  48  72
ATOM     72  C   UNL     1      13.685  -5.655  -4.780  1.00  0.00     0.023 A 
ATOM     73  C   UNL     1      14.184  -6.547  -5.749  1.00  0.00     0.012 A 
ATOM     74  C   UNL     1      13.186  -4.404  -5.191  1.00  0.00     0.148 A 
ATOM     75  C   UNL     1      14.218  -6.188  -7.097  1.00  0.00     0.002 A 
ATOM     76  C   UNL     1      13.171  -4.075  -6.541  1.00  0.00     0.091 A 
ATOM     77  F   UNL     1      12.724  -3.566  -4.252  1.00  0.00    -0.205 F 
ATOM     78  C   UNL     1      13.704  -4.957  -7.494  1.00  0.00     0.022 A 
BRANCH  76  79
ATOM     79  S   UNL     1      12.413  -2.569  -7.160  1.00  0.00     0.127 S 
ATOM     80  O   UNL     1      13.575  -1.825  -7.638  1.00  0.00    -0.237 OA
ATOM     81  O   UNL     1      11.536  -3.085  -8.211  1.00  0.00    -0.237 OA
ATOM     82  O   UNL     1      11.713  -1.984  -6.024  1.00  0.00    -0.744 OA
ENDBRANCH  76  79
ENDBRANCH  48  72
BRANCH  60  83
ATOM     83  C   UNL     1      18.742  -7.090  -0.183  1.00  0.00     0.023 A 
ATOM     84  C   UNL     1      19.471  -5.891  -0.303  1.00  0.00     0.012 A 
ATOM     85  C   UNL     1      19.435  -8.315  -0.093  1.00  0.00     0.148 A 
ATOM     86  C   UNL     1      20.865  -5.912  -0.367  1.00  0.00     0.002 A 
ATOM     87  C   UNL     1      20.824  -8.323  -0.102  1.00  0.00     0.091 A 
ATOM     88  F   UNL     1      18.723  -9.447   0.003  1.00  0.00    -0.205 F 
ATOM     89  C   UNL     1      21.540  -7.125  -0.254  1.00  0.00     0.022 A 
BRANCH  87  90
ATOM     90  S   UNL     1      21.781  -9.825   0.138  1.00  0.00     0.127 S 
ATOM     91  O   UNL     1      22.350 -10.031  -1.193  1.00  0.00    -0.237 OA
ATOM     92  O   UNL     1      22.746  -9.416   1.158  1.00  0.00    -0.237 OA
ATOM     93  O   UNL     1      20.833 -10.841   0.575  1.00  0.00    -0.744 OA
ENDBRANCH  87  90
ENDBRANCH  60  83
ENDBRANCH  34  35
ENDBRANCH  26  29
ENDBRANCH  24  25
ENDBRANCH  23  24
ENDBRANCH  22  23
ENDBRANCH   1  22
TORSDOF 19
