REMARK SMILES Nc1cc([N+](=O)[O-])ccc1[C@H]([NH3+])C(=O)NCCCCNC(=O)c1ccc(-c2c3nc(c(-c4cccc(S(=O)(=O)[O-])c4F)c4ccc([nH]4)c(-c4cccc(S(=O)(=O)[O-])c4F)c4nc(c(-c5cccc(S(=O)(=O)[O-])c5F)c5ccc2[nH]5)C=C4)C=C3)cc1
REMARK SMILES IDX 18 1 17 2 16 3 15 4 13 5 14 6 11 8 10 9 2 10 3 11 4 12 9 13
REMARK SMILES IDX 8 14 1 15 5 18 6 19 7 20 12 21 19 25 20 26 21 27 22 29 23 30
REMARK SMILES IDX 24 31 85 32 25 33 84 34 26 35 27 36 28 37 78 38 29 39 83 40
REMARK SMILES IDX 77 41 79 42 30 43 82 44 76 45 75 46 31 48 63 49 43 50 62 51
REMARK SMILES IDX 44 52 47 53 61 54 80 55 45 56 46 57 60 59 81 60 48 61 32 62
REMARK SMILES IDX 33 63 41 64 34 65 36 66 42 67 35 68 37 69 38 70 39 71 40 72
REMARK SMILES IDX 64 73 65 74 73 75 66 76 68 77 74 78 67 79 69 80 70 81 71 82
REMARK SMILES IDX 72 83 49 84 50 85 58 86 51 87 53 88 59 89 52 90 54 91 55 92
REMARK SMILES IDX 56 93 57 94
REMARK H PARENT 15 7 1 16 1 17 12 22 12 23 12 24 20 28 79 47 47 58
REMARK Flexibility Score: inf
ROOT
ATOM      1  C   UNL     1      -3.510   3.035   2.414  1.00  0.00     0.023 C 
ENDROOT
BRANCH   1   2
ATOM      2  C   UNL     1      -2.803   2.380   1.225  1.00  0.00     0.023 C 
BRANCH   2   3
ATOM      3  C   UNL     1      -1.833   3.294   0.485  1.00  0.00     0.116 C 
BRANCH   3   4
ATOM      4  N   UNL     1      -0.693   3.648   1.306  1.00  0.00    -0.351 N 
ATOM      5  C   UNL     1       0.626   3.331   1.138  1.00  0.00     0.283 C 
ATOM      6  O   UNL     1       1.437   3.773   1.959  1.00  0.00    -0.268 OA
ATOM      7  H   UNL     1      -0.898   4.195   2.099  1.00  0.00     0.163 HD
BRANCH   5   8
ATOM      8  C   UNL     1       1.103   2.485  -0.079  1.00  0.00     0.304 C 
BRANCH   8   9
ATOM      9  C   UNL     1       0.857   3.186  -1.427  1.00  0.00     0.042 A 
ATOM     10  C   UNL     1       0.445   2.560  -2.624  1.00  0.00     0.048 A 
ATOM     11  C   UNL     1       0.160   3.349  -3.754  1.00  0.00     0.111 A 
ATOM     12  C   UNL     1       0.363   4.734  -3.739  1.00  0.00     0.271 A 
ATOM     13  C   UNL     1       1.087   4.588  -1.457  1.00  0.00     0.020 A 
ATOM     14  C   UNL     1       0.836   5.360  -2.591  1.00  0.00     0.086 A 
BRANCH  10  15
ATOM     15  N   UNL     1       0.170   1.199  -2.721  1.00  0.00    -0.398 N 
ATOM     16  H   UNL     1      -0.114   0.814  -3.582  1.00  0.00     0.156 HD
ATOM     17  H   UNL     1       0.260   0.621  -1.930  1.00  0.00     0.156 HD
ENDBRANCH  10  15
BRANCH  12  18
ATOM     18  N   UNL     1       0.094   5.522  -4.945  1.00  0.00     0.062 N 
ATOM     19  O   UNL     1      -0.258   4.913  -5.966  1.00  0.00    -0.258 OA
ATOM     20  O   UNL     1       0.247   6.750  -4.879  1.00  0.00    -0.258 OA
ENDBRANCH  12  18
ENDBRANCH   8   9
BRANCH   8  21
ATOM     21  N   UNL     1       0.570   1.118   0.088  1.00  0.00    -0.343 N 
ATOM     22  H   UNL     1      -0.449   1.152   0.117  1.00  0.00     0.345 HD
ATOM     23  H   UNL     1       0.922   0.720   0.958  1.00  0.00     0.345 HD
ATOM     24  H   UNL     1       0.869   0.539  -0.697  1.00  0.00     0.345 HD
ENDBRANCH   8  21
ENDBRANCH   5   8
ENDBRANCH   3   4
ENDBRANCH   2   3
ENDBRANCH   1   2
BRANCH   1  25
ATOM     25  C   UNL     1      -4.250   4.331   2.098  1.00  0.00     0.116 C 
BRANCH  25  26
ATOM     26  N   UNL     1      -5.247   4.174   1.051  1.00  0.00    -0.352 N 
ATOM     27  C   UNL     1      -6.529   4.660   0.992  1.00  0.00     0.251 C 
ATOM     28  H   UNL     1      -4.962   3.642   0.273  1.00  0.00     0.163 HD
ATOM     29  O   UNL     1      -7.273   4.298   0.081  1.00  0.00    -0.269 OA
BRANCH  27  30
ATOM     30  C   UNL     1      -7.025   5.591   2.030  1.00  0.00     0.039 A 
ATOM     31  C   UNL     1      -8.312   5.402   2.538  1.00  0.00     0.014 A 
ATOM     32  C   UNL     1      -6.236   6.645   2.501  1.00  0.00     0.014 A 
ATOM     33  C   UNL     1      -8.787   6.239   3.550  1.00  0.00     0.010 A 
ATOM     34  C   UNL     1      -6.679   7.424   3.568  1.00  0.00     0.010 A 
ATOM     35  C   UNL     1      -7.964   7.239   4.098  1.00  0.00    -0.014 A 
BRANCH  35  36
ATOM     36  C   UNL     1      -8.445   8.071   5.232  1.00  0.00     0.031 A 
ATOM     37  C   UNL     1      -8.604   9.562   5.088  1.00  0.00     0.074 A 
ATOM     38  C   UNL     1      -8.706   7.481   6.417  1.00  0.00     0.049 A 
ATOM     39  N   UNL     1      -9.080  10.424   5.949  1.00  0.00    -0.248 NA
ATOM     40  C   UNL     1      -8.149  10.171   3.827  1.00  0.00     0.031 C 
ATOM     41  C   UNL     1      -8.501   6.061   6.718  1.00  0.00     0.029 A 
ATOM     42  N   UNL     1      -9.195   7.999   7.590  1.00  0.00    -0.354 N 
ATOM     43  C   UNL     1      -8.954  11.673   5.352  1.00  0.00     0.074 A 
ATOM     44  C   UNL     1      -8.325  11.462   4.067  1.00  0.00     0.031 C 
ATOM     45  C   UNL     1      -8.893   5.817   7.978  1.00  0.00     0.029 A 
ATOM     46  C   UNL     1      -9.352   7.061   8.585  1.00  0.00     0.049 A 
ATOM     47  H   UNL     1      -9.414   8.951   7.708  1.00  0.00     0.167 HD
ATOM     48  C   UNL     1      -9.351  12.882   5.816  1.00  0.00     0.034 A 
ATOM     49  C   UNL     1      -9.824   7.188   9.840  1.00  0.00     0.034 A 
ATOM     50  C   UNL     1     -10.013  13.084   7.078  1.00  0.00     0.049 A 
ATOM     51  C   UNL     1     -10.311   8.534  10.305  1.00  0.00     0.074 A 
ATOM     52  C   UNL     1     -10.548  14.253   7.591  1.00  0.00     0.029 A 
ATOM     53  N   UNL     1     -10.217  12.100   8.032  1.00  0.00    -0.354 N 
ATOM     54  N   UNL     1     -10.360   9.668   9.649  1.00  0.00    -0.248 NA
ATOM     55  C   UNL     1     -10.850   8.605  11.670  1.00  0.00     0.031 C 
ATOM     56  C   UNL     1     -11.042  13.983   8.872  1.00  0.00     0.029 A 
ATOM     57  C   UNL     1     -10.852  12.637   9.139  1.00  0.00     0.049 A 
ATOM     58  H   UNL     1      -9.950  11.158   7.937  1.00  0.00     0.167 HD
ATOM     59  C   UNL     1     -10.968  10.577  10.507  1.00  0.00     0.074 A 
ATOM     60  C   UNL     1     -11.301   9.851  11.715  1.00  0.00     0.031 C 
ATOM     61  C   UNL     1     -11.216  11.897  10.320  1.00  0.00     0.034 A 
BRANCH  48  62
ATOM     62  C   UNL     1      -9.120  14.087   4.939  1.00  0.00     0.023 A 
ATOM     63  C   UNL     1      -9.880  14.253   3.763  1.00  0.00     0.012 A 
ATOM     64  C   UNL     1      -8.209  15.091   5.319  1.00  0.00     0.148 A 
ATOM     65  C   UNL     1      -9.714  15.384   2.963  1.00  0.00     0.002 A 
ATOM     66  C   UNL     1      -8.084  16.238   4.543  1.00  0.00     0.091 A 
ATOM     67  F   UNL     1      -7.481  14.907   6.429  1.00  0.00    -0.205 F 
ATOM     68  C   UNL     1      -8.827  16.380   3.359  1.00  0.00     0.022 A 
BRANCH  66  69
ATOM     69  S   UNL     1      -7.032  17.617   5.010  1.00  0.00     0.127 S 
ATOM     70  O   UNL     1      -5.995  17.559   3.981  1.00  0.00    -0.237 OA
ATOM     71  O   UNL     1      -7.947  18.753   4.890  1.00  0.00    -0.237 OA
ATOM     72  O   UNL     1      -6.580  17.339   6.366  1.00  0.00    -0.744 OA
ENDBRANCH  66  69
ENDBRANCH  48  62
BRANCH  49  73
ATOM     73  C   UNL     1      -9.935   5.994  10.728  1.00  0.00     0.023 A 
ATOM     74  C   UNL     1     -11.210   5.516  11.089  1.00  0.00     0.012 A 
ATOM     75  C   UNL     1      -8.792   5.335  11.218  1.00  0.00     0.148 A 
ATOM     76  C   UNL     1     -11.345   4.434  11.960  1.00  0.00     0.002 A 
ATOM     77  C   UNL     1      -8.933   4.221  12.037  1.00  0.00     0.091 A 
ATOM     78  F   UNL     1      -7.587   5.811  10.872  1.00  0.00    -0.205 F 
ATOM     79  C   UNL     1     -10.207   3.781  12.426  1.00  0.00     0.022 A 
BRANCH  77  80
ATOM     80  S   UNL     1      -7.528   3.241  12.576  1.00  0.00     0.127 S 
ATOM     81  O   UNL     1      -7.459   3.575  13.996  1.00  0.00    -0.237 OA
ATOM     82  O   UNL     1      -7.978   1.880  12.283  1.00  0.00    -0.237 OA
ATOM     83  O   UNL     1      -6.404   3.688  11.764  1.00  0.00    -0.744 OA
ENDBRANCH  77  80
ENDBRANCH  49  73
BRANCH  61  84
ATOM     84  C   UNL     1     -11.914  12.635  11.435  1.00  0.00     0.023 A 
ATOM     85  C   UNL     1     -11.246  12.865  12.655  1.00  0.00     0.012 A 
ATOM     86  C   UNL     1     -13.224  13.124  11.264  1.00  0.00     0.148 A 
ATOM     87  C   UNL     1     -11.891  13.517  13.706  1.00  0.00     0.002 A 
ATOM     88  C   UNL     1     -13.839  13.825  12.295  1.00  0.00     0.091 A 
ATOM     89  F   UNL     1     -13.852  12.884  10.104  1.00  0.00    -0.205 F 
ATOM     90  C   UNL     1     -13.182  14.005  13.522  1.00  0.00     0.022 A 
BRANCH  88  91
ATOM     91  S   UNL     1     -15.460  14.575  12.109  1.00  0.00     0.127 S 
ATOM     92  O   UNL     1     -16.304  13.654  12.867  1.00  0.00    -0.237 OA
ATOM     93  O   UNL     1     -15.271  15.885  12.735  1.00  0.00    -0.237 OA
ATOM     94  O   UNL     1     -15.713  14.626  10.675  1.00  0.00    -0.744 OA
ENDBRANCH  88  91
ENDBRANCH  61  84
ENDBRANCH  35  36
ENDBRANCH  27  30
ENDBRANCH  25  26
ENDBRANCH   1  25
TORSDOF 18
