REMARK SMILES Cc1nsc(N[C@@H](C)C2CCCC2)c1C(=O)NCCCCNC(=O)c1ccc(-c2c3nc(c(-c4cccc(S(=O)(=O)[O-])c4F)c4ccc([nH]4)c(-c4cccc(S(=O)(=O)[O-])c4F)c4nc(c(-c5cccc(S(=O)(=O)[O-])c5F)c5ccc2[nH]5)C=C4)C=C3)cc1
REMARK SMILES IDX 19 1 18 2 17 3 15 4 16 5 14 7 1 8 2 9 3 10 4 11 5 12 6 13
REMARK SMILES IDX 7 15 8 16 9 17 10 18 13 19 11 20 12 21 20 22 21 23 22 24
REMARK SMILES IDX 23 25 24 27 25 28 26 29 87 30 27 31 86 32 28 33 29 34 30 35
REMARK SMILES IDX 80 36 31 37 85 38 79 39 81 40 32 41 84 42 78 43 77 44 33 46
REMARK SMILES IDX 65 47 45 48 64 49 46 50 49 51 63 52 82 53 47 54 48 55 62 57
REMARK SMILES IDX 83 58 50 59 34 60 35 61 43 62 36 63 38 64 44 65 37 66 39 67
REMARK SMILES IDX 40 68 41 69 42 70 66 71 67 72 75 73 68 74 70 75 76 76 69 77
REMARK SMILES IDX 71 78 72 79 73 80 74 81 51 82 52 83 60 84 53 85 55 86 61 87
REMARK SMILES IDX 54 88 56 89 57 90 58 91 59 92
REMARK H PARENT 17 6 6 14 22 26 81 45 49 56
REMARK Flexibility Score: inf
ROOT
ATOM      1  C   UNL     1      -0.755   2.192  -0.922  1.00  0.00     0.023 C 
ENDROOT
BRANCH   1   2
ATOM      2  C   UNL     1       0.412   2.099   0.062  1.00  0.00     0.116 C 
BRANCH   2   3
ATOM      3  N   UNL     1       0.003   2.109   1.442  1.00  0.00    -0.352 N 
ATOM      4  C   UNL     1      -0.082   1.219   2.479  1.00  0.00     0.256 C 
ATOM      5  O   UNL     1      -0.469   1.781   3.516  1.00  0.00    -0.269 OA
ATOM      6  H   UNL     1      -0.298   3.005   1.717  1.00  0.00     0.163 HD
BRANCH   4   7
ATOM      7  C   UNL     1       0.135  -0.250   2.460  1.00  0.00     0.097 A 
ATOM      8  C   UNL     1       1.449  -0.997   0.237  1.00  0.00     0.069 C 
ATOM      9  C   UNL     1       0.710  -1.204   1.510  1.00  0.00     0.066 A 
ATOM     10  N   UNL     1       0.593  -2.498   1.821  1.00  0.00    -0.195 NA
ATOM     11  S   UNL     1      -0.012  -2.650   3.326  1.00  0.00    -0.018 S 
ATOM     12  C   UNL     1      -0.220  -0.981   3.620  1.00  0.00     0.122 A 
BRANCH  12  13
ATOM     13  N   UNL     1      -0.664  -0.457   4.797  1.00  0.00    -0.372 N 
ATOM     14  H   UNL     1      -0.767   0.522   4.822  1.00  0.00     0.161 HD
BRANCH  13  15
ATOM     15  C   UNL     1      -1.002  -1.164   6.016  1.00  0.00     0.080 C 
ATOM     16  C   UNL     1      -0.230  -0.518   7.170  1.00  0.00     0.031 C 
BRANCH  15  17
ATOM     17  C   UNL     1      -2.522  -1.117   6.278  1.00  0.00     0.011 C 
ATOM     18  C   UNL     1      -3.279   0.108   5.752  1.00  0.00     0.006 C 
ATOM     19  C   UNL     1      -3.285  -2.264   5.610  1.00  0.00     0.006 C 
ATOM     20  C   UNL     1      -4.742  -0.311   5.829  1.00  0.00     0.000 C 
ATOM     21  C   UNL     1      -4.748  -1.829   5.645  1.00  0.00     0.000 C 
ENDBRANCH  15  17
ENDBRANCH  13  15
ENDBRANCH  12  13
ENDBRANCH   4   7
ENDBRANCH   2   3
ENDBRANCH   1   2
BRANCH   1  22
ATOM     22  C   UNL     1      -1.183   3.619  -1.300  1.00  0.00     0.023 C 
BRANCH  22  23
ATOM     23  C   UNL     1      -0.101   4.465  -1.971  1.00  0.00     0.116 C 
BRANCH  23  24
ATOM     24  N   UNL     1       0.384   3.891  -3.225  1.00  0.00    -0.352 N 
ATOM     25  C   UNL     1       1.481   4.294  -3.969  1.00  0.00     0.251 C 
ATOM     26  H   UNL     1      -0.129   3.130  -3.582  1.00  0.00     0.163 HD
ATOM     27  O   UNL     1       1.596   3.995  -5.142  1.00  0.00    -0.269 OA
BRANCH  25  28
ATOM     28  C   UNL     1       2.511   5.104  -3.294  1.00  0.00     0.039 A 
ATOM     29  C   UNL     1       2.930   6.323  -3.836  1.00  0.00     0.014 A 
ATOM     30  C   UNL     1       2.990   4.657  -2.065  1.00  0.00     0.014 A 
ATOM     31  C   UNL     1       3.766   7.146  -3.082  1.00  0.00     0.010 A 
ATOM     32  C   UNL     1       3.731   5.512  -1.282  1.00  0.00     0.010 A 
ATOM     33  C   UNL     1       4.142   6.749  -1.791  1.00  0.00    -0.014 A 
BRANCH  33  34
ATOM     34  C   UNL     1       4.827   7.685  -0.893  1.00  0.00     0.031 A 
ATOM     35  C   UNL     1       4.080   8.944  -0.581  1.00  0.00     0.074 A 
ATOM     36  C   UNL     1       5.894   7.300  -0.159  1.00  0.00     0.049 A 
ATOM     37  N   UNL     1       4.483  10.170  -0.692  1.00  0.00    -0.248 NA
ATOM     38  C   UNL     1       2.669   8.824  -0.176  1.00  0.00     0.031 C 
ATOM     39  C   UNL     1       6.505   5.963  -0.139  1.00  0.00     0.029 A 
ATOM     40  N   UNL     1       6.525   7.939   0.869  1.00  0.00    -0.354 N 
ATOM     41  C   UNL     1       3.459  10.958  -0.157  1.00  0.00     0.074 A 
ATOM     42  C   UNL     1       2.312  10.101  -0.043  1.00  0.00     0.031 C 
ATOM     43  C   UNL     1       7.176   5.799   1.018  1.00  0.00     0.029 A 
ATOM     44  C   UNL     1       7.191   7.064   1.726  1.00  0.00     0.049 A 
ATOM     45  H   UNL     1       6.511   8.915   0.993  1.00  0.00     0.167 HD
ATOM     46  C   UNL     1       3.709  12.180   0.394  1.00  0.00     0.034 A 
ATOM     47  C   UNL     1       7.670   7.327   2.964  1.00  0.00     0.034 A 
ATOM     48  C   UNL     1       5.008  12.670   0.009  1.00  0.00     0.049 A 
ATOM     49  C   UNL     1       7.800   8.791   3.092  1.00  0.00     0.074 A 
ATOM     50  C   UNL     1       5.642  12.995  -1.171  1.00  0.00     0.029 A 
ATOM     51  N   UNL     1       5.988  12.574   0.963  1.00  0.00    -0.354 N 
ATOM     52  N   UNL     1       8.642   9.505   2.399  1.00  0.00    -0.248 NA
ATOM     53  C   UNL     1       6.740   9.536   3.750  1.00  0.00     0.031 C 
ATOM     54  C   UNL     1       7.015  12.674  -0.956  1.00  0.00     0.029 A 
ATOM     55  C   UNL     1       7.153  12.207   0.354  1.00  0.00     0.049 A 
ATOM     56  H   UNL     1       5.872  12.742   1.926  1.00  0.00     0.167 HD
ATOM     57  C   UNL     1       7.965  10.690   2.157  1.00  0.00     0.074 A 
ATOM     58  C   UNL     1       6.892  10.717   3.146  1.00  0.00     0.031 C 
ATOM     59  C   UNL     1       8.151  11.372   0.987  1.00  0.00     0.034 A 
BRANCH  46  60
ATOM     60  C   UNL     1       3.003  12.768   1.612  1.00  0.00     0.023 A 
ATOM     61  C   UNL     1       3.408  14.064   2.022  1.00  0.00     0.012 A 
ATOM     62  C   UNL     1       2.229  12.032   2.537  1.00  0.00     0.148 A 
ATOM     63  C   UNL     1       3.155  14.550   3.311  1.00  0.00     0.002 A 
ATOM     64  C   UNL     1       1.916  12.549   3.792  1.00  0.00     0.091 A 
ATOM     65  F   UNL     1       1.886  10.769   2.279  1.00  0.00    -0.205 F 
ATOM     66  C   UNL     1       2.410  13.789   4.200  1.00  0.00     0.022 A 
BRANCH  64  67
ATOM     67  S   UNL     1       0.913  11.623   4.963  1.00  0.00     0.127 S 
ATOM     68  O   UNL     1       1.929  11.130   5.888  1.00  0.00    -0.237 OA
ATOM     69  O   UNL     1       0.037  12.665   5.499  1.00  0.00    -0.237 OA
ATOM     70  O   UNL     1       0.221  10.616   4.168  1.00  0.00    -0.744 OA
ENDBRANCH  64  67
ENDBRANCH  46  60
BRANCH  47  71
ATOM     71  C   UNL     1       7.854   6.411   4.109  1.00  0.00     0.023 A 
ATOM     72  C   UNL     1       8.824   6.693   5.088  1.00  0.00     0.012 A 
ATOM     73  C   UNL     1       6.919   5.383   4.369  1.00  0.00     0.148 A 
ATOM     74  C   UNL     1       8.852   5.988   6.297  1.00  0.00     0.002 A 
ATOM     75  C   UNL     1       6.958   4.676   5.566  1.00  0.00     0.091 A 
ATOM     76  F   UNL     1       5.945   5.159   3.476  1.00  0.00    -0.205 F 
ATOM     77  C   UNL     1       7.917   4.984   6.539  1.00  0.00     0.022 A 
BRANCH  75  78
ATOM     78  S   UNL     1       5.782   3.370   5.948  1.00  0.00     0.127 S 
ATOM     79  O   UNL     1       6.664   2.291   6.395  1.00  0.00    -0.237 OA
ATOM     80  O   UNL     1       4.982   3.985   7.005  1.00  0.00    -0.237 OA
ATOM     81  O   UNL     1       5.080   3.093   4.701  1.00  0.00    -0.744 OA
ENDBRANCH  75  78
ENDBRANCH  47  71
BRANCH  59  82
ATOM     82  C   UNL     1       9.352  11.022   0.147  1.00  0.00     0.023 A 
ATOM     83  C   UNL     1       9.512   9.754  -0.449  1.00  0.00     0.012 A 
ATOM     84  C   UNL     1      10.249  12.049  -0.189  1.00  0.00     0.148 A 
ATOM     85  C   UNL     1      10.559   9.509  -1.340  1.00  0.00     0.002 A 
ATOM     86  C   UNL     1      11.259  11.816  -1.115  1.00  0.00     0.091 A 
ATOM     87  F   UNL     1      10.081  13.251   0.383  1.00  0.00    -0.205 F 
ATOM     88  C   UNL     1      11.424  10.544  -1.685  1.00  0.00     0.022 A 
BRANCH  86  89
ATOM     89  S   UNL     1      12.312  13.145  -1.699  1.00  0.00     0.127 S 
ATOM     90  O   UNL     1      13.547  12.907  -0.956  1.00  0.00    -0.237 OA
ATOM     91  O   UNL     1      12.400  12.872  -3.135  1.00  0.00    -0.237 OA
ATOM     92  O   UNL     1      11.609  14.381  -1.375  1.00  0.00    -0.744 OA
ENDBRANCH  86  89
ENDBRANCH  59  82
ENDBRANCH  33  34
ENDBRANCH  25  28
ENDBRANCH  23  24
ENDBRANCH  22  23
ENDBRANCH   1  22
TORSDOF 17
