REMARK SMILES Cc1nsc(NC(=O)C2([NH3+])CCCCC2)c1C(=O)NCCCCNC(=O)c1ccc(-c2c3nc(c(-c4cccc(S(=O)(=O)[O-])c4F)c4ccc([nH]4)c(-c4cccc(S(=O)(=O)[O-])c4F)c4nc(c(-c5cccc(S(=O)(=O)[O-])c5F)c5ccc2[nH]5)C=C4)C=C3)cc1
REMARK SMILES IDX 21 1 20 2 19 3 17 4 18 5 16 7 1 8 2 9 3 10 4 11 5 12 6 13
REMARK SMILES IDX 7 14 8 16 9 17 11 18 15 19 12 20 14 21 13 22 10 23 22 27
REMARK SMILES IDX 23 28 24 29 25 30 26 32 27 33 28 34 89 35 29 36 88 37 30 38
REMARK SMILES IDX 31 39 32 40 82 41 33 42 87 43 81 44 83 45 34 46 86 47 80 48
REMARK SMILES IDX 79 49 35 51 67 52 47 53 66 54 48 55 51 56 65 57 84 58 49 59
REMARK SMILES IDX 50 60 64 62 85 63 52 64 36 65 37 66 45 67 38 68 40 69 46 70
REMARK SMILES IDX 39 71 41 72 42 73 43 74 44 75 68 76 69 77 77 78 70 79 72 80
REMARK SMILES IDX 78 81 71 82 73 83 74 84 75 85 76 86 53 87 54 88 62 89 55 90
REMARK SMILES IDX 57 91 63 92 56 93 58 94 59 95 60 96 61 97
REMARK H PARENT 19 6 6 15 10 24 10 25 10 26 24 31 83 50 51 61
REMARK Flexibility Score: inf
ROOT
ATOM      1  C   UNL     1       3.321   2.007   0.792  1.00  0.00     0.023 C 
ENDROOT
BRANCH   1   2
ATOM      2  C   UNL     1       1.869   1.700   0.438  1.00  0.00     0.116 C 
BRANCH   2   3
ATOM      3  N   UNL     1       1.254   2.535  -0.552  1.00  0.00    -0.352 N 
ATOM      4  C   UNL     1       0.477   2.220  -1.644  1.00  0.00     0.256 C 
ATOM      5  O   UNL     1       0.260   3.179  -2.395  1.00  0.00    -0.269 OA
ATOM      6  H   UNL     1       1.415   3.498  -0.431  1.00  0.00     0.163 HD
BRANCH   4   7
ATOM      7  C   UNL     1      -0.060   0.878  -1.990  1.00  0.00     0.097 A 
ATOM      8  C   UNL     1       0.249  -0.862   0.078  1.00  0.00     0.069 C 
ATOM      9  C   UNL     1      -0.180  -0.407  -1.274  1.00  0.00     0.066 A 
ATOM     10  N   UNL     1      -0.790  -1.389  -1.938  1.00  0.00    -0.195 NA
ATOM     11  S   UNL     1      -1.400  -0.802  -3.321  1.00  0.00    -0.017 S 
ATOM     12  C   UNL     1      -0.620   0.693  -3.275  1.00  0.00     0.129 A 
BRANCH  12  13
ATOM     13  N   UNL     1      -0.643   1.592  -4.336  1.00  0.00    -0.310 N 
ATOM     14  C   UNL     1      -0.944   1.533  -5.671  1.00  0.00     0.286 C 
ATOM     15  H   UNL     1      -0.375   2.498  -4.058  1.00  0.00     0.171 HD
ATOM     16  O   UNL     1      -0.850   2.609  -6.285  1.00  0.00    -0.267 OA
BRANCH  14  17
ATOM     17  C   UNL     1      -1.329   0.240  -6.481  1.00  0.00     0.174 C 
ATOM     18  C   UNL     1      -1.655   0.568  -7.970  1.00  0.00     0.079 C 
ATOM     19  C   UNL     1      -0.209  -0.824  -6.424  1.00  0.00     0.079 C 
ATOM     20  C   UNL     1      -0.437   0.832  -8.854  1.00  0.00     0.007 C 
ATOM     21  C   UNL     1       0.997  -0.495  -7.303  1.00  0.00     0.007 C 
ATOM     22  C   UNL     1       0.584  -0.290  -8.749  1.00  0.00     0.001 C 
BRANCH  17  23
ATOM     23  N   UNL     1      -2.610  -0.275  -5.942  1.00  0.00    -0.345 N 
ATOM     24  H   UNL     1      -3.321   0.454  -5.998  1.00  0.00     0.345 HD
ATOM     25  H   UNL     1      -2.482  -0.552  -4.969  1.00  0.00     0.345 HD
ATOM     26  H   UNL     1      -2.909  -1.083  -6.489  1.00  0.00     0.345 HD
ENDBRANCH  17  23
ENDBRANCH  14  17
ENDBRANCH  12  13
ENDBRANCH   4   7
ENDBRANCH   2   3
ENDBRANCH   1   2
BRANCH   1  27
ATOM     27  C   UNL     1       3.621   3.237   1.645  1.00  0.00     0.023 C 
BRANCH  27  28
ATOM     28  C   UNL     1       2.858   3.320   2.958  1.00  0.00     0.116 C 
BRANCH  28  29
ATOM     29  N   UNL     1       3.116   2.203   3.867  1.00  0.00    -0.352 N 
ATOM     30  C   UNL     1       2.607   2.033   5.149  1.00  0.00     0.251 C 
ATOM     31  H   UNL     1       3.715   1.495   3.535  1.00  0.00     0.163 HD
ATOM     32  O   UNL     1       3.137   1.280   5.944  1.00  0.00    -0.269 OA
BRANCH  30  33
ATOM     33  C   UNL     1       1.395   2.793   5.515  1.00  0.00     0.039 A 
ATOM     34  C   UNL     1       1.289   3.460   6.739  1.00  0.00     0.014 A 
ATOM     35  C   UNL     1       0.378   2.869   4.566  1.00  0.00     0.014 A 
ATOM     36  C   UNL     1       0.186   4.284   6.957  1.00  0.00     0.010 A 
ATOM     37  C   UNL     1      -0.623   3.792   4.719  1.00  0.00     0.010 A 
ATOM     38  C   UNL     1      -0.754   4.463   5.929  1.00  0.00    -0.014 A 
BRANCH  38  39
ATOM     39  C   UNL     1      -1.820   5.452   6.046  1.00  0.00     0.031 A 
ATOM     40  C   UNL     1      -1.341   6.844   6.266  1.00  0.00     0.074 A 
ATOM     41  C   UNL     1      -3.106   5.174   5.738  1.00  0.00     0.049 A 
ATOM     42  N   UNL     1      -1.438   7.545   7.346  1.00  0.00    -0.248 NA
ATOM     43  C   UNL     1      -0.511   7.474   5.226  1.00  0.00     0.031 C 
ATOM     44  C   UNL     1      -3.648   3.933   5.170  1.00  0.00     0.029 A 
ATOM     45  N   UNL     1      -4.185   6.002   5.722  1.00  0.00    -0.354 N 
ATOM     46  C   UNL     1      -0.915   8.799   7.031  1.00  0.00     0.074 A 
ATOM     47  C   UNL     1      -0.157   8.615   5.823  1.00  0.00     0.031 C 
ATOM     48  C   UNL     1      -4.862   4.178   4.628  1.00  0.00     0.029 A 
ATOM     49  C   UNL     1      -5.255   5.532   4.962  1.00  0.00     0.049 A 
ATOM     50  H   UNL     1      -4.209   6.859   6.206  1.00  0.00     0.167 HD
ATOM     51  C   UNL     1      -1.381   9.928   7.639  1.00  0.00     0.034 A 
ATOM     52  C   UNL     1      -6.358   6.230   4.595  1.00  0.00     0.034 A 
ATOM     53  C   UNL     1      -2.208   9.589   8.773  1.00  0.00     0.049 A 
ATOM     54  C   UNL     1      -6.460   7.391   5.506  1.00  0.00     0.074 A 
ATOM     55  C   UNL     1      -2.036   8.878   9.943  1.00  0.00     0.029 A 
ATOM     56  N   UNL     1      -3.566   9.687   8.583  1.00  0.00    -0.354 N 
ATOM     57  N   UNL     1      -6.724   7.286   6.777  1.00  0.00    -0.248 NA
ATOM     58  C   UNL     1      -5.844   8.640   5.092  1.00  0.00     0.031 C 
ATOM     59  C   UNL     1      -3.269   8.188  10.136  1.00  0.00     0.029 A 
ATOM     60  C   UNL     1      -4.149   8.577   9.125  1.00  0.00     0.049 A 
ATOM     61  H   UNL     1      -4.035  10.427   8.134  1.00  0.00     0.167 HD
ATOM     62  C   UNL     1      -5.882   8.214   7.373  1.00  0.00     0.074 A 
ATOM     63  C   UNL     1      -5.462   9.099   6.287  1.00  0.00     0.031 C 
ATOM     64  C   UNL     1      -5.371   7.992   8.619  1.00  0.00     0.034 A 
BRANCH  51  65
ATOM     65  C   UNL     1      -1.460  11.315   7.024  1.00  0.00     0.023 A 
ATOM     66  C   UNL     1      -1.941  12.352   7.862  1.00  0.00     0.012 A 
ATOM     67  C   UNL     1      -1.378  11.606   5.644  1.00  0.00     0.148 A 
ATOM     68  C   UNL     1      -2.403  13.568   7.347  1.00  0.00     0.002 A 
ATOM     69  C   UNL     1      -1.768  12.845   5.144  1.00  0.00     0.091 A 
ATOM     70  F   UNL     1      -1.037  10.656   4.774  1.00  0.00    -0.205 F 
ATOM     71  C   UNL     1      -2.318  13.815   5.985  1.00  0.00     0.022 A 
BRANCH  69  72
ATOM     72  S   UNL     1      -1.637  13.245   3.395  1.00  0.00     0.127 S 
ATOM     73  O   UNL     1      -3.040  13.276   2.996  1.00  0.00    -0.237 OA
ATOM     74  O   UNL     1      -0.974  14.549   3.440  1.00  0.00    -0.237 OA
ATOM     75  O   UNL     1      -0.829  12.184   2.807  1.00  0.00    -0.744 OA
ENDBRANCH  69  72
ENDBRANCH  51  65
BRANCH  52  76
ATOM     76  C   UNL     1      -7.221   6.128   3.395  1.00  0.00     0.023 A 
ATOM     77  C   UNL     1      -8.510   6.701   3.423  1.00  0.00     0.012 A 
ATOM     78  C   UNL     1      -6.681   5.763   2.144  1.00  0.00     0.148 A 
ATOM     79  C   UNL     1      -9.213   6.958   2.240  1.00  0.00     0.002 A 
ATOM     80  C   UNL     1      -7.384   6.021   0.970  1.00  0.00     0.091 A 
ATOM     81  F   UNL     1      -5.440   5.260   2.100  1.00  0.00    -0.205 F 
ATOM     82  C   UNL     1      -8.645   6.631   1.013  1.00  0.00     0.022 A 
BRANCH  80  83
ATOM     83  S   UNL     1      -6.694   5.672  -0.653  1.00  0.00     0.127 S 
ATOM     84  O   UNL     1      -7.812   5.005  -1.322  1.00  0.00    -0.237 OA
ATOM     85  O   UNL     1      -6.397   7.013  -1.146  1.00  0.00    -0.237 OA
ATOM     86  O   UNL     1      -5.541   4.813  -0.413  1.00  0.00    -0.744 OA
ENDBRANCH  80  83
ENDBRANCH  52  76
BRANCH  64  87
ATOM     87  C   UNL     1      -5.981   6.895   9.452  1.00  0.00     0.023 A 
ATOM     88  C   UNL     1      -5.968   5.537   9.071  1.00  0.00     0.012 A 
ATOM     89  C   UNL     1      -6.450   7.237  10.730  1.00  0.00     0.148 A 
ATOM     90  C   UNL     1      -6.439   4.548   9.940  1.00  0.00     0.002 A 
ATOM     91  C   UNL     1      -6.869   6.248  11.608  1.00  0.00     0.091 A 
ATOM     92  F   UNL     1      -6.461   8.534  11.076  1.00  0.00    -0.205 F 
ATOM     93  C   UNL     1      -6.876   4.902  11.214  1.00  0.00     0.022 A 
BRANCH  91  94
ATOM     94  S   UNL     1      -7.317   6.649  13.297  1.00  0.00     0.127 S 
ATOM     95  O   UNL     1      -8.776   6.675  13.228  1.00  0.00    -0.237 OA
ATOM     96  O   UNL     1      -6.759   5.524  14.051  1.00  0.00    -0.237 OA
ATOM     97  O   UNL     1      -6.674   7.926  13.583  1.00  0.00    -0.744 OA
ENDBRANCH  91  94
ENDBRANCH  64  87
ENDBRANCH  38  39
ENDBRANCH  30  33
ENDBRANCH  28  29
ENDBRANCH  27  28
ENDBRANCH   1  27
TORSDOF 17
