REMARK SMILES O=C(CCN1C(=O)S/C(=C\c2ccc(F)cc2)C1=O)Nc1ccc(O)cc1C(=O)NCCCCNC(=O)c1ccc(-c2c3nc(c(-c4cccc(S(=O)(=O)[O-])c4F)c4ccc([nH]4)c(-c4cccc(S(=O)(=O)[O-])c4F)c4nc(c(-c5cccc(S(=O)(=O)[O-])c5F)c5ccc2[nH]5)C=C4)C=C3)cc1
REMARK SMILES IDX 31 1 30 2 28 3 29 4 27 6 21 7 22 8 23 9 26 10 24 11 20 12
REMARK SMILES IDX 1 13 2 14 3 16 4 17 5 18 6 19 18 20 7 21 8 22 9 23 19 24
REMARK SMILES IDX 10 25 11 26 12 27 17 28 13 29 16 30 14 31 15 32 25 33 32 35
REMARK SMILES IDX 33 36 34 37 35 38 36 39 37 41 38 42 39 43 100 44 40 45 99 46
REMARK SMILES IDX 41 47 42 48 43 49 93 50 44 51 98 52 92 53 94 54 45 55 97 56
REMARK SMILES IDX 91 57 90 58 46 60 78 61 58 62 77 63 59 64 62 65 76 66 95 67
REMARK SMILES IDX 60 68 61 69 75 71 96 72 63 73 47 74 48 75 56 76 49 77 51 78
REMARK SMILES IDX 57 79 50 80 52 81 53 82 54 83 55 84 79 85 80 86 88 87 81 88
REMARK SMILES IDX 83 89 89 90 82 91 84 92 85 93 86 94 87 95 64 96 65 97 73 98
REMARK SMILES IDX 66 99 68 100 74 101 67 102 69 103 70 104 71 105 72 106
REMARK H PARENT 30 5 20 15 25 34 35 40 94 59 62 70
REMARK Flexibility Score: inf
ROOT
ATOM      1  C   UNL     1       2.642  -2.396   0.700  1.00  0.00     0.116 C 
ENDROOT
BRANCH   1   2
ATOM      2  N   UNL     1       3.386  -3.070  -0.373  1.00  0.00    -0.352 N 
ATOM      3  C   UNL     1       3.297  -3.080  -1.754  1.00  0.00     0.253 C 
ATOM      4  O   UNL     1       4.128  -3.741  -2.381  1.00  0.00    -0.269 OA
ATOM      5  H   UNL     1       4.111  -3.643  -0.033  1.00  0.00     0.163 HD
BRANCH   3   6
ATOM      6  C   UNL     1       2.270  -2.345  -2.552  1.00  0.00     0.067 A 
ATOM      7  C   UNL     1       1.891  -1.012  -2.329  1.00  0.00     0.054 A 
ATOM      8  C   UNL     1       0.858  -0.441  -3.092  1.00  0.00     0.031 A 
ATOM      9  C   UNL     1       0.292  -1.137  -4.160  1.00  0.00     0.048 A 
ATOM     10  C   UNL     1       1.728  -3.017  -3.665  1.00  0.00     0.062 A 
ATOM     11  C   UNL     1       0.763  -2.406  -4.463  1.00  0.00     0.116 A 
BRANCH   7  12
ATOM     12  N   UNL     1       2.675  -0.197  -1.496  1.00  0.00    -0.325 N 
ATOM     13  O   UNL     1       1.083   1.272  -0.704  1.00  0.00    -0.275 OA
ATOM     14  C   UNL     1       2.255   0.920  -0.814  1.00  0.00     0.226 C 
ATOM     15  H   UNL     1       3.620  -0.451  -1.389  1.00  0.00     0.169 HD
BRANCH  14  16
ATOM     16  C   UNL     1       3.377   1.743  -0.211  1.00  0.00     0.122 C 
BRANCH  16  17
ATOM     17  C   UNL     1       4.479   0.946   0.473  1.00  0.00     0.140 C 
BRANCH  17  18
ATOM     18  N   UNL     1       5.449   0.233  -0.380  1.00  0.00    -0.268 N 
ATOM     19  C   UNL     1       6.312   0.899  -1.205  1.00  0.00     0.293 C 
ATOM     20  C   UNL     1       5.798  -1.076  -0.163  1.00  0.00     0.268 C 
ATOM     21  O   UNL     1       6.370   2.110  -1.358  1.00  0.00    -0.261 OA
ATOM     22  S   UNL     1       7.397  -0.233  -2.019  1.00  0.00    -0.022 SA
ATOM     23  C   UNL     1       6.802  -1.563  -1.128  1.00  0.00     0.083 C 
ATOM     24  O   UNL     1       5.385  -1.767   0.749  1.00  0.00    -0.268 OA
ATOM     25  C   UNL     1       7.085  -2.873  -1.193  1.00  0.00     0.029 C 
BRANCH  25  26
ATOM     26  C   UNL     1       8.037  -3.552  -2.070  1.00  0.00    -0.024 A 
ATOM     27  C   UNL     1       9.414  -3.437  -1.851  1.00  0.00     0.011 A 
ATOM     28  C   UNL     1       7.564  -4.411  -3.072  1.00  0.00     0.011 A 
ATOM     29  C   UNL     1      10.312  -4.145  -2.652  1.00  0.00     0.040 A 
ATOM     30  C   UNL     1       8.463  -5.115  -3.876  1.00  0.00     0.040 A 
ATOM     31  C   UNL     1       9.829  -4.970  -3.662  1.00  0.00     0.123 A 
ATOM     32  F   UNL     1      10.691  -5.642  -4.436  1.00  0.00    -0.207 F 
ENDBRANCH  25  26
ENDBRANCH  17  18
ENDBRANCH  16  17
ENDBRANCH  14  16
ENDBRANCH   7  12
BRANCH  11  33
ATOM     33  O   UNL     1       0.305  -3.081  -5.556  1.00  0.00    -0.508 OA
ATOM     34  H   UNL     1      -0.344  -2.692  -6.109  1.00  0.00     0.293 HD
ENDBRANCH  11  33
ENDBRANCH   3   6
ENDBRANCH   1   2
BRANCH   1  35
ATOM     35  C   UNL     1       2.851  -2.944   2.137  1.00  0.00     0.023 C 
BRANCH  35  36
ATOM     36  C   UNL     1       3.826  -2.559   3.325  1.00  0.00     0.023 C 
BRANCH  36  37
ATOM     37  C   UNL     1       5.236  -1.924   3.440  1.00  0.00     0.116 C 
BRANCH  37  38
ATOM     38  N   UNL     1       5.277  -0.485   3.225  1.00  0.00    -0.352 N 
ATOM     39  C   UNL     1       5.850   0.517   3.976  1.00  0.00     0.251 C 
ATOM     40  H   UNL     1       4.820  -0.178   2.409  1.00  0.00     0.163 HD
ATOM     41  O   UNL     1       5.425   1.667   3.949  1.00  0.00    -0.269 OA
BRANCH  39  42
ATOM     42  C   UNL     1       7.138   0.227   4.630  1.00  0.00     0.039 A 
ATOM     43  C   UNL     1       7.348   0.520   5.976  1.00  0.00     0.014 A 
ATOM     44  C   UNL     1       8.162  -0.321   3.847  1.00  0.00     0.014 A 
ATOM     45  C   UNL     1       8.552   0.135   6.572  1.00  0.00     0.010 A 
ATOM     46  C   UNL     1       9.345  -0.729   4.447  1.00  0.00     0.010 A 
ATOM     47  C   UNL     1       9.531  -0.546   5.823  1.00  0.00    -0.014 A 
BRANCH  47  48
ATOM     48  C   UNL     1      10.676  -1.210   6.491  1.00  0.00     0.031 A 
ATOM     49  C   UNL     1      12.087  -0.770   6.247  1.00  0.00     0.074 A 
ATOM     50  C   UNL     1      10.419  -2.299   7.244  1.00  0.00     0.049 A 
ATOM     51  N   UNL     1      13.193  -1.248   6.754  1.00  0.00    -0.248 NA
ATOM     52  C   UNL     1      12.290   0.333   5.294  1.00  0.00     0.031 C 
ATOM     53  C   UNL     1       9.088  -2.875   7.458  1.00  0.00     0.029 A 
ATOM     54  N   UNL     1      11.252  -3.124   7.955  1.00  0.00    -0.354 N 
ATOM     55  C   UNL     1      14.223  -0.516   6.180  1.00  0.00     0.074 A 
ATOM     56  C   UNL     1      13.614   0.410   5.250  1.00  0.00     0.031 C 
ATOM     57  C   UNL     1       9.190  -3.935   8.272  1.00  0.00     0.029 A 
ATOM     58  C   UNL     1      10.593  -4.135   8.617  1.00  0.00     0.049 A 
ATOM     59  H   UNL     1      12.229  -3.004   7.990  1.00  0.00     0.167 HD
ATOM     60  C   UNL     1      15.552  -0.589   6.434  1.00  0.00     0.034 A 
ATOM     61  C   UNL     1      11.064  -5.106   9.423  1.00  0.00     0.034 A 
ATOM     62  C   UNL     1      16.134  -1.507   7.377  1.00  0.00     0.049 A 
ATOM     63  C   UNL     1      12.537  -5.142   9.720  1.00  0.00     0.074 A 
ATOM     64  C   UNL     1      17.458  -1.621   7.761  1.00  0.00     0.029 A 
ATOM     65  N   UNL     1      15.430  -2.474   8.080  1.00  0.00    -0.354 N 
ATOM     66  N   UNL     1      13.481  -4.343   9.284  1.00  0.00    -0.248 NA
ATOM     67  C   UNL     1      13.008  -6.184  10.642  1.00  0.00     0.031 C 
ATOM     68  C   UNL     1      17.558  -2.672   8.676  1.00  0.00     0.029 A 
ATOM     69  C   UNL     1      16.291  -3.193   8.890  1.00  0.00     0.049 A 
ATOM     70  H   UNL     1      14.459  -2.627   8.012  1.00  0.00     0.167 HD
ATOM     71  C   UNL     1      14.652  -4.762   9.902  1.00  0.00     0.074 A 
ATOM     72  C   UNL     1      14.295  -5.879  10.755  1.00  0.00     0.031 C 
ATOM     73  C   UNL     1      15.908  -4.271   9.768  1.00  0.00     0.034 A 
BRANCH  60  74
ATOM     74  C   UNL     1      16.459   0.392   5.736  1.00  0.00     0.023 A 
ATOM     75  C   UNL     1      16.404   1.756   6.093  1.00  0.00     0.012 A 
ATOM     76  C   UNL     1      17.413  -0.033   4.791  1.00  0.00     0.148 A 
ATOM     77  C   UNL     1      17.256   2.685   5.498  1.00  0.00     0.002 A 
ATOM     78  C   UNL     1      18.291   0.892   4.235  1.00  0.00     0.091 A 
ATOM     79  F   UNL     1      17.443  -1.329   4.450  1.00  0.00    -0.205 F 
ATOM     80  C   UNL     1      18.206   2.251   4.578  1.00  0.00     0.022 A 
BRANCH  78  81
ATOM     81  S   UNL     1      19.607   0.427   3.103  1.00  0.00     0.127 S 
ATOM     82  O   UNL     1      19.143   1.026   1.852  1.00  0.00    -0.237 OA
ATOM     83  O   UNL     1      20.771   1.083   3.698  1.00  0.00    -0.237 OA
ATOM     84  O   UNL     1      19.654  -1.028   3.116  1.00  0.00    -0.744 OA
ENDBRANCH  78  81
ENDBRANCH  60  74
BRANCH  61  85
ATOM     85  C   UNL     1      10.105  -6.037  10.085  1.00  0.00     0.023 A 
ATOM     86  C   UNL     1       9.858  -5.899  11.464  1.00  0.00     0.012 A 
ATOM     87  C   UNL     1       9.370  -6.985   9.347  1.00  0.00     0.148 A 
ATOM     88  C   UNL     1       8.907  -6.698  12.101  1.00  0.00     0.002 A 
ATOM     89  C   UNL     1       8.385  -7.739   9.976  1.00  0.00     0.091 A 
ATOM     90  F   UNL     1       9.623  -7.101   8.036  1.00  0.00    -0.205 F 
ATOM     91  C   UNL     1       8.162  -7.607  11.355  1.00  0.00     0.022 A 
BRANCH  89  92
ATOM     92  S   UNL     1       7.277  -8.829   9.074  1.00  0.00     0.127 S 
ATOM     93  O   UNL     1       7.661 -10.140   9.590  1.00  0.00    -0.237 OA
ATOM     94  O   UNL     1       5.965  -8.352   9.513  1.00  0.00    -0.237 OA
ATOM     95  O   UNL     1       7.559  -8.601   7.663  1.00  0.00    -0.744 OA
ENDBRANCH  89  92
ENDBRANCH  61  85
BRANCH  73  96
ATOM     96  C   UNL     1      17.006  -4.912  10.574  1.00  0.00     0.023 A 
ATOM     97  C   UNL     1      17.506  -6.173  10.196  1.00  0.00     0.012 A 
ATOM     98  C   UNL     1      17.634  -4.198  11.615  1.00  0.00     0.148 A 
ATOM     99  C   UNL     1      18.608  -6.720  10.850  1.00  0.00     0.002 A 
ATOM    100  C   UNL     1      18.763  -4.726  12.226  1.00  0.00     0.091 A 
ATOM    101  F   UNL     1      17.129  -3.007  11.967  1.00  0.00    -0.205 F 
ATOM    102  C   UNL     1      19.246  -5.991  11.852  1.00  0.00     0.022 A 
BRANCH 100 103
ATOM    103  S   UNL     1      19.717  -3.815  13.446  1.00  0.00     0.127 S 
ATOM    104  O   UNL     1      19.477  -4.599  14.657  1.00  0.00    -0.237 OA
ATOM    105  O   UNL     1      21.075  -3.916  12.912  1.00  0.00    -0.237 OA
ATOM    106  O   UNL     1      19.169  -2.466  13.462  1.00  0.00    -0.744 OA
ENDBRANCH 100 103
ENDBRANCH  73  96
ENDBRANCH  47  48
ENDBRANCH  39  42
ENDBRANCH  37  38
ENDBRANCH  36  37
ENDBRANCH  35  36
ENDBRANCH   1  35
TORSDOF 20
