REMARK SMILES Cc1ccc(NC(=O)C[N@H+]2CCC[C@@H](C(=O)NCCCCNC(=O)c3ccc(-c4c5nc(c(-c6cccc(S(=O)(=O)[O-])c6F)c6ccc([nH]6)c(-c6cccc(S(=O)(=O)[O-])c6F)c6nc(c(-c7cccc(S(=O)(=O)[O-])c7F)c7ccc4[nH]7)C=C6)C=C5)cc3)C2)cc1F
REMARK SMILES IDX 19 1 18 2 17 3 15 4 16 5 14 7 10 8 11 9 88 10 12 12 13 13
REMARK SMILES IDX 9 14 7 15 6 16 8 18 5 19 1 20 2 21 3 22 90 23 4 24 89 25
REMARK SMILES IDX 91 26 20 27 21 28 22 29 23 30 24 32 25 33 26 34 87 35 27 36
REMARK SMILES IDX 86 37 28 38 29 39 30 40 80 41 31 42 85 43 79 44 81 45 32 46
REMARK SMILES IDX 84 47 78 48 77 49 33 51 65 52 45 53 64 54 46 55 49 56 63 57
REMARK SMILES IDX 82 58 47 59 48 60 62 62 83 63 50 64 34 65 35 66 43 67 36 68
REMARK SMILES IDX 38 69 44 70 37 71 39 72 40 73 41 74 42 75 66 76 67 77 75 78
REMARK SMILES IDX 68 79 70 80 76 81 69 82 71 83 72 84 73 85 74 86 51 87 52 88
REMARK SMILES IDX 60 89 53 90 55 91 61 92 54 93 56 94 57 95 58 96 59 97
REMARK H PARENT 17 6 10 11 6 17 22 31 81 50 49 61
REMARK Flexibility Score: inf
ROOT
ATOM      1  C   UNL     1       1.401   1.782  -2.332  1.00  0.00     0.023 C 
ENDROOT
BRANCH   1   2
ATOM      2  C   UNL     1       0.162   0.929  -2.022  1.00  0.00     0.116 C 
BRANCH   2   3
ATOM      3  N   UNL     1      -0.704   0.769  -3.182  1.00  0.00    -0.356 N 
ATOM      4  C   UNL     1      -1.126  -0.368  -3.812  1.00  0.00     0.228 C 
ATOM      5  O   UNL     1      -1.876  -0.247  -4.782  1.00  0.00    -0.275 OA
ATOM      6  H   UNL     1      -1.037   1.609  -3.572  1.00  0.00     0.163 HD
BRANCH   4   7
ATOM      7  C   UNL     1      -0.678  -1.735  -3.306  1.00  0.00     0.133 C 
ATOM      8  N   UNL     1      -1.149  -3.497  -1.606  1.00  0.00    -0.326 N 
ATOM      9  C   UNL     1      -1.098  -4.532  -2.655  1.00  0.00     0.262 C 
ATOM     10  C   UNL     1      -1.595  -2.204  -2.162  1.00  0.00     0.276 C 
ATOM     11  H   UNL     1      -0.220  -3.291  -1.239  1.00  0.00     0.348 HD
ATOM     12  C   UNL     1      -0.253  -4.126  -3.862  1.00  0.00     0.062 C 
ATOM     13  C   UNL     1      -0.697  -2.781  -4.423  1.00  0.00     0.025 C 
BRANCH   8  14
ATOM     14  C   UNL     1      -1.942  -4.020  -0.454  1.00  0.00     0.363 C 
BRANCH  14  15
ATOM     15  C   UNL     1      -2.945  -3.077   0.203  1.00  0.00     0.279 C 
ATOM     16  N   UNL     1      -2.597  -1.972   0.920  1.00  0.00    -0.321 N 
ATOM     17  H   UNL     1      -3.370  -1.494   1.298  1.00  0.00     0.170 HD
ATOM     18  O   UNL     1      -4.156  -3.309   0.073  1.00  0.00    -0.268 OA
BRANCH  16  19
ATOM     19  C   UNL     1      -1.366  -1.373   1.232  1.00  0.00     0.044 A 
ATOM     20  C   UNL     1       2.267   0.900   1.757  1.00  0.00     0.047 C 
ATOM     21  C   UNL     1       1.011   0.094   1.655  1.00  0.00    -0.015 A 
ATOM     22  C   UNL     1      -0.236   0.693   1.834  1.00  0.00     0.008 A 
ATOM     23  C   UNL     1       1.045  -1.257   1.333  1.00  0.00     0.128 A 
ATOM     24  C   UNL     1      -1.413  -0.029   1.620  1.00  0.00     0.026 A 
ATOM     25  C   UNL     1      -0.123  -1.992   1.141  1.00  0.00     0.065 A 
ATOM     26  F   UNL     1       2.223  -1.881   1.182  1.00  0.00    -0.207 F 
ENDBRANCH  16  19
ENDBRANCH  14  15
ENDBRANCH   8  14
ENDBRANCH   4   7
ENDBRANCH   2   3
ENDBRANCH   1   2
BRANCH   1  27
ATOM     27  C   UNL     1       1.156   3.292  -2.483  1.00  0.00     0.023 C 
BRANCH  27  28
ATOM     28  C   UNL     1       0.710   3.987  -1.201  1.00  0.00     0.116 C 
BRANCH  28  29
ATOM     29  N   UNL     1       1.778   4.104  -0.209  1.00  0.00    -0.352 N 
ATOM     30  C   UNL     1       1.838   4.982   0.871  1.00  0.00     0.251 C 
ATOM     31  H   UNL     1       2.541   3.491  -0.316  1.00  0.00     0.163 HD
ATOM     32  O   UNL     1       2.900   5.322   1.342  1.00  0.00    -0.269 OA
BRANCH  30  33
ATOM     33  C   UNL     1       0.555   5.489   1.412  1.00  0.00     0.039 A 
ATOM     34  C   UNL     1       0.392   6.793   1.896  1.00  0.00     0.014 A 
ATOM     35  C   UNL     1      -0.512   4.604   1.416  1.00  0.00     0.014 A 
ATOM     36  C   UNL     1      -0.887   7.228   2.268  1.00  0.00     0.010 A 
ATOM     37  C   UNL     1      -1.776   5.050   1.670  1.00  0.00     0.010 A 
ATOM     38  C   UNL     1      -1.970   6.357   2.111  1.00  0.00    -0.014 A 
BRANCH  38  39
ATOM     39  C   UNL     1      -3.370   6.693   2.331  1.00  0.00     0.031 A 
ATOM     40  C   UNL     1      -4.033   7.729   1.529  1.00  0.00     0.074 A 
ATOM     41  C   UNL     1      -4.061   5.899   3.176  1.00  0.00     0.049 A 
ATOM     42  N   UNL     1      -5.050   8.418   1.914  1.00  0.00    -0.248 NA
ATOM     43  C   UNL     1      -3.567   8.089   0.193  1.00  0.00     0.031 C 
ATOM     44  C   UNL     1      -5.492   5.797   3.407  1.00  0.00     0.029 A 
ATOM     45  N   UNL     1      -3.502   5.108   4.170  1.00  0.00    -0.354 N 
ATOM     46  C   UNL     1      -5.579   9.023   0.794  1.00  0.00     0.074 A 
ATOM     47  C   UNL     1      -4.544   8.909  -0.211  1.00  0.00     0.031 C 
ATOM     48  C   UNL     1      -5.689   5.229   4.613  1.00  0.00     0.029 A 
ATOM     49  C   UNL     1      -4.383   5.091   5.248  1.00  0.00     0.049 A 
ATOM     50  H   UNL     1      -2.637   4.641   4.121  1.00  0.00     0.167 HD
ATOM     51  C   UNL     1      -6.902   9.374   0.784  1.00  0.00     0.034 A 
ATOM     52  C   UNL     1      -3.989   5.705   6.406  1.00  0.00     0.034 A 
ATOM     53  C   UNL     1      -7.522   9.051   2.070  1.00  0.00     0.049 A 
ATOM     54  C   UNL     1      -4.859   6.899   6.699  1.00  0.00     0.074 A 
ATOM     55  C   UNL     1      -8.313   7.984   2.466  1.00  0.00     0.029 A 
ATOM     56  N   UNL     1      -7.073   9.661   3.239  1.00  0.00    -0.354 N 
ATOM     57  N   UNL     1      -5.432   7.632   5.783  1.00  0.00    -0.248 NA
ATOM     58  C   UNL     1      -5.189   7.315   8.055  1.00  0.00     0.031 C 
ATOM     59  C   UNL     1      -8.246   7.891   3.879  1.00  0.00     0.029 A 
ATOM     60  C   UNL     1      -7.447   8.921   4.345  1.00  0.00     0.049 A 
ATOM     61  H   UNL     1      -6.560  10.501   3.272  1.00  0.00     0.167 HD
ATOM     62  C   UNL     1      -6.267   8.531   6.393  1.00  0.00     0.074 A 
ATOM     63  C   UNL     1      -6.057   8.311   7.814  1.00  0.00     0.031 C 
ATOM     64  C   UNL     1      -7.106   9.353   5.697  1.00  0.00     0.034 A 
BRANCH  51  65
ATOM     65  C   UNL     1      -7.684   9.665  -0.491  1.00  0.00     0.023 A 
ATOM     66  C   UNL     1      -7.065  10.143  -1.667  1.00  0.00     0.012 A 
ATOM     67  C   UNL     1      -9.077   9.426  -0.592  1.00  0.00     0.148 A 
ATOM     68  C   UNL     1      -7.730  10.217  -2.900  1.00  0.00     0.002 A 
ATOM     69  C   UNL     1      -9.750   9.536  -1.815  1.00  0.00     0.091 A 
ATOM     70  F   UNL     1      -9.784   9.089   0.494  1.00  0.00    -0.205 F 
ATOM     71  C   UNL     1      -9.074   9.896  -2.980  1.00  0.00     0.022 A 
BRANCH  69  72
ATOM     72  S   UNL     1     -11.516   9.206  -1.885  1.00  0.00     0.127 S 
ATOM     73  O   UNL     1     -11.602   7.802  -1.494  1.00  0.00    -0.237 OA
ATOM     74  O   UNL     1     -12.072  10.184  -0.956  1.00  0.00    -0.237 OA
ATOM     75  O   UNL     1     -11.850   9.459  -3.288  1.00  0.00    -0.744 OA
ENDBRANCH  69  72
ENDBRANCH  51  65
BRANCH  52  76
ATOM     76  C   UNL     1      -2.497   5.645   6.606  1.00  0.00     0.023 A 
ATOM     77  C   UNL     1      -1.681   6.752   6.305  1.00  0.00     0.012 A 
ATOM     78  C   UNL     1      -1.907   4.359   6.614  1.00  0.00     0.148 A 
ATOM     79  C   UNL     1      -0.345   6.562   5.913  1.00  0.00     0.002 A 
ATOM     80  C   UNL     1      -0.619   4.173   6.118  1.00  0.00     0.091 A 
ATOM     81  F   UNL     1      -2.670   3.305   6.949  1.00  0.00    -0.205 F 
ATOM     82  C   UNL     1       0.172   5.272   5.772  1.00  0.00     0.022 A 
BRANCH  80  83
ATOM     83  S   UNL     1      -0.127   2.521   5.596  1.00  0.00     0.127 S 
ATOM     84  O   UNL     1       0.270   1.891   6.851  1.00  0.00    -0.237 OA
ATOM     85  O   UNL     1      -1.329   1.997   4.949  1.00  0.00    -0.237 OA
ATOM     86  O   UNL     1       0.968   2.769   4.658  1.00  0.00    -0.744 OA
ENDBRANCH  80  83
ENDBRANCH  52  76
BRANCH  64  87
ATOM     87  C   UNL     1      -7.841  10.543   6.264  1.00  0.00     0.023 A 
ATOM     88  C   UNL     1      -8.921  11.085   5.520  1.00  0.00     0.012 A 
ATOM     89  C   UNL     1      -7.475  11.232   7.429  1.00  0.00     0.148 A 
ATOM     90  C   UNL     1      -9.601  12.239   5.916  1.00  0.00     0.002 A 
ATOM     91  C   UNL     1      -8.228  12.315   7.882  1.00  0.00     0.091 A 
ATOM     92  F   UNL     1      -6.359  10.900   8.092  1.00  0.00    -0.205 F 
ATOM     93  C   UNL     1      -9.272  12.842   7.118  1.00  0.00     0.022 A 
BRANCH  91  94
ATOM     94  S   UNL     1      -7.912  12.939   9.531  1.00  0.00     0.127 S 
ATOM     95  O   UNL     1      -8.163  11.766  10.365  1.00  0.00    -0.237 OA
ATOM     96  O   UNL     1      -6.530  13.401   9.462  1.00  0.00    -0.237 OA
ATOM     97  O   UNL     1      -8.899  14.008   9.685  1.00  0.00    -0.744 OA
ENDBRANCH  91  94
ENDBRANCH  64  87
ENDBRANCH  38  39
ENDBRANCH  30  33
ENDBRANCH  28  29
ENDBRANCH  27  28
ENDBRANCH   1  27
TORSDOF 17
