REMARK SMILES C[C@H]1CC[C@@]2(CO)C(C(=O)NCCCCNC(=O)c3ccc(-c4c5nc(c(-c6cccc(S(=O)(=O)[O-])c6F)c6ccc([nH]6)c(-c6cccc(S(=O)(=O)[O-])c6F)c6nc(c(-c7cccc(S(=O)(=O)[O-])c7F)c7ccc4[nH]7)C=C6)C=C5)cc3)=C[C@@H](O)C[C@@H]2[C@@]1(C)CCc1ccoc1
REMARK SMILES IDX 13 1 12 2 11 3 9 4 10 5 8 7 1 8 2 9 3 10 87 11 4 12 86 13
REMARK SMILES IDX 88 14 5 15 85 16 83 17 82 18 89 19 90 20 91 21 92 22 95 23
REMARK SMILES IDX 93 24 94 25 6 26 7 27 84 29 14 31 15 32 16 33 17 34 18 36
REMARK SMILES IDX 19 37 20 38 81 39 21 40 80 41 22 42 23 43 24 44 74 45 25 46
REMARK SMILES IDX 79 47 73 48 75 49 26 50 78 51 72 52 71 53 27 55 59 56 39 57
REMARK SMILES IDX 58 58 40 59 43 60 57 61 76 62 41 63 42 64 56 66 77 67 44 68
REMARK SMILES IDX 28 69 29 70 37 71 30 72 32 73 38 74 31 75 33 76 34 77 35 78
REMARK SMILES IDX 36 79 60 80 61 81 69 82 62 83 64 84 70 85 63 86 65 87 66 88
REMARK SMILES IDX 67 89 68 90 45 91 46 92 54 93 47 94 49 95 55 96 48 97 50 98
REMARK SMILES IDX 51 99 52 100 53 101
REMARK H PARENT 11 6 7 28 84 30 16 35 75 54 43 65
REMARK Flexibility Score: inf
ROOT
ATOM      1  C   UNL     1       3.513   3.594  -0.351  1.00  0.00     0.023 C 
ENDROOT
BRANCH   1   2
ATOM      2  C   UNL     1       3.103   2.134  -0.123  1.00  0.00     0.116 C 
BRANCH   2   3
ATOM      3  N   UNL     1       2.476   1.954   1.185  1.00  0.00    -0.352 N 
ATOM      4  C   UNL     1       1.145   1.885   1.514  1.00  0.00     0.247 C 
ATOM      5  O   UNL     1       0.770   1.738   2.670  1.00  0.00    -0.270 OA
ATOM      6  H   UNL     1       3.100   1.871   1.942  1.00  0.00     0.163 HD
BRANCH   4   7
ATOM      7  C   UNL     1       0.173   1.933   0.394  1.00  0.00     0.024 C 
ATOM      8  C   UNL     1       1.402  -2.224  -0.787  1.00  0.00     0.008 C 
ATOM      9  C   UNL     1      -0.122  -2.085  -1.047  1.00  0.00    -0.008 C 
ATOM     10  C   UNL     1      -0.807  -1.857   0.307  1.00  0.00     0.005 C 
ATOM     11  C   UNL     1      -0.541  -0.984  -2.123  1.00  0.00    -0.026 C 
ATOM     12  C   UNL     1      -0.425  -0.513   0.922  1.00  0.00     0.015 C 
ATOM     13  C   UNL     1      -0.181   0.429  -1.493  1.00  0.00     0.011 C 
ATOM     14  C   UNL     1      -2.062  -1.073  -2.404  1.00  0.00     0.012 C 
ATOM     15  C   UNL     1      -0.658   0.707  -0.008  1.00  0.00     0.027 C 
ATOM     16  C   UNL     1      -0.474   1.653  -2.413  1.00  0.00     0.041 C 
ATOM     17  C   UNL     1      -0.318   3.054  -1.761  1.00  0.00     0.138 C 
ATOM     18  C   UNL     1       0.192   3.047  -0.360  1.00  0.00     0.014 C 
BRANCH  11  19
ATOM     19  C   UNL     1       0.317  -1.279  -3.435  1.00  0.00     0.012 C 
BRANCH  19  20
ATOM     20  C   UNL     1      -0.323  -1.553  -4.810  1.00  0.00     0.039 C 
BRANCH  20  21
ATOM     21  C   UNL     1      -0.367  -0.388  -5.738  1.00  0.00    -0.010 A 
ATOM     22  C   UNL     1       0.417  -0.230  -6.920  1.00  0.00     0.045 A 
ATOM     23  C   UNL     1      -1.170   0.731  -5.689  1.00  0.00     0.198 A 
ATOM     24  C   UNL     1       0.058   0.975  -7.474  1.00  0.00     0.195 A 
ATOM     25  O   UNL     1      -0.910   1.564  -6.729  1.00  0.00    -0.472 OA
ENDBRANCH  20  21
ENDBRANCH  19  20
ENDBRANCH  11  19
BRANCH  15  26
ATOM     26  C   UNL     1      -2.155   1.163   0.153  1.00  0.00     0.168 C 
BRANCH  26  27
ATOM     27  O   UNL     1      -3.097   0.099   0.203  1.00  0.00    -0.395 OA
ATOM     28  H   UNL     1      -3.076  -0.391  -0.635  1.00  0.00     0.210 HD
ENDBRANCH  26  27
ENDBRANCH  15  26
BRANCH  17  29
ATOM     29  O   UNL     1       0.626   3.788  -2.540  1.00  0.00    -0.389 OA
ATOM     30  H   UNL     1       1.486   3.339  -2.514  1.00  0.00     0.211 HD
ENDBRANCH  17  29
ENDBRANCH   4   7
ENDBRANCH   2   3
ENDBRANCH   1   2
BRANCH   1  31
ATOM     31  C   UNL     1       5.008   3.831  -0.170  1.00  0.00     0.023 C 
BRANCH  31  32
ATOM     32  C   UNL     1       5.869   3.223  -1.270  1.00  0.00     0.116 C 
BRANCH  32  33
ATOM     33  N   UNL     1       5.679   3.849  -2.574  1.00  0.00    -0.352 N 
ATOM     34  C   UNL     1       6.647   4.179  -3.501  1.00  0.00     0.251 C 
ATOM     35  H   UNL     1       4.751   4.062  -2.822  1.00  0.00     0.163 HD
ATOM     36  O   UNL     1       6.367   4.776  -4.529  1.00  0.00    -0.269 OA
BRANCH  34  37
ATOM     37  C   UNL     1       8.048   3.825  -3.191  1.00  0.00     0.039 A 
ATOM     38  C   UNL     1       9.003   4.841  -3.120  1.00  0.00     0.014 A 
ATOM     39  C   UNL     1       8.370   2.512  -2.839  1.00  0.00     0.014 A 
ATOM     40  C   UNL     1      10.268   4.553  -2.603  1.00  0.00     0.010 A 
ATOM     41  C   UNL     1       9.600   2.248  -2.250  1.00  0.00     0.010 A 
ATOM     42  C   UNL     1      10.559   3.266  -2.118  1.00  0.00    -0.014 A 
BRANCH  42  43
ATOM     43  C   UNL     1      11.851   2.964  -1.449  1.00  0.00     0.031 A 
ATOM     44  C   UNL     1      12.773   1.930  -2.036  1.00  0.00     0.074 A 
ATOM     45  C   UNL     1      12.145   3.542  -0.267  1.00  0.00     0.049 A 
ATOM     46  N   UNL     1      13.897   1.463  -1.560  1.00  0.00    -0.248 NA
ATOM     47  C   UNL     1      12.358   1.312  -3.308  1.00  0.00     0.031 C 
ATOM     48  C   UNL     1      11.287   4.484   0.457  1.00  0.00     0.029 A 
ATOM     49  N   UNL     1      13.238   3.399   0.552  1.00  0.00    -0.354 N 
ATOM     50  C   UNL     1      14.305   0.479  -2.452  1.00  0.00     0.074 A 
ATOM     51  C   UNL     1      13.286   0.380  -3.472  1.00  0.00     0.031 C 
ATOM     52  C   UNL     1      11.887   4.837   1.606  1.00  0.00     0.029 A 
ATOM     53  C   UNL     1      13.161   4.134   1.714  1.00  0.00     0.049 A 
ATOM     54  H   UNL     1      14.006   2.824   0.330  1.00  0.00     0.167 HD
ATOM     55  C   UNL     1      15.447  -0.248  -2.449  1.00  0.00     0.034 A 
ATOM     56  C   UNL     1      14.023   4.231   2.746  1.00  0.00     0.034 A 
ATOM     57  C   UNL     1      16.489  -0.103  -1.470  1.00  0.00     0.049 A 
ATOM     58  C   UNL     1      15.322   3.472   2.681  1.00  0.00     0.074 A 
ATOM     59  C   UNL     1      17.715  -0.741  -1.416  1.00  0.00     0.029 A 
ATOM     60  N   UNL     1      16.433   0.752  -0.381  1.00  0.00    -0.354 N 
ATOM     61  N   UNL     1      15.757   2.660   1.748  1.00  0.00    -0.248 NA
ATOM     62  C   UNL     1      16.269   3.674   3.788  1.00  0.00     0.031 C 
ATOM     63  C   UNL     1      18.404  -0.267  -0.295  1.00  0.00     0.029 A 
ATOM     64  C   UNL     1      17.608   0.671   0.343  1.00  0.00     0.049 A 
ATOM     65  H   UNL     1      15.669   1.331  -0.156  1.00  0.00     0.167 HD
ATOM     66  C   UNL     1      17.039   2.286   2.135  1.00  0.00     0.074 A 
ATOM     67  C   UNL     1      17.320   2.979   3.375  1.00  0.00     0.031 C 
ATOM     68  C   UNL     1      17.898   1.427   1.533  1.00  0.00     0.034 A 
BRANCH  55  69
ATOM     69  C   UNL     1      15.669  -1.199  -3.595  1.00  0.00     0.023 A 
ATOM     70  C   UNL     1      15.973  -0.674  -4.869  1.00  0.00     0.012 A 
ATOM     71  C   UNL     1      15.635  -2.594  -3.412  1.00  0.00     0.148 A 
ATOM     72  C   UNL     1      16.206  -1.521  -5.950  1.00  0.00     0.002 A 
ATOM     73  C   UNL     1      15.910  -3.433  -4.486  1.00  0.00     0.091 A 
ATOM     74  F   UNL     1      15.327  -3.073  -2.198  1.00  0.00    -0.205 F 
ATOM     75  C   UNL     1      16.184  -2.899  -5.756  1.00  0.00     0.022 A 
BRANCH  73  76
ATOM     76  S   UNL     1      15.978  -5.222  -4.332  1.00  0.00     0.127 S 
ATOM     77  O   UNL     1      14.806  -5.629  -5.107  1.00  0.00    -0.237 OA
ATOM     78  O   UNL     1      17.262  -5.535  -4.959  1.00  0.00    -0.237 OA
ATOM     79  O   UNL     1      15.910  -5.507  -2.906  1.00  0.00    -0.744 OA
ENDBRANCH  73  76
ENDBRANCH  55  69
BRANCH  56  80
ATOM     80  C   UNL     1      13.731   5.143   3.890  1.00  0.00     0.023 A 
ATOM     81  C   UNL     1      14.495   6.316   4.049  1.00  0.00     0.012 A 
ATOM     82  C   UNL     1      12.706   4.864   4.814  1.00  0.00     0.148 A 
ATOM     83  C   UNL     1      14.274   7.171   5.129  1.00  0.00     0.002 A 
ATOM     84  C   UNL     1      12.456   5.749   5.859  1.00  0.00     0.091 A 
ATOM     85  F   UNL     1      11.997   3.737   4.661  1.00  0.00    -0.205 F 
ATOM     86  C   UNL     1      13.250   6.893   6.029  1.00  0.00     0.022 A 
BRANCH  84  87
ATOM     87  S   UNL     1      11.068   5.522   6.977  1.00  0.00     0.127 S 
ATOM     88  O   UNL     1      11.709   4.901   8.131  1.00  0.00    -0.237 OA
ATOM     89  O   UNL     1      10.612   6.897   7.191  1.00  0.00    -0.237 OA
ATOM     90  O   UNL     1      10.121   4.693   6.241  1.00  0.00    -0.744 OA
ENDBRANCH  84  87
ENDBRANCH  56  80
BRANCH  68  91
ATOM     91  C   UNL     1      19.240   1.214   2.179  1.00  0.00     0.023 A 
ATOM     92  C   UNL     1      19.334   0.435   3.348  1.00  0.00     0.012 A 
ATOM     93  C   UNL     1      20.413   1.712   1.580  1.00  0.00     0.148 A 
ATOM     94  C   UNL     1      20.575   0.177   3.928  1.00  0.00     0.002 A 
ATOM     95  C   UNL     1      21.650   1.413   2.139  1.00  0.00     0.091 A 
ATOM     96  F   UNL     1      20.300   2.468   0.478  1.00  0.00    -0.205 F 
ATOM     97  C   UNL     1      21.732   0.655   3.318  1.00  0.00     0.022 A 
BRANCH  95  98
ATOM     98  S   UNL     1      23.195   1.909   1.367  1.00  0.00     0.127 S 
ATOM     99  O   UNL     1      23.606   3.027   2.213  1.00  0.00    -0.237 OA
ATOM    100  O   UNL     1      24.015   0.705   1.505  1.00  0.00    -0.237 OA
ATOM    101  O   UNL     1      22.859   2.252  -0.009  1.00  0.00    -0.744 OA
ENDBRANCH  95  98
ENDBRANCH  68  91
ENDBRANCH  42  43
ENDBRANCH  34  37
ENDBRANCH  32  33
ENDBRANCH  31  32
ENDBRANCH   1  31
TORSDOF 20
