REMARK SMILES CC[NH2+][C@@]1(C(=O)NCCCCNC(=O)c2ccc(-c3c4nc(c(-c5cccc(S(=O)(=O)[O-])c5F)c5ccc([nH]5)c(-c5cccc(S(=O)(=O)[O-])c5F)c5nc(c(-c6cccc(S(=O)(=O)[O-])c6F)c6ccc3[nH]6)C=C5)C=C4)cc2)CC[C@@H](n2cnc3ccccc32)C1
REMARK SMILES IDX 10 1 9 2 8 3 7 4 5 5 6 6 4 8 78 9 90 10 79 11 80 12 3 13
REMARK SMILES IDX 2 16 1 17 81 18 82 19 89 20 83 21 84 22 88 23 85 24 87 25
REMARK SMILES IDX 86 26 11 27 12 28 13 29 14 31 15 32 16 33 77 34 17 35 76 36
REMARK SMILES IDX 18 37 19 38 20 39 70 40 21 41 75 42 69 43 71 44 22 45 74 46
REMARK SMILES IDX 68 47 67 48 23 50 55 51 35 52 54 53 36 54 39 55 53 56 72 57
REMARK SMILES IDX 37 58 38 59 52 61 73 62 40 63 24 64 25 65 33 66 26 67 28 68
REMARK SMILES IDX 34 69 27 70 29 71 30 72 31 73 32 74 56 75 57 76 65 77 58 78
REMARK SMILES IDX 60 79 66 80 59 81 61 82 62 83 63 84 64 85 41 86 42 87 50 88
REMARK SMILES IDX 43 89 45 90 51 91 44 92 46 93 47 94 48 95 49 96
REMARK H PARENT 7 7 3 14 3 15 12 30 71 49 39 60
REMARK Flexibility Score: inf
ROOT
ATOM      1  C   UNL     1       1.680  -0.192   8.912  1.00  0.00     0.023 C 
ENDROOT
BRANCH   1   2
ATOM      2  C   UNL     1       0.752   0.045   7.741  1.00  0.00     0.023 C 
BRANCH   2   3
ATOM      3  C   UNL     1       0.755   1.474   7.161  1.00  0.00     0.116 C 
BRANCH   3   4
ATOM      4  N   UNL     1       1.615   1.642   5.987  1.00  0.00    -0.351 N 
ATOM      5  C   UNL     1       1.477   1.870   4.630  1.00  0.00     0.281 C 
ATOM      6  O   UNL     1       2.490   2.508   4.284  1.00  0.00    -0.268 OA
ATOM      7  H   UNL     1       2.565   1.572   6.236  1.00  0.00     0.163 HD
BRANCH   5   8
ATOM      8  C   UNL     1       0.026   1.384   3.569  1.00  0.00     0.177 C 
ATOM      9  C   UNL     1      -1.134   2.339   4.530  1.00  0.00     0.081 C 
ATOM     10  C   UNL     1      -0.383  -0.015   4.671  1.00  0.00     0.104 C 
ATOM     11  C   UNL     1      -2.206   1.397   5.143  1.00  0.00     0.033 C 
ATOM     12  C   UNL     1      -1.880  -0.045   4.704  1.00  0.00     0.096 C 
BRANCH   8  13
ATOM     13  N   UNL     1       0.062   1.219   1.468  1.00  0.00    -0.334 N 
ATOM     14  H   UNL     1      -0.654   1.896   1.206  1.00  0.00     0.347 HD
ATOM     15  H   UNL     1       1.079   1.137   1.456  1.00  0.00     0.347 HD
BRANCH  13  16
ATOM     16  C   UNL     1      -0.093   0.161   0.326  1.00  0.00     0.257 C 
ATOM     17  C   UNL     1       1.014   0.331  -0.715  1.00  0.00     0.071 C 
ENDBRANCH  13  16
ENDBRANCH   8  13
BRANCH  12  18
ATOM     18  N   UNL     1      -2.202  -0.379   3.312  1.00  0.00    -0.327 N 
ATOM     19  C   UNL     1      -3.330   0.191   2.720  1.00  0.00     0.200 A 
ATOM     20  C   UNL     1      -1.100  -0.078   2.485  1.00  0.00     0.068 A 
ATOM     21  N   UNL     1      -3.135   1.428   2.281  1.00  0.00    -0.237 NA
ATOM     22  C   UNL     1      -1.769   1.553   2.242  1.00  0.00     0.088 A 
ATOM     23  C   UNL     1       0.745  -0.313   2.567  1.00  0.00     0.028 A 
ATOM     24  C   UNL     1      -0.666   2.989   2.173  1.00  0.00     0.030 A 
ATOM     25  C   UNL     1       1.833   1.123   2.377  1.00  0.00     0.002 A 
ATOM     26  C   UNL     1       1.119   2.784   2.260  1.00  0.00     0.002 A 
ENDBRANCH  12  18
ENDBRANCH   5   8
ENDBRANCH   3   4
ENDBRANCH   2   3
ENDBRANCH   1   2
BRANCH   1  27
ATOM     27  C   UNL     1       1.548   0.835  10.012  1.00  0.00     0.116 C 
BRANCH  27  28
ATOM     28  N   UNL     1       0.170   1.057  10.449  1.00  0.00    -0.352 N 
ATOM     29  C   UNL     1      -0.244   1.363  11.724  1.00  0.00     0.251 C 
ATOM     30  H   UNL     1      -0.530   0.979   9.761  1.00  0.00     0.163 HD
ATOM     31  O   UNL     1      -1.429   1.421  12.021  1.00  0.00    -0.269 OA
BRANCH  29  32
ATOM     32  C   UNL     1       0.817   1.576  12.721  1.00  0.00     0.039 A 
ATOM     33  C   UNL     1       0.896   0.722  13.819  1.00  0.00     0.014 A 
ATOM     34  C   UNL     1       1.848   2.469  12.413  1.00  0.00     0.014 A 
ATOM     35  C   UNL     1       2.058   0.724  14.585  1.00  0.00     0.010 A 
ATOM     36  C   UNL     1       3.047   2.366  13.094  1.00  0.00     0.010 A 
ATOM     37  C   UNL     1       3.156   1.514  14.203  1.00  0.00    -0.014 A 
BRANCH  37  38
ATOM     38  C   UNL     1       4.423   1.493  14.969  1.00  0.00     0.031 A 
ATOM     39  C   UNL     1       4.926   2.766  15.592  1.00  0.00     0.074 A 
ATOM     40  C   UNL     1       5.145   0.358  15.046  1.00  0.00     0.049 A 
ATOM     41  N   UNL     1       6.018   2.969  16.279  1.00  0.00    -0.248 NA
ATOM     42  C   UNL     1       4.115   3.980  15.387  1.00  0.00     0.031 C 
ATOM     43  C   UNL     1       4.798  -0.917  14.413  1.00  0.00     0.029 A 
ATOM     44  N   UNL     1       6.332   0.098  15.682  1.00  0.00    -0.354 N 
ATOM     45  C   UNL     1       6.041   4.330  16.553  1.00  0.00     0.074 A 
ATOM     46  C   UNL     1       4.888   4.916  15.910  1.00  0.00     0.031 C 
ATOM     47  C   UNL     1       5.735  -1.830  14.718  1.00  0.00     0.029 A 
ATOM     48  C   UNL     1       6.769  -1.197  15.530  1.00  0.00     0.049 A 
ATOM     49  H   UNL     1       6.826   0.776  16.198  1.00  0.00     0.167 HD
ATOM     50  C   UNL     1       6.922   5.028  17.304  1.00  0.00     0.034 A 
ATOM     51  C   UNL     1       7.881  -1.801  15.991  1.00  0.00     0.034 A 
ATOM     52  C   UNL     1       8.047   4.433  17.966  1.00  0.00     0.049 A 
ATOM     53  C   UNL     1       8.840  -1.005  16.835  1.00  0.00     0.074 A 
ATOM     54  C   UNL     1       8.955   5.029  18.821  1.00  0.00     0.029 A 
ATOM     55  N   UNL     1       8.430   3.107  17.833  1.00  0.00    -0.354 N 
ATOM     56  N   UNL     1       8.763   0.247  17.215  1.00  0.00    -0.248 NA
ATOM     57  C   UNL     1      10.023  -1.715  17.342  1.00  0.00     0.031 C 
ATOM     58  C   UNL     1       9.917   4.075  19.164  1.00  0.00     0.029 A 
ATOM     59  C   UNL     1       9.575   2.870  18.571  1.00  0.00     0.049 A 
ATOM     60  H   UNL     1       7.956   2.434  17.293  1.00  0.00     0.167 HD
ATOM     61  C   UNL     1       9.861   0.464  18.039  1.00  0.00     0.074 A 
ATOM     62  C   UNL     1      10.578  -0.793  18.116  1.00  0.00     0.031 C 
ATOM     63  C   UNL     1      10.248   1.601  18.669  1.00  0.00     0.034 A 
BRANCH  50  64
ATOM     64  C   UNL     1       6.684   6.507  17.463  1.00  0.00     0.023 A 
ATOM     65  C   UNL     1       5.568   6.969  18.192  1.00  0.00     0.012 A 
ATOM     66  C   UNL     1       7.583   7.440  16.914  1.00  0.00     0.148 A 
ATOM     67  C   UNL     1       5.326   8.334  18.333  1.00  0.00     0.002 A 
ATOM     68  C   UNL     1       7.366   8.798  17.106  1.00  0.00     0.091 A 
ATOM     69  F   UNL     1       8.623   6.983  16.202  1.00  0.00    -0.205 F 
ATOM     70  C   UNL     1       6.231   9.248  17.800  1.00  0.00     0.022 A 
BRANCH  68  71
ATOM     71  S   UNL     1       8.517  10.051  16.533  1.00  0.00     0.127 S 
ATOM     72  O   UNL     1       7.740  10.705  15.480  1.00  0.00    -0.237 OA
ATOM     73  O   UNL     1       8.712  10.858  17.738  1.00  0.00    -0.237 OA
ATOM     74  O   UNL     1       9.701   9.335  16.081  1.00  0.00    -0.744 OA
ENDBRANCH  68  71
ENDBRANCH  50  64
BRANCH  51  75
ATOM     75  C   UNL     1       8.123  -3.245  15.713  1.00  0.00     0.023 A 
ATOM     76  C   UNL     1       8.076  -4.175  16.771  1.00  0.00     0.012 A 
ATOM     77  C   UNL     1       8.392  -3.704  14.409  1.00  0.00     0.148 A 
ATOM     78  C   UNL     1       8.332  -5.527  16.543  1.00  0.00     0.002 A 
ATOM     79  C   UNL     1       8.589  -5.060  14.179  1.00  0.00     0.091 A 
ATOM     80  F   UNL     1       8.437  -2.804  13.418  1.00  0.00    -0.205 F 
ATOM     81  C   UNL     1       8.581  -5.971  15.247  1.00  0.00     0.022 A 
BRANCH  79  82
ATOM     82  S   UNL     1       8.791  -5.739  12.529  1.00  0.00     0.127 S 
ATOM     83  O   UNL     1      10.171  -6.214  12.568  1.00  0.00    -0.237 OA
ATOM     84  O   UNL     1       7.775  -6.792  12.514  1.00  0.00    -0.237 OA
ATOM     85  O   UNL     1       8.529  -4.637  11.613  1.00  0.00    -0.744 OA
ENDBRANCH  79  82
ENDBRANCH  51  75
BRANCH  63  86
ATOM     86  C   UNL     1      11.473   1.532  19.544  1.00  0.00     0.023 A 
ATOM     87  C   UNL     1      12.750   1.387  18.970  1.00  0.00     0.012 A 
ATOM     88  C   UNL     1      11.354   1.688  20.940  1.00  0.00     0.148 A 
ATOM     89  C   UNL     1      13.888   1.357  19.775  1.00  0.00     0.002 A 
ATOM     90  C   UNL     1      12.496   1.716  21.729  1.00  0.00     0.091 A 
ATOM     91  F   UNL     1      10.127   1.810  21.468  1.00  0.00    -0.205 F 
ATOM     92  C   UNL     1      13.762   1.535  21.151  1.00  0.00     0.022 A 
BRANCH  90  93
ATOM     93  S   UNL     1      12.439   2.043  23.494  1.00  0.00     0.127 S 
ATOM     94  O   UNL     1      12.831   0.748  24.048  1.00  0.00    -0.237 OA
ATOM     95  O   UNL     1      13.440   3.099  23.643  1.00  0.00    -0.237 OA
ATOM     96  O   UNL     1      11.073   2.456  23.785  1.00  0.00    -0.744 OA
ENDBRANCH  90  93
ENDBRANCH  63  86
ENDBRANCH  37  38
ENDBRANCH  29  32
ENDBRANCH  27  28
ENDBRANCH   1  27
TORSDOF 17
