REMARK SMILES O=C(NCCCCNC(=O)[C@H](Cc1cccc(O)c1)Cc1cccc(F)c1)c1ccc(-c2c3nc(c(-c4cccc(S(=O)(=O)[O-])c4F)c4ccc([nH]4)c(-c4cccc(S(=O)(=O)[O-])c4F)c4nc(c(-c5cccc(S(=O)(=O)[O-])c5F)c5ccc2[nH]5)C=C4)C=C3)cc1
REMARK SMILES IDX 5 1 4 2 3 3 1 4 2 5 28 7 29 8 90 9 30 10 89 11 31 12 32 13
REMARK SMILES IDX 33 14 83 15 34 16 88 17 82 18 84 19 35 20 87 21 81 22 80 23
REMARK SMILES IDX 36 25 68 26 48 27 67 28 49 29 52 30 66 31 85 32 50 33 51 34
REMARK SMILES IDX 65 36 86 37 53 38 37 39 38 40 46 41 39 42 41 43 47 44 40 45
REMARK SMILES IDX 42 46 43 47 44 48 45 49 69 50 70 51 78 52 71 53 73 54 79 55
REMARK SMILES IDX 72 56 74 57 75 58 76 59 77 60 54 61 55 62 63 63 56 64 58 65
REMARK SMILES IDX 64 66 57 67 59 68 60 69 61 70 62 71 6 72 7 73 8 74 9 75
REMARK SMILES IDX 10 77 11 78 20 79 21 80 22 81 27 82 23 83 25 84 24 85 26 86
REMARK SMILES IDX 12 87 13 88 14 89 19 90 15 91 17 92 16 93 18 94
REMARK H PARENT 3 6 84 24 52 35 8 76 18 95
REMARK Flexibility Score: inf
ROOT
ATOM      1  C   UNL     1       4.531  -7.547   8.280  1.00  0.00     0.023 C 
ENDROOT
BRANCH   1   2
ATOM      2  C   UNL     1       3.043  -7.831   8.096  1.00  0.00     0.116 C 
BRANCH   2   3
ATOM      3  N   UNL     1       2.766  -9.247   7.938  1.00  0.00    -0.352 N 
ATOM      4  O   UNL     1       2.077 -11.303   8.527  1.00  0.00    -0.269 OA
ATOM      5  C   UNL     1       2.034 -10.091   8.736  1.00  0.00     0.251 C 
ATOM      6  H   UNL     1       3.161  -9.665   7.139  1.00  0.00     0.163 HD
BRANCH   5   7
ATOM      7  C   UNL     1       1.224  -9.554   9.851  1.00  0.00     0.039 A 
ATOM      8  C   UNL     1       0.405  -8.435   9.675  1.00  0.00     0.014 A 
ATOM      9  C   UNL     1       1.267 -10.201  11.089  1.00  0.00     0.014 A 
ATOM     10  C   UNL     1      -0.271  -7.889  10.765  1.00  0.00     0.010 A 
ATOM     11  C   UNL     1       0.531  -9.693  12.164  1.00  0.00     0.010 A 
ATOM     12  C   UNL     1      -0.223  -8.518  12.019  1.00  0.00    -0.014 A 
BRANCH  12  13
ATOM     13  C   UNL     1      -1.007  -7.983  13.163  1.00  0.00     0.031 A 
ATOM     14  C   UNL     1      -0.317  -7.483  14.403  1.00  0.00     0.074 A 
ATOM     15  C   UNL     1      -2.353  -7.990  13.096  1.00  0.00     0.049 A 
ATOM     16  N   UNL     1      -0.843  -7.084  15.533  1.00  0.00    -0.248 NA
ATOM     17  C   UNL     1       1.154  -7.423  14.376  1.00  0.00     0.031 C 
ATOM     18  C   UNL     1      -3.139  -8.460  11.952  1.00  0.00     0.029 A 
ATOM     19  N   UNL     1      -3.301  -7.614  14.015  1.00  0.00    -0.354 N 
ATOM     20  C   UNL     1       0.225  -6.761  16.362  1.00  0.00     0.074 A 
ATOM     21  C   UNL     1       1.434  -7.013  15.607  1.00  0.00     0.031 C 
ATOM     22  C   UNL     1      -4.444  -8.347  12.237  1.00  0.00     0.029 A 
ATOM     23  C   UNL     1      -4.591  -7.855  13.602  1.00  0.00     0.049 A 
ATOM     24  H   UNL     1      -3.079  -7.211  14.886  1.00  0.00     0.167 HD
ATOM     25  C   UNL     1       0.198  -6.285  17.630  1.00  0.00     0.034 A 
ATOM     26  C   UNL     1      -5.761  -7.729  14.258  1.00  0.00     0.034 A 
ATOM     27  C   UNL     1      -1.009  -6.007  18.365  1.00  0.00     0.049 A 
ATOM     28  C   UNL     1      -5.753  -7.223  15.674  1.00  0.00     0.074 A 
ATOM     29  C   UNL     1      -1.133  -5.486  19.642  1.00  0.00     0.029 A 
ATOM     30  N   UNL     1      -2.295  -6.227  17.899  1.00  0.00    -0.354 N 
ATOM     31  N   UNL     1      -4.738  -6.835  16.407  1.00  0.00    -0.248 NA
ATOM     32  C   UNL     1      -7.056  -7.113  16.345  1.00  0.00     0.031 C 
ATOM     33  C   UNL     1      -2.492  -5.416  19.958  1.00  0.00     0.029 A 
ATOM     34  C   UNL     1      -3.218  -5.860  18.865  1.00  0.00     0.049 A 
ATOM     35  H   UNL     1      -2.520  -6.590  17.012  1.00  0.00     0.167 HD
ATOM     36  C   UNL     1      -5.281  -6.408  17.613  1.00  0.00     0.074 A 
ATOM     37  C   UNL     1      -6.718  -6.552  17.498  1.00  0.00     0.031 C 
ATOM     38  C   UNL     1      -4.647  -5.960  18.724  1.00  0.00     0.034 A 
BRANCH  25  39
ATOM     39  C   UNL     1       1.506  -5.981  18.313  1.00  0.00     0.023 A 
ATOM     40  C   UNL     1       2.224  -4.824  17.951  1.00  0.00     0.012 A 
ATOM     41  C   UNL     1       1.946  -6.755  19.406  1.00  0.00     0.148 A 
ATOM     42  C   UNL     1       3.363  -4.444  18.661  1.00  0.00     0.002 A 
ATOM     43  C   UNL     1       3.057  -6.346  20.136  1.00  0.00     0.091 A 
ATOM     44  F   UNL     1       1.255  -7.858  19.726  1.00  0.00    -0.205 F 
ATOM     45  C   UNL     1       3.769  -5.196  19.760  1.00  0.00     0.022 A 
BRANCH  43  46
ATOM     46  S   UNL     1       3.615  -7.191  21.621  1.00  0.00     0.127 S 
ATOM     47  O   UNL     1       4.948  -7.641  21.221  1.00  0.00    -0.237 OA
ATOM     48  O   UNL     1       3.606  -6.112  22.607  1.00  0.00    -0.237 OA
ATOM     49  O   UNL     1       2.653  -8.257  21.866  1.00  0.00    -0.744 OA
ENDBRANCH  43  46
ENDBRANCH  25  39
BRANCH  26  50
ATOM     50  C   UNL     1      -7.043  -8.066  13.574  1.00  0.00     0.023 A 
ATOM     51  C   UNL     1      -7.964  -7.039  13.291  1.00  0.00     0.012 A 
ATOM     52  C   UNL     1      -7.347  -9.386  13.189  1.00  0.00     0.148 A 
ATOM     53  C   UNL     1      -9.181  -7.325  12.672  1.00  0.00     0.002 A 
ATOM     54  C   UNL     1      -8.532  -9.654  12.514  1.00  0.00     0.091 A 
ATOM     55  F   UNL     1      -6.466 -10.353  13.480  1.00  0.00    -0.205 F 
ATOM     56  C   UNL     1      -9.460  -8.630  12.274  1.00  0.00     0.022 A 
BRANCH  54  57
ATOM     57  S   UNL     1      -8.911 -11.275  11.839  1.00  0.00     0.127 S 
ATOM     58  O   UNL     1      -9.990 -11.720  12.716  1.00  0.00    -0.237 OA
ATOM     59  O   UNL     1      -9.322 -10.944  10.474  1.00  0.00    -0.237 OA
ATOM     60  O   UNL     1      -7.671 -12.035  11.924  1.00  0.00    -0.744 OA
ENDBRANCH  54  57
ENDBRANCH  26  50
BRANCH  38  61
ATOM     61  C   UNL     1      -5.499  -5.563  19.903  1.00  0.00     0.023 A 
ATOM     62  C   UNL     1      -6.173  -6.554  20.644  1.00  0.00     0.012 A 
ATOM     63  C   UNL     1      -5.575  -4.219  20.320  1.00  0.00     0.148 A 
ATOM     64  C   UNL     1      -6.941  -6.210  21.756  1.00  0.00     0.002 A 
ATOM     65  C   UNL     1      -6.297  -3.891  21.461  1.00  0.00     0.091 A 
ATOM     66  F   UNL     1      -4.941  -3.286  19.594  1.00  0.00    -0.205 F 
ATOM     67  C   UNL     1      -6.993  -4.882  22.171  1.00  0.00     0.022 A 
BRANCH  65  68
ATOM     68  S   UNL     1      -6.335  -2.224  22.132  1.00  0.00     0.127 S 
ATOM     69  O   UNL     1      -7.698  -1.805  21.812  1.00  0.00    -0.237 OA
ATOM     70  O   UNL     1      -6.088  -2.458  23.556  1.00  0.00    -0.237 OA
ATOM     71  O   UNL     1      -5.278  -1.492  21.448  1.00  0.00    -0.744 OA
ENDBRANCH  65  68
ENDBRANCH  38  61
ENDBRANCH  12  13
ENDBRANCH   5   7
ENDBRANCH   2   3
ENDBRANCH   1   2
BRANCH   1  72
ATOM     72  C   UNL     1       5.436  -7.976   7.118  1.00  0.00     0.023 C 
BRANCH  72  73
ATOM     73  C   UNL     1       5.015  -7.480   5.734  1.00  0.00     0.116 C 
BRANCH  73  74
ATOM     74  N   UNL     1       4.861  -6.042   5.716  1.00  0.00    -0.356 N 
ATOM     75  C   UNL     1       5.520  -5.077   5.030  1.00  0.00     0.223 C 
ATOM     76  H   UNL     1       4.151  -5.704   6.309  1.00  0.00     0.163 HD
ATOM     77  O   UNL     1       5.394  -3.942   5.491  1.00  0.00    -0.275 OA
BRANCH  75  78
ATOM     78  C   UNL     1       6.405  -5.401   3.816  1.00  0.00     0.087 C 
BRANCH  78  79
ATOM     79  C   UNL     1       5.628  -6.163   2.715  1.00  0.00     0.049 C 
BRANCH  79  80
ATOM     80  C   UNL     1       6.454  -7.045   1.789  1.00  0.00    -0.044 A 
ATOM     81  C   UNL     1       7.396  -6.519   0.891  1.00  0.00     0.004 A 
ATOM     82  C   UNL     1       6.223  -8.428   1.751  1.00  0.00     0.043 A 
ATOM     83  C   UNL     1       8.069  -7.332  -0.028  1.00  0.00     0.003 A 
ATOM     84  C   UNL     1       6.902  -9.235   0.836  1.00  0.00     0.123 A 
ATOM     85  C   UNL     1       7.817  -8.697  -0.058  1.00  0.00     0.039 A 
ATOM     86  F   UNL     1       6.655 -10.551   0.807  1.00  0.00    -0.207 F 
ENDBRANCH  79  80
ENDBRANCH  78  79
BRANCH  78  87
ATOM     87  C   UNL     1       7.107  -4.101   3.315  1.00  0.00     0.049 C 
BRANCH  87  88
ATOM     88  C   UNL     1       6.239  -3.042   2.652  1.00  0.00    -0.044 A 
ATOM     89  C   UNL     1       5.878  -3.108   1.299  1.00  0.00     0.004 A 
ATOM     90  C   UNL     1       5.755  -1.960   3.402  1.00  0.00     0.049 A 
ATOM     91  C   UNL     1       5.014  -2.166   0.732  1.00  0.00     0.004 A 
ATOM     92  C   UNL     1       4.883  -1.034   2.838  1.00  0.00     0.115 A 
ATOM     93  C   UNL     1       4.502  -1.131   1.507  1.00  0.00     0.046 A 
BRANCH  92  94
ATOM     94  O   UNL     1       4.406  -0.039   3.639  1.00  0.00    -0.508 OA
ATOM     95  H   UNL     1       3.817   0.601   3.290  1.00  0.00     0.293 HD
ENDBRANCH  92  94
ENDBRANCH  87  88
ENDBRANCH  78  87
ENDBRANCH  75  78
ENDBRANCH  73  74
ENDBRANCH  72  73
ENDBRANCH   1  72
TORSDOF 19
