REMARK SMILES C[C@H]([NH2+]CCc1ccco1)[C@@H](C)C(=O)NCCCCNC(=O)c1ccc(-c2c3nc(c(-c4cccc(S(=O)(=O)[O-])c4F)c4ccc([nH]4)c(-c4cccc(S(=O)(=O)[O-])c4F)c4nc(c(-c5cccc(S(=O)(=O)[O-])c5F)c5ccc2[nH]5)C=C4)C=C3)cc1
REMARK SMILES IDX 16 1 15 2 13 3 14 4 11 6 12 7 2 8 1 9 3 10 4 13 5 14 6 15
REMARK SMILES IDX 7 16 10 17 8 18 9 19 17 20 18 21 19 22 20 23 21 24 22 26
REMARK SMILES IDX 23 27 24 28 85 29 25 30 84 31 26 32 27 33 28 34 78 35 29 36
REMARK SMILES IDX 83 37 77 38 79 39 30 40 82 41 76 42 75 43 31 45 63 46 43 47
REMARK SMILES IDX 62 48 44 49 47 50 61 51 80 52 45 53 46 54 60 56 81 57 48 58
REMARK SMILES IDX 32 59 33 60 41 61 34 62 36 63 42 64 35 65 37 66 38 67 39 68
REMARK SMILES IDX 40 69 64 70 65 71 73 72 66 73 68 74 74 75 67 76 69 77 70 78
REMARK SMILES IDX 71 79 72 80 49 81 50 82 58 83 51 84 53 85 59 86 52 87 54 88
REMARK SMILES IDX 55 89 56 90 57 91
REMARK H PARENT 15 5 3 11 3 12 20 25 79 44 47 55
REMARK Flexibility Score: inf
ROOT
ATOM      1  C   UNL     1      -0.422   2.420   3.317  1.00  0.00     0.116 C 
ENDROOT
BRANCH   1   2
ATOM      2  N   UNL     1      -1.299   3.001   2.316  1.00  0.00    -0.356 N 
ATOM      3  C   UNL     1      -1.633   2.583   1.063  1.00  0.00     0.228 C 
ATOM      4  O   UNL     1      -2.424   3.278   0.419  1.00  0.00    -0.275 OA
ATOM      5  H   UNL     1      -1.726   3.844   2.590  1.00  0.00     0.163 HD
BRANCH   3   6
ATOM      6  C   UNL     1      -1.082   1.290   0.457  1.00  0.00     0.133 C 
ATOM      7  C   UNL     1      -1.664   0.090   1.211  1.00  0.00     0.024 C 
BRANCH   6   8
ATOM      8  C   UNL     1       0.458   1.347   0.300  1.00  0.00     0.191 C 
ATOM      9  C   UNL     1       0.887   2.471  -0.657  1.00  0.00     0.076 C 
BRANCH   8  10
ATOM     10  N   UNL     1       1.141   0.103  -0.066  1.00  0.00    -0.343 N 
ATOM     11  H   UNL     1       1.030  -0.547   0.712  1.00  0.00     0.346 HD
ATOM     12  H   UNL     1       2.101   0.384  -0.267  1.00  0.00     0.346 HD
BRANCH  10  13
ATOM     13  C   UNL     1       0.693  -0.582  -1.276  1.00  0.00     0.268 C 
BRANCH  13  14
ATOM     14  C   UNL     1       1.617  -1.769  -1.599  1.00  0.00     0.136 C 
BRANCH  14  15
ATOM     15  C   UNL     1       1.583  -2.840  -0.562  1.00  0.00     0.109 A 
ATOM     16  C   UNL     1       0.974  -4.075  -0.485  1.00  0.00     0.046 A 
ATOM     17  O   UNL     1       2.302  -2.607   0.574  1.00  0.00    -0.469 OA
ATOM     18  C   UNL     1       1.339  -4.623   0.769  1.00  0.00     0.042 A 
ATOM     19  C   UNL     1       2.146  -3.690   1.376  1.00  0.00     0.195 A 
ENDBRANCH  14  15
ENDBRANCH  13  14
ENDBRANCH  10  13
ENDBRANCH   8  10
ENDBRANCH   6   8
ENDBRANCH   3   6
ENDBRANCH   1   2
BRANCH   1  20
ATOM     20  C   UNL     1       0.854   3.235   3.514  1.00  0.00     0.023 C 
BRANCH  20  21
ATOM     21  C   UNL     1       0.655   4.583   4.203  1.00  0.00     0.023 C 
BRANCH  21  22
ATOM     22  C   UNL     1      -0.076   4.528   5.539  1.00  0.00     0.116 C 
BRANCH  22  23
ATOM     23  N   UNL     1       0.538   3.613   6.492  1.00  0.00    -0.352 N 
ATOM     24  C   UNL     1       0.771   3.788   7.834  1.00  0.00     0.251 C 
ATOM     25  H   UNL     1       0.826   2.747   6.122  1.00  0.00     0.163 HD
ATOM     26  O   UNL     1       1.413   2.946   8.457  1.00  0.00    -0.269 OA
BRANCH  24  27
ATOM     27  C   UNL     1       0.281   5.005   8.514  1.00  0.00     0.039 A 
ATOM     28  C   UNL     1       1.147   5.689   9.368  1.00  0.00     0.014 A 
ATOM     29  C   UNL     1      -1.013   5.486   8.292  1.00  0.00     0.014 A 
ATOM     30  C   UNL     1       0.738   6.892   9.946  1.00  0.00     0.010 A 
ATOM     31  C   UNL     1      -1.388   6.727   8.801  1.00  0.00     0.010 A 
ATOM     32  C   UNL     1      -0.518   7.443   9.635  1.00  0.00    -0.014 A 
BRANCH  32  33
ATOM     33  C   UNL     1      -0.900   8.785  10.143  1.00  0.00     0.031 A 
ATOM     34  C   UNL     1      -2.087   8.962  11.052  1.00  0.00     0.074 A 
ATOM     35  C   UNL     1      -0.206   9.865   9.730  1.00  0.00     0.049 A 
ATOM     36  N   UNL     1      -2.533  10.054  11.616  1.00  0.00    -0.248 NA
ATOM     37  C   UNL     1      -2.893   7.766  11.344  1.00  0.00     0.031 C 
ATOM     38  C   UNL     1       0.896   9.841   8.766  1.00  0.00     0.029 A 
ATOM     39  N   UNL     1      -0.333  11.192  10.055  1.00  0.00    -0.354 N 
ATOM     40  C   UNL     1      -3.683   9.686  12.304  1.00  0.00     0.074 A 
ATOM     41  C   UNL     1      -3.888   8.276  12.055  1.00  0.00     0.031 C 
ATOM     42  C   UNL     1       1.358  11.089   8.593  1.00  0.00     0.029 A 
ATOM     43  C   UNL     1       0.570  12.005   9.411  1.00  0.00     0.049 A 
ATOM     44  H   UNL     1      -1.006  11.530  10.688  1.00  0.00     0.167 HD
ATOM     45  C   UNL     1      -4.481  10.445  13.094  1.00  0.00     0.034 A 
ATOM     46  C   UNL     1       0.748  13.339   9.472  1.00  0.00     0.034 A 
ATOM     47  C   UNL     1      -4.257  11.841  13.361  1.00  0.00     0.049 A 
ATOM     48  C   UNL     1      -0.109  14.148  10.406  1.00  0.00     0.074 A 
ATOM     49  C   UNL     1      -4.948  12.674  14.224  1.00  0.00     0.029 A 
ATOM     50  N   UNL     1      -3.279  12.617  12.758  1.00  0.00    -0.354 N 
ATOM     51  N   UNL     1      -1.078  13.747  11.192  1.00  0.00    -0.248 NA
ATOM     52  C   UNL     1       0.182  15.585  10.495  1.00  0.00     0.031 C 
ATOM     53  C   UNL     1      -4.411  13.961  14.115  1.00  0.00     0.029 A 
ATOM     54  C   UNL     1      -3.357  13.922  13.216  1.00  0.00     0.049 A 
ATOM     55  H   UNL     1      -2.625  12.289  12.099  1.00  0.00     0.167 HD
ATOM     56  C   UNL     1      -1.492  14.874  11.892  1.00  0.00     0.074 A 
ATOM     57  C   UNL     1      -0.647  15.967  11.456  1.00  0.00     0.031 C 
ATOM     58  C   UNL     1      -2.490  14.996  12.803  1.00  0.00     0.034 A 
BRANCH  45  59
ATOM     59  C   UNL     1      -5.650   9.767  13.763  1.00  0.00     0.023 A 
ATOM     60  C   UNL     1      -5.421   8.830  14.792  1.00  0.00     0.012 A 
ATOM     61  C   UNL     1      -6.975  10.096  13.415  1.00  0.00     0.148 A 
ATOM     62  C   UNL     1      -6.487   8.201  15.434  1.00  0.00     0.002 A 
ATOM     63  C   UNL     1      -8.033   9.502  14.093  1.00  0.00     0.091 A 
ATOM     64  F   UNL     1      -7.176  10.973  12.421  1.00  0.00    -0.205 F 
ATOM     65  C   UNL     1      -7.792   8.545  15.092  1.00  0.00     0.022 A 
BRANCH  63  66
ATOM     66  S   UNL     1      -9.748   9.940  13.786  1.00  0.00     0.127 S 
ATOM     67  O   UNL     1     -10.244   8.737  13.118  1.00  0.00    -0.237 OA
ATOM     68  O   UNL     1     -10.262  10.139  15.141  1.00  0.00    -0.237 OA
ATOM     69  O   UNL     1      -9.716  11.143  12.966  1.00  0.00    -0.744 OA
ENDBRANCH  63  66
ENDBRANCH  45  59
BRANCH  46  70
ATOM     70  C   UNL     1       1.832  13.978   8.674  1.00  0.00     0.023 A 
ATOM     71  C   UNL     1       2.967  14.495   9.329  1.00  0.00     0.012 A 
ATOM     72  C   UNL     1       1.761  14.038   7.269  1.00  0.00     0.148 A 
ATOM     73  C   UNL     1       3.998  15.089   8.600  1.00  0.00     0.002 A 
ATOM     74  C   UNL     1       2.818  14.577   6.546  1.00  0.00     0.091 A 
ATOM     75  F   UNL     1       0.668  13.547   6.668  1.00  0.00    -0.205 F 
ATOM     76  C   UNL     1       3.929  15.121   7.210  1.00  0.00     0.022 A 
BRANCH  74  77
ATOM     77  S   UNL     1       2.878  14.533   4.752  1.00  0.00     0.127 S 
ATOM     78  O   UNL     1       2.740  15.947   4.413  1.00  0.00    -0.237 OA
ATOM     79  O   UNL     1       4.206  13.967   4.511  1.00  0.00    -0.237 OA
ATOM     80  O   UNL     1       1.776  13.674   4.342  1.00  0.00    -0.744 OA
ENDBRANCH  74  77
ENDBRANCH  46  70
BRANCH  58  81
ATOM     81  C   UNL     1      -2.704  16.356  13.418  1.00  0.00     0.023 A 
ATOM     82  C   UNL     1      -3.220  17.410  12.638  1.00  0.00     0.012 A 
ATOM     83  C   UNL     1      -2.428  16.578  14.781  1.00  0.00     0.148 A 
ATOM     84  C   UNL     1      -3.411  18.676  13.192  1.00  0.00     0.002 A 
ATOM     85  C   UNL     1      -2.672  17.827  15.340  1.00  0.00     0.091 A 
ATOM     86  F   UNL     1      -1.919  15.571  15.505  1.00  0.00    -0.205 F 
ATOM     87  C   UNL     1      -3.147  18.882  14.544  1.00  0.00     0.022 A 
BRANCH  85  88
ATOM     88  S   UNL     1      -2.454  18.152  17.093  1.00  0.00     0.127 S 
ATOM     89  O   UNL     1      -1.218  18.932  17.100  1.00  0.00    -0.237 OA
ATOM     90  O   UNL     1      -3.659  18.916  17.421  1.00  0.00    -0.237 OA
ATOM     91  O   UNL     1      -2.377  16.847  17.735  1.00  0.00    -0.744 OA
ENDBRANCH  85  88
ENDBRANCH  58  81
ENDBRANCH  32  33
ENDBRANCH  24  27
ENDBRANCH  22  23
ENDBRANCH  21  22
ENDBRANCH  20  21
ENDBRANCH   1  20
TORSDOF 19
