REMARK SMILES Cc1nc2cc(C(=O)NCCCCNC(=O)c3ccc(-c4c5nc(c(-c6cccc(S(=O)(=O)[O-])c6F)c6ccc([nH]6)c(-c6cccc(S(=O)(=O)[O-])c6F)c6nc(c(-c7cccc(S(=O)(=O)[O-])c7F)c7ccc4[nH]7)C=C6)C=C5)cc3)ccc2n1CCC[NH+]1CCOCC1
REMARK SMILES IDX 11 1 10 2 9 3 7 4 8 5 6 7 1 8 2 9 3 10 83 11 4 12 82 13 5 14
REMARK SMILES IDX 81 15 80 16 84 17 85 18 86 19 87 20 88 21 92 22 89 24 91 25
REMARK SMILES IDX 90 26 12 27 13 28 14 29 15 30 16 32 17 33 18 34 79 35 19 36
REMARK SMILES IDX 78 37 20 38 21 39 22 40 72 41 23 42 77 43 71 44 73 45 24 46
REMARK SMILES IDX 76 47 70 48 69 49 25 51 57 52 37 53 56 54 38 55 41 56 55 57
REMARK SMILES IDX 74 58 39 59 40 60 54 62 75 63 42 64 26 65 27 66 35 67 28 68
REMARK SMILES IDX 30 69 36 70 29 71 31 72 32 73 33 74 34 75 58 76 59 77 67 78
REMARK SMILES IDX 60 79 62 80 68 81 61 82 63 83 64 84 65 85 66 86 43 87 44 88
REMARK SMILES IDX 52 89 45 90 47 91 53 92 46 93 48 94 49 95 50 96 51 97
REMARK H PARENT 9 6 87 23 14 31 73 50 41 61
REMARK Flexibility Score: inf
ROOT
ATOM      1  C   UNL     1      -2.604  -2.544   8.599  1.00  0.00     0.023 C 
ENDROOT
BRANCH   1   2
ATOM      2  C   UNL     1      -1.119  -2.680   8.258  1.00  0.00     0.116 C 
BRANCH   2   3
ATOM      3  N   UNL     1      -0.900  -3.843   7.428  1.00  0.00    -0.352 N 
ATOM      4  C   UNL     1      -0.675  -3.985   6.087  1.00  0.00     0.251 C 
ATOM      5  O   UNL     1      -0.499  -5.129   5.665  1.00  0.00    -0.269 OA
ATOM      6  H   UNL     1      -0.916  -4.694   7.922  1.00  0.00     0.163 HD
BRANCH   4   7
ATOM      7  C   UNL     1      -0.580  -2.837   5.142  1.00  0.00     0.042 A 
ATOM      8  C   UNL     1       0.460  -0.743  -0.289  1.00  0.00     0.088 C 
ATOM      9  C   UNL     1       0.402  -0.982   1.168  1.00  0.00     0.106 A 
ATOM     10  N   UNL     1       0.703  -2.138   1.721  1.00  0.00    -0.233 NA
ATOM     11  N   UNL     1      -0.029  -0.083   2.120  1.00  0.00    -0.328 N 
ATOM     12  C   UNL     1       0.206  -2.073   2.990  1.00  0.00     0.090 A 
ATOM     13  C   UNL     1      -0.313  -0.812   3.256  1.00  0.00     0.068 A 
ATOM     14  C   UNL     1       0.120  -3.083   3.951  1.00  0.00     0.044 A 
ATOM     15  C   UNL     1      -0.996  -0.523   4.438  1.00  0.00     0.029 A 
ATOM     16  C   UNL     1      -1.178  -1.584   5.335  1.00  0.00     0.016 A 
BRANCH  11  17
ATOM     17  C   UNL     1      -0.289   1.337   1.954  1.00  0.00     0.130 C 
BRANCH  17  18
ATOM     18  C   UNL     1       0.967   2.221   1.992  1.00  0.00     0.083 C 
BRANCH  18  19
ATOM     19  C   UNL     1       1.729   2.306   0.661  1.00  0.00     0.264 C 
BRANCH  19  20
ATOM     20  N   UNL     1       0.851   2.702  -0.449  1.00  0.00    -0.331 N 
ATOM     21  C   UNL     1       1.387   2.310  -1.770  1.00  0.00     0.291 C 
ATOM     22  C   UNL     1       0.577   4.157  -0.483  1.00  0.00     0.291 C 
ATOM     23  H   UNL     1      -0.018   2.200  -0.268  1.00  0.00     0.348 HD
ATOM     24  C   UNL     1       2.560   3.170  -2.251  1.00  0.00     0.221 C 
ATOM     25  C   UNL     1       1.752   5.003  -1.010  1.00  0.00     0.221 C 
ATOM     26  O   UNL     1       2.197   4.553  -2.296  1.00  0.00    -0.370 OA
ENDBRANCH  19  20
ENDBRANCH  18  19
ENDBRANCH  17  18
ENDBRANCH  11  17
ENDBRANCH   4   7
ENDBRANCH   2   3
ENDBRANCH   1   2
BRANCH   1  27
ATOM     27  C   UNL     1      -3.072  -3.522   9.690  1.00  0.00     0.023 C 
BRANCH  27  28
ATOM     28  C   UNL     1      -2.232  -3.454  10.968  1.00  0.00     0.116 C 
BRANCH  28  29
ATOM     29  N   UNL     1      -2.139  -2.104  11.491  1.00  0.00    -0.352 N 
ATOM     30  C   UNL     1      -2.860  -1.360  12.382  1.00  0.00     0.251 C 
ATOM     31  H   UNL     1      -1.377  -1.607  11.115  1.00  0.00     0.163 HD
ATOM     32  O   UNL     1      -2.441  -0.216  12.583  1.00  0.00    -0.269 OA
BRANCH  30  33
ATOM     33  C   UNL     1      -4.094  -1.813  13.075  1.00  0.00     0.039 A 
ATOM     34  C   UNL     1      -4.702  -3.053  12.896  1.00  0.00     0.014 A 
ATOM     35  C   UNL     1      -4.703  -0.885  13.944  1.00  0.00     0.014 A 
ATOM     36  C   UNL     1      -5.902  -3.344  13.522  1.00  0.00     0.010 A 
ATOM     37  C   UNL     1      -5.905  -1.175  14.584  1.00  0.00     0.010 A 
ATOM     38  C   UNL     1      -6.518  -2.397  14.343  1.00  0.00    -0.014 A 
BRANCH  38  39
ATOM     39  C   UNL     1      -7.766  -2.809  14.969  1.00  0.00     0.031 A 
ATOM     40  C   UNL     1      -7.654  -4.032  15.806  1.00  0.00     0.074 A 
ATOM     41  C   UNL     1      -8.939  -2.165  14.818  1.00  0.00     0.049 A 
ATOM     42  N   UNL     1      -8.109  -5.214  15.538  1.00  0.00    -0.248 NA
ATOM     43  C   UNL     1      -6.810  -3.967  17.008  1.00  0.00     0.031 C 
ATOM     44  C   UNL     1      -9.155  -0.824  14.270  1.00  0.00     0.029 A 
ATOM     45  N   UNL     1     -10.184  -2.538  15.233  1.00  0.00    -0.354 N 
ATOM     46  C   UNL     1      -7.815  -5.982  16.661  1.00  0.00     0.074 A 
ATOM     47  C   UNL     1      -6.877  -5.224  17.450  1.00  0.00     0.031 C 
ATOM     48  C   UNL     1     -10.389  -0.398  14.622  1.00  0.00     0.029 A 
ATOM     49  C   UNL     1     -11.098  -1.493  15.259  1.00  0.00     0.049 A 
ATOM     50  H   UNL     1     -10.413  -3.461  15.490  1.00  0.00     0.167 HD
ATOM     51  C   UNL     1      -8.574  -7.058  17.003  1.00  0.00     0.034 A 
ATOM     52  C   UNL     1     -12.325  -1.525  15.827  1.00  0.00     0.034 A 
ATOM     53  C   UNL     1      -9.465  -7.461  15.956  1.00  0.00     0.049 A 
ATOM     54  C   UNL     1     -12.775  -2.935  15.836  1.00  0.00     0.074 A 
ATOM     55  C   UNL     1      -9.423  -8.233  14.818  1.00  0.00     0.029 A 
ATOM     56  N   UNL     1     -10.606  -6.710  15.904  1.00  0.00    -0.354 N 
ATOM     57  N   UNL     1     -13.012  -3.626  14.755  1.00  0.00    -0.248 NA
ATOM     58  C   UNL     1     -12.741  -3.699  17.079  1.00  0.00     0.031 C 
ATOM     59  C   UNL     1     -10.523  -7.814  14.008  1.00  0.00     0.029 A 
ATOM     60  C   UNL     1     -11.212  -6.810  14.682  1.00  0.00     0.049 A 
ATOM     61  H   UNL     1     -10.949  -6.168  16.651  1.00  0.00     0.167 HD
ATOM     62  C   UNL     1     -12.736  -4.926  15.128  1.00  0.00     0.074 A 
ATOM     63  C   UNL     1     -12.768  -4.937  16.582  1.00  0.00     0.031 C 
ATOM     64  C   UNL     1     -12.157  -5.801  14.263  1.00  0.00     0.034 A 
BRANCH  51  65
ATOM     65  C   UNL     1      -8.856  -7.452  18.431  1.00  0.00     0.023 A 
ATOM     66  C   UNL     1      -9.352  -8.745  18.691  1.00  0.00     0.012 A 
ATOM     67  C   UNL     1      -8.922  -6.509  19.483  1.00  0.00     0.148 A 
ATOM     68  C   UNL     1      -9.867  -9.089  19.947  1.00  0.00     0.002 A 
ATOM     69  C   UNL     1      -9.358  -6.877  20.750  1.00  0.00     0.091 A 
ATOM     70  F   UNL     1      -8.695  -5.216  19.223  1.00  0.00    -0.205 F 
ATOM     71  C   UNL     1      -9.850  -8.161  20.983  1.00  0.00     0.022 A 
BRANCH  69  72
ATOM     72  S   UNL     1      -9.304  -5.721  22.123  1.00  0.00     0.127 S 
ATOM     73  O   UNL     1     -10.720  -5.377  22.268  1.00  0.00    -0.237 OA
ATOM     74  O   UNL     1      -8.762  -6.561  23.196  1.00  0.00    -0.237 OA
ATOM     75  O   UNL     1      -8.419  -4.657  21.694  1.00  0.00    -0.744 OA
ENDBRANCH  69  72
ENDBRANCH  51  65
BRANCH  52  76
ATOM     76  C   UNL     1     -13.048  -0.485  16.599  1.00  0.00     0.023 A 
ATOM     77  C   UNL     1     -14.408  -0.705  16.908  1.00  0.00     0.012 A 
ATOM     78  C   UNL     1     -12.359   0.521  17.310  1.00  0.00     0.148 A 
ATOM     79  C   UNL     1     -15.031  -0.023  17.957  1.00  0.00     0.002 A 
ATOM     80  C   UNL     1     -12.990   1.209  18.344  1.00  0.00     0.091 A 
ATOM     81  F   UNL     1     -11.063   0.735  17.048  1.00  0.00    -0.205 F 
ATOM     82  C   UNL     1     -14.317   0.919  18.688  1.00  0.00     0.022 A 
BRANCH  80  83
ATOM     83  S   UNL     1     -12.130   2.446  19.325  1.00  0.00     0.127 S 
ATOM     84  O   UNL     1     -13.158   3.477  19.490  1.00  0.00    -0.237 OA
ATOM     85  O   UNL     1     -11.809   1.703  20.539  1.00  0.00    -0.237 OA
ATOM     86  O   UNL     1     -10.996   2.867  18.512  1.00  0.00    -0.744 OA
ENDBRANCH  80  83
ENDBRANCH  52  76
BRANCH  64  87
ATOM     87  C   UNL     1     -12.349  -5.576  12.799  1.00  0.00     0.023 A 
ATOM     88  C   UNL     1     -11.694  -4.552  12.089  1.00  0.00     0.012 A 
ATOM     89  C   UNL     1     -13.135  -6.508  12.103  1.00  0.00     0.148 A 
ATOM     90  C   UNL     1     -11.826  -4.465  10.700  1.00  0.00     0.002 A 
ATOM     91  C   UNL     1     -13.235  -6.439  10.722  1.00  0.00     0.091 A 
ATOM     92  F   UNL     1     -13.749  -7.468  12.812  1.00  0.00    -0.205 F 
ATOM     93  C   UNL     1     -12.585  -5.415  10.015  1.00  0.00     0.022 A 
BRANCH  91  94
ATOM     94  S   UNL     1     -14.114  -7.683   9.776  1.00  0.00     0.127 S 
ATOM     95  O   UNL     1     -15.230  -6.917   9.225  1.00  0.00    -0.237 OA
ATOM     96  O   UNL     1     -13.107  -8.092   8.796  1.00  0.00    -0.237 OA
ATOM     97  O   UNL     1     -14.487  -8.727  10.724  1.00  0.00    -0.744 OA
ENDBRANCH  91  94
ENDBRANCH  64  87
ENDBRANCH  38  39
ENDBRANCH  30  33
ENDBRANCH  28  29
ENDBRANCH  27  28
ENDBRANCH   1  27
TORSDOF 18
