REMARK SMILES Cc1cccc(-n2c(C)cc(/C=N\c3ccc(O)c(C(=O)NCCCCNC(=O)c4ccc(-c5c6nc(c(-c7cccc(S(=O)(=O)[O-])c7F)c7ccc([nH]7)c(-c7cccc(S(=O)(=O)[O-])c7F)c7nc(c(-c8cccc(S(=O)(=O)[O-])c8F)c8ccc5[nH]8)C=C7)C=C6)cc4)c3)c2C)c1
REMARK SMILES IDX 24 1 23 2 22 3 20 4 21 5 19 7 14 8 15 9 93 10 16 11 17 12
REMARK SMILES IDX 13 13 12 14 11 15 7 16 8 17 94 18 9 19 10 20 95 21 6 22 1 23
REMARK SMILES IDX 2 24 3 25 96 26 4 27 5 28 18 29 25 31 26 32 27 33 28 34
REMARK SMILES IDX 29 36 30 37 31 38 92 39 32 40 91 41 33 42 34 43 35 44 85 45
REMARK SMILES IDX 36 46 90 47 84 48 86 49 37 50 89 51 83 52 82 53 38 55 70 56
REMARK SMILES IDX 50 57 69 58 51 59 54 60 68 61 87 62 52 63 53 64 67 66 88 67
REMARK SMILES IDX 55 68 39 69 40 70 48 71 41 72 43 73 49 74 42 75 44 76 45 77
REMARK SMILES IDX 46 78 47 79 71 80 72 81 80 82 73 83 75 84 81 85 74 86 76 87
REMARK SMILES IDX 77 88 78 89 79 90 56 91 57 92 65 93 58 94 60 95 66 96 59 97
REMARK SMILES IDX 61 98 62 99 63 100 64 101
REMARK H PARENT 22 6 18 30 27 35 86 54 54 65
REMARK Flexibility Score: inf
ROOT
ATOM      1  C   UNL     1      -4.033  -1.102   8.191  1.00  0.00     0.023 C 
ENDROOT
BRANCH   1   2
ATOM      2  C   UNL     1      -3.892  -0.937   6.681  1.00  0.00     0.116 C 
BRANCH   2   3
ATOM      3  N   UNL     1      -5.117  -0.665   5.943  1.00  0.00    -0.352 N 
ATOM      4  C   UNL     1      -5.395   0.248   4.948  1.00  0.00     0.255 C 
ATOM      5  O   UNL     1      -6.529   0.247   4.468  1.00  0.00    -0.269 OA
ATOM      6  H   UNL     1      -5.879  -1.233   6.199  1.00  0.00     0.163 HD
BRANCH   4   7
ATOM      7  C   UNL     1      -4.408   1.255   4.462  1.00  0.00     0.083 A 
ATOM      8  C   UNL     1      -4.051   3.407   3.367  1.00  0.00     0.064 A 
ATOM      9  C   UNL     1      -2.686   3.317   3.627  1.00  0.00     0.032 A 
ATOM     10  C   UNL     1      -4.915   2.442   3.905  1.00  0.00     0.046 A 
ATOM     11  C   UNL     1      -2.165   2.132   4.130  1.00  0.00     0.049 A 
ATOM     12  C   UNL     1      -3.025   1.070   4.406  1.00  0.00     0.128 A 
BRANCH   8  13
ATOM     13  N   UNL     1      -4.575   4.407   2.544  1.00  0.00    -0.256 NA
ATOM     14  C   UNL     1      -4.219   4.552   1.297  1.00  0.00     0.121 C 
BRANCH  14  15
ATOM     15  C   UNL     1      -3.256   3.818   0.467  1.00  0.00     0.014 A 
ATOM     16  N   UNL     1      -1.869   2.302  -0.495  1.00  0.00    -0.318 N 
ATOM     17  C   UNL     1      -1.641   3.515  -1.125  1.00  0.00     0.021 A 
ATOM     18  C   UNL     1      -2.981   2.454   0.343  1.00  0.00     0.029 A 
ATOM     19  C   UNL     1      -0.732   3.678  -2.295  1.00  0.00     0.065 C 
ATOM     20  C   UNL     1      -2.452   4.456  -0.525  1.00  0.00     0.033 A 
ATOM     21  C   UNL     1      -3.626   1.281   0.996  1.00  0.00     0.065 C 
BRANCH  16  22
ATOM     22  C   UNL     1      -1.056   1.133  -0.618  1.00  0.00     0.046 A 
ATOM     23  C   UNL     1       2.580   0.138  -0.015  1.00  0.00     0.044 C 
ATOM     24  C   UNL     1       1.114   0.072  -0.326  1.00  0.00    -0.049 A 
ATOM     25  C   UNL     1       0.511  -1.179  -0.517  1.00  0.00     0.003 A 
ATOM     26  C   UNL     1       0.324   1.231  -0.383  1.00  0.00     0.030 A 
ATOM     27  C   UNL     1      -0.850  -1.271  -0.799  1.00  0.00     0.002 A 
ATOM     28  C   UNL     1      -1.629  -0.117  -0.864  1.00  0.00     0.026 A 
ENDBRANCH  16  22
ENDBRANCH  14  15
ENDBRANCH   8  13
BRANCH  12  29
ATOM     29  O   UNL     1      -2.421  -0.159   4.438  1.00  0.00    -0.507 OA
ATOM     30  H   UNL     1      -1.488  -0.223   4.397  1.00  0.00     0.293 HD
ENDBRANCH  12  29
ENDBRANCH   4   7
ENDBRANCH   2   3
ENDBRANCH   1   2
BRANCH   1  31
ATOM     31  C   UNL     1      -5.018  -2.145   8.697  1.00  0.00     0.023 C 
BRANCH  31  32
ATOM     32  C   UNL     1      -4.847  -3.533   8.108  1.00  0.00     0.116 C 
BRANCH  32  33
ATOM     33  N   UNL     1      -3.739  -4.299   8.633  1.00  0.00    -0.352 N 
ATOM     34  C   UNL     1      -3.368  -5.608   8.387  1.00  0.00     0.251 C 
ATOM     35  H   UNL     1      -3.159  -3.813   9.264  1.00  0.00     0.163 HD
ATOM     36  O   UNL     1      -2.490  -6.076   9.118  1.00  0.00    -0.269 OA
BRANCH  34  37
ATOM     37  C   UNL     1      -3.915  -6.416   7.251  1.00  0.00     0.039 A 
ATOM     38  C   UNL     1      -3.219  -7.571   6.843  1.00  0.00     0.014 A 
ATOM     39  C   UNL     1      -5.017  -6.018   6.499  1.00  0.00     0.014 A 
ATOM     40  C   UNL     1      -3.512  -8.195   5.622  1.00  0.00     0.010 A 
ATOM     41  C   UNL     1      -5.279  -6.590   5.276  1.00  0.00     0.010 A 
ATOM     42  C   UNL     1      -4.492  -7.639   4.809  1.00  0.00    -0.014 A 
BRANCH  42  43
ATOM     43  C   UNL     1      -4.700  -7.912   3.396  1.00  0.00     0.031 A 
ATOM     44  C   UNL     1      -5.814  -8.743   2.909  1.00  0.00     0.074 A 
ATOM     45  C   UNL     1      -4.098  -7.044   2.553  1.00  0.00     0.049 A 
ATOM     46  N   UNL     1      -5.896  -9.191   1.702  1.00  0.00    -0.248 NA
ATOM     47  C   UNL     1      -6.949  -9.099   3.748  1.00  0.00     0.031 C 
ATOM     48  C   UNL     1      -4.493  -6.689   1.197  1.00  0.00     0.029 A 
ATOM     49  N   UNL     1      -2.870  -6.404   2.730  1.00  0.00    -0.354 N 
ATOM     50  C   UNL     1      -7.196  -9.610   1.518  1.00  0.00     0.074 A 
ATOM     51  C   UNL     1      -7.785  -9.612   2.840  1.00  0.00     0.031 C 
ATOM     52  C   UNL     1      -3.432  -6.157   0.572  1.00  0.00     0.029 A 
ATOM     53  C   UNL     1      -2.291  -6.324   1.457  1.00  0.00     0.049 A 
ATOM     54  H   UNL     1      -2.488  -6.076   3.577  1.00  0.00     0.167 HD
ATOM     55  C   UNL     1      -7.699  -9.731   0.255  1.00  0.00     0.034 A 
ATOM     56  C   UNL     1      -1.119  -6.947   1.142  1.00  0.00     0.034 A 
ATOM     57  C   UNL     1      -6.710  -9.335  -0.758  1.00  0.00     0.049 A 
ATOM     58  C   UNL     1      -1.273  -7.955   0.017  1.00  0.00     0.074 A 
ATOM     59  C   UNL     1      -6.531  -8.174  -1.496  1.00  0.00     0.029 A 
ATOM     60  N   UNL     1      -5.551 -10.082  -0.928  1.00  0.00    -0.354 N 
ATOM     61  N   UNL     1      -2.411  -8.273  -0.536  1.00  0.00    -0.248 NA
ATOM     62  C   UNL     1      -0.161  -8.697  -0.568  1.00  0.00     0.031 C 
ATOM     63  C   UNL     1      -5.228  -8.200  -2.060  1.00  0.00     0.029 A 
ATOM     64  C   UNL     1      -4.618  -9.383  -1.681  1.00  0.00     0.049 A 
ATOM     65  H   UNL     1      -5.410 -10.986  -0.563  1.00  0.00     0.167 HD
ATOM     66  C   UNL     1      -2.242  -9.314  -1.413  1.00  0.00     0.074 A 
ATOM     67  C   UNL     1      -0.798  -9.477  -1.462  1.00  0.00     0.031 C 
ATOM     68  C   UNL     1      -3.311  -9.973  -1.965  1.00  0.00     0.034 A 
BRANCH  55  69
ATOM     69  C   UNL     1      -9.184  -9.857  -0.037  1.00  0.00     0.023 A 
ATOM     70  C   UNL     1      -9.679  -9.296  -1.236  1.00  0.00     0.012 A 
ATOM     71  C   UNL     1     -10.145 -10.447   0.814  1.00  0.00     0.148 A 
ATOM     72  C   UNL     1     -11.047  -9.204  -1.516  1.00  0.00     0.002 A 
ATOM     73  C   UNL     1     -11.515 -10.284   0.577  1.00  0.00     0.091 A 
ATOM     74  F   UNL     1      -9.742 -11.234   1.821  1.00  0.00    -0.205 F 
ATOM     75  C   UNL     1     -11.969  -9.657  -0.586  1.00  0.00     0.022 A 
BRANCH  73  76
ATOM     76  S   UNL     1     -12.754 -10.734   1.805  1.00  0.00     0.127 S 
ATOM     77  O   UNL     1     -13.676  -9.596   1.754  1.00  0.00    -0.237 OA
ATOM     78  O   UNL     1     -13.297 -11.978   1.270  1.00  0.00    -0.237 OA
ATOM     79  O   UNL     1     -12.028 -10.842   3.066  1.00  0.00    -0.744 OA
ENDBRANCH  73  76
ENDBRANCH  55  69
BRANCH  56  80
ATOM     80  C   UNL     1      -0.169  -7.030   2.294  1.00  0.00     0.023 A 
ATOM     81  C   UNL     1       0.298  -5.794   2.808  1.00  0.00     0.012 A 
ATOM     82  C   UNL     1      -0.067  -8.177   3.102  1.00  0.00     0.148 A 
ATOM     83  C   UNL     1       0.730  -5.678   4.130  1.00  0.00     0.002 A 
ATOM     84  C   UNL     1       0.373  -8.053   4.422  1.00  0.00     0.091 A 
ATOM     85  F   UNL     1      -0.483  -9.349   2.605  1.00  0.00    -0.205 F 
ATOM     86  C   UNL     1       0.736  -6.802   4.947  1.00  0.00     0.022 A 
BRANCH  84  87
ATOM     87  S   UNL     1       0.368  -9.453   5.555  1.00  0.00     0.127 S 
ATOM     88  O   UNL     1       1.742  -9.929   5.435  1.00  0.00    -0.237 OA
ATOM     89  O   UNL     1       0.043  -8.825   6.835  1.00  0.00    -0.237 OA
ATOM     90  O   UNL     1      -0.671 -10.336   5.046  1.00  0.00    -0.744 OA
ENDBRANCH  84  87
ENDBRANCH  56  80
BRANCH  68  91
ATOM     91  C   UNL     1      -3.265 -11.245  -2.803  1.00  0.00     0.023 A 
ATOM     92  C   UNL     1      -2.144 -12.093  -2.846  1.00  0.00     0.012 A 
ATOM     93  C   UNL     1      -4.426 -11.707  -3.486  1.00  0.00     0.148 A 
ATOM     94  C   UNL     1      -2.153 -13.307  -3.546  1.00  0.00     0.002 A 
ATOM     95  C   UNL     1      -4.466 -12.966  -4.083  1.00  0.00     0.091 A 
ATOM     96  F   UNL     1      -5.505 -10.918  -3.591  1.00  0.00    -0.205 F 
ATOM     97  C   UNL     1      -3.322 -13.759  -4.140  1.00  0.00     0.022 A 
BRANCH  95  98
ATOM     98  S   UNL     1      -6.027 -13.664  -4.644  1.00  0.00     0.127 S 
ATOM     99  O   UNL     1      -6.092 -13.200  -6.027  1.00  0.00    -0.237 OA
ATOM    100  O   UNL     1      -5.804 -15.104  -4.496  1.00  0.00    -0.237 OA
ATOM    101  O   UNL     1      -7.023 -13.121  -3.729  1.00  0.00    -0.744 OA
ENDBRANCH  95  98
ENDBRANCH  68  91
ENDBRANCH  42  43
ENDBRANCH  34  37
ENDBRANCH  32  33
ENDBRANCH  31  32
ENDBRANCH   1  31
TORSDOF 18
