REMARK SMILES COc1ccc(-n2ncc(C(=O)NCCCCNC(=O)c3ccc(-c4c5nc(c(-c6cccc(S(=O)(=O)[O-])c6F)c6ccc([nH]6)c(-c6cccc(S(=O)(=O)[O-])c6F)c6nc(c(-c7cccc(S(=O)(=O)[O-])c7F)c7ccc4[nH]7)C=C6)C=C5)cc3)n2)nn1
REMARK SMILES IDX 16 1 15 2 14 3 13 4 11 5 12 6 10 8 7 9 8 10 84 11 9 12 6 13
REMARK SMILES IDX 3 14 4 15 86 16 5 17 85 18 2 19 1 20 17 21 18 22 19 23 20 25
REMARK SMILES IDX 21 26 22 27 83 28 23 29 82 30 24 31 25 32 26 33 76 34 27 35
REMARK SMILES IDX 81 36 75 37 77 38 28 39 80 40 74 41 73 42 29 44 61 45 41 46
REMARK SMILES IDX 60 47 42 48 45 49 59 50 78 51 43 52 44 53 58 55 79 56 46 57
REMARK SMILES IDX 30 58 31 59 39 60 32 61 34 62 40 63 33 64 35 65 36 66 37 67
REMARK SMILES IDX 38 68 62 69 63 70 71 71 64 72 66 73 72 74 65 75 67 76 68 77
REMARK SMILES IDX 69 78 70 79 47 80 48 81 56 82 49 83 51 84 57 85 50 86 52 87
REMARK SMILES IDX 53 88 54 89 55 90
REMARK H PARENT 13 7 18 24 77 43 45 54
REMARK Flexibility Score: inf
ROOT
ATOM      1  C   UNL     1       1.012   9.282   9.564  1.00  0.00     0.023 C 
ENDROOT
BRANCH   1   2
ATOM      2  C   UNL     1       1.598   8.689   8.275  1.00  0.00     0.023 C 
BRANCH   2   3
ATOM      3  C   UNL     1       2.242   7.307   8.415  1.00  0.00     0.116 C 
BRANCH   3   4
ATOM      4  N   UNL     1       1.254   6.253   8.546  1.00  0.00    -0.351 N 
ATOM      5  C   UNL     1       0.701   5.367   7.647  1.00  0.00     0.273 C 
ATOM      6  O   UNL     1      -0.319   4.785   8.021  1.00  0.00    -0.267 OA
ATOM      7  H   UNL     1       0.909   6.150   9.463  1.00  0.00     0.163 HD
BRANCH   5   8
ATOM      8  C   UNL     1       1.288   5.120   6.320  1.00  0.00     0.170 A 
ATOM      9  N   UNL     1       1.521   4.276   4.385  1.00  0.00    -0.130 N 
ATOM     10  N   UNL     1       2.741   4.841   4.607  1.00  0.00    -0.154 NA
ATOM     11  N   UNL     1       0.575   4.551   5.319  1.00  0.00    -0.141 NA
ATOM     12  C   UNL     1       2.603   5.300   5.851  1.00  0.00     0.172 A 
BRANCH   9  13
ATOM     13  C   UNL     1       1.292   3.471   3.229  1.00  0.00     0.196 A 
ATOM     14  C   UNL     1       0.886   2.004   0.976  1.00  0.00     0.233 A 
ATOM     15  C   UNL     1       2.184   2.322   1.318  1.00  0.00     0.074 A 
ATOM     16  N   UNL     1      -0.172   2.394   1.715  1.00  0.00    -0.110 NA
ATOM     17  C   UNL     1       2.392   3.071   2.470  1.00  0.00     0.058 A 
ATOM     18  N   UNL     1       0.033   3.120   2.871  1.00  0.00    -0.125 NA
BRANCH  14  19
ATOM     19  O   UNL     1       0.614   1.349  -0.198  1.00  0.00    -0.480 OA
ATOM     20  C   UNL     1       0.979  -0.023  -0.084  1.00  0.00     0.280 C 
ENDBRANCH  14  19
ENDBRANCH   9  13
ENDBRANCH   5   8
ENDBRANCH   3   4
ENDBRANCH   2   3
ENDBRANCH   1   2
BRANCH   1  21
ATOM     21  C   UNL     1       2.036   9.562  10.659  1.00  0.00     0.116 C 
BRANCH  21  22
ATOM     22  N   UNL     1       3.053  10.534  10.252  1.00  0.00    -0.352 N 
ATOM     23  C   UNL     1       4.171  10.940  10.959  1.00  0.00     0.251 C 
ATOM     24  H   UNL     1       2.925  10.950   9.369  1.00  0.00     0.163 HD
ATOM     25  O   UNL     1       4.731  11.993  10.706  1.00  0.00    -0.269 OA
BRANCH  23  26
ATOM     26  C   UNL     1       4.684  10.057  12.021  1.00  0.00     0.039 A 
ATOM     27  C   UNL     1       5.069  10.563  13.268  1.00  0.00     0.014 A 
ATOM     28  C   UNL     1       4.742   8.694  11.748  1.00  0.00     0.014 A 
ATOM     29  C   UNL     1       5.433   9.672  14.276  1.00  0.00     0.010 A 
ATOM     30  C   UNL     1       4.973   7.814  12.772  1.00  0.00     0.010 A 
ATOM     31  C   UNL     1       5.364   8.298  14.022  1.00  0.00    -0.014 A 
BRANCH  31  32
ATOM     32  C   UNL     1       5.547   7.314  15.086  1.00  0.00     0.031 A 
ATOM     33  C   UNL     1       4.528   7.375  16.176  1.00  0.00     0.074 A 
ATOM     34  C   UNL     1       6.366   6.257  14.884  1.00  0.00     0.049 A 
ATOM     35  N   UNL     1       4.733   7.472  17.449  1.00  0.00    -0.248 NA
ATOM     36  C   UNL     1       3.104   7.470  15.804  1.00  0.00     0.031 C 
ATOM     37  C   UNL     1       7.183   5.994  13.689  1.00  0.00     0.029 A 
ATOM     38  N   UNL     1       6.475   5.091  15.582  1.00  0.00    -0.354 N 
ATOM     39  C   UNL     1       3.473   7.387  18.043  1.00  0.00     0.074 A 
ATOM     40  C   UNL     1       2.520   7.620  16.994  1.00  0.00     0.031 C 
ATOM     41  C   UNL     1       7.441   4.673  13.607  1.00  0.00     0.029 A 
ATOM     42  C   UNL     1       6.938   4.026  14.803  1.00  0.00     0.049 A 
ATOM     43  H   UNL     1       6.251   5.007  16.537  1.00  0.00     0.167 HD
ATOM     44  C   UNL     1       3.311   6.850  19.286  1.00  0.00     0.034 A 
ATOM     45  C   UNL     1       6.833   2.701  15.075  1.00  0.00     0.034 A 
ATOM     46  C   UNL     1       4.572   6.761  19.979  1.00  0.00     0.049 A 
ATOM     47  C   UNL     1       6.586   2.572  16.529  1.00  0.00     0.074 A 
ATOM     48  C   UNL     1       5.558   7.661  20.328  1.00  0.00     0.029 A 
ATOM     49  N   UNL     1       5.146   5.515  20.066  1.00  0.00    -0.354 N 
ATOM     50  N   UNL     1       7.463   2.909  17.432  1.00  0.00    -0.248 NA
ATOM     51  C   UNL     1       5.208   2.509  16.986  1.00  0.00     0.031 C 
ATOM     52  C   UNL     1       6.780   6.957  20.123  1.00  0.00     0.029 A 
ATOM     53  C   UNL     1       6.470   5.648  19.749  1.00  0.00     0.049 A 
ATOM     54  H   UNL     1       4.688   4.679  20.311  1.00  0.00     0.167 HD
ATOM     55  C   UNL     1       6.715   3.572  18.395  1.00  0.00     0.074 A 
ATOM     56  C   UNL     1       5.329   3.182  18.135  1.00  0.00     0.031 C 
ATOM     57  C   UNL     1       7.246   4.615  19.100  1.00  0.00     0.034 A 
BRANCH  44  58
ATOM     58  C   UNL     1       2.115   6.035  19.745  1.00  0.00     0.023 A 
ATOM     59  C   UNL     1       2.099   5.630  21.101  1.00  0.00     0.012 A 
ATOM     60  C   UNL     1       1.186   5.404  18.886  1.00  0.00     0.148 A 
ATOM     61  C   UNL     1       1.273   4.596  21.555  1.00  0.00     0.002 A 
ATOM     62  C   UNL     1       0.313   4.429  19.357  1.00  0.00     0.091 A 
ATOM     63  F   UNL     1       1.217   5.635  17.572  1.00  0.00    -0.205 F 
ATOM     64  C   UNL     1       0.377   3.994  20.681  1.00  0.00     0.022 A 
BRANCH  62  65
ATOM     65  S   UNL     1      -0.893   3.648  18.276  1.00  0.00     0.127 S 
ATOM     66  O   UNL     1      -0.292   2.334  18.072  1.00  0.00    -0.237 OA
ATOM     67  O   UNL     1      -2.095   3.661  19.111  1.00  0.00    -0.237 OA
ATOM     68  O   UNL     1      -0.976   4.505  17.100  1.00  0.00    -0.744 OA
ENDBRANCH  62  65
ENDBRANCH  44  58
BRANCH  45  69
ATOM     69  C   UNL     1       6.692   1.557  14.140  1.00  0.00     0.023 A 
ATOM     70  C   UNL     1       6.955   0.246  14.584  1.00  0.00     0.012 A 
ATOM     71  C   UNL     1       6.059   1.713  12.885  1.00  0.00     0.148 A 
ATOM     72  C   UNL     1       6.579  -0.868  13.818  1.00  0.00     0.002 A 
ATOM     73  C   UNL     1       5.705   0.607  12.119  1.00  0.00     0.091 A 
ATOM     74  F   UNL     1       5.710   2.942  12.482  1.00  0.00    -0.205 F 
ATOM     75  C   UNL     1       5.952  -0.688  12.588  1.00  0.00     0.022 A 
BRANCH  73  76
ATOM     76  S   UNL     1       4.880   0.785  10.531  1.00  0.00     0.127 S 
ATOM     77  O   UNL     1       5.592  -0.188   9.702  1.00  0.00    -0.237 OA
ATOM     78  O   UNL     1       3.506   0.423  10.863  1.00  0.00    -0.237 OA
ATOM     79  O   UNL     1       5.090   2.172  10.129  1.00  0.00    -0.744 OA
ENDBRANCH  73  76
ENDBRANCH  45  69
BRANCH  57  80
ATOM     80  C   UNL     1       8.727   4.884  18.977  1.00  0.00     0.023 A 
ATOM     81  C   UNL     1       9.332   5.243  17.753  1.00  0.00     0.012 A 
ATOM     82  C   UNL     1       9.485   4.976  20.155  1.00  0.00     0.148 A 
ATOM     83  C   UNL     1      10.663   5.664  17.702  1.00  0.00     0.002 A 
ATOM     84  C   UNL     1      10.792   5.444  20.108  1.00  0.00     0.091 A 
ATOM     85  F   UNL     1       8.898   4.637  21.313  1.00  0.00    -0.205 F 
ATOM     86  C   UNL     1      11.389   5.780  18.883  1.00  0.00     0.022 A 
BRANCH  84  87
ATOM     87  S   UNL     1      11.726   5.746  21.608  1.00  0.00     0.127 S 
ATOM     88  O   UNL     1      12.635   4.603  21.637  1.00  0.00    -0.237 OA
ATOM     89  O   UNL     1      12.369   7.032  21.327  1.00  0.00    -0.237 OA
ATOM     90  O   UNL     1      10.745   5.799  22.686  1.00  0.00    -0.744 OA
ENDBRANCH  84  87
ENDBRANCH  57  80
ENDBRANCH  31  32
ENDBRANCH  23  26
ENDBRANCH  21  22
ENDBRANCH   1  21
TORSDOF 16
