REMARK SMILES Cn1c(SCC(=O)NCCCCNC(=O)c2ccc(-c3c4nc(c(-c5cccc(S(=O)(=O)[O-])c5F)c5ccc([nH]5)c(-c5cccc(S(=O)(=O)[O-])c5F)c5nc(c(-c6cccc(S(=O)(=O)[O-])c6F)c6ccc3[nH]6)C=C5)C=C4)cc2)nnc1-c1ccccc1Br
REMARK SMILES IDX 10 1 9 2 8 3 6 4 7 5 5 7 4 8 3 9 1 10 2 11 81 12 79 13 80 14
REMARK SMILES IDX 82 15 83 16 87 17 84 18 86 19 88 20 85 21 11 22 12 23 13 24
REMARK SMILES IDX 14 25 15 27 16 28 17 29 78 30 18 31 77 32 19 33 20 34 21 35
REMARK SMILES IDX 71 36 22 37 76 38 70 39 72 40 23 41 75 42 69 43 68 44 24 46
REMARK SMILES IDX 56 47 36 48 55 49 37 50 40 51 54 52 73 53 38 54 39 55 53 57
REMARK SMILES IDX 74 58 41 59 25 60 26 61 34 62 27 63 29 64 35 65 28 66 30 67
REMARK SMILES IDX 31 68 32 69 33 70 57 71 58 72 66 73 59 74 61 75 67 76 60 77
REMARK SMILES IDX 62 78 63 79 64 80 65 81 42 82 43 83 51 84 44 85 46 86 52 87
REMARK SMILES IDX 45 88 47 89 48 90 49 91 50 92
REMARK H PARENT 8 6 13 26 72 45 40 56
REMARK Flexibility Score: inf
ROOT
ATOM      1  C   UNL     1       0.304   3.510   3.266  1.00  0.00     0.023 C 
ENDROOT
BRANCH   1   2
ATOM      2  C   UNL     1       1.499   4.101   2.522  1.00  0.00     0.116 C 
BRANCH   2   3
ATOM      3  N   UNL     1       2.506   3.100   2.232  1.00  0.00    -0.355 N 
ATOM      4  C   UNL     1       2.908   2.595   1.037  1.00  0.00     0.230 C 
ATOM      5  O   UNL     1       3.876   1.829   1.034  1.00  0.00    -0.274 OA
ATOM      6  H   UNL     1       2.969   2.732   3.019  1.00  0.00     0.163 HD
BRANCH   4   7
ATOM      7  C   UNL     1       2.282   3.026  -0.268  1.00  0.00     0.178 C 
BRANCH   7   8
ATOM      8  S   UNL     1       0.546   2.681  -0.497  1.00  0.00    -0.076 SA
BRANCH   8   9
ATOM      9  C   UNL     1       0.139   1.030  -0.209  1.00  0.00     0.191 A 
ATOM     10  C   UNL     1       2.315  -0.282  -0.400  1.00  0.00     0.154 C 
ATOM     11  N   UNL     1       0.905  -0.104  -0.180  1.00  0.00    -0.305 N 
ATOM     12  C   UNL     1       0.022  -1.152   0.038  1.00  0.00     0.165 A 
ATOM     13  N   UNL     1      -1.127   0.687  -0.082  1.00  0.00    -0.123 NA
ATOM     14  N   UNL     1      -1.203  -0.672   0.054  1.00  0.00    -0.129 NA
BRANCH  12  15
ATOM     15  C   UNL     1       0.381  -2.566   0.120  1.00  0.00     0.034 A 
ATOM     16  C   UNL     1       0.007  -3.401  -0.946  1.00  0.00     0.013 A 
ATOM     17  C   UNL     1       1.098  -3.119   1.192  1.00  0.00     0.029 A 
ATOM     18  C   UNL     1       0.385  -4.746  -0.967  1.00  0.00     0.001 A 
ATOM     19  C   UNL     1       1.481  -4.464   1.165  1.00  0.00     0.016 A 
ATOM     20  Br  UNL     1       1.565  -2.111   2.736  1.00  0.00    -0.050 Br
ATOM     21  C   UNL     1       1.133  -5.273   0.083  1.00  0.00     0.001 A 
ENDBRANCH  12  15
ENDBRANCH   8   9
ENDBRANCH   7   8
ENDBRANCH   4   7
ENDBRANCH   2   3
ENDBRANCH   1   2
BRANCH   1  22
ATOM     22  C   UNL     1       0.622   2.933   4.651  1.00  0.00     0.023 C 
BRANCH  22  23
ATOM     23  C   UNL     1       1.357   3.866   5.609  1.00  0.00     0.116 C 
BRANCH  23  24
ATOM     24  N   UNL     1       0.668   5.130   5.814  1.00  0.00    -0.352 N 
ATOM     25  C   UNL     1       0.442   5.825   6.975  1.00  0.00     0.251 C 
ATOM     26  H   UNL     1       0.311   5.550   4.999  1.00  0.00     0.163 HD
ATOM     27  O   UNL     1      -0.273   6.828   6.945  1.00  0.00    -0.269 OA
BRANCH  25  28
ATOM     28  C   UNL     1       1.021   5.372   8.260  1.00  0.00     0.039 A 
ATOM     29  C   UNL     1       0.222   5.424   9.405  1.00  0.00     0.014 A 
ATOM     30  C   UNL     1       2.340   4.918   8.352  1.00  0.00     0.014 A 
ATOM     31  C   UNL     1       0.728   4.976  10.628  1.00  0.00     0.010 A 
ATOM     32  C   UNL     1       2.817   4.400   9.556  1.00  0.00     0.010 A 
ATOM     33  C   UNL     1       2.021   4.432  10.710  1.00  0.00    -0.014 A 
BRANCH  33  34
ATOM     34  C   UNL     1       2.531   3.882  11.995  1.00  0.00     0.031 A 
ATOM     35  C   UNL     1       3.732   4.489  12.673  1.00  0.00     0.074 A 
ATOM     36  C   UNL     1       1.938   2.797  12.532  1.00  0.00     0.049 A 
ATOM     37  N   UNL     1       4.294   4.154  13.806  1.00  0.00    -0.248 NA
ATOM     38  C   UNL     1       4.404   5.600  11.980  1.00  0.00     0.031 C 
ATOM     39  C   UNL     1       0.823   2.060  11.932  1.00  0.00     0.029 A 
ATOM     40  N   UNL     1       2.196   2.115  13.695  1.00  0.00    -0.354 N 
ATOM     41  C   UNL     1       5.396   4.989  13.949  1.00  0.00     0.074 A 
ATOM     42  C   UNL     1       5.447   5.822  12.767  1.00  0.00     0.031 C 
ATOM     43  C   UNL     1       0.482   1.044  12.739  1.00  0.00     0.029 A 
ATOM     44  C   UNL     1       1.367   1.037  13.898  1.00  0.00     0.049 A 
ATOM     45  H   UNL     1       2.908   2.374  14.324  1.00  0.00     0.167 HD
ATOM     46  C   UNL     1       6.268   5.080  14.982  1.00  0.00     0.034 A 
ATOM     47  C   UNL     1       1.323   0.142  14.905  1.00  0.00     0.034 A 
ATOM     48  C   UNL     1       6.197   4.273  16.172  1.00  0.00     0.049 A 
ATOM     49  C   UNL     1       2.274   0.294  16.061  1.00  0.00     0.074 A 
ATOM     50  C   UNL     1       6.983   4.345  17.309  1.00  0.00     0.029 A 
ATOM     51  N   UNL     1       5.297   3.239  16.375  1.00  0.00    -0.354 N 
ATOM     52  N   UNL     1       3.205   1.197  16.252  1.00  0.00    -0.248 NA
ATOM     53  C   UNL     1       2.140  -0.673  17.160  1.00  0.00     0.031 C 
ATOM     54  C   UNL     1       6.578   3.334  18.187  1.00  0.00     0.029 A 
ATOM     55  C   UNL     1       5.514   2.657  17.614  1.00  0.00     0.049 A 
ATOM     56  H   UNL     1       4.605   2.958  15.734  1.00  0.00     0.167 HD
ATOM     57  C   UNL     1       3.742   0.930  17.507  1.00  0.00     0.074 A 
ATOM     58  C   UNL     1       3.012  -0.202  18.040  1.00  0.00     0.031 C 
ATOM     59  C   UNL     1       4.755   1.558  18.154  1.00  0.00     0.034 A 
BRANCH  46  60
ATOM     60  C   UNL     1       7.352   6.126  14.894  1.00  0.00     0.023 A 
ATOM     61  C   UNL     1       7.013   7.491  14.992  1.00  0.00     0.012 A 
ATOM     62  C   UNL     1       8.708   5.760  14.777  1.00  0.00     0.148 A 
ATOM     63  C   UNL     1       7.998   8.476  14.936  1.00  0.00     0.002 A 
ATOM     64  C   UNL     1       9.689   6.745  14.770  1.00  0.00     0.091 A 
ATOM     65  F   UNL     1       9.012   4.459  14.667  1.00  0.00    -0.205 F 
ATOM     66  C   UNL     1       9.335   8.103  14.836  1.00  0.00     0.022 A 
BRANCH  64  67
ATOM     67  S   UNL     1      11.444   6.367  14.728  1.00  0.00     0.127 S 
ATOM     68  O   UNL     1      11.812   6.826  13.389  1.00  0.00    -0.237 OA
ATOM     69  O   UNL     1      11.963   7.193  15.819  1.00  0.00    -0.237 OA
ATOM     70  O   UNL     1      11.553   4.932  14.947  1.00  0.00    -0.744 OA
ENDBRANCH  64  67
ENDBRANCH  46  60
BRANCH  47  71
ATOM     71  C   UNL     1       0.294  -0.936  14.899  1.00  0.00     0.023 A 
ATOM     72  C   UNL     1      -0.757  -0.900  15.837  1.00  0.00     0.012 A 
ATOM     73  C   UNL     1       0.341  -1.985  13.961  1.00  0.00     0.148 A 
ATOM     74  C   UNL     1      -1.722  -1.907  15.864  1.00  0.00     0.002 A 
ATOM     75  C   UNL     1      -0.656  -2.954  13.956  1.00  0.00     0.091 A 
ATOM     76  F   UNL     1       1.354  -2.007  13.084  1.00  0.00    -0.205 F 
ATOM     77  C   UNL     1      -1.677  -2.928  14.918  1.00  0.00     0.022 A 
BRANCH  75  78
ATOM     78  S   UNL     1      -0.751  -4.230  12.696  1.00  0.00     0.127 S 
ATOM     79  O   UNL     1      -0.422  -5.430  13.461  1.00  0.00    -0.237 OA
ATOM     80  O   UNL     1      -2.148  -4.131  12.273  1.00  0.00    -0.237 OA
ATOM     81  O   UNL     1       0.214  -3.848  11.675  1.00  0.00    -0.744 OA
ENDBRANCH  75  78
ENDBRANCH  47  71
BRANCH  59  82
ATOM     82  C   UNL     1       5.115   1.059  19.530  1.00  0.00     0.023 A 
ATOM     83  C   UNL     1       5.734  -0.198  19.688  1.00  0.00     0.012 A 
ATOM     84  C   UNL     1       4.877   1.857  20.667  1.00  0.00     0.148 A 
ATOM     85  C   UNL     1       6.065  -0.672  20.956  1.00  0.00     0.002 A 
ATOM     86  C   UNL     1       5.260   1.401  21.923  1.00  0.00     0.091 A 
ATOM     87  F   UNL     1       4.271   3.042  20.503  1.00  0.00    -0.205 F 
ATOM     88  C   UNL     1       5.838   0.130  22.072  1.00  0.00     0.022 A 
BRANCH  86  89
ATOM     89  S   UNL     1       5.096   2.408  23.401  1.00  0.00     0.127 S 
ATOM     90  O   UNL     1       3.965   1.771  24.073  1.00  0.00    -0.237 OA
ATOM     91  O   UNL     1       6.388   2.207  24.059  1.00  0.00    -0.237 OA
ATOM     92  O   UNL     1       4.864   3.769  22.935  1.00  0.00    -0.744 OA
ENDBRANCH  86  89
ENDBRANCH  59  82
ENDBRANCH  33  34
ENDBRANCH  25  28
ENDBRANCH  23  24
ENDBRANCH  22  23
ENDBRANCH   1  22
TORSDOF 17
