REMARK SMILES Cc1onc2c(=O)n(C)nc(C(=O)NCCCCNC(=O)c3ccc(-c4c5nc(c(-c6cccc(S(=O)(=O)[O-])c6F)c6ccc([nH]6)c(-c6cccc(S(=O)(=O)[O-])c6F)c6nc(c(-c7cccc(S(=O)(=O)[O-])c7F)c7ccc4[nH]7)C=C6)C=C5)cc3)c12
REMARK SMILES IDX 18 1 17 2 16 3 15 4 14 5 12 6 13 7 11 9 1 10 2 11 3 12 85 13
REMARK SMILES IDX 4 14 5 15 6 16 10 17 7 18 8 19 9 20 19 21 20 22 21 24 22 25
REMARK SMILES IDX 23 26 84 27 24 28 83 29 25 30 26 31 27 32 77 33 28 34 82 35
REMARK SMILES IDX 76 36 78 37 29 38 81 39 75 40 74 41 30 43 62 44 42 45 61 46
REMARK SMILES IDX 43 47 46 48 60 49 79 50 44 51 45 52 59 54 80 55 47 56 31 57
REMARK SMILES IDX 32 58 40 59 33 60 35 61 41 62 34 63 36 64 37 65 38 66 39 67
REMARK SMILES IDX 63 68 64 69 72 70 65 71 67 72 73 73 66 74 68 75 69 76 70 77
REMARK SMILES IDX 71 78 48 79 49 80 57 81 50 82 52 83 58 84 51 85 53 86 54 87
REMARK SMILES IDX 55 88 56 89
REMARK H PARENT 14 8 19 23 78 42 46 53
REMARK Flexibility Score: inf
ROOT
ATOM      1  C   UNL     1       8.589   0.615   1.967  1.00  0.00     0.116 C 
ENDROOT
BRANCH   1   2
ATOM      2  C   UNL     1       7.285   0.725   2.769  1.00  0.00     0.023 C 
BRANCH   2   3
ATOM      3  C   UNL     1       6.414   1.952   2.431  1.00  0.00     0.023 C 
BRANCH   3   4
ATOM      4  C   UNL     1       5.913   1.982   0.985  1.00  0.00     0.116 C 
BRANCH   4   5
ATOM      5  N   UNL     1       4.914   0.946   0.792  1.00  0.00    -0.351 N 
ATOM      6  C   UNL     1       3.542   1.006   0.802  1.00  0.00     0.272 C 
ATOM      7  O   UNL     1       2.915  -0.029   1.008  1.00  0.00    -0.267 OA
ATOM      8  H   UNL     1       5.283   0.049   0.626  1.00  0.00     0.163 HD
BRANCH   6   9
ATOM      9  C   UNL     1       2.767   2.301   0.529  1.00  0.00     0.161 A 
ATOM     10  C   UNL     1       0.471  -0.132  -0.401  1.00  0.00     0.091 C 
ATOM     11  C   UNL     1       0.492   1.342  -0.313  1.00  0.00     0.144 A 
ATOM     12  O   UNL     1      -0.673   1.957  -0.677  1.00  0.00    -0.360 OA
ATOM     13  C   UNL     1       1.405   2.307   0.048  1.00  0.00     0.083 A 
ATOM     14  N   UNL     1      -0.530   3.331  -0.583  1.00  0.00    -0.074 NA
ATOM     15  C   UNL     1       0.724   3.522  -0.161  1.00  0.00     0.183 A 
ATOM     16  C   UNL     1       1.366   4.798   0.053  1.00  0.00     0.296 A 
ATOM     17  N   UNL     1       3.345   3.454   0.743  1.00  0.00    -0.164 NA
ATOM     18  O   UNL     1       0.812   5.889  -0.133  1.00  0.00    -0.265 OA
ATOM     19  N   UNL     1       2.697   4.667   0.482  1.00  0.00    -0.230 N 
ATOM     20  C   UNL     1       3.493   5.868   0.644  1.00  0.00     0.178 C 
ENDBRANCH   6   9
ENDBRANCH   4   5
ENDBRANCH   3   4
ENDBRANCH   2   3
ENDBRANCH   1   2
BRANCH   1  21
ATOM     21  N   UNL     1       9.400   1.801   2.173  1.00  0.00    -0.352 N 
ATOM     22  C   UNL     1      10.728   1.927   2.459  1.00  0.00     0.251 C 
ATOM     23  H   UNL     1       8.913   2.652   2.094  1.00  0.00     0.163 HD
ATOM     24  O   UNL     1      11.110   2.968   2.993  1.00  0.00    -0.269 OA
BRANCH  22  25
ATOM     25  C   UNL     1      11.708   0.877   2.123  1.00  0.00     0.039 A 
ATOM     26  C   UNL     1      12.822   0.751   2.962  1.00  0.00     0.014 A 
ATOM     27  C   UNL     1      11.640   0.152   0.929  1.00  0.00     0.014 A 
ATOM     28  C   UNL     1      13.864  -0.100   2.616  1.00  0.00     0.010 A 
ATOM     29  C   UNL     1      12.685  -0.705   0.585  1.00  0.00     0.010 A 
ATOM     30  C   UNL     1      13.797  -0.838   1.432  1.00  0.00    -0.014 A 
BRANCH  30  31
ATOM     31  C   UNL     1      14.916  -1.770   1.175  1.00  0.00     0.031 A 
ATOM     32  C   UNL     1      14.428  -3.140   0.776  1.00  0.00     0.074 A 
ATOM     33  C   UNL     1      15.972  -1.245   0.515  1.00  0.00     0.049 A 
ATOM     34  N   UNL     1      14.011  -3.494  -0.399  1.00  0.00    -0.248 NA
ATOM     35  C   UNL     1      14.178  -4.158   1.802  1.00  0.00     0.031 C 
ATOM     36  C   UNL     1      15.950  -0.549  -0.772  1.00  0.00     0.029 A 
ATOM     37  N   UNL     1      17.314  -1.306   0.857  1.00  0.00    -0.354 N 
ATOM     38  C   UNL     1      13.467  -4.776  -0.291  1.00  0.00     0.074 A 
ATOM     39  C   UNL     1      13.557  -5.125   1.105  1.00  0.00     0.031 C 
ATOM     40  C   UNL     1      17.218  -0.398  -1.199  1.00  0.00     0.029 A 
ATOM     41  C   UNL     1      18.135  -0.991  -0.224  1.00  0.00     0.049 A 
ATOM     42  H   UNL     1      17.646  -1.544   1.753  1.00  0.00     0.167 HD
ATOM     43  C   UNL     1      13.104  -5.504  -1.389  1.00  0.00     0.034 A 
ATOM     44  C   UNL     1      19.279  -1.674  -0.520  1.00  0.00     0.034 A 
ATOM     45  C   UNL     1      13.491  -4.911  -2.650  1.00  0.00     0.049 A 
ATOM     46  C   UNL     1      18.767  -2.715  -1.490  1.00  0.00     0.074 A 
ATOM     47  C   UNL     1      12.980  -4.666  -3.903  1.00  0.00     0.029 A 
ATOM     48  N   UNL     1      14.772  -4.433  -2.667  1.00  0.00    -0.354 N 
ATOM     49  N   UNL     1      18.441  -2.506  -2.741  1.00  0.00    -0.248 NA
ATOM     50  C   UNL     1      18.273  -3.992  -0.951  1.00  0.00     0.031 C 
ATOM     51  C   UNL     1      14.018  -4.012  -4.654  1.00  0.00     0.029 A 
ATOM     52  C   UNL     1      15.155  -3.907  -3.857  1.00  0.00     0.049 A 
ATOM     53  H   UNL     1      15.365  -4.468  -1.882  1.00  0.00     0.167 HD
ATOM     54  C   UNL     1      17.437  -3.437  -3.012  1.00  0.00     0.074 A 
ATOM     55  C   UNL     1      17.531  -4.433  -1.962  1.00  0.00     0.031 C 
ATOM     56  C   UNL     1      16.433  -3.226  -3.921  1.00  0.00     0.034 A 
BRANCH  43  57
ATOM     57  C   UNL     1      12.760  -6.960  -1.389  1.00  0.00     0.023 A 
ATOM     58  C   UNL     1      13.785  -7.829  -1.832  1.00  0.00     0.012 A 
ATOM     59  C   UNL     1      11.468  -7.481  -1.198  1.00  0.00     0.148 A 
ATOM     60  C   UNL     1      13.532  -9.167  -2.127  1.00  0.00     0.002 A 
ATOM     61  C   UNL     1      11.221  -8.828  -1.492  1.00  0.00     0.091 A 
ATOM     62  F   UNL     1      10.495  -6.654  -0.792  1.00  0.00    -0.205 F 
ATOM     63  C   UNL     1      12.248  -9.664  -1.967  1.00  0.00     0.022 A 
BRANCH  61  64
ATOM     64  S   UNL     1       9.601  -9.597  -1.339  1.00  0.00     0.127 S 
ATOM     65  O   UNL     1       9.243  -9.841  -2.735  1.00  0.00    -0.237 OA
ATOM     66  O   UNL     1       9.906 -10.804  -0.569  1.00  0.00    -0.237 OA
ATOM     67  O   UNL     1       8.767  -8.629  -0.637  1.00  0.00    -0.744 OA
ENDBRANCH  61  64
ENDBRANCH  43  57
BRANCH  44  68
ATOM     68  C   UNL     1      20.234  -1.919   0.611  1.00  0.00     0.023 A 
ATOM     69  C   UNL     1      20.598  -0.791   1.390  1.00  0.00     0.012 A 
ATOM     70  C   UNL     1      20.777  -3.159   0.987  1.00  0.00     0.148 A 
ATOM     71  C   UNL     1      21.340  -0.913   2.568  1.00  0.00     0.002 A 
ATOM     72  C   UNL     1      21.454  -3.291   2.200  1.00  0.00     0.091 A 
ATOM     73  F   UNL     1      20.645  -4.206   0.167  1.00  0.00    -0.205 F 
ATOM     74  C   UNL     1      21.730  -2.172   2.997  1.00  0.00     0.022 A 
BRANCH  72  75
ATOM     75  S   UNL     1      21.912  -4.892   2.880  1.00  0.00     0.127 S 
ATOM     76  O   UNL     1      23.328  -4.702   3.184  1.00  0.00    -0.237 OA
ATOM     77  O   UNL     1      21.033  -4.967   4.046  1.00  0.00    -0.237 OA
ATOM     78  O   UNL     1      21.629  -5.862   1.831  1.00  0.00    -0.744 OA
ENDBRANCH  72  75
ENDBRANCH  44  68
BRANCH  56  79
ATOM     79  C   UNL     1      16.659  -2.159  -4.941  1.00  0.00     0.023 A 
ATOM     80  C   UNL     1      17.819  -2.251  -5.736  1.00  0.00     0.012 A 
ATOM     81  C   UNL     1      15.725  -1.137  -5.204  1.00  0.00     0.148 A 
ATOM     82  C   UNL     1      18.052  -1.354  -6.771  1.00  0.00     0.002 A 
ATOM     83  C   UNL     1      15.940  -0.272  -6.270  1.00  0.00     0.091 A 
ATOM     84  F   UNL     1      14.644  -1.026  -4.417  1.00  0.00    -0.205 F 
ATOM     85  C   UNL     1      17.105  -0.375  -7.048  1.00  0.00     0.022 A 
BRANCH  83  86
ATOM     86  S   UNL     1      14.748   0.972  -6.780  1.00  0.00     0.127 S 
ATOM     87  O   UNL     1      15.523   2.206  -6.652  1.00  0.00    -0.237 OA
ATOM     88  O   UNL     1      14.468   0.570  -8.159  1.00  0.00    -0.237 OA
ATOM     89  O   UNL     1      13.618   0.858  -5.869  1.00  0.00    -0.744 OA
ENDBRANCH  83  86
ENDBRANCH  56  79
ENDBRANCH  30  31
ENDBRANCH  22  25
ENDBRANCH   1  21
TORSDOF 14
