REMARK SMILES C[N@H+]1[C@H]2CC[C@@H]1C[N@@H+]([C@H](C(=O)NCCCCNC(=O)c1ccc(-c3c4nc(c(-c5cccc(S(=O)(=O)[O-])c5F)c5ccc([nH]5)c(-c5cccc(S(=O)(=O)[O-])c5F)c5nc(c(-c6cccc(S(=O)(=O)[O-])c6F)c6ccc3[nH]6)C=C5)C=C4)cc1)c1ccccc1)CC2
REMARK SMILES IDX 14 1 13 2 12 3 10 4 11 5 9 7 8 8 7 10 6 11 1 12 2 13 3 14
REMARK SMILES IDX 4 16 5 18 89 19 90 20 83 22 84 23 88 24 85 25 87 26 86 27
REMARK SMILES IDX 15 28 16 29 17 30 18 31 19 33 20 34 21 35 82 36 22 37 81 38
REMARK SMILES IDX 23 39 24 40 25 41 75 42 26 43 80 44 74 45 76 46 27 47 79 48
REMARK SMILES IDX 73 49 72 50 28 52 60 53 40 54 59 55 41 56 44 57 58 58 77 59
REMARK SMILES IDX 42 60 43 61 57 63 78 64 45 65 29 66 30 67 38 68 31 69 33 70
REMARK SMILES IDX 39 71 32 72 34 73 35 74 36 75 37 76 61 77 62 78 70 79 63 80
REMARK SMILES IDX 65 81 71 82 64 83 66 84 67 85 68 86 69 87 46 88 47 89 55 90
REMARK SMILES IDX 48 91 50 92 56 93 49 94 51 95 52 96 53 97 54 98
REMARK H PARENT 12 6 8 9 2 15 17 32 76 51 44 62
REMARK Flexibility Score: 90.00
ROOT
ATOM      1  C   UNL     1       1.285   3.731   1.736  1.00  0.00     0.023 C 
ENDROOT
BRANCH   1   2
ATOM      2  C   UNL     1       1.413   3.220   3.171  1.00  0.00     0.116 C 
BRANCH   2   3
ATOM      3  N   UNL     1       0.307   2.369   3.575  1.00  0.00    -0.351 N 
ATOM      4  C   UNL     1       0.285   1.116   4.119  1.00  0.00     0.283 C 
ATOM      5  O   UNL     1      -0.830   0.684   4.445  1.00  0.00    -0.268 OA
ATOM      6  H   UNL     1      -0.583   2.765   3.431  1.00  0.00     0.163 HD
BRANCH   4   7
ATOM      7  C   UNL     1       1.558   0.229   4.321  1.00  0.00     0.305 C 
BRANCH   7   8
ATOM      8  N   UNL     1       1.749  -0.675   3.146  1.00  0.00    -0.316 N 
ATOM      9  H   UNL     1       0.809  -1.031   2.971  1.00  0.00     0.349 HD
BRANCH   8  10
ATOM     10  C   UNL     1       2.597  -1.845   3.449  1.00  0.00     0.328 C 
BRANCH  10  11
ATOM     11  C   UNL     1       2.599  -3.031   2.432  1.00  0.00     0.240 C 
ATOM     12  C   UNL     1       3.505  -3.664   0.253  1.00  0.00     0.333 C 
ATOM     13  N   UNL     1       2.908  -2.597   1.050  1.00  0.00    -0.328 N 
ATOM     14  C   UNL     1       1.607  -2.168   0.496  1.00  0.00     0.190 CG0
ATOM     15  H   UNL     1       3.601  -1.849   1.036  1.00  0.00     0.348 HD
ATOM     16  C   UNL     1       0.510  -2.925   1.256  1.00  0.00     0.071 C 
ATOM     17  G   UNL     1       1.464  -0.651   0.634  1.00  0.00     0.000 G0
ATOM     18  C   UNL     1       1.235  -3.702   2.336  1.00  0.00     0.077 C 
ENDBRANCH  10  11
ENDBRANCH   8  10
BRANCH   8  19
ATOM     19  C   UNL     1       2.092  -0.025   1.886  1.00  0.00     0.269 C 
BRANCH  19  20
ATOM     20  C   UNL     1       1.464  -0.651   0.634  1.00  0.00     0.126 CG0
ATOM     21  G   UNL     1       1.607  -2.168   0.496  1.00  0.00     0.000 G0
ENDBRANCH  19  20
ENDBRANCH   8  19
ENDBRANCH   7   8
BRANCH   7  22
ATOM     22  C   UNL     1       2.742   0.949   4.977  1.00  0.00     0.019 A 
ATOM     23  C   UNL     1       4.036   1.018   4.439  1.00  0.00     0.010 A 
ATOM     24  C   UNL     1       2.519   1.603   6.208  1.00  0.00     0.010 A 
ATOM     25  C   UNL     1       5.057   1.719   5.088  1.00  0.00     0.001 A 
ATOM     26  C   UNL     1       3.537   2.308   6.854  1.00  0.00     0.001 A 
ATOM     27  C   UNL     1       4.807   2.367   6.293  1.00  0.00     0.000 A 
ENDBRANCH   7  22
ENDBRANCH   4   7
ENDBRANCH   2   3
ENDBRANCH   1   2
BRANCH   1  28
ATOM     28  C   UNL     1       0.066   4.604   1.455  1.00  0.00     0.023 C 
BRANCH  28  29
ATOM     29  C   UNL     1      -0.077   5.819   2.361  1.00  0.00     0.116 C 
BRANCH  29  30
ATOM     30  N   UNL     1       1.073   6.713   2.294  1.00  0.00    -0.352 N 
ATOM     31  C   UNL     1       1.128   8.039   1.935  1.00  0.00     0.251 C 
ATOM     32  H   UNL     1       1.935   6.309   2.543  1.00  0.00     0.163 HD
ATOM     33  O   UNL     1       2.213   8.598   1.796  1.00  0.00    -0.269 OA
BRANCH  31  34
ATOM     34  C   UNL     1      -0.127   8.779   1.687  1.00  0.00     0.039 A 
ATOM     35  C   UNL     1      -0.257   9.521   0.510  1.00  0.00     0.014 A 
ATOM     36  C   UNL     1      -1.187   8.697   2.592  1.00  0.00     0.014 A 
ATOM     37  C   UNL     1      -1.489  10.099   0.193  1.00  0.00     0.010 A 
ATOM     38  C   UNL     1      -2.431   9.207   2.239  1.00  0.00     0.010 A 
ATOM     39  C   UNL     1      -2.599   9.900   1.030  1.00  0.00    -0.014 A 
BRANCH  39  40
ATOM     40  C   UNL     1      -3.959  10.355   0.647  1.00  0.00     0.031 A 
ATOM     41  C   UNL     1      -4.689  11.356   1.499  1.00  0.00     0.074 A 
ATOM     42  C   UNL     1      -4.587   9.766  -0.391  1.00  0.00     0.049 A 
ATOM     43  N   UNL     1      -5.924  11.774   1.403  1.00  0.00    -0.248 NA
ATOM     44  C   UNL     1      -3.941  11.943   2.623  1.00  0.00     0.031 C 
ATOM     45  C   UNL     1      -4.014   8.722  -1.244  1.00  0.00     0.029 A 
ATOM     46  N   UNL     1      -5.860   9.929  -0.878  1.00  0.00    -0.354 N 
ATOM     47  C   UNL     1      -6.114  12.639   2.473  1.00  0.00     0.074 A 
ATOM     48  C   UNL     1      -4.876  12.667   3.221  1.00  0.00     0.031 C 
ATOM     49  C   UNL     1      -4.933   8.333  -2.142  1.00  0.00     0.029 A 
ATOM     50  C   UNL     1      -6.170   9.071  -1.909  1.00  0.00     0.049 A 
ATOM     51  H   UNL     1      -6.492  10.596  -0.524  1.00  0.00     0.167 HD
ATOM     52  C   UNL     1      -7.211  13.368   2.788  1.00  0.00     0.034 A 
ATOM     53  C   UNL     1      -7.324   8.885  -2.579  1.00  0.00     0.034 A 
ATOM     54  C   UNL     1      -8.422  13.377   2.014  1.00  0.00     0.049 A 
ATOM     55  C   UNL     1      -8.519   9.727  -2.226  1.00  0.00     0.074 A 
ATOM     56  C   UNL     1      -9.549  14.161   2.189  1.00  0.00     0.029 A 
ATOM     57  N   UNL     1      -8.669  12.561   0.921  1.00  0.00    -0.354 N 
ATOM     58  N   UNL     1      -8.626  10.665  -1.316  1.00  0.00    -0.248 NA
ATOM     59  C   UNL     1      -9.745   9.506  -3.007  1.00  0.00     0.031 C 
ATOM     60  C   UNL     1     -10.484  13.807   1.211  1.00  0.00     0.029 A 
ATOM     61  C   UNL     1      -9.934  12.811   0.420  1.00  0.00     0.049 A 
ATOM     62  H   UNL     1      -8.037  11.901   0.555  1.00  0.00     0.167 HD
ATOM     63  C   UNL     1      -9.918  11.163  -1.432  1.00  0.00     0.074 A 
ATOM     64  C   UNL     1     -10.550  10.440  -2.516  1.00  0.00     0.031 C 
ATOM     65  C   UNL     1     -10.533  12.120  -0.693  1.00  0.00     0.034 A 
BRANCH  52  66
ATOM     66  C   UNL     1      -7.128  14.271   3.990  1.00  0.00     0.023 A 
ATOM     67  C   UNL     1      -6.359  15.451   3.912  1.00  0.00     0.012 A 
ATOM     68  C   UNL     1      -7.849  13.991   5.166  1.00  0.00     0.148 A 
ATOM     69  C   UNL     1      -6.285  16.322   4.997  1.00  0.00     0.002 A 
ATOM     70  C   UNL     1      -7.801  14.884   6.230  1.00  0.00     0.091 A 
ATOM     71  F   UNL     1      -8.555  12.852   5.229  1.00  0.00    -0.205 F 
ATOM     72  C   UNL     1      -7.013  16.045   6.151  1.00  0.00     0.022 A 
BRANCH  70  73
ATOM     73  S   UNL     1      -8.759  14.652   7.732  1.00  0.00     0.127 S 
ATOM     74  O   UNL     1      -7.725  14.248   8.682  1.00  0.00    -0.237 OA
ATOM     75  O   UNL     1      -9.307  15.989   7.960  1.00  0.00    -0.237 OA
ATOM     76  O   UNL     1      -9.754  13.636   7.417  1.00  0.00    -0.744 OA
ENDBRANCH  70  73
ENDBRANCH  52  66
BRANCH  53  77
ATOM     77  C   UNL     1      -7.385   7.896  -3.692  1.00  0.00     0.023 A 
ATOM     78  C   UNL     1      -7.477   8.360  -5.018  1.00  0.00     0.012 A 
ATOM     79  C   UNL     1      -7.311   6.510  -3.453  1.00  0.00     0.148 A 
ATOM     80  C   UNL     1      -7.519   7.462  -6.085  1.00  0.00     0.002 A 
ATOM     81  C   UNL     1      -7.300   5.623  -4.524  1.00  0.00     0.091 A 
ATOM     82  F   UNL     1      -7.240   6.086  -2.183  1.00  0.00    -0.205 F 
ATOM     83  C   UNL     1      -7.419   6.096  -5.840  1.00  0.00     0.022 A 
BRANCH  81  84
ATOM     84  S   UNL     1      -7.040   3.858  -4.305  1.00  0.00     0.127 S 
ATOM     85  O   UNL     1      -8.379   3.326  -4.540  1.00  0.00    -0.237 OA
ATOM     86  O   UNL     1      -6.065   3.561  -5.356  1.00  0.00    -0.237 OA
ATOM     87  O   UNL     1      -6.522   3.707  -2.952  1.00  0.00    -0.744 OA
ENDBRANCH  81  84
ENDBRANCH  53  77
BRANCH  65  88
ATOM     88  C   UNL     1     -11.960  12.458  -1.033  1.00  0.00     0.023 A 
ATOM     89  C   UNL     1     -12.988  11.570  -0.661  1.00  0.00     0.012 A 
ATOM     90  C   UNL     1     -12.289  13.690  -1.632  1.00  0.00     0.148 A 
ATOM     91  C   UNL     1     -14.323  11.894  -0.898  1.00  0.00     0.002 A 
ATOM     92  C   UNL     1     -13.624  14.025  -1.826  1.00  0.00     0.091 A 
ATOM     93  F   UNL     1     -11.293  14.511  -1.992  1.00  0.00    -0.205 F 
ATOM     94  C   UNL     1     -14.641  13.125  -1.468  1.00  0.00     0.022 A 
BRANCH  92  95
ATOM     95  S   UNL     1     -14.135  15.622  -2.470  1.00  0.00     0.127 S 
ATOM     96  O   UNL     1     -14.628  15.264  -3.798  1.00  0.00    -0.237 OA
ATOM     97  O   UNL     1     -15.174  16.021  -1.520  1.00  0.00    -0.237 OA
ATOM     98  O   UNL     1     -12.945  16.462  -2.452  1.00  0.00    -0.744 OA
ENDBRANCH  92  95
ENDBRANCH  65  88
ENDBRANCH  39  40
ENDBRANCH  31  34
ENDBRANCH  29  30
ENDBRANCH  28  29
ENDBRANCH   1  28
TORSDOF 16
