REMARK SMILES [NH3+][C@@H](Cc1c[nH]c2ccccc12)C(=O)N[C@@H](CS)C(=O)N[C@@H](CO)C(=O)NCCCCNC(=O)c1ccc(-c2c3nc(c(-c4cccc(S(=O)(=O)[O-])c4F)c4ccc([nH]4)c(-c4cccc(S(=O)(=O)[O-])c4F)c4nc(c(-c5cccc(S(=O)(=O)[O-])c5F)c5ccc2[nH]5)C=C4)C=C3)cc1
REMARK SMILES IDX 28 1 27 2 25 3 26 4 22 6 21 7 19 8 20 9 16 11 15 12 13 13
REMARK SMILES IDX 14 14 2 16 1 17 3 21 4 22 5 23 12 24 6 25 7 26 11 27 8 29
REMARK SMILES IDX 10 30 9 31 17 32 18 33 23 35 24 36 29 38 30 39 31 40 32 41
REMARK SMILES IDX 33 42 34 44 35 45 36 46 97 47 37 48 96 49 38 50 39 51 40 52
REMARK SMILES IDX 90 53 41 54 95 55 89 56 91 57 42 58 94 59 88 60 87 61 43 63
REMARK SMILES IDX 75 64 55 65 74 66 56 67 59 68 73 69 92 70 57 71 58 72 72 74
REMARK SMILES IDX 93 75 60 76 44 77 45 78 53 79 46 80 48 81 54 82 47 83 49 84
REMARK SMILES IDX 50 85 51 86 52 87 76 88 77 89 85 90 78 91 80 92 86 93 79 94
REMARK SMILES IDX 81 95 82 96 83 97 84 98 61 99 62 100 70 101 63 102 65 103
REMARK SMILES IDX 71 104 64 105 66 106 67 107 68 108 69 109
REMARK H PARENT 27 5 21 10 15 15 1 18 1 19 1 20 6 28 18 34 24 37 32 43 91 62
REMARK H PARENT 59 73
REMARK Flexibility Score: inf
ROOT
ATOM      1  C   UNL     1      -5.371  -2.111   5.686  1.00  0.00     0.116 C 
ENDROOT
BRANCH   1   2
ATOM      2  N   UNL     1      -5.536  -0.716   5.330  1.00  0.00    -0.354 N 
ATOM      3  C   UNL     1      -5.306  -0.063   4.160  1.00  0.00     0.244 C 
ATOM      4  O   UNL     1      -5.742   1.088   4.048  1.00  0.00    -0.273 OA
ATOM      5  H   UNL     1      -5.871  -0.144   6.059  1.00  0.00     0.163 HD
BRANCH   3   6
ATOM      6  C   UNL     1      -4.590  -0.713   2.973  1.00  0.00     0.197 C 
BRANCH   6   7
ATOM      7  N   UNL     1      -3.325  -1.327   3.349  1.00  0.00    -0.340 N 
ATOM      8  C   UNL     1      -2.264  -1.520   2.538  1.00  0.00     0.244 C 
ATOM      9  O   UNL     1      -1.806  -2.668   2.553  1.00  0.00    -0.273 OA
ATOM     10  H   UNL     1      -3.236  -1.629   4.282  1.00  0.00     0.164 HD
BRANCH   8  11
ATOM     11  C   UNL     1      -1.720  -0.434   1.585  1.00  0.00     0.181 C 
BRANCH  11  12
ATOM     12  N   UNL     1      -1.866  -0.917   0.226  1.00  0.00    -0.338 N 
ATOM     13  C   UNL     1      -0.936  -1.610  -0.501  1.00  0.00     0.279 C 
ATOM     14  O   UNL     1      -1.370  -2.369  -1.376  1.00  0.00    -0.268 OA
ATOM     15  H   UNL     1      -2.723  -0.727  -0.221  1.00  0.00     0.164 HD
BRANCH  13  16
ATOM     16  C   UNL     1       0.599  -1.373  -0.344  1.00  0.00     0.275 C 
BRANCH  16  17
ATOM     17  N   UNL     1       0.908   0.059  -0.540  1.00  0.00    -0.347 N 
ATOM     18  H   UNL     1       1.912   0.207  -0.436  1.00  0.00     0.345 HD
ATOM     19  H   UNL     1       0.409   0.613   0.155  1.00  0.00     0.345 HD
ATOM     20  H   UNL     1       0.617   0.344  -1.475  1.00  0.00     0.345 HD
ENDBRANCH  16  17
BRANCH  16  21
ATOM     21  C   UNL     1       1.404  -2.126   0.748  1.00  0.00     0.113 C 
BRANCH  21  22
ATOM     22  C   UNL     1       1.331  -1.736   2.206  1.00  0.00    -0.016 A 
ATOM     23  C   UNL     1       1.038  -2.638   3.217  1.00  0.00     0.087 A 
ATOM     24  C   UNL     1       1.491  -0.460   2.860  1.00  0.00     0.003 A 
ATOM     25  N   UNL     1       0.819  -1.950   4.377  1.00  0.00    -0.361 N 
ATOM     26  C   UNL     1       0.999  -0.606   4.162  1.00  0.00     0.046 A 
ATOM     27  C   UNL     1       1.875   0.836   2.456  1.00  0.00     0.010 A 
ATOM     28  H   UNL     1       0.571  -2.357   5.238  1.00  0.00     0.166 HD
ATOM     29  C   UNL     1       0.750   0.477   5.015  1.00  0.00     0.026 A 
ATOM     30  C   UNL     1       1.631   1.933   3.294  1.00  0.00     0.001 A 
ATOM     31  C   UNL     1       1.047   1.756   4.543  1.00  0.00     0.002 A 
ENDBRANCH  21  22
ENDBRANCH  16  21
ENDBRANCH  13  16
ENDBRANCH  11  12
BRANCH  11  32
ATOM     32  C   UNL     1      -2.007   1.051   1.870  1.00  0.00     0.101 C 
BRANCH  32  33
ATOM     33  S   UNL     1      -2.958   1.961   0.603  1.00  0.00    -0.177 SA
ATOM     34  H   UNL     1      -2.243   2.008  -0.553  1.00  0.00     0.102 HD
ENDBRANCH  32  33
ENDBRANCH  11  32
ENDBRANCH   8  11
ENDBRANCH   6   7
BRANCH   6  35
ATOM     35  C   UNL     1      -5.487  -1.658   2.157  1.00  0.00     0.191 C 
BRANCH  35  36
ATOM     36  O   UNL     1      -5.593  -2.964   2.717  1.00  0.00    -0.394 OA
ATOM     37  H   UNL     1      -4.717  -3.380   2.736  1.00  0.00     0.210 HD
ENDBRANCH  35  36
ENDBRANCH   6  35
ENDBRANCH   3   6
ENDBRANCH   1   2
BRANCH   1  38
ATOM     38  C   UNL     1      -4.507  -2.294   6.929  1.00  0.00     0.023 C 
BRANCH  38  39
ATOM     39  C   UNL     1      -5.108  -1.722   8.213  1.00  0.00     0.023 C 
BRANCH  39  40
ATOM     40  C   UNL     1      -6.572  -2.072   8.450  1.00  0.00     0.116 C 
BRANCH  40  41
ATOM     41  N   UNL     1      -6.837  -3.500   8.374  1.00  0.00    -0.352 N 
ATOM     42  C   UNL     1      -7.676  -4.265   9.151  1.00  0.00     0.251 C 
ATOM     43  H   UNL     1      -6.349  -3.986   7.670  1.00  0.00     0.163 HD
ATOM     44  O   UNL     1      -7.700  -5.477   9.017  1.00  0.00    -0.269 OA
BRANCH  42  45
ATOM     45  C   UNL     1      -8.512  -3.600  10.173  1.00  0.00     0.039 A 
ATOM     46  C   UNL     1      -8.526  -4.128  11.464  1.00  0.00     0.014 A 
ATOM     47  C   UNL     1      -9.238  -2.446   9.870  1.00  0.00     0.014 A 
ATOM     48  C   UNL     1      -9.226  -3.460  12.468  1.00  0.00     0.010 A 
ATOM     49  C   UNL     1      -9.862  -1.736  10.890  1.00  0.00     0.010 A 
ATOM     50  C   UNL     1      -9.871  -2.241  12.198  1.00  0.00    -0.014 A 
BRANCH  50  51
ATOM     51  C   UNL     1     -10.539  -1.486  13.286  1.00  0.00     0.031 A 
ATOM     52  C   UNL     1     -12.022  -1.236  13.248  1.00  0.00     0.074 A 
ATOM     53  C   UNL     1      -9.794  -0.982  14.291  1.00  0.00     0.049 A 
ATOM     54  N   UNL     1     -12.777  -0.642  14.135  1.00  0.00    -0.248 NA
ATOM     55  C   UNL     1     -12.749  -1.685  12.050  1.00  0.00     0.031 C 
ATOM     56  C   UNL     1      -8.334  -1.067  14.385  1.00  0.00     0.029 A 
ATOM     57  N   UNL     1     -10.159  -0.290  15.418  1.00  0.00    -0.354 N 
ATOM     58  C   UNL     1     -14.057  -0.624  13.595  1.00  0.00     0.074 A 
ATOM     59  C   UNL     1     -13.969  -1.224  12.282  1.00  0.00     0.031 C 
ATOM     60  C   UNL     1      -7.932  -0.474  15.520  1.00  0.00     0.029 A 
ATOM     61  C   UNL     1      -9.098   0.052  16.223  1.00  0.00     0.049 A 
ATOM     62  H   UNL     1     -11.092  -0.060  15.630  1.00  0.00     0.167 HD
ATOM     63  C   UNL     1     -15.208  -0.180  14.153  1.00  0.00     0.034 A 
ATOM     64  C   UNL     1      -9.068   0.707  17.399  1.00  0.00     0.034 A 
ATOM     65  C   UNL     1     -15.295   0.382  15.474  1.00  0.00     0.049 A 
ATOM     66  C   UNL     1     -10.368   1.131  18.026  1.00  0.00     0.074 A 
ATOM     67  C   UNL     1     -16.424   0.778  16.168  1.00  0.00     0.029 A 
ATOM     68  N   UNL     1     -14.210   0.639  16.297  1.00  0.00    -0.354 N 
ATOM     69  N   UNL     1     -11.590   0.976  17.578  1.00  0.00    -0.248 NA
ATOM     70  C   UNL     1     -10.287   1.781  19.342  1.00  0.00     0.031 C 
ATOM     71  C   UNL     1     -16.018   1.299  17.402  1.00  0.00     0.029 A 
ATOM     72  C   UNL     1     -14.639   1.198  17.489  1.00  0.00     0.049 A 
ATOM     73  H   UNL     1     -13.271   0.452  16.068  1.00  0.00     0.167 HD
ATOM     74  C   UNL     1     -12.426   1.480  18.569  1.00  0.00     0.074 A 
ATOM     75  C   UNL     1     -11.569   1.914  19.654  1.00  0.00     0.031 C 
ATOM     76  C   UNL     1     -13.778   1.589  18.575  1.00  0.00     0.034 A 
BRANCH  63  77
ATOM     77  C   UNL     1     -16.478  -0.339  13.357  1.00  0.00     0.023 A 
ATOM     78  C   UNL     1     -17.014  -1.627  13.150  1.00  0.00     0.012 A 
ATOM     79  C   UNL     1     -17.170   0.783  12.861  1.00  0.00     0.148 A 
ATOM     80  C   UNL     1     -18.197  -1.800  12.433  1.00  0.00     0.002 A 
ATOM     81  C   UNL     1     -18.374   0.607  12.189  1.00  0.00     0.091 A 
ATOM     82  F   UNL     1     -16.634   1.998  13.047  1.00  0.00    -0.205 F 
ATOM     83  C   UNL     1     -18.882  -0.683  11.963  1.00  0.00     0.022 A 
BRANCH  81  84
ATOM     84  S   UNL     1     -19.375   1.984  11.614  1.00  0.00     0.127 S 
ATOM     85  O   UNL     1     -19.225   1.872  10.164  1.00  0.00    -0.237 OA
ATOM     86  O   UNL     1     -20.701   1.630  12.119  1.00  0.00    -0.237 OA
ATOM     87  O   UNL     1     -18.795   3.179  12.211  1.00  0.00    -0.744 OA
ENDBRANCH  81  84
ENDBRANCH  63  77
BRANCH  64  88
ATOM     88  C   UNL     1      -7.770   0.927  18.097  1.00  0.00     0.023 A 
ATOM     89  C   UNL     1      -7.493   0.226  19.288  1.00  0.00     0.012 A 
ATOM     90  C   UNL     1      -6.800   1.803  17.576  1.00  0.00     0.148 A 
ATOM     91  C   UNL     1      -6.289   0.421  19.965  1.00  0.00     0.002 A 
ATOM     92  C   UNL     1      -5.578   1.948  18.223  1.00  0.00     0.091 A 
ATOM     93  F   UNL     1      -7.085   2.469  16.448  1.00  0.00    -0.205 F 
ATOM     94  C   UNL     1      -5.328   1.274  19.428  1.00  0.00     0.022 A 
BRANCH  92  95
ATOM     95  S   UNL     1      -4.232   2.915  17.530  1.00  0.00     0.127 S 
ATOM     96  O   UNL     1      -4.196   4.066  18.428  1.00  0.00    -0.237 OA
ATOM     97  O   UNL     1      -3.102   1.995  17.659  1.00  0.00    -0.237 OA
ATOM     98  O   UNL     1      -4.620   3.196  16.154  1.00  0.00    -0.744 OA
ENDBRANCH  92  95
ENDBRANCH  64  88
BRANCH  76  99
ATOM     99  C   UNL     1     -14.418   2.180  19.805  1.00  0.00     0.023 A 
ATOM    100  C   UNL     1     -14.265   3.552  20.085  1.00  0.00     0.012 A 
ATOM    101  C   UNL     1     -15.207   1.385  20.658  1.00  0.00     0.148 A 
ATOM    102  C   UNL     1     -14.847   4.114  21.221  1.00  0.00     0.002 A 
ATOM    103  C   UNL     1     -15.828   1.962  21.759  1.00  0.00     0.091 A 
ATOM    104  F   UNL     1     -15.328   0.077  20.387  1.00  0.00    -0.205 F 
ATOM    105  C   UNL     1     -15.636   3.322  22.051  1.00  0.00     0.022 A 
BRANCH 103 106
ATOM    106  S   UNL     1     -16.941   1.038  22.825  1.00  0.00     0.127 S 
ATOM    107  O   UNL     1     -16.109   0.820  24.006  1.00  0.00    -0.237 OA
ATOM    108  O   UNL     1     -18.041   1.983  23.020  1.00  0.00    -0.237 OA
ATOM    109  O   UNL     1     -17.302  -0.160  22.080  1.00  0.00    -0.744 OA
ENDBRANCH 103 106
ENDBRANCH  76  99
ENDBRANCH  50  51
ENDBRANCH  42  45
ENDBRANCH  40  41
ENDBRANCH  39  40
ENDBRANCH  38  39
ENDBRANCH   1  38
TORSDOF 25
