REMARK SMILES O=C(CCC[NH2+][C@H]1CCOC2(CCOCC2)C1)NCCCCNC(=O)c1ccc(-c2c3nc(c(-c4cccc(S(=O)(=O)[O-])c4F)c4ccc([nH]4)c(-c4cccc(S(=O)(=O)[O-])c4F)c4nc(c(-c5cccc(S(=O)(=O)[O-])c5F)c5ccc2[nH]5)C=C4)C=C3)cc1
REMARK SMILES IDX 20 1 19 2 18 3 1 4 2 5 3 7 4 8 5 9 6 10 7 13 8 14 17 15 9 16
REMARK SMILES IDX 11 17 10 18 12 19 16 20 13 21 15 22 14 23 21 24 22 25 23 26
REMARK SMILES IDX 24 27 25 29 26 30 27 31 88 32 28 33 87 34 29 35 30 36 31 37
REMARK SMILES IDX 81 38 32 39 86 40 80 41 82 42 33 43 85 44 79 45 78 46 34 48
REMARK SMILES IDX 66 49 46 50 65 51 47 52 50 53 64 54 83 55 48 56 49 57 63 59
REMARK SMILES IDX 84 60 51 61 35 62 36 63 44 64 37 65 39 66 45 67 38 68 40 69
REMARK SMILES IDX 41 70 42 71 43 72 67 73 68 74 76 75 69 76 71 77 77 78 70 79
REMARK SMILES IDX 72 80 73 81 74 82 75 83 52 84 53 85 61 86 54 87 56 88 62 89
REMARK SMILES IDX 55 90 57 91 58 92 59 93 60 94
REMARK H PARENT 18 6 6 11 6 12 23 28 82 47 50 58
REMARK Flexibility Score: inf
ROOT
ATOM      1  C   UNL     1      10.480  -0.206   4.381  1.00  0.00     0.023 C 
ENDROOT
BRANCH   1   2
ATOM      2  C   UNL     1      10.072  -1.644   4.052  1.00  0.00     0.116 C 
BRANCH   2   3
ATOM      3  N   UNL     1       9.838  -1.878   2.636  1.00  0.00    -0.356 N 
ATOM      4  O   UNL     1      10.919  -3.904   2.558  1.00  0.00    -0.275 OA
ATOM      5  C   UNL     1      10.258  -3.030   2.005  1.00  0.00     0.220 C 
ATOM      6  H   UNL     1       9.364  -1.192   2.111  1.00  0.00     0.163 HD
BRANCH   5   7
ATOM      7  C   UNL     1       9.833  -3.158   0.553  1.00  0.00     0.106 C 
BRANCH   7   8
ATOM      8  C   UNL     1       8.422  -3.732   0.388  1.00  0.00     0.071 C 
BRANCH   8   9
ATOM      9  C   UNL     1       7.286  -2.796   0.816  1.00  0.00     0.261 C 
BRANCH   9  10
ATOM     10  N   UNL     1       7.240  -1.582   0.020  1.00  0.00    -0.344 N 
ATOM     11  H   UNL     1       6.880  -1.841  -0.898  1.00  0.00     0.346 HD
ATOM     12  H   UNL     1       8.198  -1.232   0.054  1.00  0.00     0.346 HD
BRANCH  10  13
ATOM     13  C   UNL     1       6.435  -0.445   0.494  1.00  0.00     0.187 C 
ATOM     14  C   UNL     1       5.721  -0.652   1.832  1.00  0.00     0.093 C 
ATOM     15  C   UNL     1       7.324   0.813   0.536  1.00  0.00     0.100 C 
ATOM     16  C   UNL     1       5.028   0.620   2.260  1.00  0.00     0.167 C 
ATOM     17  C   UNL     1       6.651   2.045   1.177  1.00  0.00     0.078 C 
ATOM     18  O   UNL     1       5.995   1.654   2.396  1.00  0.00    -0.374 OA
ATOM     19  C   UNL     1       5.677   2.764   0.225  1.00  0.00     0.064 C 
ATOM     20  C   UNL     1       7.741   3.066   1.571  1.00  0.00     0.064 C 
ATOM     21  C   UNL     1       5.154   4.043   0.872  1.00  0.00     0.163 C 
ATOM     22  C   UNL     1       7.120   4.315   2.166  1.00  0.00     0.163 C 
ATOM     23  O   UNL     1       6.237   4.906   1.227  1.00  0.00    -0.381 OA
ENDBRANCH  10  13
ENDBRANCH   9  10
ENDBRANCH   8   9
ENDBRANCH   7   8
ENDBRANCH   5   7
ENDBRANCH   2   3
ENDBRANCH   1   2
BRANCH   1  24
ATOM     24  C   UNL     1       9.429   0.862   4.079  1.00  0.00     0.023 C 
BRANCH  24  25
ATOM     25  C   UNL     1       8.118   0.794   4.865  1.00  0.00     0.116 C 
BRANCH  25  26
ATOM     26  N   UNL     1       8.242   1.282   6.227  1.00  0.00    -0.352 N 
ATOM     27  C   UNL     1       7.526   2.256   6.889  1.00  0.00     0.251 C 
ATOM     28  H   UNL     1       8.947   0.849   6.761  1.00  0.00     0.163 HD
ATOM     29  O   UNL     1       7.912   2.611   8.003  1.00  0.00    -0.269 OA
BRANCH  27  30
ATOM     30  C   UNL     1       6.317   2.904   6.302  1.00  0.00     0.039 A 
ATOM     31  C   UNL     1       6.115   4.273   6.518  1.00  0.00     0.014 A 
ATOM     32  C   UNL     1       5.341   2.187   5.612  1.00  0.00     0.014 A 
ATOM     33  C   UNL     1       4.980   4.923   6.003  1.00  0.00     0.010 A 
ATOM     34  C   UNL     1       4.243   2.851   5.042  1.00  0.00     0.010 A 
ATOM     35  C   UNL     1       4.040   4.229   5.227  1.00  0.00    -0.014 A 
BRANCH  35  36
ATOM     36  C   UNL     1       2.868   4.915   4.590  1.00  0.00     0.031 A 
ATOM     37  C   UNL     1       1.452   4.466   4.873  1.00  0.00     0.074 A 
ATOM     38  C   UNL     1       3.057   5.886   3.670  1.00  0.00     0.049 A 
ATOM     39  N   UNL     1       0.329   4.897   4.352  1.00  0.00    -0.248 NA
ATOM     40  C   UNL     1       1.273   3.392   5.862  1.00  0.00     0.031 C 
ATOM     41  C   UNL     1       4.354   6.409   3.247  1.00  0.00     0.029 A 
ATOM     42  N   UNL     1       2.160   6.566   2.874  1.00  0.00    -0.354 N 
ATOM     43  C   UNL     1      -0.684   4.151   4.945  1.00  0.00     0.074 A 
ATOM     44  C   UNL     1      -0.037   3.194   5.818  1.00  0.00     0.031 C 
ATOM     45  C   UNL     1       4.182   7.260   2.224  1.00  0.00     0.029 A 
ATOM     46  C   UNL     1       2.760   7.361   1.922  1.00  0.00     0.049 A 
ATOM     47  H   UNL     1       1.184   6.489   2.976  1.00  0.00     0.167 HD
ATOM     48  C   UNL     1      -2.029   4.276   4.819  1.00  0.00     0.034 A 
ATOM     49  C   UNL     1       2.243   8.085   0.909  1.00  0.00     0.034 A 
ATOM     50  C   UNL     1      -2.684   5.246   3.980  1.00  0.00     0.049 A 
ATOM     51  C   UNL     1       0.751   8.198   0.768  1.00  0.00     0.074 A 
ATOM     52  C   UNL     1      -4.039   5.511   3.870  1.00  0.00     0.029 A 
ATOM     53  N   UNL     1      -2.042   6.098   3.097  1.00  0.00    -0.354 N 
ATOM     54  N   UNL     1      -0.188   7.614   1.470  1.00  0.00    -0.248 NA
ATOM     55  C   UNL     1       0.245   9.124  -0.257  1.00  0.00     0.031 C 
ATOM     56  C   UNL     1      -4.218   6.500   2.897  1.00  0.00     0.029 A 
ATOM     57  C   UNL     1      -2.972   6.876   2.426  1.00  0.00     0.049 A 
ATOM     58  H   UNL     1      -1.067   6.144   2.966  1.00  0.00     0.167 HD
ATOM     59  C   UNL     1      -1.390   8.145   1.015  1.00  0.00     0.074 A 
ATOM     60  C   UNL     1      -1.060   9.099  -0.023  1.00  0.00     0.031 C 
ATOM     61  C   UNL     1      -2.650   7.863   1.426  1.00  0.00     0.034 A 
BRANCH  48  62
ATOM     62  C   UNL     1      -2.897   3.382   5.670  1.00  0.00     0.023 A 
ATOM     63  C   UNL     1      -2.951   3.595   7.064  1.00  0.00     0.012 A 
ATOM     64  C   UNL     1      -3.708   2.385   5.094  1.00  0.00     0.148 A 
ATOM     65  C   UNL     1      -3.766   2.806   7.874  1.00  0.00     0.002 A 
ATOM     66  C   UNL     1      -4.553   1.633   5.903  1.00  0.00     0.091 A 
ATOM     67  F   UNL     1      -3.636   2.187   3.770  1.00  0.00    -0.205 F 
ATOM     68  C   UNL     1      -4.573   1.833   7.293  1.00  0.00     0.022 A 
BRANCH  66  69
ATOM     69  S   UNL     1      -5.692   0.408   5.246  1.00  0.00     0.127 S 
ATOM     70  O   UNL     1      -5.077  -0.838   5.698  1.00  0.00    -0.237 OA
ATOM     71  O   UNL     1      -6.941   0.754   5.923  1.00  0.00    -0.237 OA
ATOM     72  O   UNL     1      -5.707   0.609   3.802  1.00  0.00    -0.744 OA
ENDBRANCH  66  69
ENDBRANCH  48  62
BRANCH  49  73
ATOM     73  C   UNL     1       3.150   8.835  -0.007  1.00  0.00     0.023 A 
ATOM     74  C   UNL     1       3.244  10.235   0.107  1.00  0.00     0.012 A 
ATOM     75  C   UNL     1       3.927   8.167  -0.975  1.00  0.00     0.148 A 
ATOM     76  C   UNL     1       4.070  10.964  -0.750  1.00  0.00     0.002 A 
ATOM     77  C   UNL     1       4.782   8.895  -1.795  1.00  0.00     0.091 A 
ATOM     78  F   UNL     1       3.811   6.835  -1.074  1.00  0.00    -0.205 F 
ATOM     79  C   UNL     1       4.843  10.294  -1.694  1.00  0.00     0.022 A 
BRANCH  77  80
ATOM     80  S   UNL     1       5.882   8.121  -2.988  1.00  0.00     0.127 S 
ATOM     81  O   UNL     1       5.339   8.609  -4.254  1.00  0.00    -0.237 OA
ATOM     82  O   UNL     1       7.178   8.692  -2.617  1.00  0.00    -0.237 OA
ATOM     83  O   UNL     1       5.764   6.686  -2.772  1.00  0.00    -0.744 OA
ENDBRANCH  77  80
ENDBRANCH  49  73
BRANCH  61  84
ATOM     84  C   UNL     1      -3.786   8.626   0.793  1.00  0.00     0.023 A 
ATOM     85  C   UNL     1      -4.150   8.370  -0.544  1.00  0.00     0.012 A 
ATOM     86  C   UNL     1      -4.536   9.552   1.547  1.00  0.00     0.148 A 
ATOM     87  C   UNL     1      -5.220   9.047  -1.130  1.00  0.00     0.002 A 
ATOM     88  C   UNL     1      -5.632  10.185   0.972  1.00  0.00     0.091 A 
ATOM     89  F   UNL     1      -4.163   9.798   2.811  1.00  0.00    -0.205 F 
ATOM     90  C   UNL     1      -5.967   9.944  -0.370  1.00  0.00     0.022 A 
BRANCH  88  91
ATOM     91  S   UNL     1      -6.710  11.282   1.899  1.00  0.00     0.127 S 
ATOM     92  O   UNL     1      -6.382  12.584   1.320  1.00  0.00    -0.237 OA
ATOM     93  O   UNL     1      -8.039  10.777   1.550  1.00  0.00    -0.237 OA
ATOM     94  O   UNL     1      -6.348  11.114   3.300  1.00  0.00    -0.744 OA
ENDBRANCH  88  91
ENDBRANCH  61  84
ENDBRANCH  35  36
ENDBRANCH  27  30
ENDBRANCH  25  26
ENDBRANCH  24  25
ENDBRANCH   1  24
TORSDOF 18
