REMARK SMILES Cc1nc(Nc2ccc(F)cc2)nc(OCC(=O)NCCCCNC(=O)c2ccc(-c3c4nc(c(-c5cccc(S(=O)(=O)[O-])c5F)c5ccc([nH]5)c(-c5cccc(S(=O)(=O)[O-])c5F)c5nc(c(-c6cccc(S(=O)(=O)[O-])c6F)c6ccc3[nH]6)C=C5)C=C4)cc2)c1CCO
REMARK SMILES IDX 20 1 19 2 17 3 18 4 16 6 15 7 14 8 1 9 2 10 3 11 90 12 4 13
REMARK SMILES IDX 13 14 91 15 92 16 93 17 5 19 6 21 7 22 12 23 8 24 11 25 9 26
REMARK SMILES IDX 10 27 21 28 22 29 23 30 24 31 25 32 26 34 27 35 28 36 89 37
REMARK SMILES IDX 29 38 88 39 30 40 31 41 32 42 82 43 33 44 87 45 81 46 83 47
REMARK SMILES IDX 34 48 86 49 80 50 79 51 35 53 67 54 47 55 66 56 48 57 51 58
REMARK SMILES IDX 65 59 84 60 49 61 50 62 64 64 85 65 52 66 36 67 37 68 45 69
REMARK SMILES IDX 38 70 40 71 46 72 39 73 41 74 42 75 43 76 44 77 68 78 69 79
REMARK SMILES IDX 77 80 70 81 72 82 78 83 71 84 73 85 74 86 75 87 76 88 53 89
REMARK SMILES IDX 54 90 62 91 55 92 57 93 63 94 56 95 58 96 59 97 60 98 61 99
REMARK H PARENT 19 5 93 18 5 20 24 33 83 52 51 63
REMARK Flexibility Score: inf
ROOT
ATOM      1  C   UNL     1       2.939  -3.127   2.809  1.00  0.00     0.116 C 
ENDROOT
BRANCH   1   2
ATOM      2  N   UNL     1       1.635  -3.735   2.677  1.00  0.00    -0.353 N 
ATOM      3  C   UNL     1       0.943  -4.018   1.544  1.00  0.00     0.258 C 
ATOM      4  O   UNL     1      -0.127  -4.621   1.655  1.00  0.00    -0.271 OA
ATOM      5  H   UNL     1       1.189  -3.975   3.521  1.00  0.00     0.163 HD
BRANCH   3   6
ATOM      6  C   UNL     1       1.535  -3.662   0.172  1.00  0.00     0.331 C 
BRANCH   6   7
ATOM      7  O   UNL     1       1.777  -2.330  -0.229  1.00  0.00    -0.467 OA
BRANCH   7   8
ATOM      8  C   UNL     1       0.857  -1.339  -0.088  1.00  0.00     0.222 A 
ATOM      9  C   UNL     1      -2.696  -0.087  -0.042  1.00  0.00     0.067 C 
ATOM     10  C   UNL     1      -1.203  -0.238   0.001  1.00  0.00     0.050 A 
ATOM     11  N   UNL     1      -0.567   0.931   0.191  1.00  0.00    -0.218 NA
ATOM     12  C   UNL     1      -0.523  -1.431  -0.237  1.00  0.00     0.038 A 
ATOM     13  C   UNL     1       0.763   0.957   0.156  1.00  0.00     0.230 A 
ATOM     14  N   UNL     1       1.496  -0.153   0.053  1.00  0.00    -0.177 NA
BRANCH  12  15
ATOM     15  C   UNL     1      -1.264  -2.642  -0.744  1.00  0.00     0.071 C 
BRANCH  15  16
ATOM     16  C   UNL     1      -1.121  -2.885  -2.250  1.00  0.00     0.161 C 
BRANCH  16  17
ATOM     17  O   UNL     1       0.222  -3.098  -2.667  1.00  0.00    -0.396 OA
ATOM     18  H   UNL     1       0.748  -2.306  -2.477  1.00  0.00     0.210 HD
ENDBRANCH  16  17
ENDBRANCH  15  16
ENDBRANCH  12  15
BRANCH  13  19
ATOM     19  N   UNL     1       1.415   2.189   0.067  1.00  0.00    -0.324 N 
ATOM     20  H   UNL     1       2.397   2.158   0.001  1.00  0.00     0.170 HD
BRANCH  19  21
ATOM     21  C   UNL     1       0.833   3.464   0.059  1.00  0.00     0.041 A 
ATOM     22  C   UNL     1      -0.139   3.827   1.005  1.00  0.00     0.029 A 
ATOM     23  C   UNL     1       1.107   4.357  -0.988  1.00  0.00     0.029 A 
ATOM     24  C   UNL     1      -0.812   5.048   0.921  1.00  0.00     0.041 A 
ATOM     25  C   UNL     1       0.419   5.572  -1.089  1.00  0.00     0.041 A 
ATOM     26  C   UNL     1      -0.534   5.905  -0.133  1.00  0.00     0.123 A 
ATOM     27  F   UNL     1      -1.203   7.061  -0.242  1.00  0.00    -0.207 F 
ENDBRANCH  19  21
ENDBRANCH  13  19
ENDBRANCH   7   8
ENDBRANCH   6   7
ENDBRANCH   3   6
ENDBRANCH   1   2
BRANCH   1  28
ATOM     28  C   UNL     1       2.872  -1.771   3.501  1.00  0.00     0.023 C 
BRANCH  28  29
ATOM     29  C   UNL     1       2.209  -1.772   4.882  1.00  0.00     0.023 C 
BRANCH  29  30
ATOM     30  C   UNL     1       2.664  -2.866   5.842  1.00  0.00     0.116 C 
BRANCH  30  31
ATOM     31  N   UNL     1       4.104  -2.897   6.043  1.00  0.00    -0.352 N 
ATOM     32  C   UNL     1       4.806  -3.066   7.211  1.00  0.00     0.251 C 
ATOM     33  H   UNL     1       4.649  -2.780   5.232  1.00  0.00     0.163 HD
ATOM     34  O   UNL     1       6.032  -2.981   7.210  1.00  0.00    -0.269 OA
BRANCH  32  35
ATOM     35  C   UNL     1       4.077  -3.309   8.472  1.00  0.00     0.039 A 
ATOM     36  C   UNL     1       4.378  -2.517   9.582  1.00  0.00     0.014 A 
ATOM     37  C   UNL     1       3.078  -4.284   8.548  1.00  0.00     0.014 A 
ATOM     38  C   UNL     1       3.630  -2.659  10.753  1.00  0.00     0.010 A 
ATOM     39  C   UNL     1       2.289  -4.374   9.692  1.00  0.00     0.010 A 
ATOM     40  C   UNL     1       2.557  -3.564  10.806  1.00  0.00    -0.014 A 
BRANCH  40  41
ATOM     41  C   UNL     1       1.693  -3.659  12.010  1.00  0.00     0.031 A 
ATOM     42  C   UNL     1       1.625  -4.938  12.797  1.00  0.00     0.074 A 
ATOM     43  C   UNL     1       0.906  -2.617  12.348  1.00  0.00     0.049 A 
ATOM     44  N   UNL     1       0.894  -5.221  13.844  1.00  0.00    -0.248 NA
ATOM     45  C   UNL     1       2.467  -6.055  12.336  1.00  0.00     0.031 C 
ATOM     46  C   UNL     1       0.822  -1.351  11.616  1.00  0.00     0.029 A 
ATOM     47  N   UNL     1       0.010  -2.464  13.378  1.00  0.00    -0.354 N 
ATOM     48  C   UNL     1       1.158  -6.551  14.144  1.00  0.00     0.074 A 
ATOM     49  C   UNL     1       2.094  -7.032  13.152  1.00  0.00     0.031 C 
ATOM     50  C   UNL     1      -0.069  -0.551  12.223  1.00  0.00     0.029 A 
ATOM     51  C   UNL     1      -0.642  -1.253  13.368  1.00  0.00     0.049 A 
ATOM     52  H   UNL     1      -0.150  -3.157  14.059  1.00  0.00     0.167 HD
ATOM     53  C   UNL     1       0.688  -7.296  15.171  1.00  0.00     0.034 A 
ATOM     54  C   UNL     1      -1.596  -0.761  14.183  1.00  0.00     0.034 A 
ATOM     55  C   UNL     1      -0.197  -6.797  16.188  1.00  0.00     0.049 A 
ATOM     56  C   UNL     1      -2.062  -1.591  15.349  1.00  0.00     0.074 A 
ATOM     57  C   UNL     1      -0.646  -7.446  17.324  1.00  0.00     0.029 A 
ATOM     58  N   UNL     1      -0.770  -5.535  16.193  1.00  0.00    -0.354 N 
ATOM     59  N   UNL     1      -1.679  -2.792  15.708  1.00  0.00    -0.248 NA
ATOM     60  C   UNL     1      -3.064  -0.990  16.242  1.00  0.00     0.031 C 
ATOM     61  C   UNL     1      -1.512  -6.585  18.004  1.00  0.00     0.029 A 
ATOM     62  C   UNL     1      -1.579  -5.389  17.306  1.00  0.00     0.049 A 
ATOM     63  H   UNL     1      -0.624  -4.845  15.506  1.00  0.00     0.167 HD
ATOM     64  C   UNL     1      -2.367  -3.079  16.881  1.00  0.00     0.074 A 
ATOM     65  C   UNL     1      -3.178  -1.918  17.184  1.00  0.00     0.031 C 
ATOM     66  C   UNL     1      -2.340  -4.210  17.628  1.00  0.00     0.034 A 
BRANCH  53  67
ATOM     67  C   UNL     1       1.170  -8.717  15.298  1.00  0.00     0.023 A 
ATOM     68  C   UNL     1       2.492  -8.965  15.718  1.00  0.00     0.012 A 
ATOM     69  C   UNL     1       0.289  -9.800  15.106  1.00  0.00     0.148 A 
ATOM     70  C   UNL     1       2.938 -10.270  15.925  1.00  0.00     0.002 A 
ATOM     71  C   UNL     1       0.727 -11.094  15.360  1.00  0.00     0.091 A 
ATOM     72  F   UNL     1      -0.959  -9.542  14.688  1.00  0.00    -0.205 F 
ATOM     73  C   UNL     1       2.052 -11.331  15.760  1.00  0.00     0.022 A 
BRANCH  71  74
ATOM     74  S   UNL     1      -0.357 -12.523  15.262  1.00  0.00     0.127 S 
ATOM     75  O   UNL     1       0.198 -13.235  14.111  1.00  0.00    -0.237 OA
ATOM     76  O   UNL     1      -0.124 -13.174  16.552  1.00  0.00    -0.237 OA
ATOM     77  O   UNL     1      -1.703 -11.998  15.078  1.00  0.00    -0.744 OA
ENDBRANCH  71  74
ENDBRANCH  53  67
BRANCH  54  78
ATOM     78  C   UNL     1      -2.114   0.619  13.961  1.00  0.00     0.023 A 
ATOM     79  C   UNL     1      -1.761   1.642  14.861  1.00  0.00     0.012 A 
ATOM     80  C   UNL     1      -2.893   0.936  12.831  1.00  0.00     0.148 A 
ATOM     81  C   UNL     1      -2.189   2.954  14.652  1.00  0.00     0.002 A 
ATOM     82  C   UNL     1      -3.268   2.255  12.597  1.00  0.00     0.091 A 
ATOM     83  F   UNL     1      -3.228  -0.054  11.993  1.00  0.00    -0.205 F 
ATOM     84  C   UNL     1      -2.931   3.262  13.514  1.00  0.00     0.022 A 
BRANCH  82  85
ATOM     85  S   UNL     1      -4.098   2.769  11.089  1.00  0.00     0.127 S 
ATOM     86  O   UNL     1      -5.422   3.135  11.585  1.00  0.00    -0.237 OA
ATOM     87  O   UNL     1      -3.267   3.894  10.658  1.00  0.00    -0.237 OA
ATOM     88  O   UNL     1      -4.053   1.615  10.201  1.00  0.00    -0.744 OA
ENDBRANCH  82  85
ENDBRANCH  54  78
BRANCH  66  89
ATOM     89  C   UNL     1      -3.191  -4.264  18.870  1.00  0.00     0.023 A 
ATOM     90  C   UNL     1      -4.586  -4.419  18.752  1.00  0.00     0.012 A 
ATOM     91  C   UNL     1      -2.596  -4.296  20.147  1.00  0.00     0.148 A 
ATOM     92  C   UNL     1      -5.378  -4.590  19.887  1.00  0.00     0.002 A 
ATOM     93  C   UNL     1      -3.385  -4.516  21.269  1.00  0.00     0.091 A 
ATOM     94  F   UNL     1      -1.268  -4.131  20.237  1.00  0.00    -0.205 F 
ATOM     95  C   UNL     1      -4.777  -4.655  21.142  1.00  0.00     0.022 A 
BRANCH  93  96
ATOM     96  S   UNL     1      -2.690  -4.722  22.914  1.00  0.00     0.127 S 
ATOM     97  O   UNL     1      -3.130  -3.496  23.578  1.00  0.00    -0.237 OA
ATOM     98  O   UNL     1      -3.353  -5.940  23.380  1.00  0.00    -0.237 OA
ATOM     99  O   UNL     1      -1.250  -4.848  22.730  1.00  0.00    -0.744 OA
ENDBRANCH  93  96
ENDBRANCH  66  89
ENDBRANCH  40  41
ENDBRANCH  32  35
ENDBRANCH  30  31
ENDBRANCH  29  30
ENDBRANCH  28  29
ENDBRANCH   1  28
TORSDOF 21
