REMARK SMILES Cc1ccc(NC(=O)C[C@H]2SC[C@H](C(=O)NCCCCNC(=O)c3ccc(-c4c5nc(c(-c6cccc(S(=O)(=O)[O-])c6F)c6ccc([nH]6)c(-c6cccc(S(=O)(=O)[O-])c6F)c6nc(c(-c7cccc(S(=O)(=O)[O-])c7F)c7ccc4[nH]7)C=C6)C=C5)cc3)NC2=O)cc1
REMARK SMILES IDX 18 1 17 2 16 3 14 4 15 5 13 7 10 8 11 9 88 10 12 11 87 12
REMARK SMILES IDX 89 13 9 15 7 16 6 17 8 19 5 20 1 21 2 22 3 23 91 24 4 25
REMARK SMILES IDX 90 26 19 27 20 28 21 29 22 30 23 32 24 33 25 34 86 35 26 36
REMARK SMILES IDX 85 37 27 38 28 39 29 40 79 41 30 42 84 43 78 44 80 45 31 46
REMARK SMILES IDX 83 47 77 48 76 49 32 51 64 52 44 53 63 54 45 55 48 56 62 57
REMARK SMILES IDX 81 58 46 59 47 60 61 62 82 63 49 64 33 65 34 66 42 67 35 68
REMARK SMILES IDX 37 69 43 70 36 71 38 72 39 73 40 74 41 75 65 76 66 77 74 78
REMARK SMILES IDX 67 79 69 80 75 81 68 82 70 83 71 84 72 85 73 86 50 87 51 88
REMARK SMILES IDX 59 89 52 90 54 91 60 92 53 93 55 94 56 95 57 96 58 97
REMARK H PARENT 16 6 87 14 6 18 21 31 80 50 48 61
REMARK Flexibility Score: inf
ROOT
ATOM      1  C   UNL     1      -7.268  -2.321  -1.162  1.00  0.00     0.023 C 
ENDROOT
BRANCH   1   2
ATOM      2  C   UNL     1      -6.518  -3.658  -1.297  1.00  0.00     0.116 C 
BRANCH   2   3
ATOM      3  N   UNL     1      -6.572  -4.206  -2.639  1.00  0.00    -0.354 N 
ATOM      4  C   UNL     1      -5.676  -4.184  -3.662  1.00  0.00     0.243 C 
ATOM      5  O   UNL     1      -6.033  -4.685  -4.733  1.00  0.00    -0.273 OA
ATOM      6  H   UNL     1      -7.409  -4.679  -2.847  1.00  0.00     0.163 HD
BRANCH   4   7
ATOM      7  C   UNL     1      -4.261  -3.595  -3.523  1.00  0.00     0.181 C 
ATOM      8  C   UNL     1      -1.901  -2.606  -1.898  1.00  0.00     0.145 C 
ATOM      9  S   UNL     1      -2.567  -1.422  -3.159  1.00  0.00    -0.145 SA
ATOM     10  C   UNL     1      -2.108  -4.039  -2.409  1.00  0.00     0.234 C 
ATOM     11  C   UNL     1      -4.262  -2.098  -3.238  1.00  0.00     0.105 C 
ATOM     12  N   UNL     1      -3.419  -4.406  -2.646  1.00  0.00    -0.343 N 
ATOM     13  O   UNL     1      -1.222  -4.869  -2.573  1.00  0.00    -0.274 OA
ATOM     14  H   UNL     1      -3.786  -5.215  -2.222  1.00  0.00     0.164 HD
BRANCH   8  15
ATOM     15  C   UNL     1      -0.506  -2.157  -1.432  1.00  0.00     0.124 C 
BRANCH  15  16
ATOM     16  C   UNL     1       0.624  -3.168  -1.278  1.00  0.00     0.226 C 
ATOM     17  N   UNL     1       0.586  -4.209  -0.391  1.00  0.00    -0.326 N 
ATOM     18  H   UNL     1       1.422  -4.721  -0.294  1.00  0.00     0.169 HD
ATOM     19  O   UNL     1       1.644  -3.040  -1.966  1.00  0.00    -0.275 OA
BRANCH  17  20
ATOM     20  C   UNL     1      -0.486  -4.639   0.396  1.00  0.00     0.041 A 
ATOM     21  C   UNL     1      -4.467  -5.811   1.156  1.00  0.00     0.044 C 
ATOM     22  C   UNL     1      -3.023  -5.456   1.080  1.00  0.00    -0.051 A 
ATOM     23  C   UNL     1      -2.608  -4.164   1.404  1.00  0.00     0.005 A 
ATOM     24  C   UNL     1      -2.090  -6.405   0.662  1.00  0.00     0.005 A 
ATOM     25  C   UNL     1      -1.325  -3.756   1.068  1.00  0.00     0.026 A 
ATOM     26  C   UNL     1      -0.804  -5.997   0.332  1.00  0.00     0.026 A 
ENDBRANCH  17  20
ENDBRANCH  15  16
ENDBRANCH   8  15
ENDBRANCH   4   7
ENDBRANCH   2   3
ENDBRANCH   1   2
BRANCH   1  27
ATOM     27  C   UNL     1      -8.702  -2.252  -1.717  1.00  0.00     0.023 C 
BRANCH  27  28
ATOM     28  C   UNL     1      -9.700  -3.170  -1.042  1.00  0.00     0.116 C 
BRANCH  28  29
ATOM     29  N   UNL     1      -9.995  -2.755   0.331  1.00  0.00    -0.352 N 
ATOM     30  C   UNL     1     -10.855  -3.358   1.238  1.00  0.00     0.251 C 
ATOM     31  H   UNL     1      -9.527  -1.950   0.649  1.00  0.00     0.163 HD
ATOM     32  O   UNL     1     -11.617  -2.639   1.883  1.00  0.00    -0.269 OA
BRANCH  30  33
ATOM     33  C   UNL     1     -10.809  -4.820   1.432  1.00  0.00     0.039 A 
ATOM     34  C   UNL     1     -11.506  -5.484   2.447  1.00  0.00     0.014 A 
ATOM     35  C   UNL     1      -9.883  -5.533   0.692  1.00  0.00     0.014 A 
ATOM     36  C   UNL     1     -11.098  -6.773   2.788  1.00  0.00     0.010 A 
ATOM     37  C   UNL     1      -9.804  -6.873   0.739  1.00  0.00     0.010 A 
ATOM     38  C   UNL     1     -10.180  -7.401   1.953  1.00  0.00    -0.014 A 
BRANCH  38  39
ATOM     39  C   UNL     1      -9.426  -8.599   2.211  1.00  0.00     0.031 A 
ATOM     40  C   UNL     1     -10.149  -9.856   2.061  1.00  0.00     0.074 A 
ATOM     41  C   UNL     1      -8.077  -8.445   2.185  1.00  0.00     0.049 A 
ATOM     42  N   UNL     1      -9.761 -10.976   2.542  1.00  0.00    -0.248 NA
ATOM     43  C   UNL     1     -11.437  -9.920   1.370  1.00  0.00     0.031 C 
ATOM     44  C   UNL     1      -7.062  -9.427   1.842  1.00  0.00     0.029 A 
ATOM     45  N   UNL     1      -7.314  -7.302   2.486  1.00  0.00    -0.354 N 
ATOM     46  C   UNL     1     -10.529 -11.935   1.918  1.00  0.00     0.074 A 
ATOM     47  C   UNL     1     -11.673 -11.232   1.395  1.00  0.00     0.031 C 
ATOM     48  C   UNL     1      -5.871  -8.978   2.279  1.00  0.00     0.029 A 
ATOM     49  C   UNL     1      -6.136  -7.776   3.061  1.00  0.00     0.049 A 
ATOM     50  H   UNL     1      -7.560  -6.363   2.325  1.00  0.00     0.167 HD
ATOM     51  C   UNL     1      -9.971 -13.154   1.681  1.00  0.00     0.034 A 
ATOM     52  C   UNL     1      -5.783  -7.581   4.369  1.00  0.00     0.034 A 
ATOM     53  C   UNL     1      -8.571 -13.154   2.161  1.00  0.00     0.049 A 
ATOM     54  C   UNL     1      -5.708  -8.922   5.063  1.00  0.00     0.074 A 
ATOM     55  C   UNL     1      -7.361 -12.992   1.502  1.00  0.00     0.029 A 
ATOM     56  N   UNL     1      -8.303 -12.948   3.514  1.00  0.00    -0.354 N 
ATOM     57  N   UNL     1      -6.311  -9.985   4.602  1.00  0.00    -0.248 NA
ATOM     58  C   UNL     1      -4.899  -9.211   6.241  1.00  0.00     0.031 C 
ATOM     59  C   UNL     1      -6.380 -12.619   2.467  1.00  0.00     0.029 A 
ATOM     60  C   UNL     1      -6.985 -12.560   3.713  1.00  0.00     0.049 A 
ATOM     61  H   UNL     1      -8.963 -13.062   4.235  1.00  0.00     0.167 HD
ATOM     62  C   UNL     1      -5.978 -11.077   5.340  1.00  0.00     0.074 A 
ATOM     63  C   UNL     1      -5.084 -10.540   6.358  1.00  0.00     0.031 C 
ATOM     64  C   UNL     1      -6.472 -12.322   5.062  1.00  0.00     0.034 A 
BRANCH  51  65
ATOM     65  C   UNL     1     -10.527 -14.199   0.724  1.00  0.00     0.023 A 
ATOM     66  C   UNL     1      -9.629 -15.191   0.271  1.00  0.00     0.012 A 
ATOM     67  C   UNL     1     -11.851 -14.298   0.225  1.00  0.00     0.148 A 
ATOM     68  C   UNL     1      -9.990 -16.171  -0.660  1.00  0.00     0.002 A 
ATOM     69  C   UNL     1     -12.202 -15.246  -0.745  1.00  0.00     0.091 A 
ATOM     70  F   UNL     1     -12.820 -13.540   0.740  1.00  0.00    -0.205 F 
ATOM     71  C   UNL     1     -11.271 -16.185  -1.188  1.00  0.00     0.022 A 
BRANCH  69  72
ATOM     72  S   UNL     1     -13.841 -15.312  -1.498  1.00  0.00     0.127 S 
ATOM     73  O   UNL     1     -13.523 -15.325  -2.928  1.00  0.00    -0.237 OA
ATOM     74  O   UNL     1     -14.370 -16.574  -0.984  1.00  0.00    -0.237 OA
ATOM     75  O   UNL     1     -14.543 -14.113  -1.058  1.00  0.00    -0.744 OA
ENDBRANCH  69  72
ENDBRANCH  51  65
BRANCH  52  76
ATOM     76  C   UNL     1      -6.234  -6.277   4.948  1.00  0.00     0.023 A 
ATOM     77  C   UNL     1      -5.593  -5.118   4.447  1.00  0.00     0.012 A 
ATOM     78  C   UNL     1      -7.512  -6.139   5.510  1.00  0.00     0.148 A 
ATOM     79  C   UNL     1      -6.311  -3.942   4.220  1.00  0.00     0.002 A 
ATOM     80  C   UNL     1      -8.209  -4.943   5.328  1.00  0.00     0.091 A 
ATOM     81  F   UNL     1      -8.049  -7.189   6.141  1.00  0.00    -0.205 F 
ATOM     82  C   UNL     1      -7.640  -3.878   4.609  1.00  0.00     0.022 A 
BRANCH  80  83
ATOM     83  S   UNL     1      -9.899  -4.741   5.898  1.00  0.00     0.127 S 
ATOM     84  O   UNL     1      -9.689  -4.039   7.168  1.00  0.00    -0.237 OA
ATOM     85  O   UNL     1     -10.478  -3.907   4.841  1.00  0.00    -0.237 OA
ATOM     86  O   UNL     1     -10.438  -6.077   5.980  1.00  0.00    -0.744 OA
ENDBRANCH  80  83
ENDBRANCH  52  76
BRANCH  64  87
ATOM     87  C   UNL     1      -6.500 -13.451   6.065  1.00  0.00     0.023 A 
ATOM     88  C   UNL     1      -6.362 -13.215   7.446  1.00  0.00     0.012 A 
ATOM     89  C   UNL     1      -6.866 -14.762   5.673  1.00  0.00     0.148 A 
ATOM     90  C   UNL     1      -6.501 -14.235   8.387  1.00  0.00     0.002 A 
ATOM     91  C   UNL     1      -7.151 -15.733   6.622  1.00  0.00     0.091 A 
ATOM     92  F   UNL     1      -6.933 -15.086   4.374  1.00  0.00    -0.205 F 
ATOM     93  C   UNL     1      -6.925 -15.489   7.978  1.00  0.00     0.022 A 
BRANCH  91  94
ATOM     94  S   UNL     1      -7.993 -17.254   6.170  1.00  0.00     0.127 S 
ATOM     95  O   UNL     1      -6.886 -18.206   6.127  1.00  0.00    -0.237 OA
ATOM     96  O   UNL     1      -8.915 -17.438   7.293  1.00  0.00    -0.237 OA
ATOM     97  O   UNL     1      -8.647 -16.972   4.900  1.00  0.00    -0.744 OA
ENDBRANCH  91  94
ENDBRANCH  64  87
ENDBRANCH  38  39
ENDBRANCH  30  33
ENDBRANCH  28  29
ENDBRANCH  27  28
ENDBRANCH   1  27
TORSDOF 17
