REMARK SMILES Cc1sc(-c2ccco2)nc1C(=O)N[C@@H](C(=O)NCCCCNC(=O)c1ccc(-c2c3nc(c(-c4cccc(S(=O)(=O)[O-])c4F)c4ccc([nH]4)c(-c4cccc(S(=O)(=O)[O-])c4F)c4nc(c(-c5cccc(S(=O)(=O)[O-])c5F)c5ccc2[nH]5)C=C4)C=C3)cc1)C(C)C
REMARK SMILES IDX 20 1 19 2 18 3 16 4 17 5 15 7 14 8 12 9 13 10 11 12 1 13
REMARK SMILES IDX 2 14 3 15 4 16 10 17 5 18 6 19 9 20 7 21 8 22 89 23 90 24
REMARK SMILES IDX 91 25 21 26 22 27 23 28 24 29 25 31 26 32 27 33 88 34 28 35
REMARK SMILES IDX 87 36 29 37 30 38 31 39 81 40 32 41 86 42 80 43 82 44 33 45
REMARK SMILES IDX 85 46 79 47 78 48 34 50 66 51 46 52 65 53 47 54 50 55 64 56
REMARK SMILES IDX 83 57 48 58 49 59 63 61 84 62 51 63 35 64 36 65 44 66 37 67
REMARK SMILES IDX 39 68 45 69 38 70 40 71 41 72 42 73 43 74 67 75 68 76 76 77
REMARK SMILES IDX 69 78 71 79 77 80 70 81 72 82 73 83 74 84 75 85 52 86 53 87
REMARK SMILES IDX 61 88 54 89 56 90 62 91 55 92 57 93 58 94 59 95 60 96
REMARK H PARENT 18 6 14 11 23 30 82 49 50 60
REMARK Flexibility Score: inf
ROOT
ATOM      1  C   UNL     1       0.989  -3.240   3.399  1.00  0.00     0.023 C 
ENDROOT
BRANCH   1   2
ATOM      2  C   UNL     1       1.868  -2.173   2.756  1.00  0.00     0.116 C 
BRANCH   2   3
ATOM      3  N   UNL     1       3.150  -2.715   2.349  1.00  0.00    -0.354 N 
ATOM      4  C   UNL     1       3.651  -2.985   1.106  1.00  0.00     0.242 C 
ATOM      5  O   UNL     1       4.771  -3.495   1.051  1.00  0.00    -0.273 OA
ATOM      6  H   UNL     1       3.761  -2.922   3.092  1.00  0.00     0.163 HD
BRANCH   4   7
ATOM      7  C   UNL     1       2.901  -2.506  -0.167  1.00  0.00     0.174 C 
BRANCH   7   8
ATOM      8  N   UNL     1       1.548  -3.023  -0.216  1.00  0.00    -0.339 N 
ATOM      9  C   UNL     1       0.303  -2.449  -0.251  1.00  0.00     0.271 C 
ATOM     10  O   UNL     1      -0.607  -3.287  -0.298  1.00  0.00    -0.267 OA
ATOM     11  H   UNL     1       1.515  -4.007  -0.228  1.00  0.00     0.164 HD
BRANCH   9  12
ATOM     12  C   UNL     1      -0.034  -0.990  -0.222  1.00  0.00     0.142 A 
ATOM     13  C   UNL     1       2.091   0.625   0.199  1.00  0.00     0.059 C 
ATOM     14  C   UNL     1       0.689   0.208  -0.095  1.00  0.00     0.035 A 
ATOM     15  S   UNL     1      -0.370   1.561  -0.354  1.00  0.00    -0.115 S 
ATOM     16  C   UNL     1      -1.711   0.536  -0.270  1.00  0.00     0.160 A 
ATOM     17  N   UNL     1      -1.433  -0.740  -0.234  1.00  0.00    -0.227 NA
BRANCH  16  18
ATOM     18  C   UNL     1      -3.028   1.081  -0.170  1.00  0.00     0.162 A 
ATOM     19  C   UNL     1      -3.997   0.808   0.781  1.00  0.00     0.053 A 
ATOM     20  O   UNL     1      -3.492   2.073  -0.998  1.00  0.00    -0.462 OA
ATOM     21  C   UNL     1      -5.079   1.689   0.538  1.00  0.00     0.043 A 
ATOM     22  C   UNL     1      -4.728   2.422  -0.568  1.00  0.00     0.196 A 
ENDBRANCH  16  18
ENDBRANCH   9  12
ENDBRANCH   7   8
BRANCH   7  23
ATOM     23  C   UNL     1       3.688  -2.764  -1.477  1.00  0.00     0.015 C 
ATOM     24  C   UNL     1       2.819  -2.571  -2.728  1.00  0.00     0.010 C 
ATOM     25  C   UNL     1       4.881  -1.798  -1.573  1.00  0.00     0.010 C 
ENDBRANCH   7  23
ENDBRANCH   4   7
ENDBRANCH   2   3
ENDBRANCH   1   2
BRANCH   1  26
ATOM     26  C   UNL     1       1.407  -3.583   4.829  1.00  0.00     0.023 C 
BRANCH  26  27
ATOM     27  C   UNL     1       1.339  -2.417   5.811  1.00  0.00     0.116 C 
BRANCH  27  28
ATOM     28  N   UNL     1      -0.005  -1.877   5.964  1.00  0.00    -0.352 N 
ATOM     29  C   UNL     1      -0.648  -1.513   7.123  1.00  0.00     0.251 C 
ATOM     30  H   UNL     1      -0.517  -1.758   5.132  1.00  0.00     0.163 HD
ATOM     31  O   UNL     1      -1.835  -1.196   7.100  1.00  0.00    -0.269 OA
BRANCH  29  32
ATOM     32  C   UNL     1       0.094  -1.540   8.400  1.00  0.00     0.039 A 
ATOM     33  C   UNL     1      -0.468  -2.198   9.496  1.00  0.00     0.014 A 
ATOM     34  C   UNL     1       1.362  -0.960   8.497  1.00  0.00     0.014 A 
ATOM     35  C   UNL     1       0.272  -2.330  10.673  1.00  0.00     0.010 A 
ATOM     36  C   UNL     1       2.127  -1.163   9.641  1.00  0.00     0.010 A 
ATOM     37  C   UNL     1       1.590  -1.845  10.743  1.00  0.00    -0.014 A 
BRANCH  37  38
ATOM     38  C   UNL     1       2.424  -2.057  11.954  1.00  0.00     0.031 A 
ATOM     39  C   UNL     1       2.938  -0.879  12.737  1.00  0.00     0.074 A 
ATOM     40  C   UNL     1       2.790  -3.307  12.303  1.00  0.00     0.049 A 
ATOM     41  N   UNL     1       3.717  -0.864  13.788  1.00  0.00    -0.248 NA
ATOM     42  C   UNL     1       2.550   0.460  12.262  1.00  0.00     0.031 C 
ATOM     43  C   UNL     1       2.427  -4.528  11.579  1.00  0.00     0.029 A 
ATOM     44  N   UNL     1       3.570  -3.757  13.339  1.00  0.00    -0.354 N 
ATOM     45  C   UNL     1       3.939   0.477  14.078  1.00  0.00     0.074 A 
ATOM     46  C   UNL     1       3.245   1.247  13.070  1.00  0.00     0.031 C 
ATOM     47  C   UNL     1       2.976  -5.586  12.196  1.00  0.00     0.029 A 
ATOM     48  C   UNL     1       3.757  -5.120  13.338  1.00  0.00     0.049 A 
ATOM     49  H   UNL     1       3.958  -3.160  14.019  1.00  0.00     0.167 HD
ATOM     50  C   UNL     1       4.632   1.020  15.107  1.00  0.00     0.034 A 
ATOM     51  C   UNL     1       4.484  -5.906  14.156  1.00  0.00     0.034 A 
ATOM     52  C   UNL     1       5.290   0.252  16.129  1.00  0.00     0.049 A 
ATOM     53  C   UNL     1       5.218  -5.280  15.311  1.00  0.00     0.074 A 
ATOM     54  C   UNL     1       5.944   0.708  17.260  1.00  0.00     0.029 A 
ATOM     55  N   UNL     1       5.390  -1.131  16.141  1.00  0.00    -0.354 N 
ATOM     56  N   UNL     1       5.283  -4.018  15.661  1.00  0.00    -0.248 NA
ATOM     57  C   UNL     1       5.948  -6.189  16.207  1.00  0.00     0.031 C 
ATOM     58  C   UNL     1       6.467  -0.397  17.939  1.00  0.00     0.029 A 
ATOM     59  C   UNL     1       6.106  -1.545  17.251  1.00  0.00     0.049 A 
ATOM     60  H   UNL     1       5.009  -1.730  15.459  1.00  0.00     0.167 HD
ATOM     61  C   UNL     1       6.027  -3.985  16.835  1.00  0.00     0.074 A 
ATOM     62  C   UNL     1       6.372  -5.357  17.148  1.00  0.00     0.031 C 
ATOM     63  C   UNL     1       6.401  -2.916  17.580  1.00  0.00     0.034 A 
BRANCH  50  64
ATOM     64  C   UNL     1       4.674   2.523  15.206  1.00  0.00     0.023 A 
ATOM     65  C   UNL     1       3.505   3.233  15.551  1.00  0.00     0.012 A 
ATOM     66  C   UNL     1       5.878   3.229  15.015  1.00  0.00     0.148 A 
ATOM     67  C   UNL     1       3.523   4.622  15.666  1.00  0.00     0.002 A 
ATOM     68  C   UNL     1       5.899   4.609  15.179  1.00  0.00     0.091 A 
ATOM     69  F   UNL     1       6.975   2.541  14.668  1.00  0.00    -0.205 F 
ATOM     70  C   UNL     1       4.721   5.308  15.491  1.00  0.00     0.022 A 
BRANCH  68  71
ATOM     71  S   UNL     1       7.407   5.577  15.056  1.00  0.00     0.127 S 
ATOM     72  O   UNL     1       7.179   6.321  13.818  1.00  0.00    -0.237 OA
ATOM     73  O   UNL     1       7.352   6.388  16.273  1.00  0.00    -0.237 OA
ATOM     74  O   UNL     1       8.500   4.616  15.014  1.00  0.00    -0.744 OA
ENDBRANCH  68  71
ENDBRANCH  50  64
BRANCH  51  75
ATOM     75  C   UNL     1       4.508  -7.382  13.946  1.00  0.00     0.023 A 
ATOM     76  C   UNL     1       3.868  -8.226  14.875  1.00  0.00     0.012 A 
ATOM     77  C   UNL     1       5.142  -7.950  12.825  1.00  0.00     0.148 A 
ATOM     78  C   UNL     1       3.890  -9.611  14.710  1.00  0.00     0.002 A 
ATOM     79  C   UNL     1       5.110  -9.327  12.636  1.00  0.00     0.091 A 
ATOM     80  F   UNL     1       5.753  -7.130  11.958  1.00  0.00    -0.205 F 
ATOM     81  C   UNL     1       4.502 -10.161  13.586  1.00  0.00     0.022 A 
BRANCH  79  82
ATOM     82  S   UNL     1       5.756 -10.111  11.154  1.00  0.00     0.127 S 
ATOM     83  O   UNL     1       6.920 -10.821  11.676  1.00  0.00    -0.237 OA
ATOM     84  O   UNL     1       4.638 -10.966  10.755  1.00  0.00    -0.237 OA
ATOM     85  O   UNL     1       6.041  -9.024  10.227  1.00  0.00    -0.744 OA
ENDBRANCH  79  82
ENDBRANCH  51  75
BRANCH  63  86
ATOM     86  C   UNL     1       7.192  -3.179  18.835  1.00  0.00     0.023 A 
ATOM     87  C   UNL     1       8.533  -3.603  18.749  1.00  0.00     0.012 A 
ATOM     88  C   UNL     1       6.624  -2.935  20.102  1.00  0.00     0.148 A 
ATOM     89  C   UNL     1       9.284  -3.817  19.904  1.00  0.00     0.002 A 
ATOM     90  C   UNL     1       7.395  -3.098  21.246  1.00  0.00     0.091 A 
ATOM     91  F   UNL     1       5.342  -2.548  20.164  1.00  0.00    -0.205 F 
ATOM     92  C   UNL     1       8.721  -3.553  21.150  1.00  0.00     0.022 A 
BRANCH  90  93
ATOM     93  S   UNL     1       6.786  -2.688  22.885  1.00  0.00     0.127 S 
ATOM     94  O   UNL     1       6.632  -4.012  23.486  1.00  0.00    -0.237 OA
ATOM     95  O   UNL     1       7.886  -1.893  23.434  1.00  0.00    -0.237 OA
ATOM     96  O   UNL     1       5.548  -1.948  22.681  1.00  0.00    -0.744 OA
ENDBRANCH  90  93
ENDBRANCH  63  86
ENDBRANCH  37  38
ENDBRANCH  29  32
ENDBRANCH  27  28
ENDBRANCH  26  27
ENDBRANCH   1  26
TORSDOF 18
