REMARK SMILES C[C@H](CNc1cccc(F)c1C(=O)NCCCCNC(=O)c1ccc(-c2c3nc(c(-c4cccc(S(=O)(=O)[O-])c4F)c4ccc([nH]4)c(-c4cccc(S(=O)(=O)[O-])c4F)c4nc(c(-c5cccc(S(=O)(=O)[O-])c5F)c5ccc2[nH]5)C=C4)C=C3)cc1)C[NH+]1CCCC1
REMARK SMILES IDX 15 1 14 2 12 3 13 4 11 6 5 7 6 8 7 9 9 10 8 11 10 12 4 13
REMARK SMILES IDX 3 15 2 16 1 17 85 18 86 19 87 20 90 21 88 23 89 24 16 25
REMARK SMILES IDX 17 26 18 27 19 28 20 29 21 31 22 32 23 33 84 34 24 35 83 36
REMARK SMILES IDX 25 37 26 38 27 39 77 40 28 41 82 42 76 43 78 44 29 45 81 46
REMARK SMILES IDX 75 47 74 48 30 50 62 51 42 52 61 53 43 54 46 55 60 56 79 57
REMARK SMILES IDX 44 58 45 59 59 61 80 62 47 63 31 64 32 65 40 66 33 67 35 68
REMARK SMILES IDX 41 69 34 70 36 71 37 72 38 73 39 74 63 75 64 76 72 77 65 78
REMARK SMILES IDX 67 79 73 80 66 81 68 82 69 83 70 84 71 85 48 86 49 87 57 88
REMARK SMILES IDX 50 89 52 90 58 91 51 92 53 93 54 94 55 95 56 96
REMARK H PARENT 14 5 4 14 86 22 19 30 78 49 46 60
REMARK Flexibility Score: inf
ROOT
ATOM      1  C   UNL     1       5.978   3.256   3.291  1.00  0.00     0.116 C 
ENDROOT
BRANCH   1   2
ATOM      2  N   UNL     1       4.673   2.643   3.439  1.00  0.00    -0.352 N 
ATOM      3  C   UNL     1       3.866   1.944   2.575  1.00  0.00     0.256 C 
ATOM      4  O   UNL     1       2.754   1.652   3.020  1.00  0.00    -0.269 OA
ATOM      5  H   UNL     1       4.288   2.750   4.338  1.00  0.00     0.163 HD
BRANCH   3   6
ATOM      6  C   UNL     1       4.217   1.604   1.161  1.00  0.00     0.098 A 
ATOM      7  C   UNL     1       3.186   1.393   0.205  1.00  0.00     0.050 A 
ATOM      8  C   UNL     1       3.534   1.258  -1.155  1.00  0.00     0.027 A 
ATOM      9  C   UNL     1       4.863   1.225  -1.568  1.00  0.00     0.005 A 
ATOM     10  C   UNL     1       5.537   1.428   0.737  1.00  0.00     0.138 A 
ATOM     11  C   UNL     1       5.865   1.265  -0.611  1.00  0.00     0.040 A 
ATOM     12  F   UNL     1       6.549   1.329   1.611  1.00  0.00    -0.206 F 
BRANCH   7  13
ATOM     13  N   UNL     1       1.845   1.178   0.578  1.00  0.00    -0.384 N 
ATOM     14  H   UNL     1       1.368   1.819   1.153  1.00  0.00     0.160 HD
BRANCH  13  15
ATOM     15  C   UNL     1       1.184  -0.033   0.079  1.00  0.00     0.122 C 
BRANCH  15  16
ATOM     16  C   UNL     1       0.479  -0.896   1.154  1.00  0.00     0.060 C 
ATOM     17  C   UNL     1       0.972  -0.712   2.588  1.00  0.00     0.015 C 
BRANCH  16  18
ATOM     18  C   UNL     1      -1.054  -0.733   1.103  1.00  0.00     0.267 C 
BRANCH  18  19
ATOM     19  N   UNL     1      -1.614  -1.317  -0.135  1.00  0.00    -0.335 N 
ATOM     20  C   UNL     1      -2.981  -0.835  -0.385  1.00  0.00     0.262 C 
ATOM     21  C   UNL     1      -1.728  -2.787  -0.037  1.00  0.00     0.262 C 
ATOM     22  H   UNL     1      -0.976  -1.040  -0.880  1.00  0.00     0.348 HD
ATOM     23  C   UNL     1      -3.882  -1.783   0.379  1.00  0.00     0.067 C 
ATOM     24  C   UNL     1      -3.197  -3.122   0.200  1.00  0.00     0.067 C 
ENDBRANCH  18  19
ENDBRANCH  16  18
ENDBRANCH  15  16
ENDBRANCH  13  15
ENDBRANCH   7  13
ENDBRANCH   3   6
ENDBRANCH   1   2
BRANCH   1  25
ATOM     25  C   UNL     1       6.085   4.622   3.964  1.00  0.00     0.023 C 
BRANCH  25  26
ATOM     26  C   UNL     1       5.796   4.671   5.464  1.00  0.00     0.023 C 
BRANCH  26  27
ATOM     27  C   UNL     1       6.552   3.671   6.333  1.00  0.00     0.116 C 
BRANCH  27  28
ATOM     28  N   UNL     1       8.000   3.760   6.197  1.00  0.00    -0.352 N 
ATOM     29  C   UNL     1       8.966   4.015   7.145  1.00  0.00     0.251 C 
ATOM     30  H   UNL     1       8.341   3.615   5.285  1.00  0.00     0.163 HD
ATOM     31  O   UNL     1      10.137   4.145   6.809  1.00  0.00    -0.269 OA
BRANCH  29  32
ATOM     32  C   UNL     1       8.582   4.173   8.565  1.00  0.00     0.039 A 
ATOM     33  C   UNL     1       9.035   5.295   9.264  1.00  0.00     0.014 A 
ATOM     34  C   UNL     1       7.752   3.242   9.192  1.00  0.00     0.014 A 
ATOM     35  C   UNL     1       8.565   5.541  10.557  1.00  0.00     0.010 A 
ATOM     36  C   UNL     1       7.231   3.523  10.452  1.00  0.00     0.010 A 
ATOM     37  C   UNL     1       7.613   4.687  11.138  1.00  0.00    -0.014 A 
BRANCH  37  38
ATOM     38  C   UNL     1       6.946   5.020  12.424  1.00  0.00     0.031 A 
ATOM     39  C   UNL     1       7.090   4.114  13.614  1.00  0.00     0.074 A 
ATOM     40  C   UNL     1       6.108   6.075  12.478  1.00  0.00     0.049 A 
ATOM     41  N   UNL     1       6.481   4.171  14.770  1.00  0.00    -0.248 NA
ATOM     42  C   UNL     1       8.018   2.980  13.479  1.00  0.00     0.031 C 
ATOM     43  C   UNL     1       5.826   6.988  11.367  1.00  0.00     0.029 A 
ATOM     44  N   UNL     1       5.313   6.540  13.497  1.00  0.00    -0.354 N 
ATOM     45  C   UNL     1       6.920   3.064  15.485  1.00  0.00     0.074 A 
ATOM     46  C   UNL     1       7.830   2.339  14.625  1.00  0.00     0.031 C 
ATOM     47  C   UNL     1       4.927   7.902  11.765  1.00  0.00     0.029 A 
ATOM     48  C   UNL     1       4.540   7.622  13.144  1.00  0.00     0.049 A 
ATOM     49  H   UNL     1       5.297   6.136  14.395  1.00  0.00     0.167 HD
ATOM     50  C   UNL     1       6.614   2.700  16.753  1.00  0.00     0.034 A 
ATOM     51  C   UNL     1       3.616   8.309  13.845  1.00  0.00     0.034 A 
ATOM     52  C   UNL     1       5.750   3.451  17.623  1.00  0.00     0.049 A 
ATOM     53  C   UNL     1       3.333   7.912  15.268  1.00  0.00     0.074 A 
ATOM     54  C   UNL     1       5.439   3.201  18.948  1.00  0.00     0.029 A 
ATOM     55  N   UNL     1       5.063   4.600  17.262  1.00  0.00    -0.354 N 
ATOM     56  N   UNL     1       3.858   6.939  15.971  1.00  0.00    -0.248 NA
ATOM     57  C   UNL     1       2.356   8.726  16.007  1.00  0.00     0.031 C 
ATOM     58  C   UNL     1       4.559   4.195  19.387  1.00  0.00     0.029 A 
ATOM     59  C   UNL     1       4.333   5.073  18.339  1.00  0.00     0.049 A 
ATOM     60  H   UNL     1       5.091   5.018  16.371  1.00  0.00     0.167 HD
ATOM     61  C   UNL     1       3.302   7.040  17.241  1.00  0.00     0.074 A 
ATOM     62  C   UNL     1       2.412   8.183  17.217  1.00  0.00     0.031 C 
ATOM     63  C   UNL     1       3.498   6.246  18.322  1.00  0.00     0.034 A 
BRANCH  50  64
ATOM     64  C   UNL     1       7.275   1.467  17.309  1.00  0.00     0.023 A 
ATOM     65  C   UNL     1       8.639   1.518  17.659  1.00  0.00     0.012 A 
ATOM     66  C   UNL     1       6.538   0.295  17.566  1.00  0.00     0.148 A 
ATOM     67  C   UNL     1       9.267   0.415  18.233  1.00  0.00     0.002 A 
ATOM     68  C   UNL     1       7.161  -0.788  18.177  1.00  0.00     0.091 A 
ATOM     69  F   UNL     1       5.247   0.259  17.207  1.00  0.00    -0.205 F 
ATOM     70  C   UNL     1       8.526  -0.733  18.503  1.00  0.00     0.022 A 
BRANCH  68  71
ATOM     71  S   UNL     1       6.277  -2.283  18.638  1.00  0.00     0.127 S 
ATOM     72  O   UNL     1       6.804  -3.247  17.673  1.00  0.00    -0.237 OA
ATOM     73  O   UNL     1       6.723  -2.493  20.015  1.00  0.00    -0.237 OA
ATOM     74  O   UNL     1       4.861  -1.970  18.500  1.00  0.00    -0.744 OA
ENDBRANCH  68  71
ENDBRANCH  50  64
BRANCH  51  75
ATOM     75  C   UNL     1       2.959   9.498  13.231  1.00  0.00     0.023 A 
ATOM     76  C   UNL     1       3.314  10.784  13.683  1.00  0.00     0.012 A 
ATOM     77  C   UNL     1       2.044   9.372  12.168  1.00  0.00     0.148 A 
ATOM     78  C   UNL     1       2.757  11.922  13.101  1.00  0.00     0.002 A 
ATOM     79  C   UNL     1       1.534  10.512  11.556  1.00  0.00     0.091 A 
ATOM     80  F   UNL     1       1.710   8.140  11.760  1.00  0.00    -0.205 F 
ATOM     81  C   UNL     1       1.878  11.787  12.031  1.00  0.00     0.022 A 
BRANCH  79  82
ATOM     82  S   UNL     1       0.506  10.439  10.084  1.00  0.00     0.127 S 
ATOM     83  O   UNL     1      -0.795  10.847  10.607  1.00  0.00    -0.237 OA
ATOM     84  O   UNL     1       1.156  11.421   9.213  1.00  0.00    -0.237 OA
ATOM     85  O   UNL     1       0.597   9.065   9.610  1.00  0.00    -0.744 OA
ENDBRANCH  79  82
ENDBRANCH  51  75
BRANCH  63  86
ATOM     86  C   UNL     1       2.761   6.587  19.590  1.00  0.00     0.023 A 
ATOM     87  C   UNL     1       1.384   6.308  19.690  1.00  0.00     0.012 A 
ATOM     88  C   UNL     1       3.452   7.077  20.716  1.00  0.00     0.148 A 
ATOM     89  C   UNL     1       0.701   6.531  20.885  1.00  0.00     0.002 A 
ATOM     90  C   UNL     1       2.774   7.254  21.917  1.00  0.00     0.091 A 
ATOM     91  F   UNL     1       4.758   7.356  20.595  1.00  0.00    -0.205 F 
ATOM     92  C   UNL     1       1.398   6.990  22.001  1.00  0.00     0.022 A 
BRANCH  90  93
ATOM     93  S   UNL     1       3.615   7.746  23.427  1.00  0.00     0.127 S 
ATOM     94  O   UNL     1       3.236   9.153  23.535  1.00  0.00    -0.237 OA
ATOM     95  O   UNL     1       3.002   6.870  24.427  1.00  0.00    -0.237 OA
ATOM     96  O   UNL     1       5.031   7.492  23.194  1.00  0.00    -0.744 OA
ENDBRANCH  90  93
ENDBRANCH  63  86
ENDBRANCH  37  38
ENDBRANCH  29  32
ENDBRANCH  27  28
ENDBRANCH  26  27
ENDBRANCH  25  26
ENDBRANCH   1  25
TORSDOF 19
