REMARK SMILES Cc1ccncc1[C@H](F)C(=O)NCCCCNC(=O)c1ccc(-c2c3nc(c(-c4cccc(S(=O)(=O)[O-])c4F)c4ccc([nH]4)c(-c4cccc(S(=O)(=O)[O-])c4F)c4nc(c(-c5cccc(S(=O)(=O)[O-])c5F)c5ccc2[nH]5)C=C4)C=C3)cc1
REMARK SMILES IDX 15 1 14 2 13 3 12 4 10 5 11 6 8 8 9 9 7 10 1 11 2 12 3 13
REMARK SMILES IDX 4 14 6 15 5 16 16 17 17 18 18 19 19 21 20 22 21 23 82 24
REMARK SMILES IDX 22 25 81 26 23 27 24 28 25 29 75 30 26 31 80 32 74 33 76 34
REMARK SMILES IDX 27 35 79 36 73 37 72 38 28 40 60 41 40 42 59 43 41 44 44 45
REMARK SMILES IDX 58 46 77 47 42 48 43 49 57 51 78 52 45 53 29 54 30 55 38 56
REMARK SMILES IDX 31 57 33 58 39 59 32 60 34 61 35 62 36 63 37 64 61 65 62 66
REMARK SMILES IDX 70 67 63 68 65 69 71 70 64 71 66 72 67 73 68 74 69 75 46 76
REMARK SMILES IDX 47 77 55 78 48 79 50 80 56 81 49 82 51 83 52 84 53 85 54 86
REMARK H PARENT 12 7 17 20 76 39 44 50
REMARK Flexibility Score: inf
ROOT
ATOM      1  C   UNL     1       3.547  -2.862   2.448  1.00  0.00     0.023 C 
ENDROOT
BRANCH   1   2
ATOM      2  C   UNL     1       2.795  -2.180   1.306  1.00  0.00     0.023 C 
BRANCH   2   3
ATOM      3  C   UNL     1       1.769  -3.055   0.596  1.00  0.00     0.116 C 
BRANCH   3   4
ATOM      4  N   UNL     1       0.690  -3.478   1.469  1.00  0.00    -0.353 N 
ATOM      5  C   UNL     1      -0.657  -3.309   1.280  1.00  0.00     0.259 C 
ATOM      6  O   UNL     1      -1.438  -3.829   2.081  1.00  0.00    -0.271 OA
ATOM      7  H   UNL     1       0.958  -3.941   2.296  1.00  0.00     0.163 HD
BRANCH   5   8
ATOM      8  C   UNL     1      -1.163  -2.518   0.060  1.00  0.00     0.287 C 
ATOM      9  F   UNL     1      -0.626  -1.260   0.094  1.00  0.00    -0.232 F 
BRANCH   8  10
ATOM     10  C   UNL     1      -0.940  -3.265  -1.247  1.00  0.00     0.017 A 
ATOM     11  C   UNL     1      -0.053  -1.251  -2.606  1.00  0.00     0.045 C 
ATOM     12  C   UNL     1      -0.424  -2.698  -2.429  1.00  0.00    -0.041 A 
ATOM     13  C   UNL     1      -0.174  -3.545  -3.522  1.00  0.00     0.024 A 
ATOM     14  C   UNL     1      -0.487  -4.889  -3.429  1.00  0.00     0.111 A 
ATOM     15  C   UNL     1      -1.256  -4.630  -1.284  1.00  0.00     0.118 A 
ATOM     16  N   UNL     1      -1.042  -5.446  -2.339  1.00  0.00    -0.264 NA
ENDBRANCH   8  10
ENDBRANCH   5   8
ENDBRANCH   3   4
ENDBRANCH   2   3
ENDBRANCH   1   2
BRANCH   1  17
ATOM     17  C   UNL     1       4.237  -4.175   2.090  1.00  0.00     0.116 C 
BRANCH  17  18
ATOM     18  N   UNL     1       5.211  -4.033   1.019  1.00  0.00    -0.352 N 
ATOM     19  C   UNL     1       6.504  -4.487   0.947  1.00  0.00     0.251 C 
ATOM     20  H   UNL     1       4.896  -3.538   0.228  1.00  0.00     0.163 HD
ATOM     21  O   UNL     1       7.212  -4.141  -0.000  1.00  0.00    -0.269 OA
BRANCH  19  22
ATOM     22  C   UNL     1       7.062  -5.358   2.007  1.00  0.00     0.039 A 
ATOM     23  C   UNL     1       8.366  -5.123   2.448  1.00  0.00     0.014 A 
ATOM     24  C   UNL     1       6.320  -6.407   2.560  1.00  0.00     0.014 A 
ATOM     25  C   UNL     1       8.903  -5.901   3.477  1.00  0.00     0.010 A 
ATOM     26  C   UNL     1       6.826  -7.125   3.643  1.00  0.00     0.010 A 
ATOM     27  C   UNL     1       8.127  -6.889   4.109  1.00  0.00    -0.014 A 
BRANCH  27  28
ATOM     28  C   UNL     1       8.672  -7.652   5.264  1.00  0.00     0.031 A 
ATOM     29  C   UNL     1       8.856  -9.146   5.192  1.00  0.00     0.074 A 
ATOM     30  C   UNL     1       8.967  -6.998   6.406  1.00  0.00     0.049 A 
ATOM     31  N   UNL     1       9.381  -9.953   6.079  1.00  0.00    -0.248 NA
ATOM     32  C   UNL     1       8.368  -9.829   3.982  1.00  0.00     0.031 C 
ATOM     33  C   UNL     1       8.745  -5.569   6.644  1.00  0.00     0.029 A 
ATOM     34  N   UNL     1       9.510  -7.446   7.585  1.00  0.00    -0.354 N 
ATOM     35  C   UNL     1       9.257 -11.234   5.553  1.00  0.00     0.074 A 
ATOM     36  C   UNL     1       8.578 -11.103   4.283  1.00  0.00     0.031 C 
ATOM     37  C   UNL     1       9.178  -5.253   7.875  1.00  0.00     0.029 A 
ATOM     38  C   UNL     1       9.684  -6.457   8.526  1.00  0.00     0.049 A 
ATOM     39  H   UNL     1       9.753  -8.387   7.742  1.00  0.00     0.167 HD
ATOM     40  C   UNL     1       9.694 -12.410   6.065  1.00  0.00     0.034 A 
ATOM     41  C   UNL     1      10.201  -6.510   9.769  1.00  0.00     0.034 A 
ATOM     42  C   UNL     1      10.408 -12.534   7.308  1.00  0.00     0.049 A 
ATOM     43  C   UNL     1      10.733  -7.821  10.283  1.00  0.00     0.074 A 
ATOM     44  C   UNL     1      10.986 -13.665   7.859  1.00  0.00     0.029 A 
ATOM     45  N   UNL     1      10.628 -11.499   8.203  1.00  0.00    -0.354 N 
ATOM     46  N   UNL     1      10.783  -8.986   9.685  1.00  0.00    -0.248 NA
ATOM     47  C   UNL     1      11.319  -7.812  11.631  1.00  0.00     0.031 C 
ATOM     48  C   UNL     1      11.525 -13.321   9.103  1.00  0.00     0.029 A 
ATOM     49  C   UNL     1      11.316 -11.967   9.310  1.00  0.00     0.049 A 
ATOM     50  H   UNL     1      10.338 -10.568   8.071  1.00  0.00     0.167 HD
ATOM     51  C   UNL     1      11.438  -9.838  10.566  1.00  0.00     0.074 A 
ATOM     52  C   UNL     1      11.796  -9.045  11.725  1.00  0.00     0.031 C 
ATOM     53  C   UNL     1      11.707 -11.162  10.438  1.00  0.00     0.034 A 
BRANCH  40  54
ATOM     54  C   UNL     1       9.455 -13.664   5.261  1.00  0.00     0.023 A 
ATOM     55  C   UNL     1      10.180 -13.881   4.071  1.00  0.00     0.012 A 
ATOM     56  C   UNL     1       8.575 -14.662   5.724  1.00  0.00     0.148 A 
ATOM     57  C   UNL     1      10.011 -15.056   3.340  1.00  0.00     0.002 A 
ATOM     58  C   UNL     1       8.448 -15.851   5.015  1.00  0.00     0.091 A 
ATOM     59  F   UNL     1       7.880 -14.430   6.847  1.00  0.00    -0.205 F 
ATOM     60  C   UNL     1       9.155 -16.044   3.817  1.00  0.00     0.022 A 
BRANCH  58  61
ATOM     61  S   UNL     1       7.437 -17.221   5.589  1.00  0.00     0.127 S 
ATOM     62  O   UNL     1       6.363 -17.230   4.597  1.00  0.00    -0.237 OA
ATOM     63  O   UNL     1       8.366 -18.347   5.492  1.00  0.00    -0.237 OA
ATOM     64  O   UNL     1       7.030 -16.881   6.945  1.00  0.00    -0.744 OA
ENDBRANCH  58  61
ENDBRANCH  40  54
BRANCH  41  65
ATOM     65  C   UNL     1      10.320  -5.270  10.589  1.00  0.00     0.023 A 
ATOM     66  C   UNL     1      11.598  -4.749  10.874  1.00  0.00     0.012 A 
ATOM     67  C   UNL     1       9.183  -4.609  11.089  1.00  0.00     0.148 A 
ATOM     68  C   UNL     1      11.743  -3.619  11.680  1.00  0.00     0.002 A 
ATOM     69  C   UNL     1       9.332  -3.449  11.841  1.00  0.00     0.091 A 
ATOM     70  F   UNL     1       7.976  -5.125  10.818  1.00  0.00    -0.205 F 
ATOM     71  C   UNL     1      10.611  -2.964  12.155  1.00  0.00     0.022 A 
BRANCH  69  72
ATOM     72  S   UNL     1       7.928  -2.469  12.382  1.00  0.00     0.127 S 
ATOM     73  O   UNL     1       7.911  -2.738  13.818  1.00  0.00    -0.237 OA
ATOM     74  O   UNL     1       8.345  -1.115  12.013  1.00  0.00    -0.237 OA
ATOM     75  O   UNL     1       6.788  -2.970  11.628  1.00  0.00    -0.744 OA
ENDBRANCH  69  72
ENDBRANCH  41  65
BRANCH  53  76
ATOM     76  C   UNL     1      12.454 -11.830  11.564  1.00  0.00     0.023 A 
ATOM     77  C   UNL     1      11.827 -12.018  12.812  1.00  0.00     0.012 A 
ATOM     78  C   UNL     1      13.769 -12.300  11.376  1.00  0.00     0.148 A 
ATOM     79  C   UNL     1      12.514 -12.614  13.870  1.00  0.00     0.002 A 
ATOM     80  C   UNL     1      14.427 -12.943  12.418  1.00  0.00     0.091 A 
ATOM     81  F   UNL     1      14.359 -12.098  10.189  1.00  0.00    -0.205 F 
ATOM     82  C   UNL     1      13.809 -13.084  13.670  1.00  0.00     0.022 A 
BRANCH  80  83
ATOM     83  S   UNL     1      16.058 -13.670  12.216  1.00  0.00     0.127 S 
ATOM     84  O   UNL     1      16.904 -12.699  12.907  1.00  0.00    -0.237 OA
ATOM     85  O   UNL     1      15.915 -14.953  12.905  1.00  0.00    -0.237 OA
ATOM     86  O   UNL     1      16.270 -13.780  10.779  1.00  0.00    -0.744 OA
ENDBRANCH  80  83
ENDBRANCH  53  76
ENDBRANCH  27  28
ENDBRANCH  19  22
ENDBRANCH  17  18
ENDBRANCH   1  17
TORSDOF 15
