REMARK SMILES O=C(NCCCCNC(=O)c1ccc(N2C(=O)/C(=C\C3=Cc4ccccc4OC3)SC2=S)cc1)c1ccc(-c2c3nc(c(-c4cccc(S(=O)(=O)[O-])c4F)c4ccc([nH]4)c(-c4cccc(S(=O)(=O)[O-])c4F)c4nc(c(-c5cccc(S(=O)(=O)[O-])c5F)c5ccc2[nH]5)C=C4)C=C3)cc1
REMARK SMILES IDX 5 1 4 2 3 3 1 4 2 5 35 7 36 8 97 9 37 10 96 11 38 12 39 13
REMARK SMILES IDX 40 14 90 15 41 16 95 17 89 18 91 19 42 20 94 21 88 22 87 23
REMARK SMILES IDX 43 25 75 26 55 27 74 28 56 29 59 30 73 31 92 32 57 33 58 34
REMARK SMILES IDX 72 36 93 37 60 38 44 39 45 40 53 41 46 42 48 43 54 44 47 45
REMARK SMILES IDX 49 46 50 47 51 48 52 49 76 50 77 51 85 52 78 53 80 54 86 55
REMARK SMILES IDX 79 56 81 57 82 58 83 59 84 60 61 61 62 62 70 63 63 64 65 65
REMARK SMILES IDX 71 66 64 67 66 68 67 69 68 70 69 71 6 72 7 73 8 74 9 75
REMARK SMILES IDX 10 77 11 78 12 79 34 80 13 81 33 82 14 83 15 84 16 85 31 86
REMARK SMILES IDX 17 87 18 88 30 89 32 90 19 91 20 92 21 93 29 94 22 95 28 96
REMARK SMILES IDX 23 97 27 98 24 99 26 100 25 101
REMARK H PARENT 3 6 91 24 59 35 8 76
REMARK Flexibility Score: inf
ROOT
ATOM      1  C   UNL     1       5.064  -0.476   2.642  1.00  0.00     0.023 C 
ENDROOT
BRANCH   1   2
ATOM      2  C   UNL     1       4.710  -0.713   1.176  1.00  0.00     0.116 C 
BRANCH   2   3
ATOM      3  N   UNL     1       3.277  -0.788   0.950  1.00  0.00    -0.352 N 
ATOM      4  O   UNL     1       1.261  -0.188   0.170  1.00  0.00    -0.269 OA
ATOM      5  C   UNL     1       2.481  -0.069   0.090  1.00  0.00     0.251 C 
ATOM      6  H   UNL     1       2.803  -1.456   1.496  1.00  0.00     0.163 HD
BRANCH   5   7
ATOM      7  C   UNL     1       3.075   0.860  -0.900  1.00  0.00     0.039 A 
ATOM      8  C   UNL     1       4.185   0.500  -1.669  1.00  0.00     0.014 A 
ATOM      9  C   UNL     1       2.475   2.110  -1.087  1.00  0.00     0.014 A 
ATOM     10  C   UNL     1       4.766   1.427  -2.536  1.00  0.00     0.010 A 
ATOM     11  C   UNL     1       3.023   3.017  -1.998  1.00  0.00     0.010 A 
ATOM     12  C   UNL     1       4.191   2.696  -2.708  1.00  0.00    -0.014 A 
BRANCH  12  13
ATOM     13  C   UNL     1       4.778   3.671  -3.661  1.00  0.00     0.031 A 
ATOM     14  C   UNL     1       5.370   4.963  -3.171  1.00  0.00     0.074 A 
ATOM     15  C   UNL     1       4.719   3.419  -4.982  1.00  0.00     0.049 A 
ATOM     16  N   UNL     1       5.859   5.960  -3.862  1.00  0.00    -0.248 NA
ATOM     17  C   UNL     1       5.409   5.168  -1.714  1.00  0.00     0.031 C 
ATOM     18  C   UNL     1       4.127   2.223  -5.582  1.00  0.00     0.029 A 
ATOM     19  N   UNL     1       5.128   4.166  -6.058  1.00  0.00    -0.354 N 
ATOM     20  C   UNL     1       6.224   6.927  -2.934  1.00  0.00     0.074 A 
ATOM     21  C   UNL     1       5.896   6.399  -1.626  1.00  0.00     0.031 C 
ATOM     22  C   UNL     1       4.192   2.325  -6.918  1.00  0.00     0.029 A 
ATOM     23  C   UNL     1       4.794   3.608  -7.269  1.00  0.00     0.049 A 
ATOM     24  H   UNL     1       5.614   5.018  -5.971  1.00  0.00     0.167 HD
ATOM     25  C   UNL     1       6.794   8.137  -3.148  1.00  0.00     0.034 A 
ATOM     26  C   UNL     1       4.928   4.083  -8.523  1.00  0.00     0.034 A 
ATOM     27  C   UNL     1       7.156   8.642  -4.446  1.00  0.00     0.049 A 
ATOM     28  C   UNL     1       5.587   5.416  -8.738  1.00  0.00     0.074 A 
ATOM     29  C   UNL     1       7.816   9.818  -4.757  1.00  0.00     0.029 A 
ATOM     30  N   UNL     1       6.880   8.009  -5.648  1.00  0.00    -0.354 N 
ATOM     31  N   UNL     1       6.061   6.250  -7.845  1.00  0.00    -0.248 NA
ATOM     32  C   UNL     1       5.761   5.860 -10.128  1.00  0.00     0.031 C 
ATOM     33  C   UNL     1       7.927   9.902  -6.149  1.00  0.00     0.029 A 
ATOM     34  C   UNL     1       7.347   8.772  -6.704  1.00  0.00     0.049 A 
ATOM     35  H   UNL     1       6.420   7.143  -5.737  1.00  0.00     0.167 HD
ATOM     36  C   UNL     1       6.614   7.304  -8.563  1.00  0.00     0.074 A 
ATOM     37  C   UNL     1       6.429   6.996  -9.966  1.00  0.00     0.031 C 
ATOM     38  C   UNL     1       7.210   8.429  -8.097  1.00  0.00     0.034 A 
BRANCH  25  39
ATOM     39  C   UNL     1       7.107   8.985  -1.944  1.00  0.00     0.023 A 
ATOM     40  C   UNL     1       8.202   8.647  -1.124  1.00  0.00     0.012 A 
ATOM     41  C   UNL     1       6.356  10.140  -1.652  1.00  0.00     0.148 A 
ATOM     42  C   UNL     1       8.527   9.427  -0.015  1.00  0.00     0.002 A 
ATOM     43  C   UNL     1       6.707  10.933  -0.564  1.00  0.00     0.091 A 
ATOM     44  F   UNL     1       5.301  10.434  -2.425  1.00  0.00    -0.205 F 
ATOM     45  C   UNL     1       7.786  10.574   0.260  1.00  0.00     0.022 A 
BRANCH  43  46
ATOM     46  S   UNL     1       5.843  12.463  -0.189  1.00  0.00     0.127 S 
ATOM     47  O   UNL     1       4.881  12.021   0.819  1.00  0.00    -0.237 OA
ATOM     48  O   UNL     1       6.915  13.316   0.328  1.00  0.00    -0.237 OA
ATOM     49  O   UNL     1       5.281  12.910  -1.456  1.00  0.00    -0.744 OA
ENDBRANCH  43  46
ENDBRANCH  25  39
BRANCH  26  50
ATOM     50  C   UNL     1       4.461   3.248  -9.664  1.00  0.00     0.023 A 
ATOM     51  C   UNL     1       5.407   2.603 -10.482  1.00  0.00     0.012 A 
ATOM     52  C   UNL     1       3.088   3.012  -9.877  1.00  0.00     0.148 A 
ATOM     53  C   UNL     1       4.994   1.741 -11.498  1.00  0.00     0.002 A 
ATOM     54  C   UNL     1       2.686   2.110 -10.854  1.00  0.00     0.091 A 
ATOM     55  F   UNL     1       2.206   3.647  -9.092  1.00  0.00    -0.205 F 
ATOM     56  C   UNL     1       3.637   1.483 -11.675  1.00  0.00     0.022 A 
BRANCH  54  57
ATOM     57  S   UNL     1       0.973   1.605 -11.056  1.00  0.00     0.127 S 
ATOM     58  O   UNL     1       0.633   2.209 -12.342  1.00  0.00    -0.237 OA
ATOM     59  O   UNL     1       1.089   0.147 -11.070  1.00  0.00    -0.237 OA
ATOM     60  O   UNL     1       0.266   2.140  -9.900  1.00  0.00    -0.744 OA
ENDBRANCH  54  57
ENDBRANCH  26  50
BRANCH  38  61
ATOM     61  C   UNL     1       7.737   9.415  -9.104  1.00  0.00     0.023 A 
ATOM     62  C   UNL     1       6.841  10.268  -9.778  1.00  0.00     0.012 A 
ATOM     63  C   UNL     1       9.124   9.572  -9.299  1.00  0.00     0.148 A 
ATOM     64  C   UNL     1       7.317  11.253 -10.642  1.00  0.00     0.002 A 
ATOM     65  C   UNL     1       9.592  10.582 -10.131  1.00  0.00     0.091 A 
ATOM     66  F   UNL     1       9.957   8.736  -8.662  1.00  0.00    -0.205 F 
ATOM     67  C   UNL     1       8.691  11.419 -10.808  1.00  0.00     0.022 A 
BRANCH  65  68
ATOM     68  S   UNL     1      11.344  10.928 -10.336  1.00  0.00     0.127 S 
ATOM     69  O   UNL     1      11.583  10.454 -11.698  1.00  0.00    -0.237 OA
ATOM     70  O   UNL     1      11.395  12.381 -10.177  1.00  0.00    -0.237 OA
ATOM     71  O   UNL     1      12.026  10.181  -9.287  1.00  0.00    -0.744 OA
ENDBRANCH  65  68
ENDBRANCH  38  61
ENDBRANCH  12  13
ENDBRANCH   5   7
ENDBRANCH   2   3
ENDBRANCH   1   2
BRANCH   1  72
ATOM     72  C   UNL     1       4.612  -1.562   3.622  1.00  0.00     0.023 C 
BRANCH  72  73
ATOM     73  C   UNL     1       5.060  -2.986   3.296  1.00  0.00     0.116 C 
BRANCH  73  74
ATOM     74  N   UNL     1       6.505  -3.133   3.261  1.00  0.00    -0.352 N 
ATOM     75  C   UNL     1       7.326  -4.036   3.889  1.00  0.00     0.251 C 
ATOM     76  H   UNL     1       6.971  -2.476   2.696  1.00  0.00     0.163 HD
ATOM     77  O   UNL     1       8.545  -3.904   3.805  1.00  0.00    -0.269 OA
BRANCH  75  78
ATOM     78  C   UNL     1       6.778  -5.149   4.699  1.00  0.00     0.039 A 
ATOM     79  C   UNL     1       7.369  -5.416   5.934  1.00  0.00     0.016 A 
ATOM     80  C   UNL     1       5.737  -5.961   4.255  1.00  0.00     0.016 A 
ATOM     81  C   UNL     1       6.870  -6.439   6.752  1.00  0.00     0.027 A 
ATOM     82  C   UNL     1       5.232  -6.974   5.084  1.00  0.00     0.027 A 
ATOM     83  C   UNL     1       5.782  -7.232   6.353  1.00  0.00     0.051 A 
BRANCH  83  84
ATOM     84  N   UNL     1       5.179  -8.189   7.241  1.00  0.00    -0.261 N 
ATOM     85  C   UNL     1       5.131  -7.942   8.615  1.00  0.00     0.270 C 
ATOM     86  C   UNL     1       4.636  -9.412   6.867  1.00  0.00     0.152 C 
ATOM     87  O   UNL     1       5.916  -7.313   9.300  1.00  0.00    -0.268 OA
ATOM     88  C   UNL     1       4.020  -8.739   9.210  1.00  0.00     0.081 C 
ATOM     89  S   UNL     1       3.832 -10.166   8.259  1.00  0.00    -0.054 SA
ATOM     90  S   UNL     1       4.725 -10.247   5.418  1.00  0.00    -0.051 S 
ATOM     91  C   UNL     1       3.122  -8.393  10.146  1.00  0.00     0.028 C 
BRANCH  91  92
ATOM     92  C   UNL     1       2.848  -7.080  10.742  1.00  0.00    -0.009 C 
ATOM     93  C   UNL     1       3.744  -6.075  10.810  1.00  0.00     0.019 C 
ATOM     94  C   UNL     1       1.449  -6.589  10.384  1.00  0.00     0.265 C 
ATOM     95  C   UNL     1       3.662  -5.212   9.592  1.00  0.00     0.017 A 
ATOM     96  O   UNL     1       1.436  -6.065   9.040  1.00  0.00    -0.488 OA
ATOM     97  C   UNL     1       4.743  -4.404   9.235  1.00  0.00     0.012 A 
ATOM     98  C   UNL     1       2.538  -5.289   8.747  1.00  0.00     0.127 A 
ATOM     99  C   UNL     1       4.725  -3.720   8.019  1.00  0.00     0.001 A 
ATOM    100  C   UNL     1       2.531  -4.620   7.527  1.00  0.00     0.047 A 
ATOM    101  C   UNL     1       3.628  -3.838   7.163  1.00  0.00     0.004 A 
ENDBRANCH  91  92
ENDBRANCH  83  84
ENDBRANCH  75  78
ENDBRANCH  73  74
ENDBRANCH  72  73
ENDBRANCH   1  72
TORSDOF 16
