REMARK SMILES O=C(NCCCCNC(=O)c1ccccc1-c1ccccc1C(=O)NCCc1ccccc1)c1ccc(-c2c3nc(c(-c4cccc(S(=O)(=O)[O-])c4F)c4ccc([nH]4)c(-c4cccc(S(=O)(=O)[O-])c4F)c4nc(c(-c5cccc(S(=O)(=O)[O-])c5F)c5ccc2[nH]5)C=C4)C=C3)cc1
REMARK SMILES IDX 6 1 5 2 4 3 3 4 1 5 2 6 34 8 35 9 96 10 36 11 95 12 37 13
REMARK SMILES IDX 38 14 39 15 89 16 40 17 94 18 88 19 90 20 41 21 93 22 87 23
REMARK SMILES IDX 86 24 42 26 74 27 54 28 73 29 55 30 58 31 72 32 91 33 56 34
REMARK SMILES IDX 57 35 71 37 92 38 59 39 43 40 44 41 52 42 45 43 47 44 53 45
REMARK SMILES IDX 46 46 48 47 49 48 50 49 51 50 75 51 76 52 84 53 77 54 79 55
REMARK SMILES IDX 85 56 78 57 80 58 81 59 82 60 83 61 60 62 61 63 69 64 62 65
REMARK SMILES IDX 64 66 70 67 63 68 65 69 66 70 67 71 68 72 7 73 8 74 9 75
REMARK SMILES IDX 10 77 11 78 12 79 16 80 13 81 15 82 14 83 17 84 18 85 22 86
REMARK SMILES IDX 19 87 21 88 20 89 23 90 24 91 25 92 26 94 27 95 28 96 29 97
REMARK SMILES IDX 33 98 30 99 32 100 31 101
REMARK H PARENT 3 7 90 25 58 36 8 76 25 93
REMARK Flexibility Score: inf
ROOT
ATOM      1  C   UNL     1       4.238  -3.196  -1.416  1.00  0.00     0.023 C 
ENDROOT
BRANCH   1   2
ATOM      2  C   UNL     1       4.827  -2.306  -0.331  1.00  0.00     0.023 C 
BRANCH   2   3
ATOM      3  C   UNL     1       4.569  -0.820  -0.541  1.00  0.00     0.116 C 
BRANCH   3   4
ATOM      4  N   UNL     1       3.152  -0.510  -0.734  1.00  0.00    -0.352 N 
ATOM      5  O   UNL     1       1.121   0.319  -0.174  1.00  0.00    -0.269 OA
ATOM      6  C   UNL     1       2.330   0.273   0.038  1.00  0.00     0.251 C 
ATOM      7  H   UNL     1       2.732  -0.917  -1.526  1.00  0.00     0.163 HD
BRANCH   6   8
ATOM      8  C   UNL     1       2.945   1.021   1.145  1.00  0.00     0.039 A 
ATOM      9  C   UNL     1       4.092   1.770   0.886  1.00  0.00     0.014 A 
ATOM     10  C   UNL     1       2.478   0.841   2.447  1.00  0.00     0.014 A 
ATOM     11  C   UNL     1       4.899   2.144   1.945  1.00  0.00     0.010 A 
ATOM     12  C   UNL     1       3.228   1.347   3.510  1.00  0.00     0.010 A 
ATOM     13  C   UNL     1       4.472   1.952   3.271  1.00  0.00    -0.014 A 
BRANCH  13  14
ATOM     14  C   UNL     1       5.332   2.451   4.373  1.00  0.00     0.031 A 
ATOM     15  C   UNL     1       5.876   1.532   5.433  1.00  0.00     0.074 A 
ATOM     16  C   UNL     1       5.641   3.763   4.385  1.00  0.00     0.049 A 
ATOM     17  N   UNL     1       6.666   1.818   6.436  1.00  0.00    -0.248 NA
ATOM     18  C   UNL     1       5.478   0.116   5.375  1.00  0.00     0.031 C 
ATOM     19  C   UNL     1       5.143   4.752   3.423  1.00  0.00     0.029 A 
ATOM     20  N   UNL     1       6.453   4.489   5.214  1.00  0.00    -0.354 N 
ATOM     21  C   UNL     1       6.813   0.641   7.161  1.00  0.00     0.074 A 
ATOM     22  C   UNL     1       6.031  -0.369   6.480  1.00  0.00     0.031 C 
ATOM     23  C   UNL     1       5.702   5.940   3.681  1.00  0.00     0.029 A 
ATOM     24  C   UNL     1       6.529   5.819   4.873  1.00  0.00     0.049 A 
ATOM     25  H   UNL     1       6.934   4.099   5.978  1.00  0.00     0.167 HD
ATOM     26  C   UNL     1       7.537   0.423   8.286  1.00  0.00     0.034 A 
ATOM     27  C   UNL     1       7.174   6.839   5.465  1.00  0.00     0.034 A 
ATOM     28  C   UNL     1       8.345   1.428   8.929  1.00  0.00     0.049 A 
ATOM     29  C   UNL     1       7.985   6.559   6.694  1.00  0.00     0.074 A 
ATOM     30  C   UNL     1       9.174   1.291  10.028  1.00  0.00     0.029 A 
ATOM     31  N   UNL     1       8.417   2.758   8.541  1.00  0.00    -0.354 N 
ATOM     32  N   UNL     1       8.200   5.415   7.296  1.00  0.00    -0.248 NA
ATOM     33  C   UNL     1       8.661   7.706   7.311  1.00  0.00     0.031 C 
ATOM     34  C   UNL     1       9.716   2.545  10.329  1.00  0.00     0.029 A 
ATOM     35  C   UNL     1       9.260   3.456   9.389  1.00  0.00     0.049 A 
ATOM     36  H   UNL     1       7.938   3.149   7.775  1.00  0.00     0.167 HD
ATOM     37  C   UNL     1       9.066   5.697   8.344  1.00  0.00     0.074 A 
ATOM     38  C   UNL     1       9.352   7.117   8.276  1.00  0.00     0.031 C 
ATOM     39  C   UNL     1       9.569   4.860   9.284  1.00  0.00     0.034 A 
BRANCH  26  40
ATOM     40  C   UNL     1       7.503  -0.956   8.897  1.00  0.00     0.023 A 
ATOM     41  C   UNL     1       8.153  -2.031   8.258  1.00  0.00     0.012 A 
ATOM     42  C   UNL     1       6.881  -1.172  10.145  1.00  0.00     0.148 A 
ATOM     43  C   UNL     1       8.155  -3.303   8.831  1.00  0.00     0.002 A 
ATOM     44  C   UNL     1       6.927  -2.431  10.732  1.00  0.00     0.091 A 
ATOM     45  F   UNL     1       6.251  -0.144  10.731  1.00  0.00    -0.205 F 
ATOM     46  C   UNL     1       7.552  -3.501  10.071  1.00  0.00     0.022 A 
BRANCH  44  47
ATOM     47  S   UNL     1       6.253  -2.765  12.364  1.00  0.00     0.127 S 
ATOM     48  O   UNL     1       5.081  -3.577  12.038  1.00  0.00    -0.237 OA
ATOM     49  O   UNL     1       7.345  -3.501  13.003  1.00  0.00    -0.237 OA
ATOM     50  O   UNL     1       5.969  -1.466  12.955  1.00  0.00    -0.744 OA
ENDBRANCH  44  47
ENDBRANCH  26  40
BRANCH  27  51
ATOM     51  C   UNL     1       7.101   8.203   4.874  1.00  0.00     0.023 A 
ATOM     52  C   UNL     1       8.253   8.772   4.300  1.00  0.00     0.012 A 
ATOM     53  C   UNL     1       5.888   8.918   4.836  1.00  0.00     0.148 A 
ATOM     54  C   UNL     1       8.207  10.042   3.727  1.00  0.00     0.002 A 
ATOM     55  C   UNL     1       5.834  10.155   4.208  1.00  0.00     0.091 A 
ATOM     56  F   UNL     1       4.804   8.360   5.394  1.00  0.00    -0.205 F 
ATOM     57  C   UNL     1       6.996  10.728   3.671  1.00  0.00     0.022 A 
BRANCH  55  58
ATOM     58  S   UNL     1       4.292  11.042   3.964  1.00  0.00     0.127 S 
ATOM     59  O   UNL     1       4.451  12.173   4.874  1.00  0.00    -0.237 OA
ATOM     60  O   UNL     1       4.360  11.380   2.542  1.00  0.00    -0.237 OA
ATOM     61  O   UNL     1       3.236  10.099   4.306  1.00  0.00    -0.744 OA
ENDBRANCH  55  58
ENDBRANCH  27  51
BRANCH  39  62
ATOM     62  C   UNL     1      10.522   5.450  10.289  1.00  0.00     0.023 A 
ATOM     63  C   UNL     1      10.048   6.332  11.281  1.00  0.00     0.012 A 
ATOM     64  C   UNL     1      11.885   5.095  10.274  1.00  0.00     0.148 A 
ATOM     65  C   UNL     1      10.924   6.886  12.213  1.00  0.00     0.002 A 
ATOM     66  C   UNL     1      12.741   5.606  11.240  1.00  0.00     0.091 A 
ATOM     67  F   UNL     1      12.321   4.272   9.309  1.00  0.00    -0.205 F 
ATOM     68  C   UNL     1      12.267   6.515  12.200  1.00  0.00     0.022 A 
BRANCH  66  69
ATOM     69  S   UNL     1      14.461   5.104  11.360  1.00  0.00     0.127 S 
ATOM     70  O   UNL     1      15.154   6.294  10.870  1.00  0.00    -0.237 OA
ATOM     71  O   UNL     1      14.612   4.857  12.795  1.00  0.00    -0.237 OA
ATOM     72  O   UNL     1      14.591   3.916  10.527  1.00  0.00    -0.744 OA
ENDBRANCH  66  69
ENDBRANCH  39  62
ENDBRANCH  13  14
ENDBRANCH   6   8
ENDBRANCH   3   4
ENDBRANCH   2   3
ENDBRANCH   1   2
BRANCH   1  73
ATOM     73  C   UNL     1       4.548  -2.713  -2.820  1.00  0.00     0.116 C 
BRANCH  73  74
ATOM     74  N   UNL     1       5.965  -2.785  -3.103  1.00  0.00    -0.352 N 
ATOM     75  C   UNL     1       6.558  -3.490  -4.107  1.00  0.00     0.251 C 
ATOM     76  H   UNL     1       6.562  -2.273  -2.510  1.00  0.00     0.163 HD
ATOM     77  O   UNL     1       7.769  -3.698  -4.117  1.00  0.00    -0.269 OA
BRANCH  75  78
ATOM     78  C   UNL     1       5.710  -4.038  -5.183  1.00  0.00     0.047 A 
ATOM     79  C   UNL     1       5.823  -5.422  -5.410  1.00  0.00     0.014 A 
ATOM     80  C   UNL     1       4.904  -3.222  -6.008  1.00  0.00    -0.005 A 
ATOM     81  C   UNL     1       5.108  -6.026  -6.439  1.00  0.00     0.001 A 
ATOM     82  C   UNL     1       4.157  -3.881  -7.014  1.00  0.00     0.009 A 
ATOM     83  C   UNL     1       4.266  -5.258  -7.234  1.00  0.00     0.001 A 
BRANCH  80  84
ATOM     84  C   UNL     1       4.787  -1.740  -5.899  1.00  0.00    -0.005 A 
ATOM     85  C   UNL     1       3.459  -1.271  -5.660  1.00  0.00     0.009 A 
ATOM     86  C   UNL     1       5.824  -0.771  -5.958  1.00  0.00     0.047 A 
ATOM     87  C   UNL     1       3.152   0.069  -5.427  1.00  0.00     0.001 A 
ATOM     88  C   UNL     1       5.474   0.586  -5.705  1.00  0.00     0.014 A 
ATOM     89  C   UNL     1       4.168   1.001  -5.436  1.00  0.00     0.001 A 
BRANCH  86  90
ATOM     90  C   UNL     1       7.310  -0.915  -6.214  1.00  0.00     0.251 C 
ATOM     91  O   UNL     1       8.070  -0.086  -5.701  1.00  0.00    -0.269 OA
ATOM     92  N   UNL     1       7.908  -1.824  -7.055  1.00  0.00    -0.352 N 
ATOM     93  H   UNL     1       8.845  -1.627  -7.286  1.00  0.00     0.163 HD
BRANCH  92  94
ATOM     94  C   UNL     1       7.372  -3.017  -7.648  1.00  0.00     0.121 C 
BRANCH  94  95
ATOM     95  C   UNL     1       7.976  -3.516  -8.949  1.00  0.00     0.057 C 
BRANCH  95  96
ATOM     96  C   UNL     1       9.185  -4.385  -8.732  1.00  0.00    -0.046 A 
ATOM     97  C   UNL     1       9.042  -5.758  -8.469  1.00  0.00     0.004 A 
ATOM     98  C   UNL     1      10.462  -3.820  -8.747  1.00  0.00     0.004 A 
ATOM     99  C   UNL     1      10.165  -6.553  -8.242  1.00  0.00     0.000 A 
ATOM    100  C   UNL     1      11.583  -4.617  -8.518  1.00  0.00     0.000 A 
ATOM    101  C   UNL     1      11.435  -5.981  -8.268  1.00  0.00     0.000 A 
ENDBRANCH  95  96
ENDBRANCH  94  95
ENDBRANCH  92  94
ENDBRANCH  86  90
ENDBRANCH  80  84
ENDBRANCH  75  78
ENDBRANCH  73  74
ENDBRANCH   1  73
TORSDOF 19
