REMARK SMILES O=C(NCCCCNC(=O)c1cc(-c2ccc(C(F)(F)F)cc2)cc([N+](=O)[O-])c1)c1ccc(-c2c3nc(c(-c4cccc(S(=O)(=O)[O-])c4F)c4ccc([nH]4)c(-c4cccc(S(=O)(=O)[O-])c4F)c4nc(c(-c5cccc(S(=O)(=O)[O-])c5F)c5ccc2[nH]5)C=C4)C=C3)cc1
REMARK SMILES IDX 5 1 4 2 3 3 1 4 2 5 30 7 31 8 92 9 32 10 91 11 33 12 34 13
REMARK SMILES IDX 35 14 85 15 36 16 90 17 84 18 86 19 37 20 89 21 83 22 82 23
REMARK SMILES IDX 38 25 70 26 50 27 69 28 51 29 54 30 68 31 87 32 52 33 53 34
REMARK SMILES IDX 67 36 88 37 55 38 39 39 40 40 48 41 41 42 43 43 49 44 42 45
REMARK SMILES IDX 44 46 45 47 46 48 47 49 71 50 72 51 80 52 73 53 75 54 81 55
REMARK SMILES IDX 74 56 76 57 77 58 78 59 79 60 56 61 57 62 65 63 58 64 60 65
REMARK SMILES IDX 66 66 59 67 61 68 62 69 63 70 64 71 6 72 7 73 8 74 9 75
REMARK SMILES IDX 10 77 11 78 12 79 29 80 13 81 25 82 24 83 14 84 15 85 23 86
REMARK SMILES IDX 16 87 22 88 17 89 18 90 19 91 20 92 21 93 26 94 27 95 28 96
REMARK H PARENT 3 6 86 24 54 35 8 76
REMARK Flexibility Score: inf
ROOT
ATOM      1  C   UNL     1       4.908  -0.241  -2.553  1.00  0.00     0.023 C 
ENDROOT
BRANCH   1   2
ATOM      2  C   UNL     1       4.553   0.320  -1.186  1.00  0.00     0.116 C 
BRANCH   2   3
ATOM      3  N   UNL     1       3.117   0.420  -0.957  1.00  0.00    -0.352 N 
ATOM      4  O   UNL     1       1.147  -0.051   0.048  1.00  0.00    -0.269 OA
ATOM      5  C   UNL     1       2.372  -0.113   0.073  1.00  0.00     0.251 C 
ATOM      6  H   UNL     1       2.613   0.937  -1.626  1.00  0.00     0.163 HD
BRANCH   5   7
ATOM      7  C   UNL     1       3.075  -0.793   1.181  1.00  0.00     0.039 A 
ATOM      8  C   UNL     1       4.216  -0.208   1.730  1.00  0.00     0.014 A 
ATOM      9  C   UNL     1       2.650  -2.051   1.615  1.00  0.00     0.014 A 
ATOM     10  C   UNL     1       5.047  -0.967   2.537  1.00  0.00     0.010 A 
ATOM     11  C   UNL     1       3.421  -2.757   2.545  1.00  0.00     0.010 A 
ATOM     12  C   UNL     1       4.651  -2.241   2.981  1.00  0.00    -0.014 A 
BRANCH  12  13
ATOM     13  C   UNL     1       5.517  -2.939   3.968  1.00  0.00     0.031 A 
ATOM     14  C   UNL     1       6.133  -4.283   3.689  1.00  0.00     0.074 A 
ATOM     15  C   UNL     1       5.788  -2.299   5.124  1.00  0.00     0.049 A 
ATOM     16  N   UNL     1       6.969  -4.967   4.429  1.00  0.00    -0.248 NA
ATOM     17  C   UNL     1       5.765  -4.953   2.432  1.00  0.00     0.031 C 
ATOM     18  C   UNL     1       5.203  -1.015   5.529  1.00  0.00     0.029 A 
ATOM     19  N   UNL     1       6.627  -2.618   6.159  1.00  0.00    -0.354 N 
ATOM     20  C   UNL     1       7.206  -6.155   3.748  1.00  0.00     0.074 A 
ATOM     21  C   UNL     1       6.411  -6.108   2.539  1.00  0.00     0.031 C 
ATOM     22  C   UNL     1       5.738  -0.633   6.695  1.00  0.00     0.029 A 
ATOM     23  C   UNL     1       6.638  -1.678   7.162  1.00  0.00     0.049 A 
ATOM     24  H   UNL     1       7.169  -3.439   6.182  1.00  0.00     0.167 HD
ATOM     25  C   UNL     1       8.024  -7.181   4.091  1.00  0.00     0.034 A 
ATOM     26  C   UNL     1       7.276  -1.664   8.346  1.00  0.00     0.034 A 
ATOM     27  C   UNL     1       8.824  -7.213   5.290  1.00  0.00     0.049 A 
ATOM     28  C   UNL     1       8.183  -2.806   8.688  1.00  0.00     0.074 A 
ATOM     29  C   UNL     1       9.709  -8.192   5.708  1.00  0.00     0.029 A 
ATOM     30  N   UNL     1       8.832  -6.229   6.267  1.00  0.00    -0.354 N 
ATOM     31  N   UNL     1       8.474  -3.868   7.977  1.00  0.00    -0.248 NA
ATOM     32  C   UNL     1       8.873  -2.736   9.981  1.00  0.00     0.031 C 
ATOM     33  C   UNL     1      10.231  -7.813   6.950  1.00  0.00     0.029 A 
ATOM     34  C   UNL     1       9.702  -6.578   7.288  1.00  0.00     0.049 A 
ATOM     35  H   UNL     1       8.299  -5.402   6.240  1.00  0.00     0.167 HD
ATOM     36  C   UNL     1       9.397  -4.584   8.727  1.00  0.00     0.074 A 
ATOM     37  C   UNL     1       9.646  -3.811   9.928  1.00  0.00     0.031 C 
ATOM     38  C   UNL     1       9.969  -5.783   8.460  1.00  0.00     0.034 A 
BRANCH  25  39
ATOM     39  C   UNL     1       8.134  -8.349   3.139  1.00  0.00     0.023 A 
ATOM     40  C   UNL     1       8.820  -8.188   1.918  1.00  0.00     0.012 A 
ATOM     41  C   UNL     1       7.638  -9.622   3.487  1.00  0.00     0.148 A 
ATOM     42  C   UNL     1       8.988  -9.264   1.047  1.00  0.00     0.002 A 
ATOM     43  C   UNL     1       7.848 -10.701   2.634  1.00  0.00     0.091 A 
ATOM     44  F   UNL     1       6.978  -9.756   4.646  1.00  0.00    -0.205 F 
ATOM     45  C   UNL     1       8.512 -10.521   1.409  1.00  0.00     0.022 A 
BRANCH  43  46
ATOM     46  S   UNL     1       7.345 -12.378   3.040  1.00  0.00     0.127 S 
ATOM     47  O   UNL     1       6.296 -12.619   2.049  1.00  0.00    -0.237 OA
ATOM     48  O   UNL     1       8.579 -13.130   2.815  1.00  0.00    -0.237 OA
ATOM     49  O   UNL     1       6.896 -12.341   4.424  1.00  0.00    -0.744 OA
ENDBRANCH  43  46
ENDBRANCH  25  39
BRANCH  26  50
ATOM     50  C   UNL     1       7.070  -0.526   9.285  1.00  0.00     0.023 A 
ATOM     51  C   UNL     1       8.133   0.348   9.580  1.00  0.00     0.012 A 
ATOM     52  C   UNL     1       5.807  -0.295   9.865  1.00  0.00     0.148 A 
ATOM     53  C   UNL     1       7.950   1.410  10.467  1.00  0.00     0.002 A 
ATOM     54  C   UNL     1       5.615   0.803  10.692  1.00  0.00     0.091 A 
ATOM     55  F   UNL     1       4.811  -1.146   9.582  1.00  0.00    -0.205 F 
ATOM     56  C   UNL     1       6.690   1.645  11.013  1.00  0.00     0.022 A 
BRANCH  54  57
ATOM     57  S   UNL     1       3.991   1.261  11.306  1.00  0.00     0.127 S 
ATOM     58  O   UNL     1       4.088   0.881  12.713  1.00  0.00    -0.237 OA
ATOM     59  O   UNL     1       3.967   2.702  11.055  1.00  0.00    -0.237 OA
ATOM     60  O   UNL     1       3.042   0.500  10.505  1.00  0.00    -0.744 OA
ENDBRANCH  54  57
ENDBRANCH  26  50
BRANCH  38  61
ATOM     61  C   UNL     1      10.947  -6.314   9.474  1.00  0.00     0.023 A 
ATOM     62  C   UNL     1      10.488  -6.753  10.733  1.00  0.00     0.012 A 
ATOM     63  C   UNL     1      12.320  -6.399   9.171  1.00  0.00     0.148 A 
ATOM     64  C   UNL     1      11.387  -7.218  11.693  1.00  0.00     0.002 A 
ATOM     65  C   UNL     1      13.202  -6.916  10.112  1.00  0.00     0.091 A 
ATOM     66  F   UNL     1      12.740  -5.959   7.976  1.00  0.00    -0.205 F 
ATOM     67  C   UNL     1      12.740  -7.308  11.379  1.00  0.00     0.022 A 
BRANCH  65  68
ATOM     68  S   UNL     1      14.946  -7.158   9.763  1.00  0.00     0.127 S 
ATOM     69  O   UNL     1      15.560  -6.102  10.567  1.00  0.00    -0.237 OA
ATOM     70  O   UNL     1      15.175  -8.515  10.260  1.00  0.00    -0.237 OA
ATOM     71  O   UNL     1      15.092  -7.010   8.321  1.00  0.00    -0.744 OA
ENDBRANCH  65  68
ENDBRANCH  38  61
ENDBRANCH  12  13
ENDBRANCH   5   7
ENDBRANCH   2   3
ENDBRANCH   1   2
BRANCH   1  72
ATOM     72  C   UNL     1       4.438   0.604  -3.728  1.00  0.00     0.023 C 
BRANCH  72  73
ATOM     73  C   UNL     1       4.828   2.074  -3.649  1.00  0.00     0.116 C 
BRANCH  73  74
ATOM     74  N   UNL     1       6.271   2.271  -3.625  1.00  0.00    -0.352 N 
ATOM     75  C   UNL     1       7.066   2.940  -4.517  1.00  0.00     0.251 C 
ATOM     76  H   UNL     1       6.740   1.867  -2.860  1.00  0.00     0.163 HD
ATOM     77  O   UNL     1       8.291   2.885  -4.440  1.00  0.00    -0.269 OA
BRANCH  75  78
ATOM     78  C   UNL     1       6.442   3.722  -5.600  1.00  0.00     0.047 A 
ATOM     79  C   UNL     1       6.910   3.551  -6.907  1.00  0.00     0.023 A 
ATOM     80  C   UNL     1       5.422   4.633  -5.321  1.00  0.00     0.099 A 
ATOM     81  C   UNL     1       6.324   4.255  -7.969  1.00  0.00    -0.011 A 
ATOM     82  C   UNL     1       4.782   5.274  -6.382  1.00  0.00     0.270 A 
ATOM     83  C   UNL     1       5.221   5.085  -7.698  1.00  0.00     0.094 A 
BRANCH  81  84
ATOM     84  C   UNL     1       6.912   4.206  -9.312  1.00  0.00    -0.018 A 
ATOM     85  C   UNL     1       7.092   3.005 -10.012  1.00  0.00     0.009 A 
ATOM     86  C   UNL     1       7.366   5.396  -9.904  1.00  0.00     0.009 A 
ATOM     87  C   UNL     1       7.719   2.997 -11.264  1.00  0.00     0.014 A 
ATOM     88  C   UNL     1       7.995   5.391 -11.149  1.00  0.00     0.014 A 
ATOM     89  C   UNL     1       8.184   4.189 -11.841  1.00  0.00     0.056 A 
BRANCH  89  90
ATOM     90  C   UNL     1       8.888   4.171 -13.174  1.00  0.00     0.416 C 
ATOM     91  F   UNL     1      10.022   3.418 -13.156  1.00  0.00    -0.166 F 
ATOM     92  F   UNL     1       8.112   3.660 -14.169  1.00  0.00    -0.166 F 
ATOM     93  F   UNL     1       9.271   5.408 -13.602  1.00  0.00    -0.166 F 
ENDBRANCH  89  90
ENDBRANCH  81  84
BRANCH  82  94
ATOM     94  N   UNL     1       3.633   6.144  -6.111  1.00  0.00     0.062 N 
ATOM     95  O   UNL     1       3.115   6.728  -7.072  1.00  0.00    -0.258 OA
ATOM     96  O   UNL     1       3.243   6.231  -4.939  1.00  0.00    -0.258 OA
ENDBRANCH  82  94
ENDBRANCH  75  78
ENDBRANCH  73  74
ENDBRANCH  72  73
ENDBRANCH   1  72
TORSDOF 17
