REMARK SMILES Cc1cc(C(=O)N[C@H](C(=O)NCCCCNC(=O)c2ccc(-c3c4nc(c(-c5cccc(S(=O)(=O)[O-])c5F)c5ccc([nH]5)c(-c5cccc(S(=O)(=O)[O-])c5F)c5nc(c(-c6cccc(S(=O)(=O)[O-])c6F)c6ccc3[nH]6)C=C5)C=C4)cc2)c2c(C)n[nH]c2C)c2ccc(C)c(C)c2n1
REMARK SMILES IDX 14 1 13 2 12 3 11 4 9 5 10 6 8 8 7 9 5 10 6 11 4 13 1 14
REMARK SMILES IDX 2 15 3 16 97 17 96 18 89 19 94 20 90 21 92 22 95 23 91 24
REMARK SMILES IDX 93 25 82 26 83 27 87 28 84 29 85 30 86 31 88 32 15 34 16 35
REMARK SMILES IDX 17 36 18 38 19 39 20 40 81 41 21 42 80 43 22 44 23 45 24 46
REMARK SMILES IDX 74 47 25 48 79 49 73 50 75 51 26 52 78 53 72 54 71 55 27 57
REMARK SMILES IDX 59 58 39 59 58 60 40 61 43 62 57 63 76 64 41 65 42 66 56 68
REMARK SMILES IDX 77 69 44 70 28 71 29 72 37 73 30 74 32 75 38 76 31 77 33 78
REMARK SMILES IDX 34 79 35 80 36 81 60 82 61 83 69 84 62 85 64 86 70 87 63 88
REMARK SMILES IDX 65 89 66 90 67 91 68 92 45 93 46 94 54 95 47 96 49 97 55 98
REMARK SMILES IDX 48 99 50 100 51 101 52 102 53 103
REMARK H PARENT 11 7 7 12 86 33 16 37 75 56 43 67
REMARK Flexibility Score: inf
ROOT
ATOM      1  C   UNL     1       3.658   3.732   5.757  1.00  0.00     0.023 C 
ENDROOT
BRANCH   1   2
ATOM      2  C   UNL     1       3.353   3.406   4.296  1.00  0.00     0.023 C 
BRANCH   2   3
ATOM      3  C   UNL     1       1.906   2.988   4.044  1.00  0.00     0.116 C 
BRANCH   3   4
ATOM      4  N   UNL     1       1.029   4.130   3.846  1.00  0.00    -0.354 N 
ATOM      5  C   UNL     1       0.651   4.720   2.663  1.00  0.00     0.247 C 
ATOM      6  O   UNL     1      -0.124   5.678   2.690  1.00  0.00    -0.272 OA
ATOM      7  H   UNL     1       0.658   4.533   4.664  1.00  0.00     0.163 HD
BRANCH   5   8
ATOM      8  C   UNL     1       1.213   4.152   1.335  1.00  0.00     0.206 C 
BRANCH   8   9
ATOM      9  N   UNL     1       0.304   4.409   0.224  1.00  0.00    -0.336 N 
ATOM     10  C   UNL     1      -0.136   3.764  -0.903  1.00  0.00     0.252 C 
ATOM     11  O   UNL     1      -0.908   4.448  -1.578  1.00  0.00    -0.269 OA
ATOM     12  H   UNL     1      -0.113   5.297   0.307  1.00  0.00     0.165 HD
BRANCH  10  13
ATOM     13  C   UNL     1       0.196   2.344  -1.336  1.00  0.00     0.051 A 
ATOM     14  C   UNL     1       2.006  -0.698   0.013  1.00  0.00     0.067 C 
ATOM     15  C   UNL     1       1.195   0.192  -0.883  1.00  0.00     0.039 A 
ATOM     16  C   UNL     1       0.986   1.514  -0.546  1.00  0.00     0.038 A 
ATOM     17  N   UNL     1       0.679  -0.346  -1.990  1.00  0.00    -0.253 NA
ATOM     18  C   UNL     1      -0.057   0.411  -2.816  1.00  0.00     0.074 A 
ATOM     19  C   UNL     1      -0.335   1.779  -2.552  1.00  0.00     0.013 A 
ATOM     20  C   UNL     1      -0.543  -0.222  -3.973  1.00  0.00    -0.022 A 
ATOM     21  C   UNL     1      -1.111   2.454  -3.531  1.00  0.00     0.011 A 
ATOM     22  C   UNL     1      -1.296   0.487  -4.927  1.00  0.00    -0.046 A 
ATOM     23  C   UNL     1      -0.221  -1.690  -4.158  1.00  0.00     0.047 C 
ATOM     24  C   UNL     1      -1.577   1.827  -4.688  1.00  0.00     0.004 A 
ATOM     25  C   UNL     1      -1.804  -0.152  -6.189  1.00  0.00     0.044 C 
ENDBRANCH  10  13
ENDBRANCH   8   9
BRANCH   8  26
ATOM     26  C   UNL     1       2.562   4.723   1.002  1.00  0.00     0.027 A 
ATOM     27  C   UNL     1       2.924   6.106   0.903  1.00  0.00     0.065 A 
ATOM     28  C   UNL     1       3.753   4.051   0.747  1.00  0.00     0.038 A 
ATOM     29  C   UNL     1       2.077   7.314   1.088  1.00  0.00     0.069 C 
ATOM     30  N   UNL     1       4.220   6.261   0.611  1.00  0.00    -0.180 NA
ATOM     31  N   UNL     1       4.691   5.019   0.521  1.00  0.00    -0.282 N 
ATOM     32  C   UNL     1       4.130   2.620   0.699  1.00  0.00     0.066 C 
ATOM     33  H   UNL     1       5.632   4.816   0.312  1.00  0.00     0.190 HD
ENDBRANCH   8  26
ENDBRANCH   5   8
ENDBRANCH   3   4
ENDBRANCH   2   3
ENDBRANCH   1   2
BRANCH   1  34
ATOM     34  C   UNL     1       3.486   2.561   6.719  1.00  0.00     0.116 C 
BRANCH  34  35
ATOM     35  N   UNL     1       4.348   1.428   6.410  1.00  0.00    -0.352 N 
ATOM     36  C   UNL     1       4.847   0.504   7.301  1.00  0.00     0.251 C 
ATOM     37  H   UNL     1       4.599   1.310   5.465  1.00  0.00     0.163 HD
ATOM     38  O   UNL     1       5.630  -0.363   6.945  1.00  0.00    -0.269 OA
BRANCH  36  39
ATOM     39  C   UNL     1       4.432   0.626   8.711  1.00  0.00     0.039 A 
ATOM     40  C   UNL     1       5.396   0.930   9.674  1.00  0.00     0.014 A 
ATOM     41  C   UNL     1       3.075   0.562   9.038  1.00  0.00     0.014 A 
ATOM     42  C   UNL     1       4.987   1.232  10.973  1.00  0.00     0.010 A 
ATOM     43  C   UNL     1       2.668   0.907  10.321  1.00  0.00     0.010 A 
ATOM     44  C   UNL     1       3.620   1.248  11.294  1.00  0.00    -0.014 A 
BRANCH  44  45
ATOM     45  C   UNL     1       3.156   1.608  12.652  1.00  0.00     0.031 A 
ATOM     46  C   UNL     1       2.556   0.551  13.530  1.00  0.00     0.074 A 
ATOM     47  C   UNL     1       3.206   2.889  13.062  1.00  0.00     0.049 A 
ATOM     48  N   UNL     1       2.012   0.675  14.711  1.00  0.00    -0.248 NA
ATOM     49  C   UNL     1       2.550  -0.824  13.002  1.00  0.00     0.031 C 
ATOM     50  C   UNL     1       3.725   4.010  12.275  1.00  0.00     0.029 A 
ATOM     51  N   UNL     1       2.795   3.467  14.236  1.00  0.00    -0.354 N 
ATOM     52  C   UNL     1       1.583  -0.597  15.061  1.00  0.00     0.074 A 
ATOM     53  C   UNL     1       1.901  -1.475  13.956  1.00  0.00     0.031 C 
ATOM     54  C   UNL     1       3.605   5.140  12.991  1.00  0.00     0.029 A 
ATOM     55  C   UNL     1       2.985   4.827  14.276  1.00  0.00     0.049 A 
ATOM     56  H   UNL     1       2.401   2.955  14.979  1.00  0.00     0.167 HD
ATOM     57  C   UNL     1       1.009  -1.006  16.215  1.00  0.00     0.034 A 
ATOM     58  C   UNL     1       2.695   5.720  15.243  1.00  0.00     0.034 A 
ATOM     59  C   UNL     1       0.727  -0.142  17.326  1.00  0.00     0.049 A 
ATOM     60  C   UNL     1       2.081   5.239  16.528  1.00  0.00     0.074 A 
ATOM     61  C   UNL     1       0.163  -0.467  18.546  1.00  0.00     0.029 A 
ATOM     62  N   UNL     1       1.001   1.216  17.358  1.00  0.00    -0.354 N 
ATOM     63  N   UNL     1       1.750   4.018  16.872  1.00  0.00    -0.248 NA
ATOM     64  C   UNL     1       1.831   6.247  17.568  1.00  0.00     0.031 C 
ATOM     65  C   UNL     1       0.108   0.695  19.323  1.00  0.00     0.029 A 
ATOM     66  C   UNL     1       0.638   1.742  18.584  1.00  0.00     0.049 A 
ATOM     67  H   UNL     1       1.396   1.730  16.616  1.00  0.00     0.167 HD
ATOM     68  C   UNL     1       1.276   4.105  18.175  1.00  0.00     0.074 A 
ATOM     69  C   UNL     1       1.372   5.497  18.564  1.00  0.00     0.031 C 
ATOM     70  C   UNL     1       0.793   3.120  18.971  1.00  0.00     0.034 A 
BRANCH  57  71
ATOM     71  C   UNL     1       0.726  -2.473  16.358  1.00  0.00     0.023 A 
ATOM     72  C   UNL     1       1.795  -3.344  16.652  1.00  0.00     0.012 A 
ATOM     73  C   UNL     1      -0.578  -2.987  16.238  1.00  0.00     0.148 A 
ATOM     74  C   UNL     1       1.574  -4.710  16.807  1.00  0.00     0.002 A 
ATOM     75  C   UNL     1      -0.795  -4.348  16.422  1.00  0.00     0.091 A 
ATOM     76  F   UNL     1      -1.573  -2.143  15.932  1.00  0.00    -0.205 F 
ATOM     77  C   UNL     1       0.280  -5.210  16.701  1.00  0.00     0.022 A 
BRANCH  75  78
ATOM     78  S   UNL     1      -2.429  -5.088  16.349  1.00  0.00     0.127 S 
ATOM     79  O   UNL     1      -2.346  -5.862  15.111  1.00  0.00    -0.237 OA
ATOM     80  O   UNL     1      -2.458  -5.893  17.571  1.00  0.00    -0.237 OA
ATOM     81  O   UNL     1      -3.372  -3.979  16.329  1.00  0.00    -0.744 OA
ENDBRANCH  75  78
ENDBRANCH  57  71
BRANCH  58  82
ATOM     82  C   UNL     1       3.079   7.144  15.053  1.00  0.00     0.023 A 
ATOM     83  C   UNL     1       4.235   7.628  15.696  1.00  0.00     0.012 A 
ATOM     84  C   UNL     1       2.368   7.989  14.180  1.00  0.00     0.148 A 
ATOM     85  C   UNL     1       4.674   8.933  15.478  1.00  0.00     0.002 A 
ATOM     86  C   UNL     1       2.831   9.277  13.940  1.00  0.00     0.091 A 
ATOM     87  F   UNL     1       1.277   7.498  13.575  1.00  0.00    -0.205 F 
ATOM     88  C   UNL     1       3.978   9.754  14.595  1.00  0.00     0.022 A 
BRANCH  86  89
ATOM     89  S   UNL     1       2.066  10.380  12.746  1.00  0.00     0.127 S 
ATOM     90  O   UNL     1       1.730  11.535  13.577  1.00  0.00    -0.237 OA
ATOM     91  O   UNL     1       3.162  10.597  11.802  1.00  0.00    -0.237 OA
ATOM     92  O   UNL     1       0.926   9.653  12.206  1.00  0.00    -0.744 OA
ENDBRANCH  86  89
ENDBRANCH  58  82
BRANCH  70  93
ATOM     93  C   UNL     1       0.346   3.490  20.357  1.00  0.00     0.023 A 
ATOM     94  C   UNL     1      -0.929   4.059  20.541  1.00  0.00     0.012 A 
ATOM     95  C   UNL     1       1.130   3.156  21.479  1.00  0.00     0.148 A 
ATOM     96  C   UNL     1      -1.416   4.296  21.825  1.00  0.00     0.002 A 
ATOM     97  C   UNL     1       0.625   3.367  22.756  1.00  0.00     0.091 A 
ATOM     98  F   UNL     1       2.346   2.629  21.274  1.00  0.00    -0.205 F 
ATOM     99  C   UNL     1      -0.646   3.939  22.930  1.00  0.00     0.022 A 
BRANCH  97 100
ATOM    100  S   UNL     1       1.511   2.870  24.237  1.00  0.00     0.127 S 
ATOM    101  O   UNL     1       1.921   4.162  24.785  1.00  0.00    -0.237 OA
ATOM    102  O   UNL     1       0.472   2.182  25.005  1.00  0.00    -0.237 OA
ATOM    103  O   UNL     1       2.597   2.010  23.786  1.00  0.00    -0.744 OA
ENDBRANCH  97 100
ENDBRANCH  70  93
ENDBRANCH  44  45
ENDBRANCH  36  39
ENDBRANCH  34  35
ENDBRANCH   1  34
TORSDOF 17
