REMARK SMILES Cc1nc(C[C@H](C(=O)NCCCCNC(=O)c2ccc(-c3c4nc(c(-c5cccc(S(=O)(=O)[O-])c5F)c5ccc([nH]5)c(-c5cccc(S(=O)(=O)[O-])c5F)c5nc(c(-c6cccc(S(=O)(=O)[O-])c6F)c6ccc3[nH]6)C=C5)C=C4)cc2)c2ccccc2Br)cs1
REMARK SMILES IDX 12 1 11 2 10 3 9 4 7 5 8 6 6 8 5 9 4 10 1 11 2 12 3 13 88 14
REMARK SMILES IDX 87 15 80 16 81 17 85 18 82 19 84 20 86 21 83 22 13 23 14 24
REMARK SMILES IDX 15 25 16 27 17 28 18 29 79 30 19 31 78 32 20 33 21 34 22 35
REMARK SMILES IDX 72 36 23 37 77 38 71 39 73 40 24 41 76 42 70 43 69 44 25 46
REMARK SMILES IDX 57 47 37 48 56 49 38 50 41 51 55 52 74 53 39 54 40 55 54 57
REMARK SMILES IDX 75 58 42 59 26 60 27 61 35 62 28 63 30 64 36 65 29 66 31 67
REMARK SMILES IDX 32 68 33 69 34 70 58 71 59 72 67 73 60 74 62 75 68 76 61 77
REMARK SMILES IDX 63 78 64 79 65 80 66 81 43 82 44 83 52 84 45 85 47 86 53 87
REMARK SMILES IDX 46 88 48 89 49 90 50 91 51 92
REMARK H PARENT 9 7 14 26 73 45 41 56
REMARK Flexibility Score: inf
ROOT
ATOM      1  C   UNL     1       2.373  -6.087   2.371  1.00  0.00     0.023 C 
ENDROOT
BRANCH   1   2
ATOM      2  C   UNL     1       2.723  -5.561   0.979  1.00  0.00     0.023 C 
BRANCH   2   3
ATOM      3  C   UNL     1       1.653  -4.666   0.351  1.00  0.00     0.116 C 
BRANCH   3   4
ATOM      4  N   UNL     1       1.858  -3.277   0.706  1.00  0.00    -0.356 N 
ATOM      5  C   UNL     1       2.557  -2.299   0.060  1.00  0.00     0.227 C 
ATOM      6  O   UNL     1       2.594  -1.195   0.611  1.00  0.00    -0.274 OA
ATOM      7  H   UNL     1       1.425  -2.995   1.544  1.00  0.00     0.163 HD
BRANCH   5   8
ATOM      8  C   UNL     1       3.192  -2.543  -1.328  1.00  0.00     0.115 C 
BRANCH   8   9
ATOM      9  C   UNL     1       3.630  -1.175  -1.900  1.00  0.00     0.075 C 
BRANCH   9  10
ATOM     10  C   UNL     1       4.198  -1.092  -3.288  1.00  0.00     0.053 A 
ATOM     11  C   UNL     1       5.475   1.352  -5.695  1.00  0.00     0.079 C 
ATOM     12  C   UNL     1       5.025   0.153  -4.942  1.00  0.00     0.090 A 
ATOM     13  N   UNL     1       4.512   0.189  -3.733  1.00  0.00    -0.247 NA
ATOM     14  S   UNL     1       5.156  -1.408  -5.635  1.00  0.00    -0.127 S 
ATOM     15  C   UNL     1       4.471  -2.079  -4.213  1.00  0.00     0.090 A 
ENDBRANCH   9  10
ENDBRANCH   8   9
BRANCH   8  16
ATOM     16  C   UNL     1       4.265  -3.636  -1.328  1.00  0.00    -0.021 A 
ATOM     17  C   UNL     1       4.000  -4.799  -2.094  1.00  0.00     0.006 A 
ATOM     18  C   UNL     1       5.470  -3.603  -0.606  1.00  0.00     0.021 A 
ATOM     19  C   UNL     1       4.877  -5.884  -2.121  1.00  0.00     0.000 A 
ATOM     20  C   UNL     1       6.354  -4.693  -0.646  1.00  0.00     0.016 A 
ATOM     21  Br  UNL     1       5.992  -2.167   0.518  1.00  0.00    -0.051 Br
ATOM     22  C   UNL     1       6.056  -5.831  -1.393  1.00  0.00     0.001 A 
ENDBRANCH   8  16
ENDBRANCH   5   8
ENDBRANCH   3   4
ENDBRANCH   2   3
ENDBRANCH   1   2
BRANCH   1  23
ATOM     23  C   UNL     1       1.219  -7.081   2.398  1.00  0.00     0.116 C 
BRANCH  23  24
ATOM     24  N   UNL     1       1.458  -8.272   1.593  1.00  0.00    -0.352 N 
ATOM     25  C   UNL     1       0.953  -9.539   1.784  1.00  0.00     0.251 C 
ATOM     26  H   UNL     1       2.053  -8.156   0.818  1.00  0.00     0.163 HD
ATOM     27  O   UNL     1       1.305 -10.465   1.070  1.00  0.00    -0.269 OA
BRANCH  25  28
ATOM     28  C   UNL     1       0.016  -9.763   2.906  1.00  0.00     0.039 A 
ATOM     29  C   UNL     1       0.307 -10.764   3.835  1.00  0.00     0.014 A 
ATOM     30  C   UNL     1      -1.095  -8.933   3.077  1.00  0.00     0.014 A 
ATOM     31  C   UNL     1      -0.478 -10.882   4.984  1.00  0.00     0.010 A 
ATOM     32  C   UNL     1      -1.831  -9.007   4.254  1.00  0.00     0.010 A 
ATOM     33  C   UNL     1      -1.528  -9.979   5.221  1.00  0.00    -0.014 A 
BRANCH  33  34
ATOM     34  C   UNL     1      -2.309 -10.015   6.482  1.00  0.00     0.031 A 
ATOM     35  C   UNL     1      -3.782 -10.312   6.447  1.00  0.00     0.074 A 
ATOM     36  C   UNL     1      -1.713  -9.677   7.643  1.00  0.00     0.049 A 
ATOM     37  N   UNL     1      -4.644 -10.319   7.429  1.00  0.00    -0.248 NA
ATOM     38  C   UNL     1      -4.371 -10.612   5.131  1.00  0.00     0.031 C 
ATOM     39  C   UNL     1      -0.311  -9.277   7.792  1.00  0.00     0.029 A 
ATOM     40  N   UNL     1      -2.219  -9.586   8.916  1.00  0.00    -0.354 N 
ATOM     41  C   UNL     1      -5.878 -10.583   6.849  1.00  0.00     0.074 A 
ATOM     42  C   UNL     1      -5.661 -10.699   5.424  1.00  0.00     0.031 C 
ATOM     43  C   UNL     1      -0.070  -8.987   9.081  1.00  0.00     0.029 A 
ATOM     44  C   UNL     1      -1.300  -9.159   9.847  1.00  0.00     0.049 A 
ATOM     45  H   UNL     1      -3.151  -9.807   9.141  1.00  0.00     0.167 HD
ATOM     46  C   UNL     1      -7.079 -10.752   7.451  1.00  0.00     0.034 A 
ATOM     47  C   UNL     1      -1.436  -8.933  11.168  1.00  0.00     0.034 A 
ATOM     48  C   UNL     1      -7.281 -10.699   8.873  1.00  0.00     0.049 A 
ATOM     49  C   UNL     1      -2.767  -9.195  11.821  1.00  0.00     0.074 A 
ATOM     50  C   UNL     1      -8.438 -10.951   9.588  1.00  0.00     0.029 A 
ATOM     51  N   UNL     1      -6.301 -10.374   9.798  1.00  0.00    -0.354 N 
ATOM     52  N   UNL     1      -3.883  -9.614  11.276  1.00  0.00    -0.248 NA
ATOM     53  C   UNL     1      -2.847  -8.992  13.275  1.00  0.00     0.031 C 
ATOM     54  C   UNL     1      -8.158 -10.774  10.947  1.00  0.00     0.029 A 
ATOM     55  C   UNL     1      -6.825 -10.421  11.078  1.00  0.00     0.049 A 
ATOM     56  H   UNL     1      -5.369 -10.145   9.577  1.00  0.00     0.167 HD
ATOM     57  C   UNL     1      -4.787  -9.757  12.323  1.00  0.00     0.074 A 
ATOM     58  C   UNL     1      -4.080  -9.403  13.537  1.00  0.00     0.031 C 
ATOM     59  C   UNL     1      -6.090 -10.129  12.281  1.00  0.00     0.034 A 
BRANCH  46  60
ATOM     60  C   UNL     1      -8.257 -11.088   6.577  1.00  0.00     0.023 A 
ATOM     61  C   UNL     1      -8.349 -12.378   6.014  1.00  0.00     0.012 A 
ATOM     62  C   UNL     1      -9.295 -10.162   6.358  1.00  0.00     0.148 A 
ATOM     63  C   UNL     1      -9.440 -12.732   5.222  1.00  0.00     0.002 A 
ATOM     64  C   UNL     1     -10.399 -10.536   5.601  1.00  0.00     0.091 A 
ATOM     65  F   UNL     1      -9.178  -8.934   6.882  1.00  0.00    -0.205 F 
ATOM     66  C   UNL     1     -10.469 -11.816   5.025  1.00  0.00     0.022 A 
BRANCH  64  67
ATOM     67  S   UNL     1     -11.810  -9.454   5.346  1.00  0.00     0.127 S 
ATOM     68  O   UNL     1     -11.649  -9.085   3.940  1.00  0.00    -0.237 OA
ATOM     69  O   UNL     1     -12.938 -10.347   5.616  1.00  0.00    -0.237 OA
ATOM     70  O   UNL     1     -11.657  -8.365   6.301  1.00  0.00    -0.744 OA
ENDBRANCH  64  67
ENDBRANCH  46  60
BRANCH  47  71
ATOM     71  C   UNL     1      -0.257  -8.514  11.979  1.00  0.00     0.023 A 
ATOM     72  C   UNL     1       0.316  -9.431  12.881  1.00  0.00     0.012 A 
ATOM     73  C   UNL     1       0.313  -7.234  11.847  1.00  0.00     0.148 A 
ATOM     74  C   UNL     1       1.415  -9.071  13.661  1.00  0.00     0.002 A 
ATOM     75  C   UNL     1       1.440  -6.899  12.591  1.00  0.00     0.091 A 
ATOM     76  F   UNL     1      -0.255  -6.367  10.996  1.00  0.00    -0.205 F 
ATOM     77  C   UNL     1       1.983  -7.809  13.509  1.00  0.00     0.022 A 
BRANCH  75  78
ATOM     78  S   UNL     1       2.308  -5.343  12.357  1.00  0.00     0.127 S 
ATOM     79  O   UNL     1       1.855  -4.571  13.510  1.00  0.00    -0.237 OA
ATOM     80  O   UNL     1       3.710  -5.762  12.406  1.00  0.00    -0.237 OA
ATOM     81  O   UNL     1       1.879  -4.857  11.052  1.00  0.00    -0.744 OA
ENDBRANCH  75  78
ENDBRANCH  47  71
BRANCH  59  82
ATOM     82  C   UNL     1      -6.838 -10.203  13.585  1.00  0.00     0.023 A 
ATOM     83  C   UNL     1      -7.232  -9.014  14.228  1.00  0.00     0.012 A 
ATOM     84  C   UNL     1      -7.221 -11.445  14.128  1.00  0.00     0.148 A 
ATOM     85  C   UNL     1      -7.976  -9.059  15.406  1.00  0.00     0.002 A 
ATOM     86  C   UNL     1      -7.999 -11.482  15.279  1.00  0.00     0.091 A 
ATOM     87  F   UNL     1      -6.816 -12.566  13.512  1.00  0.00    -0.205 F 
ATOM     88  C   UNL     1      -8.369 -10.291  15.924  1.00  0.00     0.022 A 
BRANCH  86  89
ATOM     89  S   UNL     1      -8.627 -13.021  15.960  1.00  0.00     0.127 S 
ATOM     90  O   UNL     1      -7.741 -13.224  17.105  1.00  0.00    -0.237 OA
ATOM     91  O   UNL     1     -10.005 -12.671  16.309  1.00  0.00    -0.237 OA
ATOM     92  O   UNL     1      -8.510 -14.005  14.892  1.00  0.00    -0.744 OA
ENDBRANCH  86  89
ENDBRANCH  59  82
ENDBRANCH  33  34
ENDBRANCH  25  28
ENDBRANCH  23  24
ENDBRANCH   1  23
TORSDOF 17
