REMARK SMILES CN(CCOCC1CC1)C(=O)N1[C@@H]2CC[C@H]1[C@H](C(=O)NCCCCNC(=O)c1ccc(-c3c4nc(c(-c5cccc(S(=O)(=O)[O-])c5F)c5ccc([nH]5)c(-c5cccc(S(=O)(=O)[O-])c5F)c5nc(c(-c6cccc(S(=O)(=O)[O-])c6F)c6ccc3[nH]6)C=C5)C=C4)cc1)C2
REMARK SMILES IDX 18 1 19 2 20 3 17 5 12 6 13 7 16 8 14 9 91 10 15 11 10 12
REMARK SMILES IDX 11 13 2 14 1 15 3 16 4 17 5 18 6 19 7 20 8 21 9 22 21 23
REMARK SMILES IDX 22 24 23 25 24 26 25 27 26 28 27 30 28 31 29 32 90 33 30 34
REMARK SMILES IDX 89 35 31 36 32 37 33 38 83 39 34 40 88 41 82 42 84 43 35 44
REMARK SMILES IDX 87 45 81 46 80 47 36 49 68 50 48 51 67 52 49 53 52 54 66 55
REMARK SMILES IDX 85 56 50 57 51 58 65 60 86 61 53 62 37 63 38 64 46 65 39 66
REMARK SMILES IDX 41 67 47 68 40 69 42 70 43 71 44 72 45 73 69 74 70 75 78 76
REMARK SMILES IDX 71 77 73 78 79 79 72 80 74 81 75 82 76 83 77 84 54 85 55 86
REMARK SMILES IDX 63 87 56 88 58 89 64 90 57 91 59 92 60 93 61 94 62 95
REMARK H PARENT 20 4 25 29 84 48 52 59
REMARK Flexibility Score: inf
ROOT
ATOM      1  C   UNL     1       0.214   3.093  -3.383  1.00  0.00     0.225 C 
ATOM      2  O   UNL     1      -0.660   2.614  -4.122  1.00  0.00    -0.275 OA
ATOM      3  N   UNL     1       1.289   2.289  -3.163  1.00  0.00    -0.356 N 
ATOM      4  H   UNL     1       1.167   1.393  -3.551  1.00  0.00     0.163 HD
ENDROOT
BRANCH   1   5
ATOM      5  C   UNL     1      -0.086   4.451  -2.728  1.00  0.00     0.103 C 
ATOM      6  N   UNL     1       0.220   3.966  -0.526  1.00  0.00    -0.318 N 
ATOM      7  C   UNL     1       1.003   5.181  -0.718  1.00  0.00     0.088 C 
ATOM      8  C   UNL     1      -0.874   4.257  -1.419  1.00  0.00     0.099 C 
ATOM      9  C   UNL     1      -0.021   6.225  -0.262  1.00  0.00     0.027 C 
ATOM     10  C   UNL     1       1.085   5.321  -2.265  1.00  0.00     0.040 C 
ATOM     11  C   UNL     1      -1.331   5.621  -0.828  1.00  0.00     0.028 C 
BRANCH   6  12
ATOM     12  C   UNL     1       0.357   3.104   0.523  1.00  0.00     0.320 C 
ATOM     13  O   UNL     1       1.105   3.412   1.456  1.00  0.00    -0.248 OA
BRANCH  12  14
ATOM     14  N   UNL     1      -0.231   1.837   0.461  1.00  0.00    -0.325 N 
ATOM     15  C   UNL     1       0.241   0.857   1.439  1.00  0.00     0.148 C 
BRANCH  14  16
ATOM     16  C   UNL     1      -1.077   1.296  -0.607  1.00  0.00     0.149 C 
BRANCH  16  17
ATOM     17  C   UNL     1      -2.608   1.309  -0.442  1.00  0.00     0.181 C 
BRANCH  17  18
ATOM     18  O   UNL     1      -3.269   2.373   0.226  1.00  0.00    -0.379 OA
BRANCH  18  19
ATOM     19  C   UNL     1      -2.862   2.751   1.534  1.00  0.00     0.163 C 
BRANCH  19  20
ATOM     20  C   UNL     1      -2.996   1.754   2.642  1.00  0.00     0.015 C 
ATOM     21  C   UNL     1      -4.237   0.909   2.755  1.00  0.00     0.006 C 
ATOM     22  C   UNL     1      -2.900   0.243   2.602  1.00  0.00     0.006 C 
ENDBRANCH  19  20
ENDBRANCH  18  19
ENDBRANCH  17  18
ENDBRANCH  16  17
ENDBRANCH  14  16
ENDBRANCH  12  14
ENDBRANCH   6  12
ENDBRANCH   1   5
BRANCH   3  23
ATOM     23  C   UNL     1       2.580   2.427  -2.493  1.00  0.00     0.116 C 
BRANCH  23  24
ATOM     24  C   UNL     1       2.693   1.677  -1.178  1.00  0.00     0.023 C 
BRANCH  24  25
ATOM     25  C   UNL     1       2.849   0.174  -1.250  1.00  0.00     0.023 C 
BRANCH  25  26
ATOM     26  C   UNL     1       4.269  -0.246  -1.557  1.00  0.00     0.116 C 
BRANCH  26  27
ATOM     27  N   UNL     1       5.226   0.208  -0.545  1.00  0.00    -0.352 N 
ATOM     28  C   UNL     1       6.156  -0.505   0.170  1.00  0.00     0.251 C 
ATOM     29  H   UNL     1       5.198   1.172  -0.348  1.00  0.00     0.163 HD
ATOM     30  O   UNL     1       6.765   0.024   1.098  1.00  0.00    -0.269 OA
BRANCH  28  31
ATOM     31  C   UNL     1       6.398  -1.916  -0.175  1.00  0.00     0.039 A 
ATOM     32  C   UNL     1       6.581  -2.860   0.837  1.00  0.00     0.014 A 
ATOM     33  C   UNL     1       6.378  -2.308  -1.513  1.00  0.00     0.014 A 
ATOM     34  C   UNL     1       6.665  -4.210   0.500  1.00  0.00     0.010 A 
ATOM     35  C   UNL     1       6.286  -3.648  -1.825  1.00  0.00     0.010 A 
ATOM     36  C   UNL     1       6.470  -4.615  -0.830  1.00  0.00    -0.014 A 
BRANCH  36  37
ATOM     37  C   UNL     1       6.492  -6.037  -1.240  1.00  0.00     0.031 A 
ATOM     38  C   UNL     1       7.453  -6.473  -2.317  1.00  0.00     0.074 A 
ATOM     39  C   UNL     1       5.575  -6.889  -0.742  1.00  0.00     0.049 A 
ATOM     40  N   UNL     1       7.540  -7.623  -2.928  1.00  0.00    -0.248 NA
ATOM     41  C   UNL     1       8.405  -5.462  -2.817  1.00  0.00     0.031 C 
ATOM     42  C   UNL     1       4.531  -6.543   0.228  1.00  0.00     0.029 A 
ATOM     43  N   UNL     1       5.353  -8.215  -1.006  1.00  0.00    -0.354 N 
ATOM     44  C   UNL     1       8.503  -7.452  -3.915  1.00  0.00     0.074 A 
ATOM     45  C   UNL     1       8.930  -6.075  -3.865  1.00  0.00     0.031 C 
ATOM     46  C   UNL     1       3.795  -7.634   0.492  1.00  0.00     0.029 A 
ATOM     47  C   UNL     1       4.284  -8.742  -0.320  1.00  0.00     0.049 A 
ATOM     48  H   UNL     1       5.907  -8.741  -1.628  1.00  0.00     0.167 HD
ATOM     49  C   UNL     1       9.019  -8.373  -4.761  1.00  0.00     0.034 A 
ATOM     50  C   UNL     1       3.756  -9.980  -0.354  1.00  0.00     0.034 A 
ATOM     51  C   UNL     1       8.639  -9.756  -4.742  1.00  0.00     0.049 A 
ATOM     52  C   UNL     1       4.400 -11.006  -1.246  1.00  0.00     0.074 A 
ATOM     53  C   UNL     1       9.171 -10.806  -5.465  1.00  0.00     0.029 A 
ATOM     54  N   UNL     1       7.628 -10.281  -3.950  1.00  0.00    -0.354 N 
ATOM     55  N   UNL     1       5.418 -10.866  -2.061  1.00  0.00    -0.248 NA
ATOM     56  C   UNL     1       3.848 -12.366  -1.199  1.00  0.00     0.031 C 
ATOM     57  C   UNL     1       8.461 -11.963  -5.132  1.00  0.00     0.029 A 
ATOM     58  C   UNL     1       7.511 -11.640  -4.175  1.00  0.00     0.049 A 
ATOM     59  H   UNL     1       7.076  -9.763  -3.321  1.00  0.00     0.167 HD
ATOM     60  C   UNL     1       5.649 -12.125  -2.601  1.00  0.00     0.074 A 
ATOM     61  C   UNL     1       4.680 -13.019  -1.998  1.00  0.00     0.031 C 
ATOM     62  C   UNL     1       6.566 -12.509  -3.524  1.00  0.00     0.034 A 
BRANCH  49  63
ATOM     63  C   UNL     1      10.085  -7.924  -5.727  1.00  0.00     0.023 A 
ATOM     64  C   UNL     1      11.355  -7.543  -5.245  1.00  0.00     0.012 A 
ATOM     65  C   UNL     1       9.845  -7.918  -7.114  1.00  0.00     0.148 A 
ATOM     66  C   UNL     1      12.354  -7.124  -6.122  1.00  0.00     0.002 A 
ATOM     67  C   UNL     1      10.862  -7.550  -7.987  1.00  0.00     0.091 A 
ATOM     68  F   UNL     1       8.625  -8.259  -7.554  1.00  0.00    -0.205 F 
ATOM     69  C   UNL     1      12.111  -7.139  -7.493  1.00  0.00     0.022 A 
BRANCH  67  70
ATOM     70  S   UNL     1      10.681  -7.614  -9.772  1.00  0.00     0.127 S 
ATOM     71  O   UNL     1      10.734  -6.195 -10.125  1.00  0.00    -0.237 OA
ATOM     72  O   UNL     1      11.858  -8.386 -10.170  1.00  0.00    -0.237 OA
ATOM     73  O   UNL     1       9.406  -8.270 -10.025  1.00  0.00    -0.744 OA
ENDBRANCH  67  70
ENDBRANCH  49  63
BRANCH  50  74
ATOM     74  C   UNL     1       2.604 -10.328   0.525  1.00  0.00     0.023 A 
ATOM     75  C   UNL     1       2.798 -11.211   1.606  1.00  0.00     0.012 A 
ATOM     76  C   UNL     1       1.328  -9.768   0.319  1.00  0.00     0.148 A 
ATOM     77  C   UNL     1       1.737 -11.558   2.442  1.00  0.00     0.002 A 
ATOM     78  C   UNL     1       0.288 -10.073   1.190  1.00  0.00     0.091 A 
ATOM     79  F   UNL     1       1.160  -8.935  -0.717  1.00  0.00    -0.205 F 
ATOM     80  C   UNL     1       0.485 -10.983   2.241  1.00  0.00     0.022 A 
BRANCH  78  81
ATOM     81  S   UNL     1      -1.318  -9.276   1.088  1.00  0.00     0.127 S 
ATOM     82  O   UNL     1      -2.165 -10.369   0.617  1.00  0.00    -0.237 OA
ATOM     83  O   UNL     1      -1.545  -8.874   2.477  1.00  0.00    -0.237 OA
ATOM     84  O   UNL     1      -1.146  -8.164   0.163  1.00  0.00    -0.744 OA
ENDBRANCH  78  81
ENDBRANCH  50  74
BRANCH  62  85
ATOM     85  C   UNL     1       6.588 -13.962  -3.912  1.00  0.00     0.023 A 
ATOM     86  C   UNL     1       5.553 -14.491  -4.708  1.00  0.00     0.012 A 
ATOM     87  C   UNL     1       7.676 -14.779  -3.552  1.00  0.00     0.148 A 
ATOM     88  C   UNL     1       5.583 -15.825  -5.109  1.00  0.00     0.002 A 
ATOM     89  C   UNL     1       7.728 -16.091  -4.002  1.00  0.00     0.091 A 
ATOM     90  F   UNL     1       8.642 -14.256  -2.782  1.00  0.00    -0.205 F 
ATOM     91  C   UNL     1       6.676 -16.620  -4.768  1.00  0.00     0.022 A 
BRANCH  89  92
ATOM     92  S   UNL     1       9.142 -17.155  -3.702  1.00  0.00     0.127 S 
ATOM     93  O   UNL     1       8.592 -18.115  -2.745  1.00  0.00    -0.237 OA
ATOM     94  O   UNL     1       9.404 -17.702  -5.033  1.00  0.00    -0.237 OA
ATOM     95  O   UNL     1      10.194 -16.292  -3.184  1.00  0.00    -0.744 OA
ENDBRANCH  89  92
ENDBRANCH  62  85
ENDBRANCH  36  37
ENDBRANCH  28  31
ENDBRANCH  26  27
ENDBRANCH  25  26
ENDBRANCH  24  25
ENDBRANCH  23  24
ENDBRANCH   3  23
TORSDOF 21
