REMARK SMILES CS(=O)(=O)c1ccc(C2=NN(c3ccc(C(=O)NCCCCNC(=O)c4ccc(-c5c6nc(c(-c7cccc(S(=O)(=O)[O-])c7F)c7ccc([nH]7)c(-c7cccc(S(=O)(=O)[O-])c7F)c7nc(c(-c8cccc(S(=O)(=O)[O-])c8F)c8ccc5[nH]8)C=C7)C=C6)cc4)cc3)[C@H](c3ccccc3)C2)cc1
REMARK SMILES IDX 20 1 19 2 18 3 16 4 17 5 15 7 12 8 13 9 90 10 14 11 89 12
REMARK SMILES IDX 11 13 9 14 10 15 98 16 91 17 8 18 5 19 6 20 100 21 7 22
REMARK SMILES IDX 99 23 2 24 1 25 3 26 4 27 92 28 93 29 97 30 94 31 96 32
REMARK SMILES IDX 95 33 21 34 22 35 23 36 24 37 25 39 26 40 27 41 88 42 28 43
REMARK SMILES IDX 87 44 29 45 30 46 31 47 81 48 32 49 86 50 80 51 82 52 33 53
REMARK SMILES IDX 85 54 79 55 78 56 34 58 66 59 46 60 65 61 47 62 50 63 64 64
REMARK SMILES IDX 83 65 48 66 49 67 63 69 84 70 51 71 35 72 36 73 44 74 37 75
REMARK SMILES IDX 39 76 45 77 38 78 40 79 41 80 42 81 43 82 67 83 68 84 76 85
REMARK SMILES IDX 69 86 71 87 77 88 70 89 72 90 73 91 74 92 75 93 52 94 53 95
REMARK SMILES IDX 61 96 54 97 56 98 62 99 55 100 57 101 58 102 59 103 60 104
REMARK H PARENT 18 6 23 38 82 57 50 68
REMARK Flexibility Score: inf
ROOT
ATOM      1  C   UNL     1       6.270   5.933 -12.932  1.00  0.00     0.023 C 
ENDROOT
BRANCH   1   2
ATOM      2  C   UNL     1       5.247   7.038 -12.664  1.00  0.00     0.116 C 
BRANCH   2   3
ATOM      3  N   UNL     1       3.942   6.686 -13.192  1.00  0.00    -0.352 N 
ATOM      4  C   UNL     1       2.813   6.227 -12.558  1.00  0.00     0.251 C 
ATOM      5  O   UNL     1       1.775   6.101 -13.204  1.00  0.00    -0.269 OA
ATOM      6  H   UNL     1       3.850   6.793 -14.167  1.00  0.00     0.163 HD
BRANCH   4   7
ATOM      7  C   UNL     1       2.794   5.944 -11.100  1.00  0.00     0.039 A 
ATOM      8  C   UNL     1       2.675   5.552  -8.315  1.00  0.00     0.060 A 
ATOM      9  C   UNL     1       1.578   6.076  -9.004  1.00  0.00     0.029 A 
ATOM     10  C   UNL     1       3.800   5.161  -9.043  1.00  0.00     0.029 A 
ATOM     11  C   UNL     1       1.632   6.266 -10.388  1.00  0.00     0.016 A 
ATOM     12  C   UNL     1       3.855   5.342 -10.424  1.00  0.00     0.016 A 
BRANCH   8  13
ATOM     13  N   UNL     1       2.667   5.406  -6.944  1.00  0.00    -0.257 N 
ATOM     14  C   UNL     1       2.133   4.432  -5.146  1.00  0.00     0.071 C 
ATOM     15  N   UNL     1       2.350   4.212  -6.404  1.00  0.00    -0.176 NA
ATOM     16  C   UNL     1       2.252   5.870  -4.710  1.00  0.00     0.091 C 
ATOM     17  C   UNL     1       2.865   6.487  -5.982  1.00  0.00     0.144 C 
BRANCH  14  18
ATOM     18  C   UNL     1       1.744   3.342  -4.236  1.00  0.00    -0.002 A 
ATOM     19  C   UNL     1       0.911   1.177  -2.704  1.00  0.00     0.067 A 
ATOM     20  C   UNL     1       1.837   0.973  -3.728  1.00  0.00     0.021 A 
ATOM     21  C   UNL     1       0.395   2.453  -2.443  1.00  0.00     0.021 A 
ATOM     22  C   UNL     1       2.247   2.060  -4.498  1.00  0.00     0.011 A 
ATOM     23  C   UNL     1       0.824   3.545  -3.204  1.00  0.00     0.011 A 
BRANCH  19  24
ATOM     24  S   UNL     1       0.329  -0.211  -1.760  1.00  0.00     0.175 S 
ATOM     25  C   UNL     1       1.051   0.047  -0.162  1.00  0.00     0.163 C 
ATOM     26  O   UNL     1       0.911  -1.412  -2.316  1.00  0.00    -0.224 OA
ATOM     27  O   UNL     1      -1.113  -0.064  -1.633  1.00  0.00    -0.224 OA
ENDBRANCH  19  24
ENDBRANCH  14  18
BRANCH  17  28
ATOM     28  C   UNL     1       4.337   6.893  -5.941  1.00  0.00    -0.023 A 
ATOM     29  C   UNL     1       5.255   6.427  -4.986  1.00  0.00     0.006 A 
ATOM     30  C   UNL     1       4.827   7.738  -6.958  1.00  0.00     0.006 A 
ATOM     31  C   UNL     1       6.602   6.807  -5.039  1.00  0.00     0.000 A 
ATOM     32  C   UNL     1       6.176   8.095  -7.026  1.00  0.00     0.000 A 
ATOM     33  C   UNL     1       7.063   7.634  -6.060  1.00  0.00     0.000 A 
ENDBRANCH  17  28
ENDBRANCH   8  13
ENDBRANCH   4   7
ENDBRANCH   2   3
ENDBRANCH   1   2
BRANCH   1  34
ATOM     34  C   UNL     1       6.793   5.889 -14.367  1.00  0.00     0.023 C 
BRANCH  34  35
ATOM     35  C   UNL     1       7.574   7.122 -14.804  1.00  0.00     0.116 C 
BRANCH  35  36
ATOM     36  N   UNL     1       8.737   7.394 -13.969  1.00  0.00    -0.352 N 
ATOM     37  C   UNL     1       9.950   7.916 -14.349  1.00  0.00     0.251 C 
ATOM     38  H   UNL     1       8.641   7.177 -13.013  1.00  0.00     0.163 HD
ATOM     39  O   UNL     1      10.874   7.995 -13.545  1.00  0.00    -0.269 OA
BRANCH  37  40
ATOM     40  C   UNL     1      10.136   8.342 -15.751  1.00  0.00     0.039 A 
ATOM     41  C   UNL     1      11.230   7.850 -16.468  1.00  0.00     0.014 A 
ATOM     42  C   UNL     1       9.196   9.170 -16.369  1.00  0.00     0.014 A 
ATOM     43  C   UNL     1      11.341   8.133 -17.830  1.00  0.00     0.010 A 
ATOM     44  C   UNL     1       9.270   9.389 -17.739  1.00  0.00     0.010 A 
ATOM     45  C   UNL     1      10.341   8.872 -18.484  1.00  0.00    -0.014 A 
BRANCH  45  46
ATOM     46  C   UNL     1      10.380   9.100 -19.951  1.00  0.00     0.031 A 
ATOM     47  C   UNL     1      10.483  10.497 -20.495  1.00  0.00     0.074 A 
ATOM     48  C   UNL     1      10.213   8.058 -20.790  1.00  0.00     0.049 A 
ATOM     49  N   UNL     1      10.453  10.902 -21.738  1.00  0.00    -0.248 NA
ATOM     50  C   UNL     1      10.605  11.587 -19.512  1.00  0.00     0.031 C 
ATOM     51  C   UNL     1      10.010   6.666 -20.381  1.00  0.00     0.029 A 
ATOM     52  N   UNL     1      10.152   8.013 -22.160  1.00  0.00    -0.354 N 
ATOM     53  C   UNL     1      10.511  12.289 -21.687  1.00  0.00     0.074 A 
ATOM     54  C   UNL     1      10.544  12.659 -20.289  1.00  0.00     0.031 C 
ATOM     55  C   UNL     1       9.842   5.906 -21.475  1.00  0.00     0.029 A 
ATOM     56  C   UNL     1       9.900   6.756 -22.660  1.00  0.00     0.049 A 
ATOM     57  H   UNL     1      10.276   8.805 -22.731  1.00  0.00     0.167 HD
ATOM     58  C   UNL     1      10.565  13.174 -22.710  1.00  0.00     0.034 A 
ATOM     59  C   UNL     1       9.727   6.337 -23.929  1.00  0.00     0.034 A 
ATOM     60  C   UNL     1      10.581  12.799 -24.098  1.00  0.00     0.049 A 
ATOM     61  C   UNL     1       9.848   7.333 -25.050  1.00  0.00     0.074 A 
ATOM     62  C   UNL     1      10.732  13.612 -25.207  1.00  0.00     0.029 A 
ATOM     63  N   UNL     1      10.435  11.503 -24.568  1.00  0.00    -0.354 N 
ATOM     64  N   UNL     1      10.078   8.622 -24.987  1.00  0.00    -0.248 NA
ATOM     65  C   UNL     1       9.726   6.812 -26.420  1.00  0.00     0.031 C 
ATOM     66  C   UNL     1      10.660  12.808 -26.350  1.00  0.00     0.029 A 
ATOM     67  C   UNL     1      10.486  11.493 -25.951  1.00  0.00     0.049 A 
ATOM     68  H   UNL     1      10.312  10.707 -24.002  1.00  0.00     0.167 HD
ATOM     69  C   UNL     1      10.164   9.060 -26.303  1.00  0.00     0.074 A 
ATOM     70  C   UNL     1       9.981   7.894 -27.143  1.00  0.00     0.031 C 
ATOM     71  C   UNL     1      10.360  10.317 -26.774  1.00  0.00     0.034 A 
BRANCH  58  72
ATOM     72  C   UNL     1      10.674  14.636 -22.362  1.00  0.00     0.023 A 
ATOM     73  C   UNL     1      11.876  15.131 -21.816  1.00  0.00     0.012 A 
ATOM     74  C   UNL     1       9.613  15.527 -22.616  1.00  0.00     0.148 A 
ATOM     75  C   UNL     1      12.009  16.480 -21.493  1.00  0.00     0.002 A 
ATOM     76  C   UNL     1       9.769  16.879 -22.333  1.00  0.00     0.091 A 
ATOM     77  F   UNL     1       8.469  15.036 -23.114  1.00  0.00    -0.205 F 
ATOM     78  C   UNL     1      10.960  17.355 -21.760  1.00  0.00     0.022 A 
BRANCH  76  79
ATOM     79  S   UNL     1       8.506  18.099 -22.714  1.00  0.00     0.127 S 
ATOM     80  O   UNL     1       7.987  18.411 -21.383  1.00  0.00    -0.237 OA
ATOM     81  O   UNL     1       9.287  19.172 -23.330  1.00  0.00    -0.237 OA
ATOM     82  O   UNL     1       7.571  17.438 -23.613  1.00  0.00    -0.744 OA
ENDBRANCH  76  79
ENDBRANCH  58  72
BRANCH  59  83
ATOM     83  C   UNL     1       9.491   4.892 -24.207  1.00  0.00     0.023 A 
ATOM     84  C   UNL     1      10.509   4.130 -24.813  1.00  0.00     0.012 A 
ATOM     85  C   UNL     1       8.285   4.262 -23.844  1.00  0.00     0.148 A 
ATOM     86  C   UNL     1      10.319   2.774 -25.081  1.00  0.00     0.002 A 
ATOM     87  C   UNL     1       8.123   2.899 -24.064  1.00  0.00     0.091 A 
ATOM     88  F   UNL     1       7.324   5.007 -23.279  1.00  0.00    -0.205 F 
ATOM     89  C   UNL     1       9.132   2.156 -24.697  1.00  0.00     0.022 A 
BRANCH  87  90
ATOM     90  S   UNL     1       6.684   1.994 -23.483  1.00  0.00     0.127 S 
ATOM     91  O   UNL     1       5.984   1.711 -24.733  1.00  0.00    -0.237 OA
ATOM     92  O   UNL     1       7.297   0.830 -22.841  1.00  0.00    -0.237 OA
ATOM     93  O   UNL     1       6.003   2.895 -22.562  1.00  0.00    -0.744 OA
ENDBRANCH  87  90
ENDBRANCH  59  83
BRANCH  71  94
ATOM     94  C   UNL     1      10.425  10.503 -28.267  1.00  0.00     0.023 A 
ATOM     95  C   UNL     1       9.248  10.417 -29.035  1.00  0.00     0.012 A 
ATOM     96  C   UNL     1      11.639  10.844 -28.895  1.00  0.00     0.148 A 
ATOM     97  C   UNL     1       9.282  10.641 -30.411  1.00  0.00     0.002 A 
ATOM     98  C   UNL     1      11.657  11.112 -30.259  1.00  0.00     0.091 A 
ATOM     99  F   UNL     1      12.752  10.901 -28.150  1.00  0.00    -0.205 F 
ATOM    100  C   UNL     1      10.482  11.000 -31.020  1.00  0.00     0.022 A 
BRANCH  98 101
ATOM    101  S   UNL     1      13.136  11.676 -31.108  1.00  0.00     0.127 S 
ATOM    102  O   UNL     1      13.516  10.486 -31.868  1.00  0.00    -0.237 OA
ATOM    103  O   UNL     1      12.627  12.781 -31.921  1.00  0.00    -0.237 OA
ATOM    104  O   UNL     1      14.070  12.076 -30.064  1.00  0.00    -0.744 OA
ENDBRANCH  98 101
ENDBRANCH  71  94
ENDBRANCH  45  46
ENDBRANCH  37  40
ENDBRANCH  35  36
ENDBRANCH  34  35
ENDBRANCH   1  34
TORSDOF 18
