REMARK SMILES CC(C)[C@H]1CC[C@@H](C)/C(=C/c2ccc(NC(=O)CCC(=O)NCCCCNC(=O)c3ccc(-c4c5nc(c(-c6cccc(S(=O)(=O)[O-])c6F)c6ccc([nH]6)c(-c6cccc(S(=O)(=O)[O-])c6F)c6nc(c(-c7cccc(S(=O)(=O)[O-])c7F)c7ccc4[nH]7)C=C6)C=C5)cc3)cc2)C1=O
REMARK SMILES IDX 23 1 22 2 20 3 21 4 19 6 18 7 16 8 15 9 17 11 14 12 11 13
REMARK SMILES IDX 12 14 94 15 13 16 93 17 10 18 4 19 5 20 95 21 6 22 9 23
REMARK SMILES IDX 96 24 7 25 8 26 2 27 1 28 3 29 24 30 25 31 26 32 27 33 28 34
REMARK SMILES IDX 29 36 30 37 31 38 92 39 32 40 91 41 33 42 34 43 35 44 85 45
REMARK SMILES IDX 36 46 90 47 84 48 86 49 37 50 89 51 83 52 82 53 38 55 70 56
REMARK SMILES IDX 50 57 69 58 51 59 54 60 68 61 87 62 52 63 53 64 67 66 88 67
REMARK SMILES IDX 55 68 39 69 40 70 48 71 41 72 43 73 49 74 42 75 44 76 45 77
REMARK SMILES IDX 46 78 47 79 71 80 72 81 80 82 73 83 75 84 81 85 74 86 76 87
REMARK SMILES IDX 77 88 78 89 79 90 56 91 57 92 65 93 58 94 60 95 66 96 59 97
REMARK SMILES IDX 61 98 62 99 63 100 64 101
REMARK H PARENT 22 5 15 10 27 35 86 54 54 65
REMARK Flexibility Score: inf
ROOT
ATOM      1  C   UNL     1       3.406   6.088  -2.088  1.00  0.00     0.116 C 
ENDROOT
BRANCH   1   2
ATOM      2  N   UNL     1       2.896   4.821  -2.580  1.00  0.00    -0.356 N 
ATOM      3  C   UNL     1       2.342   4.519  -3.788  1.00  0.00     0.220 C 
ATOM      4  O   UNL     1       2.148   3.339  -4.079  1.00  0.00    -0.275 OA
ATOM      5  H   UNL     1       2.961   4.069  -1.948  1.00  0.00     0.163 HD
BRANCH   3   6
ATOM      6  C   UNL     1       1.971   5.622  -4.752  1.00  0.00     0.110 C 
BRANCH   6   7
ATOM      7  C   UNL     1       0.529   6.104  -4.643  1.00  0.00     0.110 C 
BRANCH   7   8
ATOM      8  C   UNL     1       0.136   6.638  -3.282  1.00  0.00     0.224 C 
ATOM      9  N   UNL     1      -0.315   5.826  -2.282  1.00  0.00    -0.326 N 
ATOM     10  H   UNL     1      -0.560   6.290  -1.450  1.00  0.00     0.169 HD
ATOM     11  O   UNL     1       0.314   7.834  -3.024  1.00  0.00    -0.275 OA
BRANCH   9  12
ATOM     12  C   UNL     1      -0.485   4.437  -2.254  1.00  0.00     0.041 A 
ATOM     13  C   UNL     1      -0.604   1.643  -2.095  1.00  0.00    -0.025 A 
ATOM     14  C   UNL     1      -1.133   2.313  -3.202  1.00  0.00     0.010 A 
ATOM     15  C   UNL     1      -0.002   2.381  -1.074  1.00  0.00     0.010 A 
ATOM     16  C   UNL     1      -1.073   3.705  -3.281  1.00  0.00     0.027 A 
ATOM     17  C   UNL     1      -0.018   3.772  -1.120  1.00  0.00     0.027 A 
BRANCH  13  18
ATOM     18  C   UNL     1      -0.817   0.197  -1.983  1.00  0.00     0.015 C 
ATOM     19  C   UNL     1      -1.388  -0.161   1.597  1.00  0.00     0.063 C 
ATOM     20  C   UNL     1      -1.801  -1.639   1.689  1.00  0.00     0.013 C 
ATOM     21  C   UNL     1      -1.883   0.392   0.261  1.00  0.00     0.162 C 
ATOM     22  C   UNL     1      -1.318  -2.439   0.471  1.00  0.00     0.009 C 
ATOM     23  C   UNL     1      -1.442  -0.388  -0.945  1.00  0.00    -0.001 C 
ATOM     24  O   UNL     1      -2.577   1.395   0.130  1.00  0.00    -0.294 OA
ATOM     25  C   UNL     1      -1.788  -1.851  -0.868  1.00  0.00     0.020 C 
ATOM     26  C   UNL     1      -3.298  -2.027  -1.076  1.00  0.00     0.013 C 
BRANCH  19  27
ATOM     27  C   UNL     1      -1.780   0.711   2.818  1.00  0.00    -0.007 C 
ATOM     28  C   UNL     1      -3.280   0.984   2.964  1.00  0.00     0.008 C 
ATOM     29  C   UNL     1      -1.257   0.107   4.127  1.00  0.00     0.008 C 
ENDBRANCH  19  27
ENDBRANCH  13  18
ENDBRANCH   9  12
ENDBRANCH   7   8
ENDBRANCH   6   7
ENDBRANCH   3   6
ENDBRANCH   1   2
BRANCH   1  30
ATOM     30  C   UNL     1       2.807   6.520  -0.751  1.00  0.00     0.023 C 
BRANCH  30  31
ATOM     31  C   UNL     1       2.974   5.534   0.400  1.00  0.00     0.023 C 
BRANCH  31  32
ATOM     32  C   UNL     1       4.404   5.112   0.679  1.00  0.00     0.116 C 
BRANCH  32  33
ATOM     33  N   UNL     1       5.245   6.238   1.048  1.00  0.00    -0.352 N 
ATOM     34  C   UNL     1       5.937   6.448   2.212  1.00  0.00     0.251 C 
ATOM     35  H   UNL     1       5.328   6.946   0.369  1.00  0.00     0.163 HD
ATOM     36  O   UNL     1       6.425   7.556   2.442  1.00  0.00    -0.269 OA
BRANCH  34  37
ATOM     37  C   UNL     1       6.087   5.350   3.188  1.00  0.00     0.039 A 
ATOM     38  C   UNL     1       5.957   5.624   4.551  1.00  0.00     0.014 A 
ATOM     39  C   UNL     1       6.364   4.049   2.757  1.00  0.00     0.014 A 
ATOM     40  C   UNL     1       6.078   4.585   5.477  1.00  0.00     0.010 A 
ATOM     41  C   UNL     1       6.374   3.002   3.670  1.00  0.00     0.010 A 
ATOM     42  C   UNL     1       6.274   3.264   5.042  1.00  0.00    -0.014 A 
BRANCH  42  43
ATOM     43  C   UNL     1       6.442   2.152   6.011  1.00  0.00     0.031 A 
ATOM     44  C   UNL     1       7.731   1.370   6.040  1.00  0.00     0.074 A 
ATOM     45  C   UNL     1       5.420   1.803   6.816  1.00  0.00     0.049 A 
ATOM     46  N   UNL     1       8.068   0.361   6.800  1.00  0.00    -0.248 NA
ATOM     47  C   UNL     1       8.765   1.743   5.058  1.00  0.00     0.031 C 
ATOM     48  C   UNL     1       4.087   2.411   6.807  1.00  0.00     0.029 A 
ATOM     49  N   UNL     1       5.338   0.842   7.790  1.00  0.00    -0.354 N 
ATOM     50  C   UNL     1       9.322  -0.045   6.359  1.00  0.00     0.074 A 
ATOM     51  C   UNL     1       9.667   0.790   5.232  1.00  0.00     0.031 C 
ATOM     52  C   UNL     1       3.329   1.823   7.747  1.00  0.00     0.029 A 
ATOM     53  C   UNL     1       4.115   0.791   8.415  1.00  0.00     0.049 A 
ATOM     54  H   UNL     1       6.086   0.243   8.020  1.00  0.00     0.167 HD
ATOM     55  C   UNL     1      10.139  -0.995   6.874  1.00  0.00     0.034 A 
ATOM     56  C   UNL     1       3.685   0.013   9.428  1.00  0.00     0.034 A 
ATOM     57  C   UNL     1       9.823  -1.767   8.044  1.00  0.00     0.049 A 
ATOM     58  C   UNL     1       4.652  -0.954  10.058  1.00  0.00     0.074 A 
ATOM     59  C   UNL     1      10.613  -2.687   8.710  1.00  0.00     0.029 A 
ATOM     60  N   UNL     1       8.621  -1.697   8.731  1.00  0.00    -0.354 N 
ATOM     61  N   UNL     1       5.896  -1.208   9.731  1.00  0.00    -0.248 NA
ATOM     62  C   UNL     1       4.173  -1.703  11.228  1.00  0.00     0.031 C 
ATOM     63  C   UNL     1       9.884  -3.176   9.800  1.00  0.00     0.029 A 
ATOM     64  C   UNL     1       8.649  -2.549   9.820  1.00  0.00     0.049 A 
ATOM     65  H   UNL     1       7.860  -1.125   8.480  1.00  0.00     0.167 HD
ATOM     66  C   UNL     1       6.361  -2.116  10.676  1.00  0.00     0.074 A 
ATOM     67  C   UNL     1       5.270  -2.347  11.602  1.00  0.00     0.031 C 
ATOM     68  C   UNL     1       7.573  -2.718  10.762  1.00  0.00     0.034 A 
BRANCH  55  69
ATOM     69  C   UNL     1      11.481  -1.193   6.218  1.00  0.00     0.023 A 
ATOM     70  C   UNL     1      12.470  -0.195   6.346  1.00  0.00     0.012 A 
ATOM     71  C   UNL     1      11.782  -2.372   5.509  1.00  0.00     0.148 A 
ATOM     72  C   UNL     1      13.719  -0.347   5.747  1.00  0.00     0.002 A 
ATOM     73  C   UNL     1      13.046  -2.538   4.954  1.00  0.00     0.091 A 
ATOM     74  F   UNL     1      10.824  -3.301   5.375  1.00  0.00    -0.205 F 
ATOM     75  C   UNL     1      14.010  -1.521   5.060  1.00  0.00     0.022 A 
BRANCH  73  76
ATOM     76  S   UNL     1      13.547  -4.047   4.118  1.00  0.00     0.127 S 
ATOM     77  O   UNL     1      13.588  -3.612   2.723  1.00  0.00    -0.237 OA
ATOM     78  O   UNL     1      14.859  -4.308   4.713  1.00  0.00    -0.237 OA
ATOM     79  O   UNL     1      12.530  -5.038   4.437  1.00  0.00    -0.744 OA
ENDBRANCH  73  76
ENDBRANCH  55  69
BRANCH  56  80
ATOM     80  C   UNL     1       2.313   0.197   9.977  1.00  0.00     0.023 A 
ATOM     81  C   UNL     1       2.152   0.792  11.245  1.00  0.00     0.012 A 
ATOM     82  C   UNL     1       1.171  -0.178   9.246  1.00  0.00     0.148 A 
ATOM     83  C   UNL     1       0.881   0.979  11.789  1.00  0.00     0.002 A 
ATOM     84  C   UNL     1      -0.095   0.057   9.772  1.00  0.00     0.091 A 
ATOM     85  F   UNL     1       1.345  -0.745   8.044  1.00  0.00    -0.205 F 
ATOM     86  C   UNL     1      -0.242   0.620  11.049  1.00  0.00     0.022 A 
BRANCH  84  87
ATOM     87  S   UNL     1      -1.599  -0.261   8.842  1.00  0.00     0.127 S 
ATOM     88  O   UNL     1      -2.169  -1.391   9.574  1.00  0.00    -0.237 OA
ATOM     89  O   UNL     1      -2.322   1.002   8.998  1.00  0.00    -0.237 OA
ATOM     90  O   UNL     1      -1.168  -0.544   7.482  1.00  0.00    -0.744 OA
ENDBRANCH  84  87
ENDBRANCH  56  80
BRANCH  68  91
ATOM     91  C   UNL     1       7.800  -3.657  11.916  1.00  0.00     0.023 A 
ATOM     92  C   UNL     1       7.172  -4.918  11.926  1.00  0.00     0.012 A 
ATOM     93  C   UNL     1       8.682  -3.314  12.958  1.00  0.00     0.148 A 
ATOM     94  C   UNL     1       7.389  -5.808  12.976  1.00  0.00     0.002 A 
ATOM     95  C   UNL     1       8.931  -4.226  13.977  1.00  0.00     0.091 A 
ATOM     96  F   UNL     1       9.254  -2.101  12.944  1.00  0.00    -0.205 F 
ATOM     97  C   UNL     1       8.276  -5.468  13.995  1.00  0.00     0.022 A 
BRANCH  95  98
ATOM     98  S   UNL     1      10.133  -3.898  15.271  1.00  0.00     0.127 S 
ATOM     99  O   UNL     1       9.277  -3.467  16.373  1.00  0.00    -0.237 OA
ATOM    100  O   UNL     1      10.758  -5.208  15.460  1.00  0.00    -0.237 OA
ATOM    101  O   UNL     1      11.026  -2.883  14.728  1.00  0.00    -0.744 OA
ENDBRANCH  95  98
ENDBRANCH  68  91
ENDBRANCH  42  43
ENDBRANCH  34  37
ENDBRANCH  32  33
ENDBRANCH  31  32
ENDBRANCH  30  31
ENDBRANCH   1  30
TORSDOF 19
