REMARK SMILES CNc1nc(C(=O)N2C[C@@H](C(=O)NCCCCNC(=O)c3ccc(-c4c5nc(c(-c6cccc(S(=O)(=O)[O-])c6F)c6ccc([nH]6)c(-c6cccc(S(=O)(=O)[O-])c6F)c6nc(c(-c7cccc(S(=O)(=O)[O-])c7F)c7ccc4[nH]7)C=C6)C=C5)cc3)[C@H](c3ccccc3C)C2)cs1
REMARK SMILES IDX 15 1 14 2 13 3 11 4 12 5 10 7 8 8 9 9 92 10 84 11 6 12 7 13
REMARK SMILES IDX 5 14 3 15 4 16 94 17 93 18 2 19 1 20 85 22 86 23 90 24 87 25
REMARK SMILES IDX 89 26 91 27 88 28 16 29 17 30 18 31 19 32 20 34 21 35 22 36
REMARK SMILES IDX 83 37 23 38 82 39 24 40 25 41 26 42 76 43 27 44 81 45 75 46
REMARK SMILES IDX 77 47 28 48 80 49 74 50 73 51 29 53 61 54 41 55 60 56 42 57
REMARK SMILES IDX 45 58 59 59 78 60 43 61 44 62 58 64 79 65 46 66 30 67 31 68
REMARK SMILES IDX 39 69 32 70 34 71 40 72 33 73 35 74 36 75 37 76 38 77 62 78
REMARK SMILES IDX 63 79 71 80 64 81 66 82 72 83 65 84 67 85 68 86 69 87 70 88
REMARK SMILES IDX 47 89 48 90 56 91 49 92 51 93 57 94 50 95 52 96 53 97 54 98
REMARK SMILES IDX 55 99
REMARK H PARENT 13 6 2 21 18 33 77 52 45 63
REMARK Flexibility Score: inf
ROOT
ATOM      1  C   UNL     1      -1.848   3.078   0.140  1.00  0.00     0.023 C 
ENDROOT
BRANCH   1   2
ATOM      2  C   UNL     1      -2.252   2.363   1.425  1.00  0.00     0.116 C 
BRANCH   2   3
ATOM      3  N   UNL     1      -3.685   2.151   1.501  1.00  0.00    -0.356 N 
ATOM      4  C   UNL     1      -4.375   1.063   1.941  1.00  0.00     0.225 C 
ATOM      5  O   UNL     1      -5.604   1.124   1.983  1.00  0.00    -0.275 OA
ATOM      6  H   UNL     1      -4.239   2.903   1.190  1.00  0.00     0.163 HD
BRANCH   4   7
ATOM      7  C   UNL     1      -3.633  -0.196   2.310  1.00  0.00     0.107 C 
ATOM      8  N   UNL     1      -3.667  -2.466   1.908  1.00  0.00    -0.336 N 
ATOM      9  C   UNL     1      -3.953  -1.220   1.240  1.00  0.00     0.134 C 
ATOM     10  C   UNL     1      -4.131  -2.387   3.281  1.00  0.00     0.129 C 
ATOM     11  C   UNL     1      -4.103  -0.863   3.634  1.00  0.00     0.053 C 
BRANCH   8  12
ATOM     12  C   UNL     1      -2.989  -3.550   1.392  1.00  0.00     0.273 C 
ATOM     13  O   UNL     1      -3.095  -4.681   1.872  1.00  0.00    -0.267 OA
BRANCH  12  14
ATOM     14  C   UNL     1      -2.066  -3.279   0.281  1.00  0.00     0.141 A 
ATOM     15  C   UNL     1      -0.474  -2.119  -0.775  1.00  0.00     0.183 A 
ATOM     16  N   UNL     1      -1.302  -2.107   0.240  1.00  0.00    -0.215 NA
ATOM     17  S   UNL     1      -0.609  -3.501  -1.793  1.00  0.00    -0.105 S 
ATOM     18  C   UNL     1      -1.787  -4.165  -0.742  1.00  0.00     0.102 A 
BRANCH  15  19
ATOM     19  N   UNL     1       0.447  -1.170  -1.029  1.00  0.00    -0.365 N 
ATOM     20  C   UNL     1       0.659  -0.072  -0.122  1.00  0.00     0.142 C 
ATOM     21  H   UNL     1       0.985  -1.228  -1.851  1.00  0.00     0.162 HD
ENDBRANCH  15  19
ENDBRANCH  12  14
ENDBRANCH   8  12
BRANCH  11  22
ATOM     22  C   UNL     1      -3.224  -0.399   4.806  1.00  0.00    -0.039 A 
ATOM     23  C   UNL     1      -2.202  -1.224   5.318  1.00  0.00     0.004 A 
ATOM     24  C   UNL     1      -3.374   0.887   5.392  1.00  0.00    -0.048 A 
ATOM     25  C   UNL     1      -1.372  -0.811   6.367  1.00  0.00     0.000 A 
ATOM     26  C   UNL     1      -2.495   1.303   6.413  1.00  0.00     0.004 A 
ATOM     27  C   UNL     1      -4.401   1.905   4.966  1.00  0.00     0.044 C 
ATOM     28  C   UNL     1      -1.510   0.458   6.907  1.00  0.00     0.000 A 
ENDBRANCH  11  22
ENDBRANCH   4   7
ENDBRANCH   2   3
ENDBRANCH   1   2
BRANCH   1  29
ATOM     29  C   UNL     1      -2.378   4.504  -0.003  1.00  0.00     0.023 C 
BRANCH  29  30
ATOM     30  C   UNL     1      -2.008   5.450   1.134  1.00  0.00     0.116 C 
BRANCH  30  31
ATOM     31  N   UNL     1      -0.568   5.581   1.308  1.00  0.00    -0.352 N 
ATOM     32  C   UNL     1       0.207   6.716   1.323  1.00  0.00     0.251 C 
ATOM     33  H   UNL     1      -0.079   4.735   1.433  1.00  0.00     0.163 HD
ATOM     34  O   UNL     1       1.431   6.621   1.315  1.00  0.00    -0.269 OA
BRANCH  32  35
ATOM     35  C   UNL     1      -0.438   8.046   1.325  1.00  0.00     0.039 A 
ATOM     36  C   UNL     1       0.025   9.027   0.444  1.00  0.00     0.014 A 
ATOM     37  C   UNL     1      -1.503   8.321   2.188  1.00  0.00     0.014 A 
ATOM     38  C   UNL     1      -0.627  10.261   0.379  1.00  0.00     0.010 A 
ATOM     39  C   UNL     1      -2.194   9.523   2.071  1.00  0.00     0.010 A 
ATOM     40  C   UNL     1      -1.763  10.506   1.168  1.00  0.00    -0.014 A 
BRANCH  40  41
ATOM     41  C   UNL     1      -2.528  11.774   1.052  1.00  0.00     0.031 A 
ATOM     42  C   UNL     1      -2.631  12.707   2.228  1.00  0.00     0.074 A 
ATOM     43  C   UNL     1      -3.213  12.037  -0.078  1.00  0.00     0.049 A 
ATOM     44  N   UNL     1      -3.310  13.819   2.341  1.00  0.00    -0.248 NA
ATOM     45  C   UNL     1      -1.900  12.326   3.448  1.00  0.00     0.031 C 
ATOM     46  C   UNL     1      -3.264  11.171  -1.258  1.00  0.00     0.029 A 
ATOM     47  N   UNL     1      -4.025  13.094  -0.408  1.00  0.00    -0.354 N 
ATOM     48  C   UNL     1      -3.121  14.250   3.648  1.00  0.00     0.074 A 
ATOM     49  C   UNL     1      -2.289  13.262   4.301  1.00  0.00     0.031 C 
ATOM     50  C   UNL     1      -4.062  11.730  -2.181  1.00  0.00     0.029 A 
ATOM     51  C   UNL     1      -4.601  12.980  -1.652  1.00  0.00     0.049 A 
ATOM     52  H   UNL     1      -4.180  13.861   0.189  1.00  0.00     0.167 HD
ATOM     53  C   UNL     1      -3.571  15.379   4.244  1.00  0.00     0.034 A 
ATOM     54  C   UNL     1      -5.468  13.788  -2.294  1.00  0.00     0.034 A 
ATOM     55  C   UNL     1      -4.352  16.386   3.577  1.00  0.00     0.049 A 
ATOM     56  C   UNL     1      -5.908  15.064  -1.630  1.00  0.00     0.074 A 
ATOM     57  C   UNL     1      -4.773  17.611   4.064  1.00  0.00     0.029 A 
ATOM     58  N   UNL     1      -4.832  16.284   2.281  1.00  0.00    -0.354 N 
ATOM     59  N   UNL     1      -5.580  15.536  -0.452  1.00  0.00    -0.248 NA
ATOM     60  C   UNL     1      -6.808  15.938  -2.397  1.00  0.00     0.031 C 
ATOM     61  C   UNL     1      -5.520  18.245   3.066  1.00  0.00     0.029 A 
ATOM     62  C   UNL     1      -5.550  17.421   1.952  1.00  0.00     0.049 A 
ATOM     63  H   UNL     1      -4.685  15.517   1.683  1.00  0.00     0.167 HD
ATOM     64  C   UNL     1      -6.203  16.775  -0.350  1.00  0.00     0.074 A 
ATOM     65  C   UNL     1      -6.911  16.989  -1.595  1.00  0.00     0.031 C 
ATOM     66  C   UNL     1      -6.202  17.648   0.687  1.00  0.00     0.034 A 
BRANCH  53  67
ATOM     67  C   UNL     1      -3.173  15.619   5.677  1.00  0.00     0.023 A 
ATOM     68  C   UNL     1      -1.839  15.969   5.974  1.00  0.00     0.012 A 
ATOM     69  C   UNL     1      -4.119  15.555   6.718  1.00  0.00     0.148 A 
ATOM     70  C   UNL     1      -1.445  16.217   7.288  1.00  0.00     0.002 A 
ATOM     71  C   UNL     1      -3.727  15.845   8.021  1.00  0.00     0.091 A 
ATOM     72  F   UNL     1      -5.376  15.198   6.420  1.00  0.00    -0.205 F 
ATOM     73  C   UNL     1      -2.390  16.165   8.308  1.00  0.00     0.022 A 
BRANCH  71  74
ATOM     74  S   UNL     1      -4.886  15.878   9.393  1.00  0.00     0.127 S 
ATOM     75  O   UNL     1      -4.543  14.644  10.099  1.00  0.00    -0.237 OA
ATOM     76  O   UNL     1      -4.505  17.106  10.091  1.00  0.00    -0.237 OA
ATOM     77  O   UNL     1      -6.213  15.911   8.793  1.00  0.00    -0.744 OA
ENDBRANCH  71  74
ENDBRANCH  53  67
BRANCH  54  78
ATOM     78  C   UNL     1      -5.912  13.451  -3.676  1.00  0.00     0.023 A 
ATOM     79  C   UNL     1      -5.438  14.219  -4.757  1.00  0.00     0.012 A 
ATOM     80  C   UNL     1      -6.765  12.360  -3.930  1.00  0.00     0.148 A 
ATOM     81  C   UNL     1      -5.827  13.926  -6.064  1.00  0.00     0.002 A 
ATOM     82  C   UNL     1      -7.107  12.040  -5.240  1.00  0.00     0.091 A 
ATOM     83  F   UNL     1      -7.216  11.649  -2.888  1.00  0.00    -0.205 F 
ATOM     84  C   UNL     1      -6.652  12.831  -6.306  1.00  0.00     0.022 A 
BRANCH  82  85
ATOM     85  S   UNL     1      -8.054  10.570  -5.654  1.00  0.00     0.127 S 
ATOM     86  O   UNL     1      -9.346  11.141  -6.023  1.00  0.00    -0.237 OA
ATOM     87  O   UNL     1      -7.283  10.016  -6.768  1.00  0.00    -0.237 OA
ATOM     88  O   UNL     1      -8.041   9.747  -4.452  1.00  0.00    -0.744 OA
ENDBRANCH  82  85
ENDBRANCH  54  78
BRANCH  66  89
ATOM     89  C   UNL     1      -6.964  18.936   0.518  1.00  0.00     0.023 A 
ATOM     90  C   UNL     1      -8.372  18.924   0.560  1.00  0.00     0.012 A 
ATOM     91  C   UNL     1      -6.285  20.165   0.400  1.00  0.00     0.148 A 
ATOM     92  C   UNL     1      -9.094  20.112   0.458  1.00  0.00     0.002 A 
ATOM     93  C   UNL     1      -7.010  21.349   0.345  1.00  0.00     0.091 A 
ATOM     94  F   UNL     1      -4.946  20.154   0.342  1.00  0.00    -0.205 F 
ATOM     95  C   UNL     1      -8.414  21.324   0.363  1.00  0.00     0.022 A 
BRANCH  93  96
ATOM     96  S   UNL     1      -6.215  22.960   0.317  1.00  0.00     0.127 S 
ATOM     97  O   UNL     1      -6.396  23.358  -1.078  1.00  0.00    -0.237 OA
ATOM     98  O   UNL     1      -7.017  23.721   1.276  1.00  0.00    -0.237 OA
ATOM     99  O   UNL     1      -4.838  22.732   0.732  1.00  0.00    -0.744 OA
ENDBRANCH  93  96
ENDBRANCH  66  89
ENDBRANCH  40  41
ENDBRANCH  32  35
ENDBRANCH  30  31
ENDBRANCH  29  30
ENDBRANCH   1  29
TORSDOF 18
