REMARK SMILES Cc1ccc(-c2cnnc(-n3nc(C)c4c3NC(=O)C[C@@H]4c3ccc(C(=O)NCCCCNC(=O)c4ccc(-c5c6nc(c(-c7cccc(S(=O)(=O)[O-])c7F)c7ccc([nH]7)c(-c7cccc(S(=O)(=O)[O-])c7F)c7nc(c(-c8cccc(S(=O)(=O)[O-])c8F)c8ccc5[nH]8)C=C7)C=C6)cc4)cc3)n2)cc1
REMARK SMILES IDX 30 1 29 2 28 3 26 4 27 5 25 7 22 8 23 9 100 10 24 11 99 12
REMARK SMILES IDX 21 13 11 14 12 15 16 16 13 17 15 18 17 19 14 20 18 21 20 23
REMARK SMILES IDX 19 24 10 25 6 26 7 27 101 28 8 29 9 30 5 31 1 32 2 33 3 34
REMARK SMILES IDX 103 35 4 36 102 37 31 38 32 39 33 40 34 41 35 43 36 44 37 45
REMARK SMILES IDX 98 46 38 47 97 48 39 49 40 50 41 51 91 52 42 53 96 54 90 55
REMARK SMILES IDX 92 56 43 57 95 58 89 59 88 60 44 62 76 63 56 64 75 65 57 66
REMARK SMILES IDX 60 67 74 68 93 69 58 70 59 71 73 73 94 74 61 75 45 76 46 77
REMARK SMILES IDX 54 78 47 79 49 80 55 81 48 82 50 83 51 84 52 85 53 86 77 87
REMARK SMILES IDX 78 88 86 89 79 90 81 91 87 92 80 93 82 94 83 95 84 96 85 97
REMARK SMILES IDX 62 98 63 99 71 100 64 101 66 102 72 103 65 104 67 105 68 106
REMARK SMILES IDX 69 107 70 108
REMARK H PARENT 28 6 17 22 33 42 92 61 60 72
REMARK Flexibility Score: inf
ROOT
ATOM      1  C   UNL     1     -10.902   7.051  -5.797  1.00  0.00     0.023 C 
ENDROOT
BRANCH   1   2
ATOM      2  C   UNL     1     -11.556   5.765  -6.335  1.00  0.00     0.116 C 
BRANCH   2   3
ATOM      3  N   UNL     1     -11.432   5.604  -7.780  1.00  0.00    -0.352 N 
ATOM      4  C   UNL     1     -10.620   4.809  -8.558  1.00  0.00     0.251 C 
ATOM      5  O   UNL     1     -10.825   4.735  -9.768  1.00  0.00    -0.269 OA
ATOM      6  H   UNL     1     -12.047   6.172  -8.298  1.00  0.00     0.163 HD
BRANCH   4   7
ATOM      7  C   UNL     1      -9.526   3.998  -7.975  1.00  0.00     0.039 A 
ATOM      8  C   UNL     1      -7.704   2.297  -6.673  1.00  0.00    -0.040 A 
ATOM      9  C   UNL     1      -8.341   1.891  -7.859  1.00  0.00     0.005 A 
ATOM     10  C   UNL     1      -7.838   3.633  -6.286  1.00  0.00     0.005 A 
ATOM     11  C   UNL     1      -9.243   2.739  -8.510  1.00  0.00     0.014 A 
ATOM     12  C   UNL     1      -8.747   4.464  -6.925  1.00  0.00     0.014 A 
BRANCH   8  13
ATOM     13  C   UNL     1      -6.948   1.268  -5.862  1.00  0.00     0.064 C 
ATOM     14  N   UNL     1      -5.819   2.101  -2.524  1.00  0.00    -0.180 N 
ATOM     15  N   UNL     1      -7.103   2.497  -2.319  1.00  0.00    -0.168 NA
ATOM     16  C   UNL     1      -5.583   2.070  -3.888  1.00  0.00     0.143 A 
ATOM     17  C   UNL     1      -7.736   2.155  -3.446  1.00  0.00     0.066 A 
ATOM     18  C   UNL     1      -6.806   1.739  -4.446  1.00  0.00     0.026 A 
ATOM     19  N   UNL     1      -4.494   2.342  -4.699  1.00  0.00    -0.310 N 
ATOM     20  C   UNL     1      -9.198   2.410  -3.516  1.00  0.00     0.069 C 
ATOM     21  C   UNL     1      -4.604   2.029  -6.094  1.00  0.00     0.226 C 
ATOM     22  H   UNL     1      -3.671   2.737  -4.330  1.00  0.00     0.171 HD
ATOM     23  C   UNL     1      -5.578   0.943  -6.457  1.00  0.00     0.113 C 
ATOM     24  O   UNL     1      -3.825   2.584  -6.864  1.00  0.00    -0.275 OA
BRANCH  14  25
ATOM     25  C   UNL     1      -5.121   1.381  -1.506  1.00  0.00     0.272 A 
ATOM     26  C   UNL     1      -3.300   0.330  -0.617  1.00  0.00     0.095 A 
ATOM     27  C   UNL     1      -4.122  -0.285   0.313  1.00  0.00     0.164 A 
ATOM     28  N   UNL     1      -3.793   1.142  -1.598  1.00  0.00    -0.208 NA
ATOM     29  N   UNL     1      -5.436  -0.048   0.336  1.00  0.00    -0.153 NA
ATOM     30  N   UNL     1      -5.929   0.832  -0.559  1.00  0.00    -0.109 NA
BRANCH  26  31
ATOM     31  C   UNL     1      -1.842   0.219  -0.496  1.00  0.00     0.002 A 
ATOM     32  C   UNL     1       2.444  -0.032   0.072  1.00  0.00     0.044 C 
ATOM     33  C   UNL     1       0.957   0.062  -0.096  1.00  0.00    -0.051 A 
ATOM     34  C   UNL     1       0.185  -1.102  -0.171  1.00  0.00     0.004 A 
ATOM     35  C   UNL     1       0.324   1.303  -0.202  1.00  0.00     0.004 A 
ATOM     36  C   UNL     1      -1.198  -1.024  -0.366  1.00  0.00     0.011 A 
ATOM     37  C   UNL     1      -1.056   1.379  -0.403  1.00  0.00     0.011 A 
ENDBRANCH  26  31
ENDBRANCH  14  25
ENDBRANCH   8  13
ENDBRANCH   4   7
ENDBRANCH   2   3
ENDBRANCH   1   2
BRANCH   1  38
ATOM     38  C   UNL     1     -11.329   8.377  -6.443  1.00  0.00     0.023 C 
BRANCH  38  39
ATOM     39  C   UNL     1     -12.752   8.797  -6.145  1.00  0.00     0.116 C 
BRANCH  39  40
ATOM     40  N   UNL     1     -12.935   9.071  -4.722  1.00  0.00    -0.352 N 
ATOM     41  C   UNL     1     -14.089   9.450  -4.063  1.00  0.00     0.251 C 
ATOM     42  H   UNL     1     -12.132   8.974  -4.160  1.00  0.00     0.163 HD
ATOM     43  O   UNL     1     -13.999  10.303  -3.188  1.00  0.00    -0.269 OA
BRANCH  41  44
ATOM     44  C   UNL     1     -15.356   8.748  -4.349  1.00  0.00     0.039 A 
ATOM     45  C   UNL     1     -16.532   9.023  -3.643  1.00  0.00     0.014 A 
ATOM     46  C   UNL     1     -15.304   7.628  -5.165  1.00  0.00     0.014 A 
ATOM     47  C   UNL     1     -17.522   8.043  -3.605  1.00  0.00     0.010 A 
ATOM     48  C   UNL     1     -16.393   6.872  -5.405  1.00  0.00     0.010 A 
ATOM     49  C   UNL     1     -17.357   6.930  -4.420  1.00  0.00    -0.014 A 
BRANCH  49  50
ATOM     50  C   UNL     1     -18.025   5.655  -4.322  1.00  0.00     0.031 A 
ATOM     51  C   UNL     1     -19.351   5.567  -4.924  1.00  0.00     0.074 A 
ATOM     52  C   UNL     1     -17.201   4.605  -4.070  1.00  0.00     0.049 A 
ATOM     53  N   UNL     1     -20.166   4.596  -4.747  1.00  0.00    -0.248 NA
ATOM     54  C   UNL     1     -19.873   6.632  -5.777  1.00  0.00     0.031 C 
ATOM     55  C   UNL     1     -17.329   3.220  -4.501  1.00  0.00     0.029 A 
ATOM     56  N   UNL     1     -15.966   4.579  -3.413  1.00  0.00    -0.354 N 
ATOM     57  C   UNL     1     -21.140   4.734  -5.714  1.00  0.00     0.074 A 
ATOM     58  C   UNL     1     -21.025   6.093  -6.175  1.00  0.00     0.031 C 
ATOM     59  C   UNL     1     -16.427   2.471  -3.833  1.00  0.00     0.029 A 
ATOM     60  C   UNL     1     -15.826   3.326  -2.820  1.00  0.00     0.049 A 
ATOM     61  H   UNL     1     -15.312   5.314  -3.377  1.00  0.00     0.167 HD
ATOM     62  C   UNL     1     -21.757   3.607  -6.165  1.00  0.00     0.034 A 
ATOM     63  C   UNL     1     -15.959   3.142  -1.466  1.00  0.00     0.034 A 
ATOM     64  C   UNL     1     -21.235   2.432  -5.428  1.00  0.00     0.049 A 
ATOM     65  C   UNL     1     -17.235   2.374  -1.130  1.00  0.00     0.074 A 
ATOM     66  C   UNL     1     -20.262   1.496  -5.748  1.00  0.00     0.029 A 
ATOM     67  N   UNL     1     -21.417   2.340  -4.047  1.00  0.00    -0.354 N 
ATOM     68  N   UNL     1     -18.191   2.147  -1.990  1.00  0.00    -0.248 NA
ATOM     69  C   UNL     1     -17.526   1.786   0.175  1.00  0.00     0.031 C 
ATOM     70  C   UNL     1     -19.779   0.931  -4.532  1.00  0.00     0.029 A 
ATOM     71  C   UNL     1     -20.473   1.494  -3.473  1.00  0.00     0.049 A 
ATOM     72  H   UNL     1     -22.121   2.812  -3.546  1.00  0.00     0.167 HD
ATOM     73  C   UNL     1     -19.235   1.510  -1.389  1.00  0.00     0.074 A 
ATOM     74  C   UNL     1     -18.737   1.242  -0.046  1.00  0.00     0.031 C 
ATOM     75  C   UNL     1     -20.431   1.296  -2.022  1.00  0.00     0.034 A 
BRANCH  62  76
ATOM     76  C   UNL     1     -22.532   3.494  -7.475  1.00  0.00     0.023 A 
ATOM     77  C   UNL     1     -22.764   2.188  -7.961  1.00  0.00     0.012 A 
ATOM     78  C   UNL     1     -23.019   4.543  -8.296  1.00  0.00     0.148 A 
ATOM     79  C   UNL     1     -23.361   1.937  -9.203  1.00  0.00     0.002 A 
ATOM     80  C   UNL     1     -23.579   4.299  -9.555  1.00  0.00     0.091 A 
ATOM     81  F   UNL     1     -23.020   5.799  -7.854  1.00  0.00    -0.205 F 
ATOM     82  C   UNL     1     -23.748   2.993 -10.013  1.00  0.00     0.022 A 
BRANCH  80  83
ATOM     83  S   UNL     1     -24.087   5.622 -10.674  1.00  0.00     0.127 S 
ATOM     84  O   UNL     1     -23.360   5.284 -11.899  1.00  0.00    -0.237 OA
ATOM     85  O   UNL     1     -25.534   5.425 -10.751  1.00  0.00    -0.237 OA
ATOM     86  O   UNL     1     -23.663   6.872 -10.055  1.00  0.00    -0.744 OA
ENDBRANCH  80  83
ENDBRANCH  62  76
BRANCH  63  87
ATOM     87  C   UNL     1     -15.396   4.284  -0.672  1.00  0.00     0.023 A 
ATOM     88  C   UNL     1     -14.009   4.532  -0.828  1.00  0.00     0.012 A 
ATOM     89  C   UNL     1     -16.222   5.329  -0.225  1.00  0.00     0.148 A 
ATOM     90  C   UNL     1     -13.509   5.834  -0.778  1.00  0.00     0.002 A 
ATOM     91  C   UNL     1     -15.713   6.626  -0.170  1.00  0.00     0.091 A 
ATOM     92  F   UNL     1     -17.499   5.059   0.074  1.00  0.00    -0.205 F 
ATOM     93  C   UNL     1     -14.375   6.889  -0.508  1.00  0.00     0.022 A 
BRANCH  91  94
ATOM     94  S   UNL     1     -16.783   8.022   0.207  1.00  0.00     0.127 S 
ATOM     95  O   UNL     1     -16.653   8.107   1.659  1.00  0.00    -0.237 OA
ATOM     96  O   UNL     1     -16.154   9.121  -0.523  1.00  0.00    -0.237 OA
ATOM     97  O   UNL     1     -18.089   7.636  -0.306  1.00  0.00    -0.744 OA
ENDBRANCH  91  94
ENDBRANCH  63  87
BRANCH  75  98
ATOM     98  C   UNL     1     -21.681   0.840  -1.304  1.00  0.00     0.023 A 
ATOM     99  C   UNL     1     -21.876   1.074   0.071  1.00  0.00     0.012 A 
ATOM    100  C   UNL     1     -22.768   0.280  -2.020  1.00  0.00     0.148 A 
ATOM    101  C   UNL     1     -23.037   0.665   0.731  1.00  0.00     0.002 A 
ATOM    102  C   UNL     1     -23.971   0.001  -1.384  1.00  0.00     0.091 A 
ATOM    103  F   UNL     1     -22.634  -0.010  -3.322  1.00  0.00    -0.205 F 
ATOM    104  C   UNL     1     -24.093   0.144  -0.000  1.00  0.00     0.022 A 
BRANCH 102 105
ATOM    105  S   UNL     1     -25.451  -0.399  -2.320  1.00  0.00     0.127 S 
ATOM    106  O   UNL     1     -25.503  -1.853  -2.192  1.00  0.00    -0.237 OA
ATOM    107  O   UNL     1     -26.489   0.319  -1.577  1.00  0.00    -0.237 OA
ATOM    108  O   UNL     1     -25.214   0.117  -3.662  1.00  0.00    -0.744 OA
ENDBRANCH 102 105
ENDBRANCH  75  98
ENDBRANCH  49  50
ENDBRANCH  41  44
ENDBRANCH  39  40
ENDBRANCH  38  39
ENDBRANCH   1  38
TORSDOF 17
