REMARK SMILES CNc1nccc(-c2cc(C(=O)NCCCCNC(=O)c3ccc(-c4c5nc(c(-c6cccc(S(=O)(=O)[O-])c6F)c6ccc([nH]6)c(-c6cccc(S(=O)(=O)[O-])c6F)c6nc(c(-c7cccc(S(=O)(=O)[O-])c7F)c7ccc4[nH]7)C=C6)C=C5)cc3)ccn2)n1
REMARK SMILES IDX 16 1 15 2 14 3 13 4 11 5 12 6 10 8 8 9 9 10 86 11 85 12
REMARK SMILES IDX 84 13 7 14 3 15 4 16 87 17 5 18 6 19 2 20 1 21 17 23 18 24
REMARK SMILES IDX 19 25 20 27 21 28 22 29 83 30 23 31 82 32 24 33 25 34 26 35
REMARK SMILES IDX 76 36 27 37 81 38 75 39 77 40 28 41 80 42 74 43 73 44 29 46
REMARK SMILES IDX 61 47 41 48 60 49 42 50 45 51 59 52 78 53 43 54 44 55 58 57
REMARK SMILES IDX 79 58 46 59 30 60 31 61 39 62 32 63 34 64 40 65 33 66 35 67
REMARK SMILES IDX 36 68 37 69 38 70 62 71 63 72 71 73 64 74 66 75 72 76 65 77
REMARK SMILES IDX 67 78 68 79 69 80 70 81 47 82 48 83 56 84 49 85 51 86 57 87
REMARK SMILES IDX 50 88 52 89 53 90 54 91 55 92
REMARK H PARENT 13 7 2 22 18 26 77 45 45 56
REMARK Flexibility Score: inf
ROOT
ATOM      1  C   UNL     1      -0.682   4.283   6.985  1.00  0.00     0.023 C 
ENDROOT
BRANCH   1   2
ATOM      2  C   UNL     1      -1.201   3.169   6.071  1.00  0.00     0.023 C 
BRANCH   2   3
ATOM      3  C   UNL     1      -2.566   2.607   6.480  1.00  0.00     0.116 C 
BRANCH   3   4
ATOM      4  N   UNL     1      -3.635   3.467   6.008  1.00  0.00    -0.352 N 
ATOM      5  C   UNL     1      -4.416   3.446   4.881  1.00  0.00     0.251 C 
ATOM      6  O   UNL     1      -5.280   4.317   4.766  1.00  0.00    -0.269 OA
ATOM      7  H   UNL     1      -3.840   4.212   6.617  1.00  0.00     0.163 HD
BRANCH   5   8
ATOM      8  C   UNL     1      -4.327   2.395   3.829  1.00  0.00     0.043 A 
ATOM      9  C   UNL     1      -3.287   0.576   2.656  1.00  0.00     0.090 A 
ATOM     10  C   UNL     1      -3.195   1.633   3.558  1.00  0.00     0.044 A 
ATOM     11  N   UNL     1      -4.414   0.317   1.950  1.00  0.00    -0.255 NA
ATOM     12  C   UNL     1      -5.466   1.138   2.143  1.00  0.00     0.112 A 
ATOM     13  C   UNL     1      -5.478   2.160   3.074  1.00  0.00     0.034 A 
BRANCH   9  14
ATOM     14  C   UNL     1      -2.213  -0.422   2.581  1.00  0.00     0.094 A 
ATOM     15  C   UNL     1      -0.289  -1.166   1.577  1.00  0.00     0.222 A 
ATOM     16  N   UNL     1      -0.153  -2.175   2.449  1.00  0.00    -0.222 NA
ATOM     17  N   UNL     1      -1.286  -0.271   1.611  1.00  0.00    -0.211 NA
ATOM     18  C   UNL     1      -1.077  -2.278   3.417  1.00  0.00     0.117 A 
ATOM     19  C   UNL     1      -2.139  -1.422   3.532  1.00  0.00     0.051 A 
BRANCH  15  20
ATOM     20  N   UNL     1       0.709  -1.064   0.649  1.00  0.00    -0.357 N 
ATOM     21  C   UNL     1       0.848   0.097  -0.176  1.00  0.00     0.143 C 
ATOM     22  H   UNL     1       1.347  -1.807   0.546  1.00  0.00     0.163 HD
ENDBRANCH  15  20
ENDBRANCH   9  14
ENDBRANCH   5   8
ENDBRANCH   3   4
ENDBRANCH   2   3
ENDBRANCH   1   2
BRANCH   1  23
ATOM     23  C   UNL     1      -0.386   3.852   8.418  1.00  0.00     0.116 C 
BRANCH  23  24
ATOM     24  N   UNL     1       0.580   2.767   8.505  1.00  0.00    -0.352 N 
ATOM     25  C   UNL     1       1.451   2.479   9.530  1.00  0.00     0.251 C 
ATOM     26  H   UNL     1       0.615   2.161   7.730  1.00  0.00     0.163 HD
ATOM     27  O   UNL     1       2.272   1.580   9.404  1.00  0.00    -0.269 OA
BRANCH  25  28
ATOM     28  C   UNL     1       1.414   3.294  10.763  1.00  0.00     0.039 A 
ATOM     29  C   UNL     1       2.612   3.814  11.259  1.00  0.00     0.014 A 
ATOM     30  C   UNL     1       0.204   3.569  11.405  1.00  0.00     0.014 A 
ATOM     31  C   UNL     1       2.589   4.660  12.369  1.00  0.00     0.010 A 
ATOM     32  C   UNL     1       0.176   4.469  12.466  1.00  0.00     0.010 A 
ATOM     33  C   UNL     1       1.367   5.018  12.963  1.00  0.00    -0.014 A 
BRANCH  33  34
ATOM     34  C   UNL     1       1.318   5.981  14.090  1.00  0.00     0.031 A 
ATOM     35  C   UNL     1       0.812   5.553  15.439  1.00  0.00     0.074 A 
ATOM     36  C   UNL     1       1.635   7.272  13.871  1.00  0.00     0.049 A 
ATOM     37  N   UNL     1       0.684   6.259  16.532  1.00  0.00    -0.248 NA
ATOM     38  C   UNL     1       0.356   4.160  15.569  1.00  0.00     0.031 C 
ATOM     39  C   UNL     1       2.022   7.838  12.577  1.00  0.00     0.029 A 
ATOM     40  N   UNL     1       1.649   8.348  14.722  1.00  0.00    -0.354 N 
ATOM     41  C   UNL     1       0.097   5.413  17.464  1.00  0.00     0.074 A 
ATOM     42  C   UNL     1      -0.141   4.152  16.797  1.00  0.00     0.031 C 
ATOM     43  C   UNL     1       2.230   9.156  12.719  1.00  0.00     0.029 A 
ATOM     44  C   UNL     1       1.981   9.532  14.108  1.00  0.00     0.049 A 
ATOM     45  H   UNL     1       1.441   8.279  15.682  1.00  0.00     0.167 HD
ATOM     46  C   UNL     1      -0.186   5.650  18.767  1.00  0.00     0.034 A 
ATOM     47  C   UNL     1       2.076  10.781  14.605  1.00  0.00     0.034 A 
ATOM     48  C   UNL     1       0.105   6.887  19.439  1.00  0.00     0.049 A 
ATOM     49  C   UNL     1       1.854  11.001  16.076  1.00  0.00     0.074 A 
ATOM     50  C   UNL     1      -0.015   7.186  20.785  1.00  0.00     0.029 A 
ATOM     51  N   UNL     1       0.566   8.036  18.814  1.00  0.00    -0.354 N 
ATOM     52  N   UNL     1       1.505  10.133  16.994  1.00  0.00    -0.248 NA
ATOM     53  C   UNL     1       2.085  12.359  16.590  1.00  0.00     0.031 C 
ATOM     54  C   UNL     1       0.357   8.523  20.970  1.00  0.00     0.029 A 
ATOM     55  C   UNL     1       0.724   9.051  19.742  1.00  0.00     0.049 A 
ATOM     56  H   UNL     1       0.753   8.118  17.851  1.00  0.00     0.167 HD
ATOM     57  C   UNL     1       1.497  10.829  18.197  1.00  0.00     0.074 A 
ATOM     58  C   UNL     1       1.902  12.187  17.893  1.00  0.00     0.031 C 
ATOM     59  C   UNL     1       1.170  10.387  19.436  1.00  0.00     0.034 A 
BRANCH  46  60
ATOM     60  C   UNL     1      -0.786   4.520  19.562  1.00  0.00     0.023 A 
ATOM     61  C   UNL     1       0.007   3.399  19.883  1.00  0.00     0.012 A 
ATOM     62  C   UNL     1      -2.119   4.573  20.014  1.00  0.00     0.148 A 
ATOM     63  C   UNL     1      -0.528   2.328  20.597  1.00  0.00     0.002 A 
ATOM     64  C   UNL     1      -2.632   3.521  20.765  1.00  0.00     0.091 A 
ATOM     65  F   UNL     1      -2.869   5.632  19.681  1.00  0.00    -0.205 F 
ATOM     66  C   UNL     1      -1.843   2.393  21.046  1.00  0.00     0.022 A 
BRANCH  64  67
ATOM     67  S   UNL     1      -4.293   3.555  21.449  1.00  0.00     0.127 S 
ATOM     68  O   UNL     1      -5.022   2.718  20.498  1.00  0.00    -0.237 OA
ATOM     69  O   UNL     1      -4.101   2.951  22.769  1.00  0.00    -0.237 OA
ATOM     70  O   UNL     1      -4.675   4.960  21.481  1.00  0.00    -0.744 OA
ENDBRANCH  64  67
ENDBRANCH  46  60
BRANCH  47  71
ATOM     71  C   UNL     1       2.485  11.893  13.703  1.00  0.00     0.023 A 
ATOM     72  C   UNL     1       3.787  12.421  13.802  1.00  0.00     0.012 A 
ATOM     73  C   UNL     1       1.622  12.369  12.697  1.00  0.00     0.148 A 
ATOM     74  C   UNL     1       4.217  13.417  12.925  1.00  0.00     0.002 A 
ATOM     75  C   UNL     1       2.075  13.323  11.793  1.00  0.00     0.091 A 
ATOM     76  F   UNL     1       0.386  11.856  12.627  1.00  0.00    -0.205 F 
ATOM     77  C   UNL     1       3.367  13.859  11.914  1.00  0.00     0.022 A 
BRANCH  75  78
ATOM     78  S   UNL     1       1.104  13.847  10.375  1.00  0.00     0.127 S 
ATOM     79  O   UNL     1       0.795  15.232  10.720  1.00  0.00    -0.237 OA
ATOM     80  O   UNL     1       2.060  13.683   9.279  1.00  0.00    -0.237 OA
ATOM     81  O   UNL     1      -0.034  12.941  10.320  1.00  0.00    -0.744 OA
ENDBRANCH  75  78
ENDBRANCH  47  71
BRANCH  59  82
ATOM     82  C   UNL     1       1.243  11.373  20.573  1.00  0.00     0.023 A 
ATOM     83  C   UNL     1       0.258  12.373  20.690  1.00  0.00     0.012 A 
ATOM     84  C   UNL     1       2.233  11.256  21.568  1.00  0.00     0.148 A 
ATOM     85  C   UNL     1       0.272  13.258  21.767  1.00  0.00     0.002 A 
ATOM     86  C   UNL     1       2.214  12.113  22.662  1.00  0.00     0.091 A 
ATOM     87  F   UNL     1       3.175  10.311  21.427  1.00  0.00    -0.205 F 
ATOM     88  C   UNL     1       1.241  13.121  22.759  1.00  0.00     0.022 A 
BRANCH  86  89
ATOM     89  S   UNL     1       3.366  11.946  24.031  1.00  0.00     0.127 S 
ATOM     90  O   UNL     1       4.283  13.058  23.787  1.00  0.00    -0.237 OA
ATOM     91  O   UNL     1       2.496  12.117  25.195  1.00  0.00    -0.237 OA
ATOM     92  O   UNL     1       3.945  10.615  23.904  1.00  0.00    -0.744 OA
ENDBRANCH  86  89
ENDBRANCH  59  82
ENDBRANCH  33  34
ENDBRANCH  25  28
ENDBRANCH  23  24
ENDBRANCH   1  23
TORSDOF 16
