REMARK SMILES Cc1cc(C)c2c(CCCC(=O)NCCCCNC(=O)c3ccc(-c4c5nc(c(-c6cccc(S(=O)(=O)[O-])c6F)c6ccc([nH]6)c(-c6cccc(S(=O)(=O)[O-])c6F)c6nc(c(-c7cccc(S(=O)(=O)[O-])c7F)c7ccc4[nH]7)C=C6)C=C5)cc3)c(-c3ccccn3)[nH]c2c1
REMARK SMILES IDX 15 1 14 2 13 3 11 4 12 5 10 7 9 8 8 9 7 10 1 11 2 12 3 13
REMARK SMILES IDX 93 14 4 15 92 16 5 17 6 18 91 19 84 20 85 22 86 23 90 24
REMARK SMILES IDX 87 25 89 26 88 27 16 28 17 29 18 30 19 31 20 33 21 34 22 35
REMARK SMILES IDX 83 36 23 37 82 38 24 39 25 40 26 41 76 42 27 43 81 44 75 45
REMARK SMILES IDX 77 46 28 47 80 48 74 49 73 50 29 52 61 53 41 54 60 55 42 56
REMARK SMILES IDX 45 57 59 58 78 59 43 60 44 61 58 63 79 64 46 65 30 66 31 67
REMARK SMILES IDX 39 68 32 69 34 70 40 71 33 72 35 73 36 74 37 75 38 76 62 77
REMARK SMILES IDX 63 78 71 79 64 80 66 81 72 82 65 83 67 84 68 85 69 86 70 87
REMARK SMILES IDX 47 88 48 89 56 90 49 91 51 92 57 93 50 94 52 95 53 96 54 97
REMARK SMILES IDX 55 98
REMARK H PARENT 13 6 91 21 18 32 77 51 45 62
REMARK Flexibility Score: inf
ROOT
ATOM      1  C   UNL     1      -2.477  -7.112   1.886  1.00  0.00     0.023 C 
ENDROOT
BRANCH   1   2
ATOM      2  C   UNL     1      -2.734  -6.839   3.373  1.00  0.00     0.116 C 
BRANCH   2   3
ATOM      3  N   UNL     1      -2.446  -8.003   4.181  1.00  0.00    -0.356 N 
ATOM      4  C   UNL     1      -1.417  -8.270   5.029  1.00  0.00     0.220 C 
ATOM      5  O   UNL     1      -1.365  -9.404   5.514  1.00  0.00    -0.275 OA
ATOM      6  H   UNL     1      -3.109  -8.727   4.104  1.00  0.00     0.163 HD
BRANCH   4   7
ATOM      7  C   UNL     1      -0.423  -7.211   5.467  1.00  0.00     0.100 C 
BRANCH   7   8
ATOM      8  C   UNL     1       0.695  -6.734   4.557  1.00  0.00     0.015 C 
BRANCH   8   9
ATOM      9  C   UNL     1       0.424  -5.794   3.393  1.00  0.00     0.039 C 
BRANCH   9  10
ATOM     10  C   UNL     1      -0.021  -4.347   3.515  1.00  0.00    -0.013 A 
ATOM     11  C   UNL     1       0.787   0.175   0.030  1.00  0.00     0.044 C 
ATOM     12  C   UNL     1       0.571  -1.051   0.867  1.00  0.00    -0.049 A 
ATOM     13  C   UNL     1       1.024  -2.287   0.404  1.00  0.00     0.007 A 
ATOM     14  C   UNL     1      -0.084  -0.974   2.098  1.00  0.00     0.030 A 
ATOM     15  C   UNL     1       0.865  -3.478   1.148  1.00  0.00    -0.041 A 
ATOM     16  C   UNL     1      -0.217  -2.148   2.849  1.00  0.00     0.047 A 
ATOM     17  C   UNL     1       1.321  -4.759   0.499  1.00  0.00     0.045 C 
ATOM     18  C   UNL     1       0.266  -3.389   2.441  1.00  0.00     0.006 A 
ATOM     19  N   UNL     1      -0.834  -2.336   4.055  1.00  0.00    -0.353 N 
ATOM     20  C   UNL     1      -0.839  -3.661   4.425  1.00  0.00     0.068 A 
ATOM     21  H   UNL     1      -1.227  -1.611   4.593  1.00  0.00     0.167 HD
BRANCH  20  22
ATOM     22  C   UNL     1      -1.726  -4.037   5.525  1.00  0.00     0.087 A 
ATOM     23  C   UNL     1      -3.107  -4.108   5.319  1.00  0.00     0.030 A 
ATOM     24  N   UNL     1      -1.139  -4.289   6.713  1.00  0.00    -0.255 NA
ATOM     25  C   UNL     1      -3.917  -4.571   6.350  1.00  0.00     0.004 A 
ATOM     26  C   UNL     1      -1.963  -4.739   7.699  1.00  0.00     0.112 A 
ATOM     27  C   UNL     1      -3.331  -4.918   7.558  1.00  0.00     0.020 A 
ENDBRANCH  20  22
ENDBRANCH   9  10
ENDBRANCH   8   9
ENDBRANCH   7   8
ENDBRANCH   4   7
ENDBRANCH   2   3
ENDBRANCH   1   2
BRANCH   1  28
ATOM     28  C   UNL     1      -3.659  -7.749   1.152  1.00  0.00     0.023 C 
BRANCH  28  29
ATOM     29  C   UNL     1      -4.782  -6.762   0.856  1.00  0.00     0.116 C 
BRANCH  29  30
ATOM     30  N   UNL     1      -4.414  -5.768  -0.151  1.00  0.00    -0.352 N 
ATOM     31  C   UNL     1      -5.171  -4.685  -0.570  1.00  0.00     0.251 C 
ATOM     32  H   UNL     1      -3.534  -5.880  -0.579  1.00  0.00     0.163 HD
ATOM     33  O   UNL     1      -4.960  -4.125  -1.623  1.00  0.00    -0.269 OA
BRANCH  31  34
ATOM     34  C   UNL     1      -6.260  -4.243   0.323  1.00  0.00     0.039 A 
ATOM     35  C   UNL     1      -7.568  -4.139  -0.150  1.00  0.00     0.014 A 
ATOM     36  C   UNL     1      -5.955  -4.037   1.668  1.00  0.00     0.014 A 
ATOM     37  C   UNL     1      -8.595  -3.919   0.765  1.00  0.00     0.010 A 
ATOM     38  C   UNL     1      -6.981  -3.924   2.581  1.00  0.00     0.010 A 
ATOM     39  C   UNL     1      -8.302  -3.840   2.136  1.00  0.00    -0.014 A 
BRANCH  39  40
ATOM     40  C   UNL     1      -9.394  -3.772   3.109  1.00  0.00     0.031 A 
ATOM     41  C   UNL     1     -10.423  -4.854   3.034  1.00  0.00     0.074 A 
ATOM     42  C   UNL     1      -9.398  -2.920   4.156  1.00  0.00     0.049 A 
ATOM     43  N   UNL     1     -11.683  -4.729   2.769  1.00  0.00    -0.248 NA
ATOM     44  C   UNL     1      -9.988  -6.247   3.205  1.00  0.00     0.031 C 
ATOM     45  C   UNL     1      -8.326  -2.018   4.595  1.00  0.00     0.029 A 
ATOM     46  N   UNL     1     -10.323  -2.798   5.148  1.00  0.00    -0.354 N 
ATOM     47  C   UNL     1     -12.242  -5.999   2.922  1.00  0.00     0.074 A 
ATOM     48  C   UNL     1     -11.136  -6.912   3.052  1.00  0.00     0.031 C 
ATOM     49  C   UNL     1      -8.539  -1.668   5.882  1.00  0.00     0.029 A 
ATOM     50  C   UNL     1      -9.842  -2.158   6.283  1.00  0.00     0.049 A 
ATOM     51  H   UNL     1     -11.245  -3.133   5.069  1.00  0.00     0.167 HD
ATOM     52  C   UNL     1     -13.579  -6.184   3.116  1.00  0.00     0.034 A 
ATOM     53  C   UNL     1     -10.456  -2.088   7.486  1.00  0.00     0.034 A 
ATOM     54  C   UNL     1     -14.327  -4.983   2.863  1.00  0.00     0.049 A 
ATOM     55  C   UNL     1     -11.898  -2.319   7.256  1.00  0.00     0.074 A 
ATOM     56  C   UNL     1     -14.545  -4.166   1.774  1.00  0.00     0.029 A 
ATOM     57  N   UNL     1     -14.731  -4.268   3.962  1.00  0.00    -0.354 N 
ATOM     58  N   UNL     1     -12.666  -1.504   6.589  1.00  0.00    -0.248 NA
ATOM     59  C   UNL     1     -12.436  -3.651   7.472  1.00  0.00     0.031 C 
ATOM     60  C   UNL     1     -14.627  -2.849   2.314  1.00  0.00     0.029 A 
ATOM     61  C   UNL     1     -14.493  -2.946   3.701  1.00  0.00     0.049 A 
ATOM     62  H   UNL     1     -15.120  -4.638   4.787  1.00  0.00     0.167 HD
ATOM     63  C   UNL     1     -13.554  -2.335   5.923  1.00  0.00     0.074 A 
ATOM     64  C   UNL     1     -13.461  -3.616   6.618  1.00  0.00     0.031 C 
ATOM     65  C   UNL     1     -14.057  -1.992   4.700  1.00  0.00     0.034 A 
BRANCH  52  66
ATOM     66  C   UNL     1     -14.225  -7.353   3.826  1.00  0.00     0.023 A 
ATOM     67  C   UNL     1     -15.629  -7.497   3.712  1.00  0.00     0.012 A 
ATOM     68  C   UNL     1     -13.577  -8.151   4.792  1.00  0.00     0.148 A 
ATOM     69  C   UNL     1     -16.352  -8.365   4.538  1.00  0.00     0.002 A 
ATOM     70  C   UNL     1     -14.290  -9.075   5.554  1.00  0.00     0.091 A 
ATOM     71  F   UNL     1     -12.290  -7.932   5.079  1.00  0.00    -0.205 F 
ATOM     72  C   UNL     1     -15.680  -9.165   5.452  1.00  0.00     0.022 A 
BRANCH  70  73
ATOM     73  S   UNL     1     -13.464 -10.186   6.699  1.00  0.00     0.127 S 
ATOM     74  O   UNL     1     -13.798  -9.584   7.986  1.00  0.00    -0.237 OA
ATOM     75  O   UNL     1     -14.132 -11.458   6.418  1.00  0.00    -0.237 OA
ATOM     76  O   UNL     1     -12.059 -10.155   6.316  1.00  0.00    -0.744 OA
ENDBRANCH  70  73
ENDBRANCH  52  66
BRANCH  53  77
ATOM     77  C   UNL     1      -9.868  -2.117   8.843  1.00  0.00     0.023 A 
ATOM     78  C   UNL     1     -10.650  -1.690   9.934  1.00  0.00     0.012 A 
ATOM     79  C   UNL     1      -8.691  -2.852   9.106  1.00  0.00     0.148 A 
ATOM     80  C   UNL     1     -10.308  -2.042  11.244  1.00  0.00     0.002 A 
ATOM     81  C   UNL     1      -8.357  -3.202  10.410  1.00  0.00     0.091 A 
ATOM     82  F   UNL     1      -7.957  -3.293   8.075  1.00  0.00    -0.205 F 
ATOM     83  C   UNL     1      -9.172  -2.812  11.480  1.00  0.00     0.022 A 
BRANCH  81  84
ATOM     84  S   UNL     1      -6.937  -4.241  10.784  1.00  0.00     0.127 S 
ATOM     85  O   UNL     1      -6.311  -3.515  11.889  1.00  0.00    -0.237 OA
ATOM     86  O   UNL     1      -7.576  -5.499  11.157  1.00  0.00    -0.237 OA
ATOM     87  O   UNL     1      -6.137  -4.279   9.565  1.00  0.00    -0.744 OA
ENDBRANCH  81  84
ENDBRANCH  53  77
BRANCH  65  88
ATOM     88  C   UNL     1     -13.878  -0.569   4.227  1.00  0.00     0.023 A 
ATOM     89  C   UNL     1     -12.605   0.003   4.021  1.00  0.00     0.012 A 
ATOM     90  C   UNL     1     -15.014   0.146   3.811  1.00  0.00     0.148 A 
ATOM     91  C   UNL     1     -12.470   1.266   3.439  1.00  0.00     0.002 A 
ATOM     92  C   UNL     1     -14.874   1.378   3.183  1.00  0.00     0.091 A 
ATOM     93  F   UNL     1     -16.221  -0.407   4.010  1.00  0.00    -0.205 F 
ATOM     94  C   UNL     1     -13.604   1.948   3.006  1.00  0.00     0.022 A 
BRANCH  92  95
ATOM     95  S   UNL     1     -16.286   2.231   2.476  1.00  0.00     0.127 S 
ATOM     96  O   UNL     1     -16.569   3.247   3.487  1.00  0.00    -0.237 OA
ATOM     97  O   UNL     1     -15.745   2.753   1.219  1.00  0.00    -0.237 OA
ATOM     98  O   UNL     1     -17.314   1.212   2.298  1.00  0.00    -0.744 OA
ENDBRANCH  92  95
ENDBRANCH  65  88
ENDBRANCH  39  40
ENDBRANCH  31  34
ENDBRANCH  29  30
ENDBRANCH  28  29
ENDBRANCH   1  28
TORSDOF 18
