REMARK SMILES CCC[C@@H]1SC[C@H](C(=O)NCCCCNC(=O)c2ccc(-c3c4nc(c(-c5cccc(S(=O)(=O)[O-])c5F)c5ccc([nH]5)c(-c5cccc(S(=O)(=O)[O-])c5F)c5nc(c(-c6cccc(S(=O)(=O)[O-])c6F)c6ccc3[nH]6)C=C5)C=C4)cc2)N1C(=O)C[NH+]1CCC([NH3+])CC1
REMARK SMILES IDX 12 1 11 2 10 3 8 4 9 5 7 7 4 8 5 9 81 10 6 11 3 12 2 13 1 14
REMARK SMILES IDX 82 15 83 16 84 17 85 18 86 19 91 20 87 22 90 23 88 24 89 25
REMARK SMILES IDX 13 29 14 30 15 31 16 32 17 34 18 35 19 36 80 37 20 38 79 39
REMARK SMILES IDX 21 40 22 41 23 42 73 43 24 44 78 45 72 46 74 47 25 48 77 49
REMARK SMILES IDX 71 50 70 51 26 53 58 54 38 55 57 56 39 57 42 58 56 59 75 60
REMARK SMILES IDX 40 61 41 62 55 64 76 65 43 66 27 67 28 68 36 69 29 70 31 71
REMARK SMILES IDX 37 72 30 73 32 74 33 75 34 76 35 77 59 78 60 79 68 80 61 81
REMARK SMILES IDX 63 82 69 83 62 84 64 85 65 86 66 87 67 88 44 89 45 90 53 91
REMARK SMILES IDX 46 92 48 93 54 94 47 95 49 96 50 97 51 98 52 99
REMARK H PARENT 10 6 85 21 89 26 89 27 89 28 15 33 74 52 42 63
REMARK Flexibility Score: inf
ROOT
ATOM      1  C   UNL     1      -1.487  -5.974   1.844  1.00  0.00     0.023 C 
ENDROOT
BRANCH   1   2
ATOM      2  C   UNL     1      -0.123  -5.322   1.689  1.00  0.00     0.116 C 
BRANCH   2   3
ATOM      3  N   UNL     1       0.939  -6.252   1.386  1.00  0.00    -0.354 N 
ATOM      4  C   UNL     1       2.071  -6.065   0.652  1.00  0.00     0.243 C 
ATOM      5  O   UNL     1       2.874  -7.005   0.619  1.00  0.00    -0.273 OA
ATOM      6  H   UNL     1       0.829  -7.153   1.766  1.00  0.00     0.163 HD
BRANCH   4   7
ATOM      7  C   UNL     1       2.247  -4.878  -0.314  1.00  0.00     0.185 C 
ATOM      8  C   UNL     1       0.734  -3.143  -1.111  1.00  0.00     0.144 C 
ATOM      9  S   UNL     1       0.220  -4.668  -1.977  1.00  0.00    -0.134 SA
ATOM     10  N   UNL     1       1.579  -3.572   0.015  1.00  0.00    -0.313 N 
ATOM     11  C   UNL     1       1.817  -5.410  -1.695  1.00  0.00     0.107 C 
BRANCH   8  12
ATOM     12  C   UNL     1      -0.553  -2.352  -0.920  1.00  0.00     0.036 C 
BRANCH  12  13
ATOM     13  C   UNL     1      -0.360  -0.866  -0.709  1.00  0.00    -0.000 C 
ATOM     14  C   UNL     1       0.882  -0.281  -1.380  1.00  0.00     0.004 C 
ENDBRANCH  12  13
ENDBRANCH   8  12
BRANCH  10  15
ATOM     15  C   UNL     1       2.292  -2.712   0.889  1.00  0.00     0.279 C 
ATOM     16  O   UNL     1       3.525  -2.814   0.957  1.00  0.00    -0.268 OA
BRANCH  15  17
ATOM     17  C   UNL     1       1.543  -1.819   1.964  1.00  0.00     0.363 C 
BRANCH  17  18
ATOM     18  N   UNL     1       2.106  -0.433   2.088  1.00  0.00    -0.327 N 
ATOM     19  C   UNL     1       1.224   0.695   1.788  1.00  0.00     0.268 C 
ATOM     20  C   UNL     1       2.775  -0.133   3.376  1.00  0.00     0.268 C 
ATOM     21  H   UNL     1       2.790  -0.499   1.334  1.00  0.00     0.348 HD
ATOM     22  C   UNL     1       0.146   0.955   2.834  1.00  0.00     0.126 C 
ATOM     23  C   UNL     1       1.868   0.376   4.529  1.00  0.00     0.126 C 
ATOM     24  C   UNL     1       0.859   1.447   4.083  1.00  0.00     0.192 C 
BRANCH  24  25
ATOM     25  N   UNL     1      -0.095   1.795   5.136  1.00  0.00    -0.355 N 
ATOM     26  H   UNL     1      -0.640   0.970   5.387  1.00  0.00     0.344 HD
ATOM     27  H   UNL     1      -0.722   2.526   4.799  1.00  0.00     0.344 HD
ATOM     28  H   UNL     1       0.410   2.131   5.956  1.00  0.00     0.344 HD
ENDBRANCH  24  25
ENDBRANCH  17  18
ENDBRANCH  15  17
ENDBRANCH  10  15
ENDBRANCH   4   7
ENDBRANCH   2   3
ENDBRANCH   1   2
BRANCH   1  29
ATOM     29  C   UNL     1      -1.586  -6.984   2.977  1.00  0.00     0.023 C 
BRANCH  29  30
ATOM     30  C   UNL     1      -1.003  -6.509   4.299  1.00  0.00     0.116 C 
BRANCH  30  31
ATOM     31  N   UNL     1      -1.631  -5.287   4.792  1.00  0.00    -0.352 N 
ATOM     32  C   UNL     1      -2.227  -5.065   6.010  1.00  0.00     0.251 C 
ATOM     33  H   UNL     1      -1.626  -4.523   4.171  1.00  0.00     0.163 HD
ATOM     34  O   UNL     1      -2.826  -4.017   6.231  1.00  0.00    -0.269 OA
BRANCH  32  35
ATOM     35  C   UNL     1      -2.162  -6.131   7.028  1.00  0.00     0.039 A 
ATOM     36  C   UNL     1      -3.346  -6.602   7.597  1.00  0.00     0.014 A 
ATOM     37  C   UNL     1      -0.937  -6.734   7.326  1.00  0.00     0.014 A 
ATOM     38  C   UNL     1      -3.309  -7.739   8.406  1.00  0.00     0.010 A 
ATOM     39  C   UNL     1      -0.919  -7.920   8.047  1.00  0.00     0.010 A 
ATOM     40  C   UNL     1      -2.103  -8.434   8.600  1.00  0.00    -0.014 A 
BRANCH  40  41
ATOM     41  C   UNL     1      -2.052  -9.704   9.370  1.00  0.00     0.031 A 
ATOM     42  C   UNL     1      -1.190  -9.798  10.601  1.00  0.00     0.074 A 
ATOM     43  C   UNL     1      -2.699 -10.795   8.910  1.00  0.00     0.049 A 
ATOM     44  N   UNL     1      -0.955 -10.834  11.362  1.00  0.00    -0.248 NA
ATOM     45  C   UNL     1      -0.473  -8.579  11.014  1.00  0.00     0.031 C 
ATOM     46  C   UNL     1      -3.493 -10.859   7.680  1.00  0.00     0.029 A 
ATOM     47  N   UNL     1      -2.765 -12.073   9.409  1.00  0.00    -0.354 N 
ATOM     48  C   UNL     1      -0.033 -10.406  12.310  1.00  0.00     0.074 A 
ATOM     49  C   UNL     1       0.275  -9.026  12.011  1.00  0.00     0.031 C 
ATOM     50  C   UNL     1      -3.968 -12.105   7.524  1.00  0.00     0.029 A 
ATOM     51  C   UNL     1      -3.487 -12.940   8.620  1.00  0.00     0.049 A 
ATOM     52  H   UNL     1      -2.336 -12.344  10.253  1.00  0.00     0.167 HD
ATOM     53  C   UNL     1       0.487 -11.089  13.355  1.00  0.00     0.034 A 
ATOM     54  C   UNL     1      -3.725 -14.259   8.759  1.00  0.00     0.034 A 
ATOM     55  C   UNL     1       0.134 -12.442  13.686  1.00  0.00     0.049 A 
ATOM     56  C   UNL     1      -3.175 -14.978   9.963  1.00  0.00     0.074 A 
ATOM     57  C   UNL     1       0.524 -13.185  14.786  1.00  0.00     0.029 A 
ATOM     58  N   UNL     1      -0.683 -13.256  12.921  1.00  0.00    -0.354 N 
ATOM     59  N   UNL     1      -2.448 -14.504  10.946  1.00  0.00    -0.248 NA
ATOM     60  C   UNL     1      -3.508 -16.404  10.098  1.00  0.00     0.031 C 
ATOM     61  C   UNL     1      -0.036 -14.460  14.671  1.00  0.00     0.029 A 
ATOM     62  C   UNL     1      -0.802 -14.499  13.517  1.00  0.00     0.049 A 
ATOM     63  H   UNL     1      -1.116 -12.990  12.077  1.00  0.00     0.167 HD
ATOM     64  C   UNL     1      -2.274 -15.560  11.834  1.00  0.00     0.074 A 
ATOM     65  C   UNL     1      -2.989 -16.692  11.284  1.00  0.00     0.031 C 
ATOM     66  C   UNL     1      -1.571 -15.595  12.992  1.00  0.00     0.034 A 
BRANCH  53  67
ATOM     67  C   UNL     1       1.454 -10.373  14.259  1.00  0.00     0.023 A 
ATOM     68  C   UNL     1       0.981  -9.374  15.134  1.00  0.00     0.012 A 
ATOM     69  C   UNL     1       2.810 -10.752  14.308  1.00  0.00     0.148 A 
ATOM     70  C   UNL     1       1.847  -8.746  16.028  1.00  0.00     0.002 A 
ATOM     71  C   UNL     1       3.656 -10.155  15.234  1.00  0.00     0.091 A 
ATOM     72  F   UNL     1       3.242 -11.689  13.453  1.00  0.00    -0.205 F 
ATOM     73  C   UNL     1       3.180  -9.145  16.087  1.00  0.00     0.022 A 
BRANCH  71  74
ATOM     74  S   UNL     1       5.368 -10.655  15.451  1.00  0.00     0.127 S 
ATOM     75  O   UNL     1       6.083  -9.458  15.009  1.00  0.00    -0.237 OA
ATOM     76  O   UNL     1       5.431 -10.908  16.890  1.00  0.00    -0.237 OA
ATOM     77  O   UNL     1       5.554 -11.832  14.614  1.00  0.00    -0.744 OA
ENDBRANCH  71  74
ENDBRANCH  53  67
BRANCH  54  78
ATOM     78  C   UNL     1      -4.564 -14.986   7.762  1.00  0.00     0.023 A 
ATOM     79  C   UNL     1      -5.828 -15.477   8.144  1.00  0.00     0.012 A 
ATOM     80  C   UNL     1      -4.116 -15.204   6.445  1.00  0.00     0.148 A 
ATOM     81  C   UNL     1      -6.608 -16.212   7.250  1.00  0.00     0.002 A 
ATOM     82  C   UNL     1      -4.923 -15.886   5.542  1.00  0.00     0.091 A 
ATOM     83  F   UNL     1      -2.905 -14.742   6.101  1.00  0.00    -0.205 F 
ATOM     84  C   UNL     1      -6.160 -16.410   5.948  1.00  0.00     0.022 A 
BRANCH  82  85
ATOM     85  S   UNL     1      -4.481 -16.068   3.810  1.00  0.00     0.127 S 
ATOM     86  O   UNL     1      -4.093 -17.474   3.746  1.00  0.00    -0.237 OA
ATOM     87  O   UNL     1      -5.740 -15.744   3.139  1.00  0.00    -0.237 OA
ATOM     88  O   UNL     1      -3.416 -15.101   3.578  1.00  0.00    -0.744 OA
ENDBRANCH  82  85
ENDBRANCH  54  78
BRANCH  66  89
ATOM     89  C   UNL     1      -1.579 -16.878  13.780  1.00  0.00     0.023 A 
ATOM     90  C   UNL     1      -0.860 -17.996  13.314  1.00  0.00     0.012 A 
ATOM     91  C   UNL     1      -2.232 -16.945  15.027  1.00  0.00     0.148 A 
ATOM     92  C   UNL     1      -0.819 -19.173  14.061  1.00  0.00     0.002 A 
ATOM     93  C   UNL     1      -2.143 -18.102  15.790  1.00  0.00     0.091 A 
ATOM     94  F   UNL     1      -2.924 -15.875  15.445  1.00  0.00    -0.205 F 
ATOM     95  C   UNL     1      -1.449 -19.221  15.303  1.00  0.00     0.022 A 
BRANCH  93  96
ATOM     96  S   UNL     1      -2.835 -18.221  17.443  1.00  0.00     0.127 S 
ATOM     97  O   UNL     1      -3.968 -19.120  17.228  1.00  0.00    -0.237 OA
ATOM     98  O   UNL     1      -1.728 -18.805  18.201  1.00  0.00    -0.237 OA
ATOM     99  O   UNL     1      -3.183 -16.861  17.832  1.00  0.00    -0.744 OA
ENDBRANCH  93  96
ENDBRANCH  66  89
ENDBRANCH  40  41
ENDBRANCH  32  35
ENDBRANCH  30  31
ENDBRANCH  29  30
ENDBRANCH   1  29
TORSDOF 20
