REMARK SMILES C[C@@H]1CCC[N@@H+]([C@@H]2CCC[C@]([NH3+])(C(=O)NCCCCNC(=O)c3ccc(-c4c5nc(c(-c6cccc(S(=O)(=O)[O-])c6F)c6ccc([nH]6)c(-c6cccc(S(=O)(=O)[O-])c6F)c6nc(c(-c7cccc(S(=O)(=O)[O-])c7F)c7ccc4[nH]7)C=C6)C=C5)cc3)C2)C1
REMARK SMILES IDX 18 1 17 2 16 3 15 4 13 5 14 6 11 8 7 9 8 10 86 11 9 12 10 13
REMARK SMILES IDX 6 14 1 15 2 16 3 17 87 18 4 19 5 20 12 22 19 26 20 27 21 28
REMARK SMILES IDX 22 30 23 31 24 32 85 33 25 34 84 35 26 36 27 37 28 38 78 39
REMARK SMILES IDX 29 40 83 41 77 42 79 43 30 44 82 45 76 46 75 47 31 49 63 50
REMARK SMILES IDX 43 51 62 52 44 53 47 54 61 55 80 56 45 57 46 58 60 60 81 61
REMARK SMILES IDX 48 62 32 63 33 64 41 65 34 66 36 67 42 68 35 69 37 70 38 71
REMARK SMILES IDX 39 72 40 73 64 74 65 75 73 76 66 77 68 78 74 79 67 80 69 81
REMARK SMILES IDX 70 82 71 83 72 84 49 85 50 86 58 87 51 88 53 89 59 90 52 91
REMARK SMILES IDX 54 92 55 93 56 94 57 95
REMARK H PARENT 15 7 6 21 12 23 12 24 12 25 20 29 79 48 47 59
REMARK Flexibility Score: inf
ROOT
ATOM      1  C   UNL     1       4.849   2.720  -8.471  1.00  0.00     0.023 C 
ENDROOT
BRANCH   1   2
ATOM      2  C   UNL     1       3.574   2.644  -7.641  1.00  0.00     0.023 C 
BRANCH   2   3
ATOM      3  C   UNL     1       3.462   1.406  -6.764  1.00  0.00     0.116 C 
BRANCH   3   4
ATOM      4  N   UNL     1       4.348   1.442  -5.610  1.00  0.00    -0.351 N 
ATOM      5  C   UNL     1       4.079   1.319  -4.268  1.00  0.00     0.281 C 
ATOM      6  O   UNL     1       5.031   1.302  -3.486  1.00  0.00    -0.268 OA
ATOM      7  H   UNL     1       5.299   1.577  -5.827  1.00  0.00     0.163 HD
BRANCH   5   8
ATOM      8  C   UNL     1       2.603   1.249  -3.777  1.00  0.00     0.179 C 
ATOM      9  C   UNL     1       1.015   1.046  -1.752  1.00  0.00     0.190 C 
ATOM     10  C   UNL     1       0.169   0.043  -2.569  1.00  0.00     0.065 C 
ATOM     11  C   UNL     1       2.494   1.139  -2.233  1.00  0.00     0.144 C 
ATOM     12  C   UNL     1       0.447  -0.018  -4.061  1.00  0.00     0.013 C 
ATOM     13  C   UNL     1       1.936  -0.029  -4.327  1.00  0.00     0.079 C 
BRANCH   9  14
ATOM     14  N   UNL     1       0.878   0.920  -0.280  1.00  0.00    -0.332 N 
ATOM     15  C   UNL     1      -2.664  -0.066   0.897  1.00  0.00     0.013 C 
ATOM     16  C   UNL     1      -1.292  -0.279   0.259  1.00  0.00     0.041 C 
ATOM     17  C   UNL     1      -0.512  -1.388   0.971  1.00  0.00     0.015 C 
ATOM     18  C   UNL     1      -0.494   1.040   0.228  1.00  0.00     0.265 C 
ATOM     19  C   UNL     1       0.923  -1.495   0.459  1.00  0.00     0.062 C 
ATOM     20  C   UNL     1       1.618  -0.134   0.413  1.00  0.00     0.262 C 
ATOM     21  H   UNL     1       1.390   1.763  -0.019  1.00  0.00     0.348 HD
ENDBRANCH   9  14
BRANCH   8  22
ATOM     22  N   UNL     1       1.936   2.524  -4.161  1.00  0.00    -0.345 N 
ATOM     23  H   UNL     1       0.964   2.506  -3.851  1.00  0.00     0.345 HD
ATOM     24  H   UNL     1       1.968   2.633  -5.175  1.00  0.00     0.345 HD
ATOM     25  H   UNL     1       2.419   3.307  -3.720  1.00  0.00     0.345 HD
ENDBRANCH   8  22
ENDBRANCH   5   8
ENDBRANCH   3   4
ENDBRANCH   2   3
ENDBRANCH   1   2
BRANCH   1  26
ATOM     26  C   UNL     1       5.154   1.481  -9.305  1.00  0.00     0.116 C 
BRANCH  26  27
ATOM     27  N   UNL     1       4.054   1.079 -10.174  1.00  0.00    -0.352 N 
ATOM     28  C   UNL     1       4.092   0.733 -11.506  1.00  0.00     0.251 C 
ATOM     29  H   UNL     1       3.165   1.051  -9.752  1.00  0.00     0.163 HD
ATOM     30  O   UNL     1       3.059   0.513 -12.123  1.00  0.00    -0.269 OA
BRANCH  28  31
ATOM     31  C   UNL     1       5.402   0.673 -12.185  1.00  0.00     0.039 A 
ATOM     32  C   UNL     1       5.594   1.424 -13.347  1.00  0.00     0.014 A 
ATOM     33  C   UNL     1       6.455  -0.049 -11.619  1.00  0.00     0.014 A 
ATOM     34  C   UNL     1       6.875   1.526 -13.890  1.00  0.00     0.010 A 
ATOM     35  C   UNL     1       7.742   0.115 -12.119  1.00  0.00     0.010 A 
ATOM     36  C   UNL     1       7.966   0.915 -13.250  1.00  0.00    -0.014 A 
BRANCH  36  37
ATOM     37  C   UNL     1       9.358   1.149 -13.710  1.00  0.00     0.031 A 
ATOM     38  C   UNL     1      10.200   0.004 -14.199  1.00  0.00     0.074 A 
ATOM     39  C   UNL     1       9.899   2.377 -13.577  1.00  0.00     0.049 A 
ATOM     40  N   UNL     1      11.452   0.007 -14.577  1.00  0.00    -0.248 NA
ATOM     41  C   UNL     1       9.563  -1.322 -14.242  1.00  0.00     0.031 C 
ATOM     42  C   UNL     1       9.213   3.548 -13.024  1.00  0.00     0.029 A 
ATOM     43  N   UNL     1      11.159   2.839 -13.867  1.00  0.00    -0.354 N 
ATOM     44  C   UNL     1      11.763  -1.314 -14.868  1.00  0.00     0.074 A 
ATOM     45  C   UNL     1      10.579  -2.098 -14.594  1.00  0.00     0.031 C 
ATOM     46  C   UNL     1      10.059   4.590 -13.014  1.00  0.00     0.029 A 
ATOM     47  C   UNL     1      11.353   4.160 -13.534  1.00  0.00     0.049 A 
ATOM     48  H   UNL     1      11.857   2.278 -14.275  1.00  0.00     0.167 HD
ATOM     49  C   UNL     1      12.920  -1.825 -15.351  1.00  0.00     0.034 A 
ATOM     50  C   UNL     1      12.451   4.935 -13.629  1.00  0.00     0.034 A 
ATOM     51  C   UNL     1      14.079  -1.036 -15.669  1.00  0.00     0.049 A 
ATOM     52  C   UNL     1      13.708   4.353 -14.215  1.00  0.00     0.074 A 
ATOM     53  C   UNL     1      15.258  -1.442 -16.267  1.00  0.00     0.029 A 
ATOM     54  N   UNL     1      14.210   0.319 -15.407  1.00  0.00    -0.354 N 
ATOM     55  N   UNL     1      13.924   3.139 -14.661  1.00  0.00    -0.248 NA
ATOM     56  C   UNL     1      14.862   5.254 -14.342  1.00  0.00     0.031 C 
ATOM     57  C   UNL     1      16.111  -0.336 -16.349  1.00  0.00     0.029 A 
ATOM     58  C   UNL     1      15.455   0.763 -15.817  1.00  0.00     0.049 A 
ATOM     59  H   UNL     1      13.518   0.883 -14.991  1.00  0.00     0.167 HD
ATOM     60  C   UNL     1      15.226   3.137 -15.145  1.00  0.00     0.074 A 
ATOM     61  C   UNL     1      15.741   4.479 -14.963  1.00  0.00     0.031 C 
ATOM     62  C   UNL     1      15.939   2.112 -15.674  1.00  0.00     0.034 A 
BRANCH  49  63
ATOM     63  C   UNL     1      12.970  -3.304 -15.627  1.00  0.00     0.023 A 
ATOM     64  C   UNL     1      12.263  -3.825 -16.730  1.00  0.00     0.012 A 
ATOM     65  C   UNL     1      13.760  -4.166 -14.842  1.00  0.00     0.148 A 
ATOM     66  C   UNL     1      12.317  -5.185 -17.030  1.00  0.00     0.002 A 
ATOM     67  C   UNL     1      13.842  -5.514 -15.172  1.00  0.00     0.091 A 
ATOM     68  F   UNL     1      14.405  -3.656 -13.783  1.00  0.00    -0.205 F 
ATOM     69  C   UNL     1      13.114  -6.027 -16.259  1.00  0.00     0.022 A 
BRANCH  67  70
ATOM     70  S   UNL     1      14.899  -6.665 -14.287  1.00  0.00     0.127 S 
ATOM     71  O   UNL     1      13.917  -7.460 -13.550  1.00  0.00    -0.237 OA
ATOM     72  O   UNL     1      15.563  -7.377 -15.379  1.00  0.00    -0.237 OA
ATOM     73  O   UNL     1      15.784  -5.848 -13.469  1.00  0.00    -0.744 OA
ENDBRANCH  67  70
ENDBRANCH  49  63
BRANCH  50  74
ATOM     74  C   UNL     1      12.386   6.367 -13.221  1.00  0.00     0.023 A 
ATOM     75  C   UNL     1      12.430   7.369 -14.210  1.00  0.00     0.012 A 
ATOM     76  C   UNL     1      12.246   6.741 -11.871  1.00  0.00     0.148 A 
ATOM     77  C   UNL     1      12.363   8.718 -13.860  1.00  0.00     0.002 A 
ATOM     78  C   UNL     1      12.124   8.085 -11.534  1.00  0.00     0.091 A 
ATOM     79  F   UNL     1      12.221   5.774 -10.942  1.00  0.00    -0.205 F 
ATOM     80  C   UNL     1      12.199   9.075 -12.525  1.00  0.00     0.022 A 
BRANCH  78  81
ATOM     81  S   UNL     1      11.771   8.624  -9.857  1.00  0.00     0.127 S 
ATOM     82  O   UNL     1      13.060   9.170  -9.440  1.00  0.00    -0.237 OA
ATOM     83  O   UNL     1      10.719   9.618 -10.071  1.00  0.00    -0.237 OA
ATOM     84  O   UNL     1      11.327   7.430  -9.150  1.00  0.00    -0.744 OA
ENDBRANCH  78  81
ENDBRANCH  50  74
BRANCH  62  85
ATOM     85  C   UNL     1      17.352   2.397 -16.109  1.00  0.00     0.023 A 
ATOM     86  C   UNL     1      18.355   2.579 -15.136  1.00  0.00     0.012 A 
ATOM     87  C   UNL     1      17.700   2.412 -17.474  1.00  0.00     0.148 A 
ATOM     88  C   UNL     1      19.678   2.800 -15.516  1.00  0.00     0.002 A 
ATOM     89  C   UNL     1      19.028   2.587 -17.843  1.00  0.00     0.091 A 
ATOM     90  F   UNL     1      16.728   2.256 -18.384  1.00  0.00    -0.205 F 
ATOM     91  C   UNL     1      20.017   2.792 -16.867  1.00  0.00     0.022 A 
BRANCH  89  92
ATOM     92  S   UNL     1      19.570   2.499 -19.554  1.00  0.00     0.127 S 
ATOM     93  O   UNL     1      19.834   3.904 -19.856  1.00  0.00    -0.237 OA
ATOM     94  O   UNL     1      20.765   1.660 -19.460  1.00  0.00    -0.237 OA
ATOM     95  O   UNL     1      18.468   1.896 -20.292  1.00  0.00    -0.744 OA
ENDBRANCH  89  92
ENDBRANCH  62  85
ENDBRANCH  36  37
ENDBRANCH  28  31
ENDBRANCH  26  27
ENDBRANCH   1  26
TORSDOF 16
