REMARK SMILES N#C/C(=C/c1ccc(-c2cccc(C(=O)NCCCCNC(=O)c3ccc(-c4c5nc(c(-c6cccc(S(=O)(=O)[O-])c6F)c6ccc([nH]6)c(-c6cccc(S(=O)(=O)[O-])c6F)c6nc(c(-c7cccc(S(=O)(=O)[O-])c7F)c7ccc4[nH]7)C=C6)C=C5)cc3)c2)o1)c1ccc(F)cc1
REMARK SMILES IDX 18 1 17 2 16 3 14 4 15 5 13 7 9 8 10 9 87 10 11 11 12 12
REMARK SMILES IDX 8 13 5 14 6 15 88 16 7 17 4 18 3 19 2 20 1 21 89 22 90 23
REMARK SMILES IDX 95 24 91 25 94 26 92 27 93 28 19 29 20 30 21 31 22 32 23 34
REMARK SMILES IDX 24 35 25 36 86 37 26 38 85 39 27 40 28 41 29 42 79 43 30 44
REMARK SMILES IDX 84 45 78 46 80 47 31 48 83 49 77 50 76 51 32 53 64 54 44 55
REMARK SMILES IDX 63 56 45 57 48 58 62 59 81 60 46 61 47 62 61 64 82 65 49 66
REMARK SMILES IDX 33 67 34 68 42 69 35 70 37 71 43 72 36 73 38 74 39 75 40 76
REMARK SMILES IDX 41 77 65 78 66 79 74 80 67 81 69 82 75 83 68 84 70 85 71 86
REMARK SMILES IDX 72 87 73 88 50 89 51 90 59 91 52 92 54 93 60 94 53 95 55 96
REMARK SMILES IDX 56 97 57 98 58 99
REMARK H PARENT 16 6 21 33 80 52 48 63
REMARK Flexibility Score: inf
ROOT
ATOM      1  C   UNL     1       9.763  -2.173  -5.586  1.00  0.00     0.023 C 
ENDROOT
BRANCH   1   2
ATOM      2  C   UNL     1      10.350  -1.500  -4.353  1.00  0.00     0.116 C 
BRANCH   2   3
ATOM      3  N   UNL     1      11.580  -0.746  -4.567  1.00  0.00    -0.352 N 
ATOM      4  C   UNL     1      11.966   0.495  -4.091  1.00  0.00     0.251 C 
ATOM      5  O   UNL     1      13.066   0.953  -4.391  1.00  0.00    -0.269 OA
ATOM      6  H   UNL     1      12.242  -1.191  -5.144  1.00  0.00     0.163 HD
BRANCH   4   7
ATOM      7  C   UNL     1      11.043   1.321  -3.269  1.00  0.00     0.040 A 
ATOM      8  C   UNL     1       9.065   1.407  -1.877  1.00  0.00     0.018 A 
ATOM      9  C   UNL     1       8.945   2.775  -2.139  1.00  0.00     0.012 A 
ATOM     10  C   UNL     1      10.201   0.731  -2.333  1.00  0.00     0.025 A 
ATOM     11  C   UNL     1       9.915   3.428  -2.910  1.00  0.00     0.002 A 
ATOM     12  C   UNL     1      10.942   2.693  -3.509  1.00  0.00     0.014 A 
BRANCH   8  13
ATOM     13  C   UNL     1       7.990   0.598  -1.319  1.00  0.00     0.134 A 
ATOM     14  C   UNL     1       5.852   0.006  -1.165  1.00  0.00     0.128 A 
ATOM     15  C   UNL     1       6.627  -1.040  -0.672  1.00  0.00     0.051 A 
ATOM     16  O   UNL     1       6.710   1.000  -1.582  1.00  0.00    -0.457 OA
ATOM     17  C   UNL     1       7.975  -0.640  -0.717  1.00  0.00     0.051 A 
BRANCH  14  18
ATOM     18  C   UNL     1       4.429   0.115  -1.196  1.00  0.00     0.067 C 
ATOM     19  C   UNL     1       3.708  -0.020  -0.066  1.00  0.00     0.063 C 
BRANCH  19  20
ATOM     20  C   UNL     1       2.188  -0.020  -0.066  1.00  0.00     0.100 C 
ATOM     21  N   UNL     1       0.927  -0.020  -0.066  1.00  0.00    -0.192 NA
ENDBRANCH  19  20
BRANCH  19  22
ATOM     22  C   UNL     1       4.328  -0.172   1.285  1.00  0.00    -0.007 A 
ATOM     23  C   UNL     1       5.239   0.786   1.772  1.00  0.00     0.012 A 
ATOM     24  C   UNL     1       4.042  -1.296   2.077  1.00  0.00     0.012 A 
ATOM     25  C   UNL     1       5.898   0.590   2.987  1.00  0.00     0.040 A 
ATOM     26  C   UNL     1       4.689  -1.478   3.304  1.00  0.00     0.040 A 
ATOM     27  C   UNL     1       5.620  -0.542   3.740  1.00  0.00     0.123 A 
ATOM     28  F   UNL     1       6.261  -0.738   4.899  1.00  0.00    -0.207 F 
ENDBRANCH  19  22
ENDBRANCH  14  18
ENDBRANCH   8  13
ENDBRANCH   4   7
ENDBRANCH   2   3
ENDBRANCH   1   2
BRANCH   1  29
ATOM     29  C   UNL     1      10.596  -3.273  -6.228  1.00  0.00     0.023 C 
BRANCH  29  30
ATOM     30  C   UNL     1      11.125  -4.357  -5.296  1.00  0.00     0.116 C 
BRANCH  30  31
ATOM     31  N   UNL     1      10.094  -5.044  -4.527  1.00  0.00    -0.352 N 
ATOM     32  C   UNL     1       9.821  -6.392  -4.420  1.00  0.00     0.251 C 
ATOM     33  H   UNL     1       9.502  -4.456  -4.004  1.00  0.00     0.163 HD
ATOM     34  O   UNL     1       8.870  -6.772  -3.749  1.00  0.00    -0.269 OA
BRANCH  32  35
ATOM     35  C   UNL     1      10.648  -7.372  -5.160  1.00  0.00     0.039 A 
ATOM     36  C   UNL     1      10.009  -8.325  -5.958  1.00  0.00     0.014 A 
ATOM     37  C   UNL     1      12.042  -7.311  -5.119  1.00  0.00     0.014 A 
ATOM     38  C   UNL     1      10.767  -9.133  -6.810  1.00  0.00     0.010 A 
ATOM     39  C   UNL     1      12.789  -8.060  -6.024  1.00  0.00     0.010 A 
ATOM     40  C   UNL     1      12.158  -8.960  -6.896  1.00  0.00    -0.014 A 
BRANCH  40  41
ATOM     41  C   UNL     1      12.966  -9.648  -7.937  1.00  0.00     0.031 A 
ATOM     42  C   UNL     1      14.070 -10.590  -7.549  1.00  0.00     0.074 A 
ATOM     43  C   UNL     1      12.786  -9.321  -9.233  1.00  0.00     0.049 A 
ATOM     44  N   UNL     1      14.939 -11.200  -8.313  1.00  0.00    -0.248 NA
ATOM     45  C   UNL     1      14.238 -10.860  -6.112  1.00  0.00     0.031 C 
ATOM     46  C   UNL     1      11.803  -8.358  -9.735  1.00  0.00     0.029 A 
ATOM     47  N   UNL     1      13.445  -9.738 -10.364  1.00  0.00    -0.354 N 
ATOM     48  C   UNL     1      15.778 -11.896  -7.452  1.00  0.00     0.074 A 
ATOM     49  C   UNL     1      15.333 -11.605  -6.105  1.00  0.00     0.031 C 
ATOM     50  C   UNL     1      11.917  -8.265 -11.069  1.00  0.00     0.029 A 
ATOM     51  C   UNL     1      13.001  -9.133 -11.517  1.00  0.00     0.049 A 
ATOM     52  H   UNL     1      14.167 -10.408 -10.351  1.00  0.00     0.167 HD
ATOM     53  C   UNL     1      16.804 -12.727  -7.753  1.00  0.00     0.034 A 
ATOM     54  C   UNL     1      13.422  -9.256 -12.791  1.00  0.00     0.034 A 
ATOM     55  C   UNL     1      17.214 -13.051  -9.093  1.00  0.00     0.049 A 
ATOM     56  C   UNL     1      14.551 -10.199 -13.103  1.00  0.00     0.074 A 
ATOM     57  C   UNL     1      18.172 -13.961  -9.504  1.00  0.00     0.029 A 
ATOM     58  N   UNL     1      16.696 -12.470 -10.241  1.00  0.00    -0.354 N 
ATOM     59  N   UNL     1      15.222 -10.977 -12.289  1.00  0.00    -0.248 NA
ATOM     60  C   UNL     1      14.963 -10.301 -14.510  1.00  0.00     0.031 C 
ATOM     61  C   UNL     1      18.243 -13.919 -10.901  1.00  0.00     0.029 A 
ATOM     62  C   UNL     1      17.323 -12.991 -11.360  1.00  0.00     0.049 A 
ATOM     63  H   UNL     1      15.986 -11.788 -10.257  1.00  0.00     0.167 HD
ATOM     64  C   UNL     1      16.117 -11.681 -13.086  1.00  0.00     0.074 A 
ATOM     65  C   UNL     1      15.887 -11.252 -14.451  1.00  0.00     0.031 C 
ATOM     66  C   UNL     1      17.055 -12.589 -12.718  1.00  0.00     0.034 A 
BRANCH  53  67
ATOM     67  C   UNL     1      17.510 -13.396  -6.604  1.00  0.00     0.023 A 
ATOM     68  C   UNL     1      16.850 -14.421  -5.893  1.00  0.00     0.012 A 
ATOM     69  C   UNL     1      18.823 -13.042  -6.243  1.00  0.00     0.148 A 
ATOM     70  C   UNL     1      17.470 -15.053  -4.817  1.00  0.00     0.002 A 
ATOM     71  C   UNL     1      19.451 -13.705  -5.193  1.00  0.00     0.091 A 
ATOM     72  F   UNL     1      19.427 -12.048  -6.910  1.00  0.00    -0.205 F 
ATOM     73  C   UNL     1      18.773 -14.702  -4.473  1.00  0.00     0.022 A 
BRANCH  71  74
ATOM     74  S   UNL     1      21.152 -13.365  -4.728  1.00  0.00     0.127 S 
ATOM     75  O   UNL     1      20.973 -12.492  -3.570  1.00  0.00    -0.237 OA
ATOM     76  O   UNL     1      21.665 -14.700  -4.411  1.00  0.00    -0.237 OA
ATOM     77  O   UNL     1      21.763 -12.750  -5.898  1.00  0.00    -0.744 OA
ENDBRANCH  71  74
ENDBRANCH  53  67
BRANCH  54  78
ATOM     78  C   UNL     1      12.711  -8.524 -13.878  1.00  0.00     0.023 A 
ATOM     79  C   UNL     1      11.890  -9.249 -14.762  1.00  0.00     0.012 A 
ATOM     80  C   UNL     1      12.794  -7.124 -14.008  1.00  0.00     0.148 A 
ATOM     81  C   UNL     1      11.177  -8.598 -15.769  1.00  0.00     0.002 A 
ATOM     82  C   UNL     1      12.042  -6.475 -14.981  1.00  0.00     0.091 A 
ATOM     83  F   UNL     1      13.590  -6.454 -13.163  1.00  0.00    -0.205 F 
ATOM     84  C   UNL     1      11.244  -7.211 -15.871  1.00  0.00     0.022 A 
BRANCH  82  85
ATOM     85  S   UNL     1      11.963  -4.684 -15.106  1.00  0.00     0.127 S 
ATOM     86  O   UNL     1      12.675  -4.440 -16.358  1.00  0.00    -0.237 OA
ATOM     87  O   UNL     1      10.519  -4.450 -15.162  1.00  0.00    -0.237 OA
ATOM     88  O   UNL     1      12.606  -4.177 -13.902  1.00  0.00    -0.744 OA
ENDBRANCH  82  85
ENDBRANCH  54  78
BRANCH  66  89
ATOM     89  C   UNL     1      17.904 -13.193 -13.805  1.00  0.00     0.023 A 
ATOM     90  C   UNL     1      18.930 -12.425 -14.389  1.00  0.00     0.012 A 
ATOM     91  C   UNL     1      17.742 -14.539 -14.187  1.00  0.00     0.148 A 
ATOM     92  C   UNL     1      19.769 -12.981 -15.355  1.00  0.00     0.002 A 
ATOM     93  C   UNL     1      18.609 -15.099 -15.119  1.00  0.00     0.091 A 
ATOM     94  F   UNL     1      16.747 -15.247 -13.633  1.00  0.00    -0.205 F 
ATOM     95  C   UNL     1      19.617 -14.319 -15.710  1.00  0.00     0.022 A 
BRANCH  93  96
ATOM     96  S   UNL     1      18.545 -16.836 -15.573  1.00  0.00     0.127 S 
ATOM     97  O   UNL     1      17.985 -16.772 -16.922  1.00  0.00    -0.237 OA
ATOM     98  O   UNL     1      19.955 -17.225 -15.516  1.00  0.00    -0.237 OA
ATOM     99  O   UNL     1      17.701 -17.480 -14.575  1.00  0.00    -0.744 OA
ENDBRANCH  93  96
ENDBRANCH  66  89
ENDBRANCH  40  41
ENDBRANCH  32  35
ENDBRANCH  30  31
ENDBRANCH  29  30
ENDBRANCH   1  29
TORSDOF 18
