REMARK SMILES Cc1ccc(-c2[nH]c3ccccc3c2[C@@H]2c3ccccc3C(=O)N2[C@H](C)C(=O)NCCCCNC(=O)c2ccc(-c3c4nc(c(-c5cccc(S(=O)(=O)[O-])c5F)c5ccc([nH]5)c(-c5cccc(S(=O)(=O)[O-])c5F)c5nc(c(-c6cccc(S(=O)(=O)[O-])c6F)c6ccc3[nH]6)C=C5)C=C4)cc2)cc1
REMARK SMILES IDX 31 1 30 2 29 3 27 4 28 5 25 7 26 8 24 9 15 10 16 11 17 12
REMARK SMILES IDX 21 13 22 14 18 15 20 16 23 17 19 18 14 19 6 20 7 21 8 22
REMARK SMILES IDX 13 24 9 25 12 26 10 27 11 28 5 29 1 30 2 31 3 32 101 33 4 34
REMARK SMILES IDX 100 35 32 36 33 37 34 38 35 39 36 41 37 42 38 43 99 44 39 45
REMARK SMILES IDX 98 46 40 47 41 48 42 49 92 50 43 51 97 52 91 53 93 54 44 55
REMARK SMILES IDX 96 56 90 57 89 58 45 60 77 61 57 62 76 63 58 64 61 65 75 66
REMARK SMILES IDX 94 67 59 68 60 69 74 71 95 72 62 73 46 74 47 75 55 76 48 77
REMARK SMILES IDX 50 78 56 79 49 80 51 81 52 82 53 83 54 84 78 85 79 86 87 87
REMARK SMILES IDX 80 88 82 89 88 90 81 91 83 92 84 93 85 94 86 95 63 96 64 97
REMARK SMILES IDX 72 98 65 99 67 100 73 101 66 102 68 103 69 104 70 105 71 106
REMARK H PARENT 29 6 7 23 34 40 93 59 61 70
REMARK Flexibility Score: inf
ROOT
ATOM      1  C   UNL     1      -4.683  -3.531   1.402  1.00  0.00     0.023 C 
ENDROOT
BRANCH   1   2
ATOM      2  C   UNL     1      -5.934  -2.671   1.293  1.00  0.00     0.116 C 
BRANCH   2   3
ATOM      3  N   UNL     1      -6.781  -2.649   2.445  1.00  0.00    -0.354 N 
ATOM      4  C   UNL     1      -6.924  -1.707   3.409  1.00  0.00     0.242 C 
ATOM      5  O   UNL     1      -7.954  -1.829   4.092  1.00  0.00    -0.273 OA
ATOM      6  H   UNL     1      -7.350  -3.445   2.556  1.00  0.00     0.163 HD
BRANCH   4   7
ATOM      7  C   UNL     1      -5.793  -0.767   3.933  1.00  0.00     0.172 C 
ATOM      8  C   UNL     1      -4.947  -1.738   4.797  1.00  0.00     0.042 C 
BRANCH   7   9
ATOM      9  N   UNL     1      -4.870   0.249   3.368  1.00  0.00    -0.316 N 
ATOM     10  C   UNL     1      -4.764   0.841   2.017  1.00  0.00     0.151 C 
ATOM     11  C   UNL     1      -4.096   2.175   2.309  1.00  0.00    -0.008 A 
ATOM     12  C   UNL     1      -4.060   3.401   1.666  1.00  0.00     0.007 A 
ATOM     13  C   UNL     1      -3.529   2.120   3.572  1.00  0.00     0.045 A 
ATOM     14  C   UNL     1      -4.185   1.049   4.290  1.00  0.00     0.255 C 
ATOM     15  C   UNL     1      -3.341   4.461   2.266  1.00  0.00     0.000 A 
ATOM     16  C   UNL     1      -2.724   3.085   4.143  1.00  0.00     0.014 A 
ATOM     17  O   UNL     1      -4.193   1.012   5.504  1.00  0.00    -0.269 OA
ATOM     18  C   UNL     1      -2.619   4.282   3.460  1.00  0.00     0.001 A 
BRANCH  10  19
ATOM     19  C   UNL     1      -3.759   0.084   1.146  1.00  0.00     0.013 A 
ATOM     20  C   UNL     1      -3.738   0.068  -0.251  1.00  0.00     0.052 A 
ATOM     21  N   UNL     1      -2.878  -0.922  -0.664  1.00  0.00    -0.354 N 
ATOM     22  C   UNL     1      -2.262  -1.504   0.415  1.00  0.00     0.046 A 
ATOM     23  H   UNL     1      -2.725  -1.177  -1.602  1.00  0.00     0.167 HD
ATOM     24  C   UNL     1      -2.690  -0.811   1.550  1.00  0.00     0.006 A 
ATOM     25  C   UNL     1      -1.421  -2.628   0.475  1.00  0.00     0.027 A 
ATOM     26  C   UNL     1      -2.114  -1.185   2.784  1.00  0.00     0.011 A 
ATOM     27  C   UNL     1      -0.975  -3.042   1.733  1.00  0.00     0.002 A 
ATOM     28  C   UNL     1      -1.284  -2.307   2.870  1.00  0.00     0.001 A 
BRANCH  20  29
ATOM     29  C   UNL     1      -4.484   0.864  -1.209  1.00  0.00    -0.002 A 
ATOM     30  C   UNL     1      -6.688   3.300  -3.992  1.00  0.00     0.044 C 
ATOM     31  C   UNL     1      -5.923   2.474  -2.999  1.00  0.00    -0.051 A 
ATOM     32  C   UNL     1      -4.641   2.850  -2.595  1.00  0.00     0.004 A 
ATOM     33  C   UNL     1      -6.491   1.315  -2.457  1.00  0.00     0.004 A 
ATOM     34  C   UNL     1      -3.926   2.050  -1.702  1.00  0.00     0.010 A 
ATOM     35  C   UNL     1      -5.762   0.485  -1.606  1.00  0.00     0.010 A 
ENDBRANCH  20  29
ENDBRANCH  10  19
ENDBRANCH   7   9
ENDBRANCH   4   7
ENDBRANCH   2   3
ENDBRANCH   1   2
BRANCH   1  36
ATOM     36  C   UNL     1      -4.760  -5.050   1.585  1.00  0.00     0.023 C 
BRANCH  36  37
ATOM     37  C   UNL     1      -5.168  -5.871   0.363  1.00  0.00     0.116 C 
BRANCH  37  38
ATOM     38  N   UNL     1      -4.355  -5.582  -0.828  1.00  0.00    -0.352 N 
ATOM     39  C   UNL     1      -4.675  -5.638  -2.176  1.00  0.00     0.251 C 
ATOM     40  H   UNL     1      -3.430  -5.301  -0.637  1.00  0.00     0.163 HD
ATOM     41  O   UNL     1      -3.773  -5.664  -3.008  1.00  0.00    -0.269 OA
BRANCH  39  42
ATOM     42  C   UNL     1      -6.090  -5.564  -2.582  1.00  0.00     0.039 A 
ATOM     43  C   UNL     1      -6.626  -6.083  -3.762  1.00  0.00     0.014 A 
ATOM     44  C   UNL     1      -6.894  -4.816  -1.742  1.00  0.00     0.014 A 
ATOM     45  C   UNL     1      -7.954  -5.784  -4.090  1.00  0.00     0.010 A 
ATOM     46  C   UNL     1      -8.237  -4.784  -1.894  1.00  0.00     0.010 A 
ATOM     47  C   UNL     1      -8.717  -5.085  -3.162  1.00  0.00    -0.014 A 
BRANCH  47  48
ATOM     48  C   UNL     1      -9.951  -4.370  -3.410  1.00  0.00     0.031 A 
ATOM     49  C   UNL     1     -11.233  -5.052  -3.384  1.00  0.00     0.074 A 
ATOM     50  C   UNL     1      -9.832  -3.036  -3.214  1.00  0.00     0.049 A 
ATOM     51  N   UNL     1     -12.345  -4.453  -3.619  1.00  0.00    -0.248 NA
ATOM     52  C   UNL     1     -11.370  -6.479  -3.128  1.00  0.00     0.031 C 
ATOM     53  C   UNL     1     -10.777  -2.099  -2.626  1.00  0.00     0.029 A 
ATOM     54  N   UNL     1      -8.710  -2.249  -3.462  1.00  0.00    -0.354 N 
ATOM     55  C   UNL     1     -13.333  -5.304  -3.193  1.00  0.00     0.074 A 
ATOM     56  C   UNL     1     -12.701  -6.599  -3.146  1.00  0.00     0.031 C 
ATOM     57  C   UNL     1     -10.285  -0.851  -2.767  1.00  0.00     0.029 A 
ATOM     58  C   UNL     1      -9.139  -0.945  -3.663  1.00  0.00     0.049 A 
ATOM     59  H   UNL     1      -7.778  -2.563  -3.490  1.00  0.00     0.167 HD
ATOM     60  C   UNL     1     -14.489  -4.756  -2.724  1.00  0.00     0.034 A 
ATOM     61  C   UNL     1      -9.092  -0.457  -4.944  1.00  0.00     0.034 A 
ATOM     62  C   UNL     1     -14.482  -3.283  -2.913  1.00  0.00     0.049 A 
ATOM     63  C   UNL     1     -10.467  -0.192  -5.523  1.00  0.00     0.074 A 
ATOM     64  C   UNL     1     -14.405  -2.189  -2.066  1.00  0.00     0.029 A 
ATOM     65  N   UNL     1     -14.274  -2.774  -4.189  1.00  0.00    -0.354 N 
ATOM     66  N   UNL     1     -11.591  -0.476  -4.925  1.00  0.00    -0.248 NA
ATOM     67  C   UNL     1     -10.680   0.391  -6.840  1.00  0.00     0.031 C 
ATOM     68  C   UNL     1     -14.143  -1.024  -2.859  1.00  0.00     0.029 A 
ATOM     69  C   UNL     1     -14.096  -1.401  -4.191  1.00  0.00     0.049 A 
ATOM     70  H   UNL     1     -14.255  -3.329  -5.002  1.00  0.00     0.167 HD
ATOM     71  C   UNL     1     -12.639  -0.306  -5.783  1.00  0.00     0.074 A 
ATOM     72  C   UNL     1     -12.016   0.290  -6.959  1.00  0.00     0.031 C 
ATOM     73  C   UNL     1     -13.910  -0.726  -5.477  1.00  0.00     0.034 A 
BRANCH  60  74
ATOM     74  C   UNL     1     -15.553  -5.475  -1.900  1.00  0.00     0.023 A 
ATOM     75  C   UNL     1     -16.646  -4.697  -1.457  1.00  0.00     0.012 A 
ATOM     76  C   UNL     1     -15.560  -6.829  -1.474  1.00  0.00     0.148 A 
ATOM     77  C   UNL     1     -17.652  -5.208  -0.626  1.00  0.00     0.002 A 
ATOM     78  C   UNL     1     -16.583  -7.353  -0.677  1.00  0.00     0.091 A 
ATOM     79  F   UNL     1     -14.556  -7.643  -1.782  1.00  0.00    -0.205 F 
ATOM     80  C   UNL     1     -17.625  -6.539  -0.238  1.00  0.00     0.022 A 
BRANCH  78  81
ATOM     81  S   UNL     1     -16.623  -9.083  -0.158  1.00  0.00     0.127 S 
ATOM     82  O   UNL     1     -16.547  -8.966   1.299  1.00  0.00    -0.237 OA
ATOM     83  O   UNL     1     -17.919  -9.531  -0.664  1.00  0.00    -0.237 OA
ATOM     84  O   UNL     1     -15.473  -9.733  -0.775  1.00  0.00    -0.744 OA
ENDBRANCH  78  81
ENDBRANCH  60  74
BRANCH  61  85
ATOM     85  C   UNL     1      -7.896  -0.980  -5.708  1.00  0.00     0.023 A 
ATOM     86  C   UNL     1      -6.629  -0.513  -5.297  1.00  0.00     0.012 A 
ATOM     87  C   UNL     1      -7.943  -2.190  -6.427  1.00  0.00     0.148 A 
ATOM     88  C   UNL     1      -5.492  -1.321  -5.357  1.00  0.00     0.002 A 
ATOM     89  C   UNL     1      -6.785  -2.965  -6.554  1.00  0.00     0.091 A 
ATOM     90  F   UNL     1      -9.120  -2.594  -6.921  1.00  0.00    -0.205 F 
ATOM     91  C   UNL     1      -5.582  -2.572  -5.946  1.00  0.00     0.022 A 
BRANCH  89  92
ATOM     92  S   UNL     1      -6.759  -4.495  -7.495  1.00  0.00     0.127 S 
ATOM     93  O   UNL     1      -6.312  -4.016  -8.801  1.00  0.00    -0.237 OA
ATOM     94  O   UNL     1      -5.774  -5.308  -6.781  1.00  0.00    -0.237 OA
ATOM     95  O   UNL     1      -8.118  -5.010  -7.430  1.00  0.00    -0.744 OA
ENDBRANCH  89  92
ENDBRANCH  61  85
BRANCH  73  96
ATOM     96  C   UNL     1     -15.088  -0.604  -6.429  1.00  0.00     0.023 A 
ATOM     97  C   UNL     1     -15.177   0.451  -7.355  1.00  0.00     0.012 A 
ATOM     98  C   UNL     1     -16.190  -1.502  -6.391  1.00  0.00     0.148 A 
ATOM     99  C   UNL     1     -16.214   0.526  -8.292  1.00  0.00     0.002 A 
ATOM    100  C   UNL     1     -17.248  -1.395  -7.284  1.00  0.00     0.091 A 
ATOM    101  F   UNL     1     -16.238  -2.472  -5.478  1.00  0.00    -0.205 F 
ATOM    102  C   UNL     1     -17.243  -0.405  -8.265  1.00  0.00     0.022 A 
BRANCH 100 103
ATOM    103  S   UNL     1     -18.687  -2.472  -7.206  1.00  0.00     0.127 S 
ATOM    104  O   UNL     1     -19.756  -1.508  -6.945  1.00  0.00    -0.237 OA
ATOM    105  O   UNL     1     -18.698  -3.050  -8.549  1.00  0.00    -0.237 OA
ATOM    106  O   UNL     1     -18.440  -3.419  -6.129  1.00  0.00    -0.744 OA
ENDBRANCH 100 103
ENDBRANCH  73  96
ENDBRANCH  47  48
ENDBRANCH  39  42
ENDBRANCH  37  38
ENDBRANCH  36  37
ENDBRANCH   1  36
TORSDOF 17
