REMARK SMILES COc1cc(NC(=O)c2ccc([N+](=O)[O-])cc2)c(C(=O)NCCCCNC(=O)c2ccc(-c3c4nc(c(-c5cccc(S(=O)(=O)[O-])c5F)c5ccc([nH]5)c(-c5cccc(S(=O)(=O)[O-])c5F)c5nc(c(-c6cccc(S(=O)(=O)[O-])c6F)c6ccc3[nH]6)C=C5)C=C4)cc2)cc1OC
REMARK SMILES IDX 23 1 22 2 21 3 19 4 20 5 18 7 3 8 4 9 93 10 5 11 92 12 2 13
REMARK SMILES IDX 1 14 94 15 95 16 6 17 7 18 8 20 9 21 10 22 17 23 11 24 16 25
REMARK SMILES IDX 12 26 13 27 14 28 15 29 24 30 25 31 26 32 27 33 28 35 29 36
REMARK SMILES IDX 30 37 91 38 31 39 90 40 32 41 33 42 34 43 84 44 35 45 89 46
REMARK SMILES IDX 83 47 85 48 36 49 88 50 82 51 81 52 37 54 69 55 49 56 68 57
REMARK SMILES IDX 50 58 53 59 67 60 86 61 51 62 52 63 66 65 87 66 54 67 38 68
REMARK SMILES IDX 39 69 47 70 40 71 42 72 48 73 41 74 43 75 44 76 45 77 46 78
REMARK SMILES IDX 70 79 71 80 79 81 72 82 74 83 80 84 73 85 75 86 76 87 77 88
REMARK SMILES IDX 78 89 55 90 56 91 64 92 57 93 59 94 65 95 58 96 60 97 61 98
REMARK SMILES IDX 62 99 63 100
REMARK H PARENT 21 6 6 19 26 34 85 53 53 64
REMARK Flexibility Score: inf
ROOT
ATOM      1  C   UNL     1       5.369  -1.798  -5.705  1.00  0.00     0.023 C 
ENDROOT
BRANCH   1   2
ATOM      2  C   UNL     1       4.238  -0.827  -6.061  1.00  0.00     0.116 C 
BRANCH   2   3
ATOM      3  N   UNL     1       3.067  -1.552  -6.512  1.00  0.00    -0.352 N 
ATOM      4  C   UNL     1       1.988  -2.095  -5.863  1.00  0.00     0.253 C 
ATOM      5  O   UNL     1       1.168  -2.681  -6.575  1.00  0.00    -0.269 OA
ATOM      6  H   UNL     1       3.042  -1.682  -7.487  1.00  0.00     0.163 HD
BRANCH   4   7
ATOM      7  C   UNL     1       1.719  -1.986  -4.386  1.00  0.00     0.067 A 
ATOM      8  C   UNL     1       1.217  -1.667  -1.628  1.00  0.00     0.162 A 
ATOM      9  C   UNL     1       0.199  -2.075  -2.501  1.00  0.00     0.077 A 
ATOM     10  C   UNL     1       2.510  -1.513  -2.103  1.00  0.00     0.161 A 
ATOM     11  C   UNL     1       0.407  -2.202  -3.884  1.00  0.00     0.058 A 
ATOM     12  C   UNL     1       2.743  -1.713  -3.466  1.00  0.00     0.066 A 
BRANCH   8  13
ATOM     13  O   UNL     1       0.925  -1.546  -0.296  1.00  0.00    -0.493 OA
ATOM     14  C   UNL     1       0.156  -0.368  -0.039  1.00  0.00     0.278 C 
ENDBRANCH   8  13
BRANCH  10  15
ATOM     15  O   UNL     1       3.646  -1.229  -1.399  1.00  0.00    -0.493 OA
ATOM     16  C   UNL     1       3.508  -0.492  -0.193  1.00  0.00     0.278 C 
ENDBRANCH  10  15
BRANCH  11  17
ATOM     17  N   UNL     1      -0.624  -2.597  -4.782  1.00  0.00    -0.321 N 
ATOM     18  C   UNL     1      -1.977  -2.812  -4.673  1.00  0.00     0.255 C 
ATOM     19  H   UNL     1      -0.290  -2.753  -5.695  1.00  0.00     0.170 HD
ATOM     20  O   UNL     1      -2.616  -3.360  -5.568  1.00  0.00    -0.269 OA
BRANCH  18  21
ATOM     21  C   UNL     1      -2.723  -2.371  -3.491  1.00  0.00     0.040 A 
ATOM     22  C   UNL     1      -3.351  -3.338  -2.697  1.00  0.00     0.021 A 
ATOM     23  C   UNL     1      -2.763  -1.013  -3.150  1.00  0.00     0.021 A 
ATOM     24  C   UNL     1      -3.942  -2.959  -1.492  1.00  0.00     0.086 A 
ATOM     25  C   UNL     1      -3.350  -0.630  -1.944  1.00  0.00     0.086 A 
ATOM     26  C   UNL     1      -3.912  -1.609  -1.109  1.00  0.00     0.269 A 
BRANCH  26  27
ATOM     27  N   UNL     1      -4.423  -1.223   0.210  1.00  0.00     0.062 N 
ATOM     28  O   UNL     1      -5.130  -2.038   0.817  1.00  0.00    -0.258 OA
ATOM     29  O   UNL     1      -4.093  -0.111   0.647  1.00  0.00    -0.258 OA
ENDBRANCH  26  27
ENDBRANCH  18  21
ENDBRANCH  11  17
ENDBRANCH   4   7
ENDBRANCH   2   3
ENDBRANCH   1   2
BRANCH   1  30
ATOM     30  C   UNL     1       6.203  -2.261  -6.900  1.00  0.00     0.023 C 
BRANCH  30  31
ATOM     31  C   UNL     1       7.006  -1.159  -7.579  1.00  0.00     0.116 C 
BRANCH  31  32
ATOM     32  N   UNL     1       7.913  -0.466  -6.675  1.00  0.00    -0.352 N 
ATOM     33  C   UNL     1       9.109   0.140  -6.976  1.00  0.00     0.251 C 
ATOM     34  H   UNL     1       7.636  -0.428  -5.731  1.00  0.00     0.163 HD
ATOM     35  O   UNL     1       9.813   0.603  -6.083  1.00  0.00    -0.269 OA
BRANCH  33  36
ATOM     36  C   UNL     1       9.553   0.184  -8.382  1.00  0.00     0.039 A 
ATOM     37  C   UNL     1      10.831  -0.282  -8.699  1.00  0.00     0.014 A 
ATOM     38  C   UNL     1       8.688   0.627  -9.386  1.00  0.00     0.014 A 
ATOM     39  C   UNL     1      11.219  -0.366 -10.037  1.00  0.00     0.010 A 
ATOM     40  C   UNL     1       9.051   0.478 -10.720  1.00  0.00     0.010 A 
ATOM     41  C   UNL     1      10.318  -0.019 -11.058  1.00  0.00    -0.014 A 
BRANCH  41  42
ATOM     42  C   UNL     1      10.673  -0.186 -12.489  1.00  0.00     0.031 A 
ATOM     43  C   UNL     1      10.758   1.016 -13.389  1.00  0.00     0.074 A 
ATOM     44  C   UNL     1      10.818  -1.425 -12.997  1.00  0.00     0.049 A 
ATOM     45  N   UNL     1      10.987   1.066 -14.675  1.00  0.00    -0.248 NA
ATOM     46  C   UNL     1      10.526   2.331 -12.769  1.00  0.00     0.031 C 
ATOM     47  C   UNL     1      10.672  -2.672 -12.242  1.00  0.00     0.029 A 
ATOM     48  N   UNL     1      11.090  -1.843 -14.275  1.00  0.00    -0.354 N 
ATOM     49  C   UNL     1      10.889   2.407 -15.025  1.00  0.00     0.074 A 
ATOM     50  C   UNL     1      10.548   3.135 -13.823  1.00  0.00     0.031 C 
ATOM     51  C   UNL     1      10.857  -3.713 -13.070  1.00  0.00     0.029 A 
ATOM     52  C   UNL     1      11.110  -3.211 -14.417  1.00  0.00     0.049 A 
ATOM     53  H   UNL     1      11.256  -1.222 -15.021  1.00  0.00     0.167 HD
ATOM     54  C   UNL     1      11.097   2.985 -16.232  1.00  0.00     0.034 A 
ATOM     55  C   UNL     1      11.306  -3.974 -15.510  1.00  0.00     0.034 A 
ATOM     56  C   UNL     1      11.489   2.263 -17.412  1.00  0.00     0.049 A 
ATOM     57  C   UNL     1      11.589  -3.304 -16.827  1.00  0.00     0.074 A 
ATOM     58  C   UNL     1      11.820   2.767 -18.657  1.00  0.00     0.029 A 
ATOM     59  N   UNL     1      11.600   0.884 -17.494  1.00  0.00    -0.354 N 
ATOM     60  N   UNL     1      11.663  -2.024 -17.101  1.00  0.00    -0.248 NA
ATOM     61  C   UNL     1      11.855  -4.180 -17.977  1.00  0.00     0.031 C 
ATOM     62  C   UNL     1      12.118   1.689 -19.498  1.00  0.00     0.029 A 
ATOM     63  C   UNL     1      11.988   0.516 -18.771  1.00  0.00     0.049 A 
ATOM     64  H   UNL     1      11.427   0.258 -16.754  1.00  0.00     0.167 HD
ATOM     65  C   UNL     1      12.017  -1.941 -18.443  1.00  0.00     0.074 A 
ATOM     66  C   UNL     1      12.164  -3.301 -18.921  1.00  0.00     0.031 C 
ATOM     67  C   UNL     1      12.188  -0.839 -19.215  1.00  0.00     0.034 A 
BRANCH  54  68
ATOM     68  C   UNL     1      10.969   4.482 -16.320  1.00  0.00     0.023 A 
ATOM     69  C   UNL     1      11.960   5.297 -15.732  1.00  0.00     0.012 A 
ATOM     70  C   UNL     1       9.908   5.084 -17.024  1.00  0.00     0.148 A 
ATOM     71  C   UNL     1      11.879   6.686 -15.815  1.00  0.00     0.002 A 
ATOM     72  C   UNL     1       9.858   6.469 -17.138  1.00  0.00     0.091 A 
ATOM     73  F   UNL     1       8.963   4.295 -17.555  1.00  0.00    -0.205 F 
ATOM     74  C   UNL     1      10.835   7.271 -16.526  1.00  0.00     0.022 A 
BRANCH  72  75
ATOM     75  S   UNL     1       8.595   7.314 -18.096  1.00  0.00     0.127 S 
ATOM     76  O   UNL     1       7.767   7.899 -17.042  1.00  0.00    -0.237 OA
ATOM     77  O   UNL     1       9.383   8.283 -18.859  1.00  0.00    -0.237 OA
ATOM     78  O   UNL     1       7.951   6.288 -18.904  1.00  0.00    -0.744 OA
ENDBRANCH  72  75
ENDBRANCH  54  68
BRANCH  55  79
ATOM     79  C   UNL     1      11.319  -5.459 -15.387  1.00  0.00     0.023 A 
ATOM     80  C   UNL     1      12.540  -6.149 -15.519  1.00  0.00     0.012 A 
ATOM     81  C   UNL     1      10.146  -6.186 -15.109  1.00  0.00     0.148 A 
ATOM     82  C   UNL     1      12.588  -7.539 -15.407  1.00  0.00     0.002 A 
ATOM     83  C   UNL     1      10.210  -7.566 -14.945  1.00  0.00     0.091 A 
ATOM     84  F   UNL     1       8.992  -5.514 -14.999  1.00  0.00    -0.205 F 
ATOM     85  C   UNL     1      11.427  -8.246 -15.110  1.00  0.00     0.022 A 
BRANCH  83  86
ATOM     86  S   UNL     1       8.790  -8.539 -14.432  1.00  0.00     0.127 S 
ATOM     87  O   UNL     1       8.439  -9.232 -15.668  1.00  0.00    -0.237 OA
ATOM     88  O   UNL     1       9.365  -9.389 -13.389  1.00  0.00    -0.237 OA
ATOM     89  O   UNL     1       7.813  -7.574 -13.944  1.00  0.00    -0.744 OA
ENDBRANCH  83  86
ENDBRANCH  55  79
BRANCH  67  90
ATOM     90  C   UNL     1      12.585  -1.047 -20.652  1.00  0.00     0.023 A 
ATOM     91  C   UNL     1      11.633  -1.519 -21.577  1.00  0.00     0.012 A 
ATOM     92  C   UNL     1      13.873  -0.696 -21.101  1.00  0.00     0.148 A 
ATOM     93  C   UNL     1      11.966  -1.664 -22.924  1.00  0.00     0.002 A 
ATOM     94  C   UNL     1      14.183  -0.798 -22.452  1.00  0.00     0.091 A 
ATOM     95  F   UNL     1      14.770  -0.267 -20.201  1.00  0.00    -0.205 F 
ATOM     96  C   UNL     1      13.235  -1.292 -23.362  1.00  0.00     0.022 A 
BRANCH  94  97
ATOM     97  S   UNL     1      15.759  -0.253 -23.120  1.00  0.00     0.127 S 
ATOM     98  O   UNL     1      16.426  -1.526 -23.389  1.00  0.00    -0.237 OA
ATOM     99  O   UNL     1      15.353   0.487 -24.315  1.00  0.00    -0.237 OA
ATOM    100  O   UNL     1      16.370   0.567 -22.082  1.00  0.00    -0.744 OA
ENDBRANCH  94  97
ENDBRANCH  67  90
ENDBRANCH  41  42
ENDBRANCH  33  36
ENDBRANCH  31  32
ENDBRANCH  30  31
ENDBRANCH   1  30
TORSDOF 19
