REMARK SMILES CC(C)[C@H](Sc1ccncc1)C(=O)NCCCCNC(=O)c1ccc(-c2c3nc(c(-c4cccc(S(=O)(=O)[O-])c4F)c4ccc([nH]4)c(-c4cccc(S(=O)(=O)[O-])c4F)c4nc(c(-c5cccc(S(=O)(=O)[O-])c5F)c5ccc2[nH]5)C=C4)C=C3)cc1
REMARK SMILES IDX 17 1 16 2 15 3 14 4 12 5 13 6 4 8 2 9 1 10 3 11 5 12 6 13
REMARK SMILES IDX 7 14 11 15 8 16 10 17 9 18 18 19 19 20 20 21 21 23 22 24
REMARK SMILES IDX 23 25 84 26 24 27 83 28 25 29 26 30 27 31 77 32 28 33 82 34
REMARK SMILES IDX 76 35 78 36 29 37 81 38 75 39 74 40 30 42 62 43 42 44 61 45
REMARK SMILES IDX 43 46 46 47 60 48 79 49 44 50 45 51 59 53 80 54 47 55 31 56
REMARK SMILES IDX 32 57 40 58 33 59 35 60 41 61 34 62 36 63 37 64 38 65 39 66
REMARK SMILES IDX 63 67 64 68 72 69 65 70 67 71 73 72 66 73 68 74 69 75 70 76
REMARK SMILES IDX 71 77 48 78 49 79 57 80 50 81 52 82 58 83 51 84 53 85 54 86
REMARK SMILES IDX 55 87 56 88
REMARK H PARENT 14 7 19 22 78 41 46 52
REMARK Flexibility Score: inf
ROOT
ATOM      1  C   UNL     1       0.790   0.736   6.272  1.00  0.00     0.023 C 
ENDROOT
BRANCH   1   2
ATOM      2  C   UNL     1       1.091   0.302   4.842  1.00  0.00     0.023 C 
BRANCH   2   3
ATOM      3  C   UNL     1      -0.127  -0.149   4.046  1.00  0.00     0.116 C 
BRANCH   3   4
ATOM      4  N   UNL     1      -0.980   0.948   3.630  1.00  0.00    -0.355 N 
ATOM      5  C   UNL     1      -1.360   1.307   2.362  1.00  0.00     0.233 C 
ATOM      6  O   UNL     1      -2.137   2.258   2.236  1.00  0.00    -0.274 OA
ATOM      7  H   UNL     1      -1.334   1.510   4.356  1.00  0.00     0.163 HD
BRANCH   5   8
ATOM      8  C   UNL     1      -0.867   0.520   1.123  1.00  0.00     0.143 C 
BRANCH   8   9
ATOM      9  C   UNL     1      -1.475  -0.921   1.150  1.00  0.00     0.006 C 
ATOM     10  C   UNL     1      -2.572  -1.047   0.078  1.00  0.00     0.009 C 
ATOM     11  C   UNL     1      -0.534  -2.123   1.028  1.00  0.00     0.009 C 
ENDBRANCH   8   9
BRANCH   8  12
ATOM     12  S   UNL     1       0.959   0.855   1.006  1.00  0.00    -0.112 SA
BRANCH  12  13
ATOM     13  C   UNL     1       1.513   0.033  -0.464  1.00  0.00     0.011 A 
ATOM     14  C   UNL     1       0.727  -0.207  -1.584  1.00  0.00     0.035 A 
ATOM     15  C   UNL     1       2.841  -0.398  -0.472  1.00  0.00     0.035 A 
ATOM     16  C   UNL     1       1.273  -0.943  -2.623  1.00  0.00     0.112 A 
ATOM     17  C   UNL     1       3.304  -1.104  -1.566  1.00  0.00     0.112 A 
ATOM     18  N   UNL     1       2.542  -1.403  -2.638  1.00  0.00    -0.265 NA
ENDBRANCH  12  13
ENDBRANCH   8  12
ENDBRANCH   5   8
ENDBRANCH   3   4
ENDBRANCH   2   3
ENDBRANCH   1   2
BRANCH   1  19
ATOM     19  C   UNL     1       0.023  -0.281   7.110  1.00  0.00     0.116 C 
BRANCH  19  20
ATOM     20  N   UNL     1       0.675  -1.581   7.178  1.00  0.00    -0.352 N 
ATOM     21  C   UNL     1       0.927  -2.373   8.274  1.00  0.00     0.251 C 
ATOM     22  H   UNL     1       0.978  -1.946   6.315  1.00  0.00     0.163 HD
ATOM     23  O   UNL     1       1.604  -3.387   8.150  1.00  0.00    -0.269 OA
BRANCH  21  24
ATOM     24  C   UNL     1       0.405  -1.980   9.602  1.00  0.00     0.039 A 
ATOM     25  C   UNL     1       1.249  -2.076  10.710  1.00  0.00     0.014 A 
ATOM     26  C   UNL     1      -0.901  -1.506   9.754  1.00  0.00     0.014 A 
ATOM     27  C   UNL     1       0.801  -1.638  11.958  1.00  0.00     0.010 A 
ATOM     28  C   UNL     1      -1.310  -0.982  10.977  1.00  0.00     0.010 A 
ATOM     29  C   UNL     1      -0.470  -1.054  12.097  1.00  0.00    -0.014 A 
BRANCH  29  30
ATOM     30  C   UNL     1      -0.919  -0.510  13.405  1.00  0.00     0.031 A 
ATOM     31  C   UNL     1      -2.131  -1.077  14.097  1.00  0.00     0.074 A 
ATOM     32  C   UNL     1      -0.264   0.536  13.948  1.00  0.00     0.049 A 
ATOM     33  N   UNL     1      -2.651  -0.744  15.250  1.00  0.00    -0.248 NA
ATOM     34  C   UNL     1      -2.871  -2.138  13.393  1.00  0.00     0.031 C 
ATOM     35  C   UNL     1       0.866   1.238  13.334  1.00  0.00     0.029 A 
ATOM     36  N   UNL     1      -0.460   1.200  15.133  1.00  0.00    -0.354 N 
ATOM     37  C   UNL     1      -3.788  -1.529  15.397  1.00  0.00     0.074 A 
ATOM     38  C   UNL     1      -3.909  -2.323  14.195  1.00  0.00     0.031 C 
ATOM     39  C   UNL     1       1.276   2.216  14.156  1.00  0.00     0.029 A 
ATOM     40  C   UNL     1       0.424   2.233  15.340  1.00  0.00     0.049 A 
ATOM     41  H   UNL     1      -1.168   0.960  15.774  1.00  0.00     0.167 HD
ATOM     42  C   UNL     1      -4.637  -1.608  16.450  1.00  0.00     0.034 A 
ATOM     43  C   UNL     1       0.539   3.095  16.369  1.00  0.00     0.034 A 
ATOM     44  C   UNL     1      -4.496  -0.840  17.657  1.00  0.00     0.049 A 
ATOM     45  C   UNL     1      -0.388   2.955  17.545  1.00  0.00     0.074 A 
ATOM     46  C   UNL     1      -5.253  -0.907  18.814  1.00  0.00     0.029 A 
ATOM     47  N   UNL     1      -3.542   0.145  17.862  1.00  0.00    -0.354 N 
ATOM     48  N   UNL     1      -1.356   2.091  17.736  1.00  0.00    -0.248 NA
ATOM     49  C   UNL     1      -0.179   3.880  18.668  1.00  0.00     0.031 C 
ATOM     50  C   UNL     1      -4.777   0.060  19.705  1.00  0.00     0.029 A 
ATOM     51  C   UNL     1      -3.697   0.701  19.121  1.00  0.00     0.049 A 
ATOM     52  H   UNL     1      -2.855   0.410  17.209  1.00  0.00     0.167 HD
ATOM     53  C   UNL     1      -1.846   2.344  19.012  1.00  0.00     0.074 A 
ATOM     54  C   UNL     1      -1.049   3.424  19.557  1.00  0.00     0.031 C 
ATOM     55  C   UNL     1      -2.871   1.746  19.669  1.00  0.00     0.034 A 
BRANCH  42  56
ATOM     56  C   UNL     1      -5.771  -2.598  16.361  1.00  0.00     0.023 A 
ATOM     57  C   UNL     1      -5.496  -3.981  16.401  1.00  0.00     0.012 A 
ATOM     58  C   UNL     1      -7.110  -2.164  16.294  1.00  0.00     0.148 A 
ATOM     59  C   UNL     1      -6.529  -4.916  16.338  1.00  0.00     0.002 A 
ATOM     60  C   UNL     1      -8.137  -3.101  16.282  1.00  0.00     0.091 A 
ATOM     61  F   UNL     1      -7.353  -0.848  16.236  1.00  0.00    -0.205 F 
ATOM     62  C   UNL     1      -7.848  -4.476  16.290  1.00  0.00     0.022 A 
BRANCH  60  63
ATOM     63  S   UNL     1      -9.873  -2.639  16.304  1.00  0.00     0.127 S 
ATOM     64  O   UNL     1     -10.302  -3.041  14.965  1.00  0.00    -0.237 OA
ATOM     65  O   UNL     1     -10.398  -3.470  17.387  1.00  0.00    -0.237 OA
ATOM     66  O   UNL     1      -9.905  -1.207  16.565  1.00  0.00    -0.744 OA
ENDBRANCH  60  63
ENDBRANCH  42  56
BRANCH  43  67
ATOM     67  C   UNL     1       1.618   4.124  16.365  1.00  0.00     0.023 A 
ATOM     68  C   UNL     1       2.688   4.014  17.275  1.00  0.00     0.012 A 
ATOM     69  C   UNL     1       1.599   5.197  15.454  1.00  0.00     0.148 A 
ATOM     70  C   UNL     1       3.699   4.975  17.305  1.00  0.00     0.002 A 
ATOM     71  C   UNL     1       2.639   6.119  15.449  1.00  0.00     0.091 A 
ATOM     72  F   UNL     1       0.568   5.289  14.602  1.00  0.00    -0.205 F 
ATOM     73  C   UNL     1       3.680   6.021  16.386  1.00  0.00     0.022 A 
BRANCH  71  74
ATOM     74  S   UNL     1       2.767   7.420  14.218  1.00  0.00     0.127 S 
ATOM     75  O   UNL     1       2.522   8.616  15.020  1.00  0.00    -0.237 OA
ATOM     76  O   UNL     1       4.146   7.260  13.754  1.00  0.00    -0.237 OA
ATOM     77  O   UNL     1       1.756   7.114  13.215  1.00  0.00    -0.744 OA
ENDBRANCH  71  74
ENDBRANCH  43  67
BRANCH  55  78
ATOM     78  C   UNL     1      -3.166   2.216  21.071  1.00  0.00     0.023 A 
ATOM     79  C   UNL     1      -3.715   3.496  21.287  1.00  0.00     0.012 A 
ATOM     80  C   UNL     1      -2.938   1.369  22.173  1.00  0.00     0.148 A 
ATOM     81  C   UNL     1      -3.986   3.943  22.580  1.00  0.00     0.002 A 
ATOM     82  C   UNL     1      -3.263   1.800  23.454  1.00  0.00     0.091 A 
ATOM     83  F   UNL     1      -2.399   0.161  21.952  1.00  0.00    -0.205 F 
ATOM     84  C   UNL     1      -3.770   3.092  23.661  1.00  0.00     0.022 A 
BRANCH  82  85
ATOM     85  S   UNL     1      -3.112   0.735  24.892  1.00  0.00     0.127 S 
ATOM     86  O   UNL     1      -1.937   1.297  25.557  1.00  0.00    -0.237 OA
ATOM     87  O   UNL     1      -4.377   0.971  25.587  1.00  0.00    -0.237 OA
ATOM     88  O   UNL     1      -2.952  -0.617  24.374  1.00  0.00    -0.744 OA
ENDBRANCH  82  85
ENDBRANCH  55  78
ENDBRANCH  29  30
ENDBRANCH  21  24
ENDBRANCH  19  20
ENDBRANCH   1  19
TORSDOF 17
