REMARK SMILES CS(=O)(=O)c1ccc(/C=C(/C(=O)NCCCCNC(=O)c2ccc(-c3c4nc(c(-c5cccc(S(=O)(=O)[O-])c5F)c5ccc([nH]5)c(-c5cccc(S(=O)(=O)[O-])c5F)c5nc(c(-c6cccc(S(=O)(=O)[O-])c6F)c6ccc3[nH]6)C=C5)C=C4)cc2)c2cccc(-c3ccc(S(C)(=O)=O)cc3)c2)cc1
REMARK SMILES IDX 15 1 14 2 13 3 11 4 12 5 10 7 9 8 8 9 5 10 6 11 101 12 7 13
REMARK SMILES IDX 100 14 2 15 1 16 3 17 4 18 84 19 85 20 99 21 86 22 88 23
REMARK SMILES IDX 87 24 89 25 90 26 98 27 91 28 97 29 92 30 93 31 94 32 95 33
REMARK SMILES IDX 96 34 16 35 17 36 18 37 19 38 20 40 21 41 22 42 83 43 23 44
REMARK SMILES IDX 82 45 24 46 25 47 26 48 76 49 27 50 81 51 75 52 77 53 28 54
REMARK SMILES IDX 80 55 74 56 73 57 29 59 61 60 41 61 60 62 42 63 45 64 59 65
REMARK SMILES IDX 78 66 43 67 44 68 58 70 79 71 46 72 30 73 31 74 39 75 32 76
REMARK SMILES IDX 34 77 40 78 33 79 35 80 36 81 37 82 38 83 62 84 63 85 71 86
REMARK SMILES IDX 64 87 66 88 72 89 65 90 67 91 68 92 69 93 70 94 47 95 48 96
REMARK SMILES IDX 56 97 49 98 51 99 57 100 50 101 52 102 53 103 54 104 55 105
REMARK H PARENT 13 6 18 39 77 58 45 69
REMARK Flexibility Score: inf
ROOT
ATOM      1  C   UNL     1       5.510  -8.343   0.505  1.00  0.00     0.023 C 
ENDROOT
BRANCH   1   2
ATOM      2  C   UNL     1       4.441  -8.332  -0.591  1.00  0.00     0.116 C 
BRANCH   2   3
ATOM      3  N   UNL     1       3.357  -9.227  -0.242  1.00  0.00    -0.352 N 
ATOM      4  C   UNL     1       2.126  -9.057   0.305  1.00  0.00     0.251 C 
ATOM      5  O   UNL     1       1.477 -10.091   0.488  1.00  0.00    -0.269 OA
ATOM      6  H   UNL     1       3.559 -10.169  -0.446  1.00  0.00     0.163 HD
BRANCH   4   7
ATOM      7  C   UNL     1       1.504  -7.706   0.604  1.00  0.00     0.047 C 
ATOM      8  C   UNL     1       2.241  -6.622   0.948  1.00  0.00     0.022 C 
BRANCH   8   9
ATOM      9  C   UNL     1       1.834  -5.210   1.158  1.00  0.00    -0.025 A 
ATOM     10  C   UNL     1       1.115  -2.492   1.322  1.00  0.00     0.067 A 
ATOM     11  C   UNL     1       0.310  -3.468   1.912  1.00  0.00     0.021 A 
ATOM     12  C   UNL     1       2.304  -2.853   0.692  1.00  0.00     0.021 A 
ATOM     13  C   UNL     1       0.692  -4.813   1.862  1.00  0.00     0.009 A 
ATOM     14  C   UNL     1       2.653  -4.208   0.607  1.00  0.00     0.009 A 
BRANCH  10  15
ATOM     15  S   UNL     1       0.586  -0.796   1.394  1.00  0.00     0.175 S 
ATOM     16  C   UNL     1       1.092  -0.046  -0.131  1.00  0.00     0.163 C 
ATOM     17  O   UNL     1       1.333  -0.176   2.471  1.00  0.00    -0.224 OA
ATOM     18  O   UNL     1      -0.866  -0.805   1.402  1.00  0.00    -0.224 OA
ENDBRANCH  10  15
ENDBRANCH   8   9
BRANCH   7  19
ATOM     19  C   UNL     1       0.018  -7.663   0.682  1.00  0.00    -0.012 A 
ATOM     20  C   UNL     1      -0.627  -8.421   1.673  1.00  0.00     0.009 A 
ATOM     21  C   UNL     1      -0.747  -6.786  -0.100  1.00  0.00     0.017 A 
ATOM     22  C   UNL     1      -1.993  -8.289   1.902  1.00  0.00     0.001 A 
ATOM     23  C   UNL     1      -2.110  -6.575   0.179  1.00  0.00    -0.018 A 
ATOM     24  C   UNL     1      -2.725  -7.357   1.172  1.00  0.00     0.009 A 
BRANCH  23  25
ATOM     25  C   UNL     1      -2.831  -5.460  -0.450  1.00  0.00    -0.018 A 
ATOM     26  C   UNL     1      -3.379  -4.442   0.355  1.00  0.00     0.010 A 
ATOM     27  C   UNL     1      -2.930  -5.336  -1.843  1.00  0.00     0.010 A 
ATOM     28  C   UNL     1      -4.003  -3.331  -0.210  1.00  0.00     0.021 A 
ATOM     29  C   UNL     1      -3.563  -4.231  -2.420  1.00  0.00     0.021 A 
ATOM     30  C   UNL     1      -4.099  -3.238  -1.598  1.00  0.00     0.067 A 
BRANCH  30  31
ATOM     31  S   UNL     1      -4.900  -1.823  -2.310  1.00  0.00     0.175 S 
ATOM     32  C   UNL     1      -6.584  -1.983  -1.775  1.00  0.00     0.163 C 
ATOM     33  O   UNL     1      -4.332  -0.645  -1.686  1.00  0.00    -0.224 OA
ATOM     34  O   UNL     1      -4.885  -1.981  -3.753  1.00  0.00    -0.224 OA
ENDBRANCH  30  31
ENDBRANCH  23  25
ENDBRANCH   7  19
ENDBRANCH   4   7
ENDBRANCH   2   3
ENDBRANCH   1   2
BRANCH   1  35
ATOM     35  C   UNL     1       6.362  -9.618   0.540  1.00  0.00     0.023 C 
BRANCH  35  36
ATOM     36  C   UNL     1       7.145  -9.915  -0.737  1.00  0.00     0.116 C 
BRANCH  36  37
ATOM     37  N   UNL     1       8.000  -8.811  -1.149  1.00  0.00    -0.352 N 
ATOM     38  C   UNL     1       9.244  -8.859  -1.731  1.00  0.00     0.251 C 
ATOM     39  H   UNL     1       7.639  -7.909  -0.989  1.00  0.00     0.163 HD
ATOM     40  O   UNL     1       9.879  -7.824  -1.909  1.00  0.00    -0.269 OA
BRANCH  38  41
ATOM     41  C   UNL     1       9.820 -10.166  -2.104  1.00  0.00     0.039 A 
ATOM     42  C   UNL     1      11.119 -10.472  -1.692  1.00  0.00     0.014 A 
ATOM     43  C   UNL     1       9.068 -11.098  -2.825  1.00  0.00     0.014 A 
ATOM     44  C   UNL     1      11.640 -11.743  -1.942  1.00  0.00     0.010 A 
ATOM     45  C   UNL     1       9.564 -12.384  -3.014  1.00  0.00     0.010 A 
ATOM     46  C   UNL     1      10.852 -12.721  -2.571  1.00  0.00    -0.014 A 
BRANCH  46  47
ATOM     47  C   UNL     1      11.343 -14.113  -2.736  1.00  0.00     0.031 A 
ATOM     48  C   UNL     1      11.536 -14.696  -4.109  1.00  0.00     0.074 A 
ATOM     49  C   UNL     1      11.521 -14.883  -1.644  1.00  0.00     0.049 A 
ATOM     50  N   UNL     1      11.907 -15.904  -4.444  1.00  0.00    -0.248 NA
ATOM     51  C   UNL     1      11.251 -13.817  -5.254  1.00  0.00     0.031 C 
ATOM     52  C   UNL     1      11.281 -14.459  -0.262  1.00  0.00     0.029 A 
ATOM     53  N   UNL     1      11.918 -16.192  -1.524  1.00  0.00    -0.354 N 
ATOM     54  C   UNL     1      11.868 -15.943  -5.832  1.00  0.00     0.074 A 
ATOM     55  C   UNL     1      11.406 -14.646  -6.277  1.00  0.00     0.031 C 
ATOM     56  C   UNL     1      11.537 -15.486   0.564  1.00  0.00     0.029 A 
ATOM     57  C   UNL     1      11.930 -16.648  -0.226  1.00  0.00     0.049 A 
ATOM     58  H   UNL     1      12.169 -16.751  -2.294  1.00  0.00     0.167 HD
ATOM     59  C   UNL     1      12.212 -16.955  -6.663  1.00  0.00     0.034 A 
ATOM     60  C   UNL     1      12.219 -17.866   0.272  1.00  0.00     0.034 A 
ATOM     61  C   UNL     1      12.709 -18.229  -6.218  1.00  0.00     0.049 A 
ATOM     62  C   UNL     1      12.640 -18.960  -0.671  1.00  0.00     0.074 A 
ATOM     63  C   UNL     1      13.175 -19.285  -6.981  1.00  0.00     0.029 A 
ATOM     64  N   UNL     1      12.795 -18.626  -4.892  1.00  0.00    -0.354 N 
ATOM     65  N   UNL     1      12.762 -18.922  -1.976  1.00  0.00    -0.248 NA
ATOM     66  C   UNL     1      12.999 -20.253  -0.072  1.00  0.00     0.031 C 
ATOM     67  C   UNL     1      13.520 -20.330  -6.117  1.00  0.00     0.029 A 
ATOM     68  C   UNL     1      13.295 -19.915  -4.815  1.00  0.00     0.049 A 
ATOM     69  H   UNL     1      12.538 -18.073  -4.119  1.00  0.00     0.167 HD
ATOM     70  C   UNL     1      13.243 -20.171  -2.351  1.00  0.00     0.074 A 
ATOM     71  C   UNL     1      13.413 -20.935  -1.132  1.00  0.00     0.031 C 
ATOM     72  C   UNL     1      13.507 -20.647  -3.592  1.00  0.00     0.034 A 
BRANCH  59  73
ATOM     73  C   UNL     1      12.116 -16.708  -8.146  1.00  0.00     0.023 A 
ATOM     74  C   UNL     1      13.038 -15.839  -8.767  1.00  0.00     0.012 A 
ATOM     75  C   UNL     1      11.160 -17.378  -8.935  1.00  0.00     0.148 A 
ATOM     76  C   UNL     1      12.988 -15.614 -10.142  1.00  0.00     0.002 A 
ATOM     77  C   UNL     1      11.146 -17.183 -10.311  1.00  0.00     0.091 A 
ATOM     78  F   UNL     1      10.279 -18.183  -8.325  1.00  0.00    -0.205 F 
ATOM     79  C   UNL     1      12.050 -16.293 -10.914  1.00  0.00     0.022 A 
BRANCH  77  80
ATOM     80  S   UNL     1      10.030 -18.070 -11.405  1.00  0.00     0.127 S 
ATOM     81  O   UNL     1       9.113 -17.007 -11.815  1.00  0.00    -0.237 OA
ATOM     82  O   UNL     1      10.935 -18.534 -12.457  1.00  0.00    -0.237 OA
ATOM     83  O   UNL     1       9.439 -19.130 -10.601  1.00  0.00    -0.744 OA
ENDBRANCH  77  80
ENDBRANCH  59  73
BRANCH  60  84
ATOM     84  C   UNL     1      12.182 -18.096   1.744  1.00  0.00     0.023 A 
ATOM     85  C   UNL     1      13.389 -18.293   2.443  1.00  0.00     0.012 A 
ATOM     86  C   UNL     1      10.969 -18.089   2.458  1.00  0.00     0.148 A 
ATOM     87  C   UNL     1      13.386 -18.514   3.821  1.00  0.00     0.002 A 
ATOM     88  C   UNL     1      10.977 -18.253   3.838  1.00  0.00     0.091 A 
ATOM     89  F   UNL     1       9.830 -17.911   1.773  1.00  0.00    -0.205 F 
ATOM     90  C   UNL     1      12.182 -18.483   4.519  1.00  0.00     0.022 A 
BRANCH  88  91
ATOM     91  S   UNL     1       9.491 -18.094   4.835  1.00  0.00     0.127 S 
ATOM     92  O   UNL     1       9.255 -19.475   5.244  1.00  0.00    -0.237 OA
ATOM     93  O   UNL     1       9.939 -17.201   5.904  1.00  0.00    -0.237 OA
ATOM     94  O   UNL     1       8.488 -17.513   3.952  1.00  0.00    -0.744 OA
ENDBRANCH  88  91
ENDBRANCH  60  84
BRANCH  72  95
ATOM     95  C   UNL     1      14.040 -22.052  -3.703  1.00  0.00     0.023 A 
ATOM     96  C   UNL     1      13.185 -23.146  -3.464  1.00  0.00     0.012 A 
ATOM     97  C   UNL     1      15.366 -22.287  -4.116  1.00  0.00     0.148 A 
ATOM     98  C   UNL     1      13.653 -24.453  -3.601  1.00  0.00     0.002 A 
ATOM     99  C   UNL     1      15.810 -23.591  -4.300  1.00  0.00     0.091 A 
ATOM    100  F   UNL     1      16.169 -21.232  -4.321  1.00  0.00    -0.205 F 
ATOM    101  C   UNL     1      14.959 -24.675  -4.031  1.00  0.00     0.022 A 
BRANCH  99 102
ATOM    102  S   UNL     1      17.444 -23.970  -4.942  1.00  0.00     0.127 S 
ATOM    103  O   UNL     1      18.121 -24.480  -3.752  1.00  0.00    -0.237 OA
ATOM    104  O   UNL     1      17.151 -24.981  -5.958  1.00  0.00    -0.237 OA
ATOM    105  O   UNL     1      17.968 -22.717  -5.471  1.00  0.00    -0.744 OA
ENDBRANCH  99 102
ENDBRANCH  72  95
ENDBRANCH  46  47
ENDBRANCH  38  41
ENDBRANCH  36  37
ENDBRANCH  35  36
ENDBRANCH   1  35
TORSDOF 19
