REMARK SMILES Cc1csc(C[NH2+]C[C@H]2CCC[C@H]2C(=O)NCCCCNC(=O)c2ccc(-c3c4nc(c(-c5cccc(S(=O)(=O)[O-])c5F)c5ccc([nH]5)c(-c5cccc(S(=O)(=O)[O-])c5F)c5nc(c(-c6cccc(S(=O)(=O)[O-])c6F)c6ccc3[nH]6)C=C5)C=C4)cc2)n1
REMARK SMILES IDX 18 1 17 2 16 3 14 4 15 5 13 7 9 8 10 9 11 10 12 11 8 12 7 13
REMARK SMILES IDX 6 16 5 17 1 18 2 19 3 20 87 21 4 22 19 23 20 24 21 25 22 26
REMARK SMILES IDX 23 28 24 29 25 30 86 31 26 32 85 33 27 34 28 35 29 36 79 37
REMARK SMILES IDX 30 38 84 39 78 40 80 41 31 42 83 43 77 44 76 45 32 47 64 48
REMARK SMILES IDX 44 49 63 50 45 51 48 52 62 53 81 54 46 55 47 56 61 58 82 59
REMARK SMILES IDX 49 60 33 61 34 62 42 63 35 64 37 65 43 66 36 67 38 68 39 69
REMARK SMILES IDX 40 70 41 71 65 72 66 73 74 74 67 75 69 76 75 77 68 78 70 79
REMARK SMILES IDX 71 80 72 81 73 82 50 83 51 84 59 85 52 86 54 87 60 88 53 89
REMARK SMILES IDX 55 90 56 91 57 92 58 93
REMARK H PARENT 16 6 7 14 7 15 21 27 80 46 48 57
REMARK Flexibility Score: inf
ROOT
ATOM      1  C   UNL     1       4.504   2.792   2.021  1.00  0.00     0.023 C 
ENDROOT
BRANCH   1   2
ATOM      2  C   UNL     1       4.979   2.111   0.733  1.00  0.00     0.116 C 
BRANCH   2   3
ATOM      3  N   UNL     1       3.861   1.571  -0.019  1.00  0.00    -0.356 N 
ATOM      4  C   UNL     1       3.220   1.953  -1.150  1.00  0.00     0.223 C 
ATOM      5  O   UNL     1       2.207   1.306  -1.446  1.00  0.00    -0.275 OA
ATOM      6  H   UNL     1       3.488   0.750   0.378  1.00  0.00     0.163 HD
BRANCH   4   7
ATOM      7  C   UNL     1       3.645   3.102  -2.067  1.00  0.00     0.087 C 
ATOM      8  C   UNL     1       3.263   4.561  -1.702  1.00  0.00     0.057 C 
ATOM      9  C   UNL     1       4.180   5.353  -2.641  1.00  0.00     0.010 C 
ATOM     10  C   UNL     1       5.502   4.601  -2.588  1.00  0.00     0.001 C 
ATOM     11  C   UNL     1       5.109   3.127  -2.532  1.00  0.00     0.014 C 
BRANCH   8  12
ATOM     12  C   UNL     1       3.461   4.894  -0.224  1.00  0.00     0.265 C 
BRANCH  12  13
ATOM     13  N   UNL     1       3.453   6.282   0.185  1.00  0.00    -0.340 N 
ATOM     14  H   UNL     1       3.987   6.357   1.051  1.00  0.00     0.346 HD
ATOM     15  H   UNL     1       3.854   6.804  -0.594  1.00  0.00     0.346 HD
BRANCH  13  16
ATOM     16  C   UNL     1       2.136   6.863   0.418  1.00  0.00     0.329 C 
BRANCH  16  17
ATOM     17  C   UNL     1       2.309   8.219   1.057  1.00  0.00     0.147 A 
ATOM     18  C   UNL     1       3.370  10.144   3.904  1.00  0.00     0.067 C 
ATOM     19  C   UNL     1       2.895   9.747   2.555  1.00  0.00     0.049 A 
ATOM     20  C   UNL     1       2.686  10.572   1.467  1.00  0.00     0.090 A 
ATOM     21  N   UNL     1       2.646   8.409   2.317  1.00  0.00    -0.241 NA
ATOM     22  S   UNL     1       2.191   9.650   0.110  1.00  0.00    -0.121 S 
ENDBRANCH  16  17
ENDBRANCH  13  16
ENDBRANCH  12  13
ENDBRANCH   8  12
ENDBRANCH   4   7
ENDBRANCH   2   3
ENDBRANCH   1   2
BRANCH   1  23
ATOM     23  C   UNL     1       4.270   1.866   3.206  1.00  0.00     0.023 C 
BRANCH  23  24
ATOM     24  C   UNL     1       5.518   1.180   3.727  1.00  0.00     0.116 C 
BRANCH  24  25
ATOM     25  N   UNL     1       6.583   2.104   4.089  1.00  0.00    -0.352 N 
ATOM     26  C   UNL     1       7.459   2.030   5.149  1.00  0.00     0.251 C 
ATOM     27  H   UNL     1       6.691   2.885   3.499  1.00  0.00     0.163 HD
ATOM     28  O   UNL     1       8.242   2.938   5.372  1.00  0.00    -0.269 OA
BRANCH  26  29
ATOM     29  C   UNL     1       7.407   0.843   6.030  1.00  0.00     0.039 A 
ATOM     30  C   UNL     1       7.397   1.029   7.413  1.00  0.00     0.014 A 
ATOM     31  C   UNL     1       7.311  -0.439   5.486  1.00  0.00     0.014 A 
ATOM     32  C   UNL     1       7.238  -0.076   8.250  1.00  0.00     0.010 A 
ATOM     33  C   UNL     1       7.044  -1.519   6.314  1.00  0.00     0.010 A 
ATOM     34  C   UNL     1       7.034  -1.354   7.705  1.00  0.00    -0.014 A 
BRANCH  34  35
ATOM     35  C   UNL     1       6.849  -2.542   8.574  1.00  0.00     0.031 A 
ATOM     36  C   UNL     1       7.841  -3.673   8.510  1.00  0.00     0.074 A 
ATOM     37  C   UNL     1       5.760  -2.633   9.361  1.00  0.00     0.049 A 
ATOM     38  N   UNL     1       7.847  -4.802   9.168  1.00  0.00    -0.248 NA
ATOM     39  C   UNL     1       8.955  -3.536   7.554  1.00  0.00     0.031 C 
ATOM     40  C   UNL     1       4.678  -1.648   9.431  1.00  0.00     0.029 A 
ATOM     41  N   UNL     1       5.373  -3.612  10.241  1.00  0.00    -0.354 N 
ATOM     42  C   UNL     1       8.932  -5.519   8.680  1.00  0.00     0.074 A 
ATOM     43  C   UNL     1       9.532  -4.725   7.633  1.00  0.00     0.031 C 
ATOM     44  C   UNL     1       3.761  -2.063  10.322  1.00  0.00     0.029 A 
ATOM     45  C   UNL     1       4.179  -3.349  10.870  1.00  0.00     0.049 A 
ATOM     46  H   UNL     1       5.901  -4.426  10.406  1.00  0.00     0.167 HD
ATOM     47  C   UNL     1       9.419  -6.711   9.097  1.00  0.00     0.034 A 
ATOM     48  C   UNL     1       3.506  -4.063  11.794  1.00  0.00     0.034 A 
ATOM     49  C   UNL     1       8.859  -7.463  10.185  1.00  0.00     0.049 A 
ATOM     50  C   UNL     1       4.107  -5.349  12.293  1.00  0.00     0.074 A 
ATOM     51  C   UNL     1       9.329  -8.630  10.758  1.00  0.00     0.029 A 
ATOM     52  N   UNL     1       7.704  -7.115  10.869  1.00  0.00    -0.354 N 
ATOM     53  N   UNL     1       5.232  -5.926  11.942  1.00  0.00    -0.248 NA
ATOM     54  C   UNL     1       3.369  -6.062  13.346  1.00  0.00     0.031 C 
ATOM     55  C   UNL     1       8.449  -8.996  11.781  1.00  0.00     0.029 A 
ATOM     56  C   UNL     1       7.442  -8.047  11.857  1.00  0.00     0.049 A 
ATOM     57  H   UNL     1       7.152  -6.323  10.680  1.00  0.00     0.167 HD
ATOM     58  C   UNL     1       5.352  -7.051  12.750  1.00  0.00     0.074 A 
ATOM     59  C   UNL     1       4.200  -7.057  13.629  1.00  0.00     0.031 C 
ATOM     60  C   UNL     1       6.317  -8.004  12.755  1.00  0.00     0.034 A 
BRANCH  47  61
ATOM     61  C   UNL     1      10.660  -7.233   8.421  1.00  0.00     0.023 A 
ATOM     62  C   UNL     1      11.895  -6.591   8.650  1.00  0.00     0.012 A 
ATOM     63  C   UNL     1      10.617  -8.374   7.598  1.00  0.00     0.148 A 
ATOM     64  C   UNL     1      13.061  -7.051   8.040  1.00  0.00     0.002 A 
ATOM     65  C   UNL     1      11.792  -8.855   7.029  1.00  0.00     0.091 A 
ATOM     66  F   UNL     1       9.432  -8.957   7.372  1.00  0.00    -0.205 F 
ATOM     67  C   UNL     1      13.011  -8.188   7.239  1.00  0.00     0.022 A 
BRANCH  65  68
ATOM     68  S   UNL     1      11.850 -10.355   6.044  1.00  0.00     0.127 S 
ATOM     69  O   UNL     1      12.099  -9.820   4.706  1.00  0.00    -0.237 OA
ATOM     70  O   UNL     1      12.983 -11.068   6.635  1.00  0.00    -0.237 OA
ATOM     71  O   UNL     1      10.561 -11.006   6.227  1.00  0.00    -0.744 OA
ENDBRANCH  65  68
ENDBRANCH  47  61
BRANCH  48  72
ATOM     72  C   UNL     1       2.240  -3.531  12.373  1.00  0.00     0.023 A 
ATOM     73  C   UNL     1       2.228  -3.085  13.710  1.00  0.00     0.012 A 
ATOM     74  C   UNL     1       1.060  -3.441  11.611  1.00  0.00     0.148 A 
ATOM     75  C   UNL     1       1.057  -2.593  14.287  1.00  0.00     0.002 A 
ATOM     76  C   UNL     1      -0.090  -2.900  12.176  1.00  0.00     0.091 A 
ATOM     77  F   UNL     1       1.086  -3.881  10.345  1.00  0.00    -0.205 F 
ATOM     78  C   UNL     1      -0.099  -2.491  13.519  1.00  0.00     0.022 A 
BRANCH  76  79
ATOM     79  S   UNL     1      -1.586  -2.614  11.223  1.00  0.00     0.127 S 
ATOM     80  O   UNL     1      -2.465  -3.668  11.723  1.00  0.00    -0.237 OA
ATOM     81  O   UNL     1      -1.954  -1.258  11.633  1.00  0.00    -0.237 OA
ATOM     82  O   UNL     1      -1.186  -2.729   9.827  1.00  0.00    -0.744 OA
ENDBRANCH  76  79
ENDBRANCH  48  72
BRANCH  60  83
ATOM     83  C   UNL     1       6.184  -9.122  13.753  1.00  0.00     0.023 A 
ATOM     84  C   UNL     1       5.205 -10.117  13.559  1.00  0.00     0.012 A 
ATOM     85  C   UNL     1       7.076  -9.230  14.838  1.00  0.00     0.148 A 
ATOM     86  C   UNL     1       5.093 -11.184  14.448  1.00  0.00     0.002 A 
ATOM     87  C   UNL     1       6.990 -10.322  15.693  1.00  0.00     0.091 A 
ATOM     88  F   UNL     1       7.988  -8.264  15.016  1.00  0.00    -0.205 F 
ATOM     89  C   UNL     1       5.992 -11.293  15.507  1.00  0.00     0.022 A 
BRANCH  87  90
ATOM     90  S   UNL     1       8.167 -10.595  17.022  1.00  0.00     0.127 S 
ATOM     91  O   UNL     1       7.376 -10.239  18.198  1.00  0.00    -0.237 OA
ATOM     92  O   UNL     1       8.459 -12.023  16.892  1.00  0.00    -0.237 OA
ATOM     93  O   UNL     1       9.299  -9.722  16.738  1.00  0.00    -0.744 OA
ENDBRANCH  87  90
ENDBRANCH  60  83
ENDBRANCH  34  35
ENDBRANCH  26  29
ENDBRANCH  24  25
ENDBRANCH  23  24
ENDBRANCH   1  23
TORSDOF 18
