REMARK SMILES C/C=C/C[C@H](Cc1cccc(F)c1)C(=O)NCCCCNC(=O)c1ccc(-c2c3nc(c(-c4cccc(S(=O)(=O)[O-])c4F)c4ccc([nH]4)c(-c4cccc(S(=O)(=O)[O-])c4F)c4nc(c(-c5cccc(S(=O)(=O)[O-])c5F)c5ccc2[nH]5)C=C4)C=C3)cc1
REMARK SMILES IDX 19 1 18 2 17 3 16 4 14 5 15 6 5 8 4 9 3 10 1 11 2 12 6 13
REMARK SMILES IDX 7 14 8 15 13 16 9 17 11 18 10 19 12 20 20 21 21 22 22 23
REMARK SMILES IDX 23 25 24 26 25 27 86 28 26 29 85 30 27 31 28 32 29 33 79 34
REMARK SMILES IDX 30 35 84 36 78 37 80 38 31 39 83 40 77 41 76 42 32 44 64 45
REMARK SMILES IDX 44 46 63 47 45 48 48 49 62 50 81 51 46 52 47 53 61 55 82 56
REMARK SMILES IDX 49 57 33 58 34 59 42 60 35 61 37 62 43 63 36 64 38 65 39 66
REMARK SMILES IDX 40 67 41 68 65 69 66 70 74 71 67 72 69 73 75 74 68 75 70 76
REMARK SMILES IDX 71 77 72 78 73 79 50 80 51 81 59 82 52 83 54 84 60 85 53 86
REMARK SMILES IDX 55 87 56 88 57 89 58 90
REMARK H PARENT 16 7 21 24 80 43 48 54
REMARK Flexibility Score: inf
ROOT
ATOM      1  C   UNL     1      -4.882  -5.353   3.488  1.00  0.00     0.023 C 
ENDROOT
BRANCH   1   2
ATOM      2  C   UNL     1      -4.029  -4.241   2.885  1.00  0.00     0.023 C 
BRANCH   2   3
ATOM      3  C   UNL     1      -3.439  -3.255   3.883  1.00  0.00     0.116 C 
BRANCH   3   4
ATOM      4  N   UNL     1      -2.405  -3.808   4.727  1.00  0.00    -0.356 N 
ATOM      5  C   UNL     1      -1.130  -3.394   4.941  1.00  0.00     0.223 C 
ATOM      6  O   UNL     1      -0.522  -3.914   5.884  1.00  0.00    -0.275 OA
ATOM      7  H   UNL     1      -2.667  -4.614   5.227  1.00  0.00     0.163 HD
BRANCH   5   8
ATOM      8  C   UNL     1      -0.419  -2.346   4.086  1.00  0.00     0.086 C 
BRANCH   8   9
ATOM      9  C   UNL     1      -0.687  -0.922   4.641  1.00  0.00     0.040 C 
BRANCH   9  10
ATOM     10  C   UNL     1      -2.100  -0.414   4.516  1.00  0.00    -0.031 C 
ATOM     11  C   UNL     1      -4.419  -0.030   5.403  1.00  0.00     0.035 C 
ATOM     12  C   UNL     1      -2.970  -0.376   5.540  1.00  0.00    -0.035 C 
ENDBRANCH   9  10
ENDBRANCH   8   9
BRANCH   8  13
ATOM     13  C   UNL     1      -0.524  -2.448   2.551  1.00  0.00     0.049 C 
BRANCH  13  14
ATOM     14  C   UNL     1      -0.366  -3.776   1.832  1.00  0.00    -0.044 A 
ATOM     15  C   UNL     1      -0.199  -5.020   2.457  1.00  0.00     0.004 A 
ATOM     16  C   UNL     1      -0.440  -3.761   0.427  1.00  0.00     0.043 A 
ATOM     17  C   UNL     1      -0.182  -6.209   1.715  1.00  0.00     0.003 A 
ATOM     18  C   UNL     1      -0.392  -4.945  -0.305  1.00  0.00     0.123 A 
ATOM     19  C   UNL     1      -0.282  -6.173   0.329  1.00  0.00     0.039 A 
ATOM     20  F   UNL     1      -0.466  -4.896  -1.642  1.00  0.00    -0.207 F 
ENDBRANCH  13  14
ENDBRANCH   8  13
ENDBRANCH   5   8
ENDBRANCH   3   4
ENDBRANCH   2   3
ENDBRANCH   1   2
BRANCH   1  21
ATOM     21  C   UNL     1      -5.889  -4.919   4.546  1.00  0.00     0.116 C 
BRANCH  21  22
ATOM     22  N   UNL     1      -6.734  -3.802   4.147  1.00  0.00    -0.352 N 
ATOM     23  C   UNL     1      -8.037  -3.540   4.511  1.00  0.00     0.251 C 
ATOM     24  H   UNL     1      -6.320  -3.149   3.538  1.00  0.00     0.163 HD
ATOM     25  O   UNL     1      -8.617  -2.563   4.069  1.00  0.00    -0.269 OA
BRANCH  23  26
ATOM     26  C   UNL     1      -8.733  -4.491   5.405  1.00  0.00     0.039 A 
ATOM     27  C   UNL     1      -9.979  -4.985   5.014  1.00  0.00     0.014 A 
ATOM     28  C   UNL     1      -8.133  -4.936   6.586  1.00  0.00     0.014 A 
ATOM     29  C   UNL     1     -10.597  -5.976   5.778  1.00  0.00     0.010 A 
ATOM     30  C   UNL     1      -8.711  -5.981   7.299  1.00  0.00     0.010 A 
ATOM     31  C   UNL     1      -9.953  -6.505   6.910  1.00  0.00    -0.014 A 
BRANCH  31  32
ATOM     32  C   UNL     1     -10.573  -7.591   7.709  1.00  0.00     0.031 A 
ATOM     33  C   UNL     1     -10.953  -7.343   9.143  1.00  0.00     0.074 A 
ATOM     34  C   UNL     1     -10.731  -8.816   7.169  1.00  0.00     0.049 A 
ATOM     35  N   UNL     1     -11.481  -8.169  10.008  1.00  0.00    -0.248 NA
ATOM     36  C   UNL     1     -10.679  -6.002   9.689  1.00  0.00     0.031 C 
ATOM     37  C   UNL     1     -10.320  -9.206   5.819  1.00  0.00     0.029 A 
ATOM     38  N   UNL     1     -11.264  -9.966   7.697  1.00  0.00    -0.354 N 
ATOM     39  C   UNL     1     -11.569  -7.463  11.201  1.00  0.00     0.074 A 
ATOM     40  C   UNL     1     -11.002  -6.155  10.965  1.00  0.00     0.031 C 
ATOM     41  C   UNL     1     -10.630 -10.498   5.620  1.00  0.00     0.029 A 
ATOM     42  C   UNL     1     -11.243 -11.036   6.831  1.00  0.00     0.049 A 
ATOM     43  H   UNL     1     -11.628 -10.021   8.611  1.00  0.00     0.167 HD
ATOM     44  C   UNL     1     -12.115  -7.852  12.375  1.00  0.00     0.034 A 
ATOM     45  C   UNL     1     -11.675 -12.303   6.993  1.00  0.00     0.034 A 
ATOM     46  C   UNL     1     -12.751  -9.122  12.582  1.00  0.00     0.049 A 
ATOM     47  C   UNL     1     -12.330 -12.692   8.292  1.00  0.00     0.074 A 
ATOM     48  C   UNL     1     -13.441  -9.562  13.697  1.00  0.00     0.029 A 
ATOM     49  N   UNL     1     -12.780 -10.152  11.656  1.00  0.00    -0.354 N 
ATOM     50  N   UNL     1     -12.566 -11.953   9.349  1.00  0.00    -0.248 NA
ATOM     51  C   UNL     1     -12.808 -14.078   8.414  1.00  0.00     0.031 C 
ATOM     52  C   UNL     1     -13.876 -10.866  13.450  1.00  0.00     0.029 A 
ATOM     53  C   UNL     1     -13.466 -11.233  12.177  1.00  0.00     0.049 A 
ATOM     54  H   UNL     1     -12.373 -10.118  10.760  1.00  0.00     0.167 HD
ATOM     55  C   UNL     1     -13.236 -12.773  10.249  1.00  0.00     0.074 A 
ATOM     56  C   UNL     1     -13.392 -14.061   9.605  1.00  0.00     0.031 C 
ATOM     57  C   UNL     1     -13.663 -12.490  11.504  1.00  0.00     0.034 A 
BRANCH  44  58
ATOM     58  C   UNL     1     -12.136  -6.861  13.508  1.00  0.00     0.023 A 
ATOM     59  C   UNL     1     -13.035  -5.776  13.453  1.00  0.00     0.012 A 
ATOM     60  C   UNL     1     -11.347  -7.052  14.658  1.00  0.00     0.148 A 
ATOM     61  C   UNL     1     -13.132  -4.882  14.517  1.00  0.00     0.002 A 
ATOM     62  C   UNL     1     -11.479  -6.179  15.731  1.00  0.00     0.091 A 
ATOM     63  F   UNL     1     -10.488  -8.080  14.680  1.00  0.00    -0.205 F 
ATOM     64  C   UNL     1     -12.364  -5.090  15.659  1.00  0.00     0.022 A 
BRANCH  62  65
ATOM     65  S   UNL     1     -10.595  -6.398  17.279  1.00  0.00     0.127 S 
ATOM     66  O   UNL     1      -9.707  -5.236  17.278  1.00  0.00    -0.237 OA
ATOM     67  O   UNL     1     -11.678  -6.337  18.261  1.00  0.00    -0.237 OA
ATOM     68  O   UNL     1      -9.927  -7.689  17.184  1.00  0.00    -0.744 OA
ENDBRANCH  62  65
ENDBRANCH  44  58
BRANCH  45  69
ATOM     69  C   UNL     1     -11.582 -13.267   5.859  1.00  0.00     0.023 A 
ATOM     70  C   UNL     1     -12.761 -13.659   5.194  1.00  0.00     0.012 A 
ATOM     71  C   UNL     1     -10.343 -13.756   5.404  1.00  0.00     0.148 A 
ATOM     72  C   UNL     1     -12.709 -14.537   4.110  1.00  0.00     0.002 A 
ATOM     73  C   UNL     1     -10.293 -14.588   4.290  1.00  0.00     0.091 A 
ATOM     74  F   UNL     1      -9.234 -13.384   6.059  1.00  0.00    -0.205 F 
ATOM     75  C   UNL     1     -11.476 -14.991   3.651  1.00  0.00     0.022 A 
BRANCH  73  76
ATOM     76  S   UNL     1      -8.742 -15.113   3.549  1.00  0.00     0.127 S 
ATOM     77  O   UNL     1      -8.694 -16.524   3.922  1.00  0.00    -0.237 OA
ATOM     78  O   UNL     1      -8.984 -14.859   2.128  1.00  0.00    -0.237 OA
ATOM     79  O   UNL     1      -7.719 -14.264   4.142  1.00  0.00    -0.744 OA
ENDBRANCH  73  76
ENDBRANCH  45  69
BRANCH  57  80
ATOM     80  C   UNL     1     -14.344 -13.579  12.289  1.00  0.00     0.023 A 
ATOM     81  C   UNL     1     -13.565 -14.602  12.860  1.00  0.00     0.012 A 
ATOM     82  C   UNL     1     -15.718 -13.499  12.591  1.00  0.00     0.148 A 
ATOM     83  C   UNL     1     -14.143 -15.537  13.717  1.00  0.00     0.002 A 
ATOM     84  C   UNL     1     -16.279 -14.407  13.481  1.00  0.00     0.091 A 
ATOM     85  F   UNL     1     -16.440 -12.520  12.027  1.00  0.00    -0.205 F 
ATOM     86  C   UNL     1     -15.494 -15.430  14.040  1.00  0.00     0.022 A 
BRANCH  84  87
ATOM     87  S   UNL     1     -17.983 -14.291  14.040  1.00  0.00     0.127 S 
ATOM     88  O   UNL     1     -18.572 -15.492  13.450  1.00  0.00    -0.237 OA
ATOM     89  O   UNL     1     -17.834 -14.336  15.495  1.00  0.00    -0.237 OA
ATOM     90  O   UNL     1     -18.494 -13.030  13.520  1.00  0.00    -0.744 OA
ENDBRANCH  84  87
ENDBRANCH  57  80
ENDBRANCH  31  32
ENDBRANCH  23  26
ENDBRANCH  21  22
ENDBRANCH   1  21
TORSDOF 18
