REMARK SMILES O=C(NCCCCNC(=O)c1cnccc1C(=O)N1CCC(Cc2ccccc2)CC1)c1ccc(-c2c3nc(c(-c4cccc(S(=O)(=O)[O-])c4F)c4ccc([nH]4)c(-c4cccc(S(=O)(=O)[O-])c4F)c4nc(c(-c5cccc(S(=O)(=O)[O-])c5F)c5ccc2[nH]5)C=C4)C=C3)cc1
REMARK SMILES IDX 5 1 4 2 3 3 1 4 2 5 32 7 33 8 94 9 34 10 93 11 35 12 36 13
REMARK SMILES IDX 37 14 87 15 38 16 92 17 86 18 88 19 39 20 91 21 85 22 84 23
REMARK SMILES IDX 40 25 72 26 52 27 71 28 53 29 56 30 70 31 89 32 54 33 55 34
REMARK SMILES IDX 69 36 90 37 57 38 41 39 42 40 50 41 43 42 45 43 51 44 44 45
REMARK SMILES IDX 46 46 47 47 48 48 49 49 73 50 74 51 82 52 75 53 77 54 83 55
REMARK SMILES IDX 76 56 78 57 79 58 80 59 81 60 58 61 59 62 67 63 60 64 62 65
REMARK SMILES IDX 68 66 61 67 63 68 64 69 65 70 66 71 6 72 7 73 8 74 9 75
REMARK SMILES IDX 10 77 11 78 12 79 16 80 13 81 15 82 14 83 17 84 18 85 19 86
REMARK SMILES IDX 20 87 31 88 21 89 30 90 22 91 23 92 24 93 25 94 29 95 26 96
REMARK SMILES IDX 28 97 27 98
REMARK H PARENT 3 6 88 24 56 35 8 76
REMARK Flexibility Score: inf
ROOT
ATOM      1  C   UNL     1       4.633  -2.939   0.112  1.00  0.00     0.023 C 
ENDROOT
BRANCH   1   2
ATOM      2  C   UNL     1       4.413  -1.485  -0.287  1.00  0.00     0.116 C 
BRANCH   2   3
ATOM      3  N   UNL     1       3.022  -1.129  -0.507  1.00  0.00    -0.352 N 
ATOM      4  O   UNL     1       1.105   0.030  -0.212  1.00  0.00    -0.269 OA
ATOM      5  C   UNL     1       2.307  -0.072   0.015  1.00  0.00     0.251 C 
ATOM      6  H   UNL     1       2.521  -1.724  -1.111  1.00  0.00     0.163 HD
BRANCH   5   7
ATOM      7  C   UNL     1       2.986   0.907   0.894  1.00  0.00     0.039 A 
ATOM      8  C   UNL     1       4.187   1.506   0.506  1.00  0.00     0.014 A 
ATOM      9  C   UNL     1       2.436   1.184   2.148  1.00  0.00     0.014 A 
ATOM     10  C   UNL     1       4.922   2.235   1.439  1.00  0.00     0.010 A 
ATOM     11  C   UNL     1       3.143   1.979   3.056  1.00  0.00     0.010 A 
ATOM     12  C   UNL     1       4.421   2.461   2.733  1.00  0.00    -0.014 A 
BRANCH  12  13
ATOM     13  C   UNL     1       5.252   3.191   3.729  1.00  0.00     0.031 A 
ATOM     14  C   UNL     1       5.752   2.506   4.977  1.00  0.00     0.074 A 
ATOM     15  C   UNL     1       5.576   4.479   3.502  1.00  0.00     0.049 A 
ATOM     16  N   UNL     1       6.536   2.976   5.915  1.00  0.00    -0.248 NA
ATOM     17  C   UNL     1       5.311   1.121   5.210  1.00  0.00     0.031 C 
ATOM     18  C   UNL     1       5.115   5.272   2.362  1.00  0.00     0.029 A 
ATOM     19  N   UNL     1       6.367   5.345   4.213  1.00  0.00    -0.354 N 
ATOM     20  C   UNL     1       6.646   1.968   6.866  1.00  0.00     0.074 A 
ATOM     21  C   UNL     1       5.842   0.860   6.397  1.00  0.00     0.031 C 
ATOM     22  C   UNL     1       5.653   6.499   2.435  1.00  0.00     0.029 A 
ATOM     23  C   UNL     1       6.471   6.591   3.641  1.00  0.00     0.049 A 
ATOM     24  H   UNL     1       6.817   5.098   5.053  1.00  0.00     0.167 HD
ATOM     25  C   UNL     1       7.365   1.954   8.015  1.00  0.00     0.034 A 
ATOM     26  C   UNL     1       7.149   7.685   4.038  1.00  0.00     0.034 A 
ATOM     27  C   UNL     1       8.212   3.031   8.456  1.00  0.00     0.049 A 
ATOM     28  C   UNL     1       7.986   7.621   5.285  1.00  0.00     0.074 A 
ATOM     29  C   UNL     1       9.040   3.076   9.565  1.00  0.00     0.029 A 
ATOM     30  N   UNL     1       8.341   4.252   7.814  1.00  0.00    -0.354 N 
ATOM     31  N   UNL     1       8.191   6.607   6.089  1.00  0.00    -0.248 NA
ATOM     32  C   UNL     1       8.710   8.844   5.662  1.00  0.00     0.031 C 
ATOM     33  C   UNL     1       9.665   4.328   9.596  1.00  0.00     0.029 A 
ATOM     34  C   UNL     1       9.232   5.059   8.502  1.00  0.00     0.049 A 
ATOM     35  H   UNL     1       7.869   4.509   6.989  1.00  0.00     0.167 HD
ATOM     36  C   UNL     1       9.090   7.058   7.048  1.00  0.00     0.074 A 
ATOM     37  C   UNL     1       9.409   8.430   6.710  1.00  0.00     0.031 C 
ATOM     38  C   UNL     1       9.590   6.401   8.123  1.00  0.00     0.034 A 
BRANCH  25  39
ATOM     39  C   UNL     1       7.317   0.709   8.862  1.00  0.00     0.023 A 
ATOM     40  C   UNL     1       8.035  -0.434   8.454  1.00  0.00     0.012 A 
ATOM     41  C   UNL     1       6.632   0.691  10.092  1.00  0.00     0.148 A 
ATOM     42  C   UNL     1       8.052  -1.582   9.245  1.00  0.00     0.002 A 
ATOM     43  C   UNL     1       6.683  -0.446  10.893  1.00  0.00     0.091 A 
ATOM     44  F   UNL     1       5.934   1.777  10.454  1.00  0.00    -0.205 F 
ATOM     45  C   UNL     1       7.386  -1.585  10.468  1.00  0.00     0.022 A 
BRANCH  43  46
ATOM     46  S   UNL     1       5.916  -0.513  12.517  1.00  0.00     0.127 S 
ATOM     47  O   UNL     1       4.707  -1.286  12.241  1.00  0.00    -0.237 OA
ATOM     48  O   UNL     1       6.923  -1.219  13.310  1.00  0.00    -0.237 OA
ATOM     49  O   UNL     1       5.704   0.873  12.911  1.00  0.00    -0.744 OA
ENDBRANCH  43  46
ENDBRANCH  25  39
BRANCH  26  50
ATOM     50  C   UNL     1       7.128   8.910   3.191  1.00  0.00     0.023 A 
ATOM     51  C   UNL     1       8.290   9.278   2.484  1.00  0.00     0.012 A 
ATOM     52  C   UNL     1       5.959   9.678   3.039  1.00  0.00     0.148 A 
ATOM     53  C   UNL     1       8.292  10.401   1.657  1.00  0.00     0.002 A 
ATOM     54  C   UNL     1       5.952  10.763   2.170  1.00  0.00     0.091 A 
ATOM     55  F   UNL     1       4.870   9.325   3.736  1.00  0.00    -0.205 F 
ATOM     56  C   UNL     1       7.121  11.135   1.489  1.00  0.00     0.022 A 
BRANCH  54  57
ATOM     57  S   UNL     1       4.446  11.665   1.789  1.00  0.00     0.127 S 
ATOM     58  O   UNL     1       4.609  12.873   2.592  1.00  0.00    -0.237 OA
ATOM     59  O   UNL     1       4.563  11.863   0.343  1.00  0.00    -0.237 OA
ATOM     60  O   UNL     1       3.358  10.777   2.179  1.00  0.00    -0.744 OA
ENDBRANCH  54  57
ENDBRANCH  26  50
BRANCH  38  61
ATOM     61  C   UNL     1      10.558   7.144   9.005  1.00  0.00     0.023 A 
ATOM     62  C   UNL     1      10.080   8.144   9.875  1.00  0.00     0.012 A 
ATOM     63  C   UNL     1      11.927   6.812   9.018  1.00  0.00     0.148 A 
ATOM     64  C   UNL     1      10.954   8.823  10.723  1.00  0.00     0.002 A 
ATOM     65  C   UNL     1      12.786   7.465   9.896  1.00  0.00     0.091 A 
ATOM     66  F   UNL     1      12.370   5.875   8.167  1.00  0.00    -0.205 F 
ATOM     67  C   UNL     1      12.303   8.476  10.742  1.00  0.00     0.022 A 
BRANCH  65  68
ATOM     68  S   UNL     1      14.518   7.010  10.039  1.00  0.00     0.127 S 
ATOM     69  O   UNL     1      15.162   8.016   9.196  1.00  0.00    -0.237 OA
ATOM     70  O   UNL     1      14.771   7.164  11.472  1.00  0.00    -0.237 OA
ATOM     71  O   UNL     1      14.601   5.636   9.562  1.00  0.00    -0.744 OA
ENDBRANCH  65  68
ENDBRANCH  38  61
ENDBRANCH  12  13
ENDBRANCH   5   7
ENDBRANCH   2   3
ENDBRANCH   1   2
BRANCH   1  72
ATOM     72  C   UNL     1       4.179  -4.008  -0.887  1.00  0.00     0.023 C 
BRANCH  72  73
ATOM     73  C   UNL     1       4.672  -3.847  -2.323  1.00  0.00     0.116 C 
BRANCH  73  74
ATOM     74  N   UNL     1       6.120  -3.793  -2.432  1.00  0.00    -0.352 N 
ATOM     75  C   UNL     1       6.924  -4.167  -3.479  1.00  0.00     0.253 C 
ATOM     76  H   UNL     1       6.590  -3.438  -1.643  1.00  0.00     0.163 HD
ATOM     77  O   UNL     1       8.140  -4.100  -3.386  1.00  0.00    -0.269 OA
BRANCH  75  78
ATOM     78  C   UNL     1       6.353  -4.715  -4.713  1.00  0.00     0.070 A 
ATOM     79  C   UNL     1       6.671  -6.039  -4.992  1.00  0.00     0.125 A 
ATOM     80  C   UNL     1       5.524  -4.039  -5.606  1.00  0.00     0.055 A 
ATOM     81  N   UNL     1       6.167  -6.737  -6.039  1.00  0.00    -0.264 NA
ATOM     82  C   UNL     1       4.974  -4.748  -6.684  1.00  0.00     0.035 A 
ATOM     83  C   UNL     1       5.315  -6.080  -6.851  1.00  0.00     0.112 A 
BRANCH  80  84
ATOM     84  C   UNL     1       4.973  -2.693  -5.355  1.00  0.00     0.254 C 
ATOM     85  O   UNL     1       3.743  -2.624  -5.386  1.00  0.00    -0.269 OA
ATOM     86  N   UNL     1       5.775  -1.608  -5.016  1.00  0.00    -0.339 N 
ATOM     87  C   UNL     1       5.170  -0.617  -4.137  1.00  0.00     0.120 C 
ATOM     88  C   UNL     1       7.219  -1.478  -5.244  1.00  0.00     0.120 C 
ATOM     89  C   UNL     1       5.560   0.810  -4.459  1.00  0.00     0.025 C 
ATOM     90  C   UNL     1       7.639  -0.027  -5.536  1.00  0.00     0.025 C 
ATOM     91  C   UNL     1       7.087   0.941  -4.470  1.00  0.00    -0.003 C 
BRANCH  91  92
ATOM     92  C   UNL     1       7.529   2.396  -4.713  1.00  0.00     0.039 C 
BRANCH  92  93
ATOM     93  C   UNL     1       7.069   3.343  -3.623  1.00  0.00    -0.048 A 
ATOM     94  C   UNL     1       6.046   4.270  -3.873  1.00  0.00     0.004 A 
ATOM     95  C   UNL     1       7.635   3.295  -2.340  1.00  0.00     0.004 A 
ATOM     96  C   UNL     1       5.599   5.126  -2.864  1.00  0.00     0.000 A 
ATOM     97  C   UNL     1       7.189   4.155  -1.333  1.00  0.00     0.000 A 
ATOM     98  C   UNL     1       6.171   5.069  -1.595  1.00  0.00     0.000 A 
ENDBRANCH  92  93
ENDBRANCH  91  92
ENDBRANCH  80  84
ENDBRANCH  75  78
ENDBRANCH  73  74
ENDBRANCH  72  73
ENDBRANCH   1  72
TORSDOF 17
