REMARK SMILES Cc1cc(S[C@@H](C)c2ccc(C(=O)NCCCCNC(=O)c3ccc(-c4c5nc(c(-c6cccc(S(=O)(=O)[O-])c6F)c6ccc([nH]6)c(-c6cccc(S(=O)(=O)[O-])c6F)c6nc(c(-c7cccc(S(=O)(=O)[O-])c7F)c7ccc4[nH]7)C=C6)C=C5)cc3)o2)n(C)n1
REMARK SMILES IDX 16 1 15 2 14 3 12 4 13 5 11 7 8 8 9 9 85 10 10 11 6 12 7 13
REMARK SMILES IDX 5 14 4 15 1 16 2 17 3 18 88 19 86 20 87 21 17 22 18 23 19 24
REMARK SMILES IDX 20 25 21 27 22 28 23 29 84 30 24 31 83 32 25 33 26 34 27 35
REMARK SMILES IDX 77 36 28 37 82 38 76 39 78 40 29 41 81 42 75 43 74 44 30 46
REMARK SMILES IDX 62 47 42 48 61 49 43 50 46 51 60 52 79 53 44 54 45 55 59 57
REMARK SMILES IDX 80 58 47 59 31 60 32 61 40 62 33 63 35 64 41 65 34 66 36 67
REMARK SMILES IDX 37 68 38 69 39 70 63 71 64 72 72 73 65 74 67 75 73 76 66 77
REMARK SMILES IDX 68 78 69 79 70 80 71 81 48 82 49 83 57 84 50 85 52 86 58 87
REMARK SMILES IDX 51 88 53 89 54 90 55 91 56 92
REMARK H PARENT 14 6 19 26 78 45 46 56
REMARK Flexibility Score: inf
ROOT
ATOM      1  C   UNL     1      -4.012  -5.185  -5.209  1.00  0.00     0.023 C 
ENDROOT
BRANCH   1   2
ATOM      2  C   UNL     1      -2.604  -4.666  -5.496  1.00  0.00     0.116 C 
BRANCH   2   3
ATOM      3  N   UNL     1      -2.402  -3.358  -4.916  1.00  0.00    -0.349 N 
ATOM      4  C   UNL     1      -1.766  -2.963  -3.764  1.00  0.00     0.286 C 
ATOM      5  O   UNL     1      -1.721  -1.746  -3.575  1.00  0.00    -0.266 OA
ATOM      6  H   UNL     1      -2.788  -2.619  -5.439  1.00  0.00     0.163 HD
BRANCH   4   7
ATOM      7  C   UNL     1      -1.183  -3.920  -2.837  1.00  0.00     0.191 A 
ATOM      8  C   UNL     1       0.071  -4.387  -1.059  1.00  0.00     0.118 A 
ATOM      9  C   UNL     1      -0.434  -5.588  -1.509  1.00  0.00     0.047 A 
ATOM     10  O   UNL     1      -0.354  -3.391  -1.879  1.00  0.00    -0.455 OA
ATOM     11  C   UNL     1      -1.265  -5.284  -2.617  1.00  0.00     0.056 A 
BRANCH   8  12
ATOM     12  C   UNL     1       0.914  -4.032   0.128  1.00  0.00     0.116 C 
ATOM     13  C   UNL     1       0.142  -4.186   1.438  1.00  0.00     0.028 C 
BRANCH  12  14
ATOM     14  S   UNL     1       1.828  -2.460   0.031  1.00  0.00    -0.096 SA
BRANCH  14  15
ATOM     15  C   UNL     1       0.668  -1.164   0.078  1.00  0.00     0.095 A 
ATOM     16  C   UNL     1      -2.416   0.827  -0.011  1.00  0.00     0.069 C 
ATOM     17  C   UNL     1      -1.059   0.236   0.066  1.00  0.00     0.061 A 
ATOM     18  C   UNL     1      -0.708  -1.131   0.050  1.00  0.00     0.060 A 
ATOM     19  N   UNL     1       0.021   1.019   0.154  1.00  0.00    -0.178 NA
ATOM     20  N   UNL     1       1.058   0.154   0.090  1.00  0.00    -0.262 N 
ATOM     21  C   UNL     1       2.382   0.726   0.018  1.00  0.00     0.175 C 
ENDBRANCH  14  15
ENDBRANCH  12  14
ENDBRANCH   8  12
ENDBRANCH   4   7
ENDBRANCH   2   3
ENDBRANCH   1   2
BRANCH   1  22
ATOM     22  C   UNL     1      -5.082  -4.628  -6.155  1.00  0.00     0.023 C 
BRANCH  22  23
ATOM     23  C   UNL     1      -4.858  -4.919  -7.638  1.00  0.00     0.116 C 
BRANCH  23  24
ATOM     24  N   UNL     1      -4.674  -6.336  -7.929  1.00  0.00    -0.352 N 
ATOM     25  C   UNL     1      -5.127  -7.052  -9.012  1.00  0.00     0.251 C 
ATOM     26  H   UNL     1      -4.159  -6.847  -7.263  1.00  0.00     0.163 HD
ATOM     27  O   UNL     1      -4.975  -8.268  -9.063  1.00  0.00    -0.269 OA
BRANCH  25  28
ATOM     28  C   UNL     1      -5.836  -6.337 -10.092  1.00  0.00     0.039 A 
ATOM     29  C   UNL     1      -7.113  -6.766 -10.459  1.00  0.00     0.014 A 
ATOM     30  C   UNL     1      -5.272  -5.198 -10.671  1.00  0.00     0.014 A 
ATOM     31  C   UNL     1      -7.867  -5.993 -11.343  1.00  0.00     0.010 A 
ATOM     32  C   UNL     1      -6.049  -4.396 -11.500  1.00  0.00     0.010 A 
ATOM     33  C   UNL     1      -7.361  -4.774 -11.827  1.00  0.00    -0.014 A 
BRANCH  33  34
ATOM     34  C   UNL     1      -8.214  -3.842 -12.608  1.00  0.00     0.031 A 
ATOM     35  C   UNL     1      -7.854  -3.478 -14.020  1.00  0.00     0.074 A 
ATOM     36  C   UNL     1      -9.253  -3.237 -11.998  1.00  0.00     0.049 A 
ATOM     37  N   UNL     1      -8.435  -2.626 -14.822  1.00  0.00    -0.248 NA
ATOM     38  C   UNL     1      -6.672  -4.139 -14.599  1.00  0.00     0.031 C 
ATOM     39  C   UNL     1      -9.652  -3.444 -10.603  1.00  0.00     0.029 A 
ATOM     40  N   UNL     1     -10.143  -2.298 -12.459  1.00  0.00    -0.354 N 
ATOM     41  C   UNL     1      -7.678  -2.622 -15.987  1.00  0.00     0.074 A 
ATOM     42  C   UNL     1      -6.576  -3.537 -15.776  1.00  0.00     0.031 C 
ATOM     43  C   UNL     1     -10.703  -2.657 -10.324  1.00  0.00     0.029 A 
ATOM     44  C   UNL     1     -11.031  -1.863 -11.503  1.00  0.00     0.049 A 
ATOM     45  H   UNL     1     -10.144  -1.968 -13.387  1.00  0.00     0.167 HD
ATOM     46  C   UNL     1      -7.895  -1.940 -17.136  1.00  0.00     0.034 A 
ATOM     47  C   UNL     1     -11.991  -0.919 -11.561  1.00  0.00     0.034 A 
ATOM     48  C   UNL     1      -9.009  -1.056 -17.352  1.00  0.00     0.049 A 
ATOM     49  C   UNL     1     -12.217  -0.186 -12.855  1.00  0.00     0.074 A 
ATOM     50  C   UNL     1      -9.370  -0.398 -18.514  1.00  0.00     0.029 A 
ATOM     51  N   UNL     1      -9.932  -0.692 -16.384  1.00  0.00    -0.354 N 
ATOM     52  N   UNL     1     -11.599  -0.329 -14.002  1.00  0.00    -0.248 NA
ATOM     53  C   UNL     1     -13.290   0.819 -12.871  1.00  0.00     0.031 C 
ATOM     54  C   UNL     1     -10.493   0.390 -18.240  1.00  0.00     0.029 A 
ATOM     55  C   UNL     1     -10.848   0.201 -16.914  1.00  0.00     0.049 A 
ATOM     56  H   UNL     1      -9.935  -1.020 -15.455  1.00  0.00     0.167 HD
ATOM     57  C   UNL     1     -12.222   0.548 -14.883  1.00  0.00     0.074 A 
ATOM     58  C   UNL     1     -13.286   1.196 -14.143  1.00  0.00     0.031 C 
ATOM     59  C   UNL     1     -11.928   0.809 -16.180  1.00  0.00     0.034 A 
BRANCH  46  60
ATOM     60  C   UNL     1      -6.933  -2.160 -18.274  1.00  0.00     0.023 A 
ATOM     61  C   UNL     1      -6.950  -3.386 -18.969  1.00  0.00     0.012 A 
ATOM     62  C   UNL     1      -6.064  -1.136 -18.700  1.00  0.00     0.148 A 
ATOM     63  C   UNL     1      -6.096  -3.603 -20.050  1.00  0.00     0.002 A 
ATOM     64  C   UNL     1      -5.247  -1.343 -19.805  1.00  0.00     0.091 A 
ATOM     65  F   UNL     1      -6.048   0.016 -18.013  1.00  0.00    -0.205 F 
ATOM     66  C   UNL     1      -5.254  -2.579 -20.474  1.00  0.00     0.022 A 
BRANCH  64  67
ATOM     67  S   UNL     1      -4.183  -0.063 -20.479  1.00  0.00     0.127 S 
ATOM     68  O   UNL     1      -2.856  -0.576 -20.141  1.00  0.00    -0.237 OA
ATOM     69  O   UNL     1      -4.510  -0.111 -21.905  1.00  0.00    -0.237 OA
ATOM     70  O   UNL     1      -4.564   1.172 -19.809  1.00  0.00    -0.744 OA
ENDBRANCH  64  67
ENDBRANCH  46  60
BRANCH  47  71
ATOM     71  C   UNL     1     -12.840  -0.643 -10.367  1.00  0.00     0.023 A 
ATOM     72  C   UNL     1     -14.201  -1.007 -10.388  1.00  0.00     0.012 A 
ATOM     73  C   UNL     1     -12.306  -0.049  -9.208  1.00  0.00     0.148 A 
ATOM     74  C   UNL     1     -15.021  -0.754  -9.289  1.00  0.00     0.002 A 
ATOM     75  C   UNL     1     -13.115   0.147  -8.095  1.00  0.00     0.091 A 
ATOM     76  F   UNL     1     -11.012   0.302  -9.212  1.00  0.00    -0.205 F 
ATOM     77  C   UNL     1     -14.477  -0.188  -8.139  1.00  0.00     0.022 A 
BRANCH  75  78
ATOM     78  S   UNL     1     -12.469   0.742  -6.528  1.00  0.00     0.127 S 
ATOM     79  O   UNL     1     -13.037   2.086  -6.461  1.00  0.00    -0.237 OA
ATOM     80  O   UNL     1     -13.039  -0.217  -5.582  1.00  0.00    -0.237 OA
ATOM     81  O   UNL     1     -11.019   0.671  -6.651  1.00  0.00    -0.744 OA
ENDBRANCH  75  78
ENDBRANCH  47  71
BRANCH  59  82
ATOM     82  C   UNL     1     -12.772   1.830 -16.896  1.00  0.00     0.023 A 
ATOM     83  C   UNL     1     -12.624   3.197 -16.587  1.00  0.00     0.012 A 
ATOM     84  C   UNL     1     -13.653   1.446 -17.927  1.00  0.00     0.148 A 
ATOM     85  C   UNL     1     -13.361   4.163 -17.270  1.00  0.00     0.002 A 
ATOM     86  C   UNL     1     -14.347   2.418 -18.637  1.00  0.00     0.091 A 
ATOM     87  F   UNL     1     -13.791   0.140 -18.195  1.00  0.00    -0.205 F 
ATOM     88  C   UNL     1     -14.212   3.775 -18.302  1.00  0.00     0.022 A 
BRANCH  86  89
ATOM     89  S   UNL     1     -15.395   2.025 -20.043  1.00  0.00     0.127 S 
ATOM     90  O   UNL     1     -16.725   2.327 -19.516  1.00  0.00    -0.237 OA
ATOM     91  O   UNL     1     -14.914   2.963 -21.058  1.00  0.00    -0.237 OA
ATOM     92  O   UNL     1     -15.151   0.622 -20.349  1.00  0.00    -0.744 OA
ENDBRANCH  86  89
ENDBRANCH  59  82
ENDBRANCH  33  34
ENDBRANCH  25  28
ENDBRANCH  23  24
ENDBRANCH  22  23
ENDBRANCH   1  22
TORSDOF 17
