REMARK SMILES O=C(CNc1cc(N2CCCC2)c2noc3c2c1C(=O)c1ccccc1-3)NCCCCNC(=O)c1ccc(-c2c3nc(c(-c4cccc(S(=O)(=O)[O-])c4F)c4ccc([nH]4)c(-c4cccc(S(=O)(=O)[O-])c4F)c4nc(c(-c5cccc(S(=O)(=O)[O-])c5F)c5ccc2[nH]5)C=C4)C=C3)cc1
REMARK SMILES IDX 29 1 28 2 27 3 1 4 2 5 3 7 4 8 5 10 6 11 18 12 7 13 17 14
REMARK SMILES IDX 19 15 13 16 16 17 20 18 21 19 14 20 15 21 26 22 22 23 25 24
REMARK SMILES IDX 23 25 24 26 8 27 9 28 12 29 10 30 11 31 30 32 31 33 32 34
REMARK SMILES IDX 33 35 34 37 35 38 36 39 97 40 37 41 96 42 38 43 39 44 40 45
REMARK SMILES IDX 90 46 41 47 95 48 89 49 91 50 42 51 94 52 88 53 87 54 43 56
REMARK SMILES IDX 75 57 55 58 74 59 56 60 59 61 73 62 92 63 57 64 58 65 72 67
REMARK SMILES IDX 93 68 60 69 44 70 45 71 53 72 46 73 48 74 54 75 47 76 49 77
REMARK SMILES IDX 50 78 51 79 52 80 76 81 77 82 85 83 78 84 80 85 86 86 79 87
REMARK SMILES IDX 81 88 82 89 83 90 84 91 61 92 62 93 70 94 63 95 65 96 71 97
REMARK SMILES IDX 64 98 66 99 67 100 68 101 69 102
REMARK H PARENT 27 6 4 9 32 36 91 55 59 66
REMARK Flexibility Score: inf
ROOT
ATOM      1  C   UNL     1       2.297   1.888   3.144  1.00  0.00     0.023 C 
ENDROOT
BRANCH   1   2
ATOM      2  C   UNL     1       1.741   1.807   1.721  1.00  0.00     0.116 C 
BRANCH   2   3
ATOM      3  N   UNL     1       2.452   0.858   0.890  1.00  0.00    -0.355 N 
ATOM      4  O   UNL     1       0.607  -0.016  -0.179  1.00  0.00    -0.273 OA
ATOM      5  C   UNL     1       1.821   0.007   0.003  1.00  0.00     0.239 C 
ATOM      6  H   UNL     1       3.433   0.817   0.962  1.00  0.00     0.163 HD
BRANCH   5   7
ATOM      7  C   UNL     1       2.801  -0.920  -0.734  1.00  0.00     0.213 C 
BRANCH   7   8
ATOM      8  N   UNL     1       3.860  -0.114  -1.342  1.00  0.00    -0.375 N 
ATOM      9  H   UNL     1       3.606   0.786  -1.651  1.00  0.00     0.161 HD
BRANCH   8  10
ATOM     10  C   UNL     1       5.184  -0.484  -1.530  1.00  0.00     0.049 A 
ATOM     11  C   UNL     1       6.095   0.652  -1.633  1.00  0.00     0.054 A 
ATOM     12  C   UNL     1       5.703  -1.798  -1.522  1.00  0.00     0.059 A 
ATOM     13  C   UNL     1       7.522   0.634  -1.756  1.00  0.00     0.069 A 
ATOM     14  C   UNL     1       7.085  -1.777  -1.619  1.00  0.00     0.065 A 
ATOM     15  C   UNL     1       5.041  -3.142  -1.512  1.00  0.00     0.196 C 
ATOM     16  C   UNL     1       8.003  -0.698  -1.746  1.00  0.00     0.138 A 
ATOM     17  C   UNL     1       7.809  -2.919  -1.555  1.00  0.00     0.176 A 
ATOM     18  O   UNL     1       3.839  -3.285  -1.692  1.00  0.00    -0.288 OA
ATOM     19  C   UNL     1       5.901  -4.370  -1.342  1.00  0.00     0.034 A 
ATOM     20  N   UNL     1       9.250  -1.224  -1.816  1.00  0.00    -0.077 NA
ATOM     21  O   UNL     1       9.121  -2.613  -1.675  1.00  0.00    -0.355 OA
ATOM     22  C   UNL     1       7.309  -4.254  -1.368  1.00  0.00     0.032 A 
ATOM     23  C   UNL     1       5.303  -5.620  -1.164  1.00  0.00     0.013 A 
ATOM     24  C   UNL     1       8.106  -5.384  -1.192  1.00  0.00     0.013 A 
ATOM     25  C   UNL     1       6.106  -6.748  -0.990  1.00  0.00     0.001 A 
ATOM     26  C   UNL     1       7.500  -6.630  -1.000  1.00  0.00     0.001 A 
BRANCH  13  27
ATOM     27  N   UNL     1       8.248   1.786  -1.879  1.00  0.00    -0.370 N 
ATOM     28  C   UNL     1       8.059   2.969  -1.060  1.00  0.00     0.116 C 
ATOM     29  C   UNL     1       9.293   1.962  -2.878  1.00  0.00     0.116 C 
ATOM     30  C   UNL     1       8.543   4.081  -1.979  1.00  0.00     0.023 C 
ATOM     31  C   UNL     1       9.706   3.431  -2.721  1.00  0.00     0.023 C 
ENDBRANCH  13  27
ENDBRANCH   8  10
ENDBRANCH   7   8
ENDBRANCH   5   7
ENDBRANCH   2   3
ENDBRANCH   1   2
BRANCH   1  32
ATOM     32  C   UNL     1       3.798   2.178   3.248  1.00  0.00     0.023 C 
BRANCH  32  33
ATOM     33  C   UNL     1       4.248   3.436   2.510  1.00  0.00     0.116 C 
BRANCH  33  34
ATOM     34  N   UNL     1       4.104   4.652   3.290  1.00  0.00    -0.352 N 
ATOM     35  C   UNL     1       4.965   5.183   4.229  1.00  0.00     0.251 C 
ATOM     36  H   UNL     1       3.282   5.168   3.127  1.00  0.00     0.163 HD
ATOM     37  O   UNL     1       4.683   6.210   4.822  1.00  0.00    -0.269 OA
BRANCH  35  38
ATOM     38  C   UNL     1       6.223   4.462   4.509  1.00  0.00     0.039 A 
ATOM     39  C   UNL     1       7.141   4.229   3.479  1.00  0.00     0.014 A 
ATOM     40  C   UNL     1       6.440   3.957   5.791  1.00  0.00     0.014 A 
ATOM     41  C   UNL     1       8.210   3.369   3.690  1.00  0.00     0.010 A 
ATOM     42  C   UNL     1       7.540   3.132   6.014  1.00  0.00     0.010 A 
ATOM     43  C   UNL     1       8.404   2.808   4.954  1.00  0.00    -0.014 A 
BRANCH  43  44
ATOM     44  C   UNL     1       9.589   1.957   5.146  1.00  0.00     0.031 A 
ATOM     45  C   UNL     1      10.639   2.596   5.976  1.00  0.00     0.074 A 
ATOM     46  C   UNL     1       9.521   0.608   5.175  1.00  0.00     0.049 A 
ATOM     47  N   UNL     1      10.531   2.565   7.266  1.00  0.00    -0.248 NA
ATOM     48  C   UNL     1      11.667   3.510   5.493  1.00  0.00     0.031 C 
ATOM     49  C   UNL     1       8.279  -0.155   5.373  1.00  0.00     0.029 A 
ATOM     50  N   UNL     1      10.517  -0.340   5.258  1.00  0.00    -0.354 N 
ATOM     51  C   UNL     1      11.400   3.499   7.785  1.00  0.00     0.074 A 
ATOM     52  C   UNL     1      12.115   4.038   6.647  1.00  0.00     0.031 C 
ATOM     53  C   UNL     1       8.597  -1.415   5.731  1.00  0.00     0.029 A 
ATOM     54  C   UNL     1      10.037  -1.591   5.622  1.00  0.00     0.049 A 
ATOM     55  H   UNL     1      11.466  -0.151   5.079  1.00  0.00     0.167 HD
ATOM     56  C   UNL     1      11.458   3.741   9.123  1.00  0.00     0.034 A 
ATOM     57  C   UNL     1      10.750  -2.604   6.178  1.00  0.00     0.034 A 
ATOM     58  C   UNL     1      10.592   2.957   9.984  1.00  0.00     0.049 A 
ATOM     59  C   UNL     1      10.899  -2.132   7.603  1.00  0.00     0.074 A 
ATOM     60  C   UNL     1       9.890   3.110  11.164  1.00  0.00     0.029 A 
ATOM     61  N   UNL     1      10.310   1.682   9.574  1.00  0.00    -0.354 N 
ATOM     62  N   UNL     1       9.962  -2.160   8.519  1.00  0.00    -0.248 NA
ATOM     63  C   UNL     1      12.075  -1.321   7.960  1.00  0.00     0.031 C 
ATOM     64  C   UNL     1       9.283   1.843  11.478  1.00  0.00     0.029 A 
ATOM     65  C   UNL     1       9.673   0.927  10.516  1.00  0.00     0.049 A 
ATOM     66  H   UNL     1      10.545   1.340   8.681  1.00  0.00     0.167 HD
ATOM     67  C   UNL     1      10.302  -1.140   9.399  1.00  0.00     0.074 A 
ATOM     68  C   UNL     1      11.667  -0.765   9.095  1.00  0.00     0.031 C 
ATOM     69  C   UNL     1       9.413  -0.449  10.169  1.00  0.00     0.034 A 
BRANCH  56  70
ATOM     70  C   UNL     1      12.553   4.547   9.716  1.00  0.00     0.023 A 
ATOM     71  C   UNL     1      13.726   3.837  10.045  1.00  0.00     0.012 A 
ATOM     72  C   UNL     1      12.434   5.896  10.086  1.00  0.00     0.148 A 
ATOM     73  C   UNL     1      14.761   4.446  10.745  1.00  0.00     0.002 A 
ATOM     74  C   UNL     1      13.475   6.502  10.791  1.00  0.00     0.091 A 
ATOM     75  F   UNL     1      11.308   6.552   9.773  1.00  0.00    -0.205 F 
ATOM     76  C   UNL     1      14.634   5.777  11.123  1.00  0.00     0.022 A 
BRANCH  74  77
ATOM     77  S   UNL     1      13.429   8.210  11.351  1.00  0.00     0.127 S 
ATOM     78  O   UNL     1      13.457   8.055  12.804  1.00  0.00    -0.237 OA
ATOM     79  O   UNL     1      14.660   8.750  10.772  1.00  0.00    -0.237 OA
ATOM     80  O   UNL     1      12.203   8.778  10.808  1.00  0.00    -0.744 OA
ENDBRANCH  74  77
ENDBRANCH  56  70
BRANCH  57  81
ATOM     81  C   UNL     1      11.876  -3.139   5.338  1.00  0.00     0.023 A 
ATOM     82  C   UNL     1      11.616  -3.346   3.958  1.00  0.00     0.012 A 
ATOM     83  C   UNL     1      13.153  -3.489   5.809  1.00  0.00     0.148 A 
ATOM     84  C   UNL     1      12.607  -3.766   3.070  1.00  0.00     0.002 A 
ATOM     85  C   UNL     1      14.159  -3.848   4.912  1.00  0.00     0.091 A 
ATOM     86  F   UNL     1      13.386  -3.474   7.126  1.00  0.00    -0.205 F 
ATOM     87  C   UNL     1      13.891  -3.987   3.543  1.00  0.00     0.022 A 
BRANCH  85  88
ATOM     88  S   UNL     1      15.868  -4.073   5.422  1.00  0.00     0.127 S 
ATOM     89  O   UNL     1      16.217  -5.340   4.781  1.00  0.00    -0.237 OA
ATOM     90  O   UNL     1      16.499  -2.891   4.837  1.00  0.00    -0.237 OA
ATOM     91  O   UNL     1      15.844  -4.109   6.878  1.00  0.00    -0.744 OA
ENDBRANCH  85  88
ENDBRANCH  57  81
BRANCH  69  92
ATOM     92  C   UNL     1       8.146  -1.126  10.543  1.00  0.00     0.023 A 
ATOM     93  C   UNL     1       8.247  -2.253  11.384  1.00  0.00     0.012 A 
ATOM     94  C   UNL     1       6.878  -0.648  10.173  1.00  0.00     0.148 A 
ATOM     95  C   UNL     1       7.108  -2.891  11.864  1.00  0.00     0.002 A 
ATOM     96  C   UNL     1       5.741  -1.288  10.661  1.00  0.00     0.091 A 
ATOM     97  F   UNL     1       6.798   0.425   9.372  1.00  0.00    -0.205 F 
ATOM     98  C   UNL     1       5.856  -2.406  11.506  1.00  0.00     0.022 A 
BRANCH  96  99
ATOM     99  S   UNL     1       4.073  -0.748  10.270  1.00  0.00     0.127 S 
ATOM    100  O   UNL     1       3.427  -2.002   9.876  1.00  0.00    -0.237 OA
ATOM    101  O   UNL     1       3.622  -0.211  11.553  1.00  0.00    -0.237 OA
ATOM    102  O   UNL     1       4.202   0.224   9.192  1.00  0.00    -0.744 OA
ENDBRANCH  96  99
ENDBRANCH  69  92
ENDBRANCH  43  44
ENDBRANCH  35  38
ENDBRANCH  33  34
ENDBRANCH  32  33
ENDBRANCH   1  32
TORSDOF 17
