REMARK SMILES COc1ccc(CCNC(=O)[C@@]2(C)CC[C@@H](C(=O)NCCCCNC(=O)c3ccc(-c4c5nc(c(-c6cccc(S(=O)(=O)[O-])c6F)c6ccc([nH]6)c(-c6cccc(S(=O)(=O)[O-])c6F)c6nc(c(-c7cccc(S(=O)(=O)[O-])c7F)c7ccc4[nH]7)C=C6)C=C5)cc3)C2(C)C)cc1OC
REMARK SMILES IDX 20 1 19 2 17 3 18 4 16 6 12 7 13 8 14 9 90 10 15 11 91 12
REMARK SMILES IDX 92 13 10 14 9 15 11 17 8 18 7 19 6 20 3 21 4 22 94 23 5 24
REMARK SMILES IDX 93 25 2 26 1 27 95 28 96 29 21 30 22 31 23 32 24 33 25 34
REMARK SMILES IDX 26 36 27 37 28 38 89 39 29 40 88 41 30 42 31 43 32 44 82 45
REMARK SMILES IDX 33 46 87 47 81 48 83 49 34 50 86 51 80 52 79 53 35 55 67 56
REMARK SMILES IDX 47 57 66 58 48 59 51 60 65 61 84 62 49 63 50 64 64 66 85 67
REMARK SMILES IDX 52 68 36 69 37 70 45 71 38 72 40 73 46 74 39 75 41 76 42 77
REMARK SMILES IDX 43 78 44 79 68 80 69 81 77 82 70 83 72 84 78 85 71 86 73 87
REMARK SMILES IDX 74 88 75 89 76 90 53 91 54 92 62 93 55 94 57 95 63 96 56 97
REMARK SMILES IDX 58 98 59 99 60 100 61 101
REMARK H PARENT 19 5 9 16 24 35 83 54 51 65
REMARK Flexibility Score: inf
ROOT
ATOM      1  C   UNL     1       1.002  -9.989  -2.677  1.00  0.00     0.116 C 
ENDROOT
BRANCH   1   2
ATOM      2  N   UNL     1       0.808 -11.314  -3.208  1.00  0.00    -0.356 N 
ATOM      3  C   UNL     1       0.347 -11.747  -4.409  1.00  0.00     0.223 C 
ATOM      4  O   UNL     1       0.391 -12.972  -4.589  1.00  0.00    -0.275 OA
ATOM      5  H   UNL     1       1.055 -12.036  -2.587  1.00  0.00     0.163 HD
BRANCH   3   6
ATOM      6  C   UNL     1      -0.163 -10.854  -5.564  1.00  0.00     0.085 C 
ATOM      7  C   UNL     1      -0.564  -8.352  -5.427  1.00  0.00     0.052 C 
ATOM      8  C   UNL     1      -1.075  -7.437  -6.566  1.00  0.00     0.022 C 
ATOM      9  C   UNL     1       0.911  -8.701  -5.769  1.00  0.00     0.018 C 
ATOM     10  C   UNL     1      -1.303  -9.804  -5.373  1.00  0.00    -0.010 C 
ATOM     11  C   UNL     1       0.937 -10.117  -6.309  1.00  0.00     0.015 C 
ATOM     12  C   UNL     1      -2.146 -10.150  -4.132  1.00  0.00     0.013 C 
ATOM     13  C   UNL     1      -2.316  -9.982  -6.540  1.00  0.00     0.013 C 
BRANCH   7  14
ATOM     14  C   UNL     1      -0.834  -7.497  -4.152  1.00  0.00     0.226 C 
ATOM     15  N   UNL     1       0.063  -6.714  -3.509  1.00  0.00    -0.355 N 
ATOM     16  H   UNL     1      -0.296  -6.365  -2.661  1.00  0.00     0.163 HD
ATOM     17  O   UNL     1      -1.980  -7.418  -3.691  1.00  0.00    -0.274 OA
BRANCH  15  18
ATOM     18  C   UNL     1       1.425  -6.256  -3.751  1.00  0.00     0.120 C 
BRANCH  18  19
ATOM     19  C   UNL     1       1.480  -4.776  -4.139  1.00  0.00     0.057 C 
BRANCH  19  20
ATOM     20  C   UNL     1       1.317  -3.832  -2.971  1.00  0.00    -0.042 A 
ATOM     21  C   UNL     1       1.079  -2.067  -0.793  1.00  0.00     0.160 A 
ATOM     22  C   UNL     1      -0.058  -2.661  -1.357  1.00  0.00     0.051 A 
ATOM     23  C   UNL     1       2.349  -2.365  -1.299  1.00  0.00     0.160 A 
ATOM     24  C   UNL     1       0.058  -3.526  -2.450  1.00  0.00     0.008 A 
ATOM     25  C   UNL     1       2.450  -3.254  -2.378  1.00  0.00     0.054 A 
BRANCH  21  26
ATOM     26  O   UNL     1       0.915  -1.286   0.319  1.00  0.00    -0.493 OA
ATOM     27  C   UNL     1       0.345  -0.018  -0.001  1.00  0.00     0.278 C 
ENDBRANCH  21  26
BRANCH  23  28
ATOM     28  O   UNL     1       3.567  -1.910  -0.874  1.00  0.00    -0.493 OA
ATOM     29  C   UNL     1       3.604  -0.772  -0.028  1.00  0.00     0.278 C 
ENDBRANCH  23  28
ENDBRANCH  19  20
ENDBRANCH  18  19
ENDBRANCH  15  18
ENDBRANCH   7  14
ENDBRANCH   3   6
ENDBRANCH   1   2
BRANCH   1  30
ATOM     30  C   UNL     1       0.282  -9.697  -1.365  1.00  0.00     0.023 C 
BRANCH  30  31
ATOM     31  C   UNL     1       0.850 -10.404  -0.151  1.00  0.00     0.023 C 
BRANCH  31  32
ATOM     32  C   UNL     1       2.325 -10.142   0.082  1.00  0.00     0.116 C 
BRANCH  32  33
ATOM     33  N   UNL     1       2.646  -8.721   0.164  1.00  0.00    -0.352 N 
ATOM     34  C   UNL     1       3.306  -8.040   1.156  1.00  0.00     0.251 C 
ATOM     35  H   UNL     1       2.346  -8.174  -0.598  1.00  0.00     0.163 HD
ATOM     36  O   UNL     1       3.350  -6.812   1.138  1.00  0.00    -0.269 OA
BRANCH  34  37
ATOM     37  C   UNL     1       3.939  -8.799   2.250  1.00  0.00     0.039 A 
ATOM     38  C   UNL     1       3.767  -8.370   3.566  1.00  0.00     0.014 A 
ATOM     39  C   UNL     1       4.652  -9.969   1.973  1.00  0.00     0.014 A 
ATOM     40  C   UNL     1       4.261  -9.155   4.607  1.00  0.00     0.010 A 
ATOM     41  C   UNL     1       5.026 -10.808   3.011  1.00  0.00     0.010 A 
ATOM     42  C   UNL     1       4.860 -10.400   4.339  1.00  0.00    -0.014 A 
BRANCH  42  43
ATOM     43  C   UNL     1       5.319 -11.275   5.444  1.00  0.00     0.031 A 
ATOM     44  C   UNL     1       6.768 -11.670   5.552  1.00  0.00     0.074 A 
ATOM     45  C   UNL     1       4.417 -11.753   6.325  1.00  0.00     0.049 A 
ATOM     46  N   UNL     1       7.359 -12.378   6.478  1.00  0.00    -0.248 NA
ATOM     47  C   UNL     1       7.668 -11.245   4.465  1.00  0.00     0.031 C 
ATOM     48  C   UNL     1       2.970 -11.534   6.257  1.00  0.00     0.029 A 
ATOM     49  N   UNL     1       4.583 -12.524   7.446  1.00  0.00    -0.354 N 
ATOM     50  C   UNL     1       8.683 -12.505   6.074  1.00  0.00     0.074 A 
ATOM     51  C   UNL     1       8.799 -11.850   4.791  1.00  0.00     0.031 C 
ATOM     52  C   UNL     1       2.385 -12.124   7.312  1.00  0.00     0.029 A 
ATOM     53  C   UNL     1       3.409 -12.784   8.114  1.00  0.00     0.049 A 
ATOM     54  H   UNL     1       5.459 -12.860   7.745  1.00  0.00     0.167 HD
ATOM     55  C   UNL     1       9.719 -13.078   6.728  1.00  0.00     0.034 A 
ATOM     56  C   UNL     1       3.187 -13.469   9.252  1.00  0.00     0.034 A 
ATOM     57  C   UNL     1       9.603 -13.696   8.021  1.00  0.00     0.049 A 
ATOM     58  C   UNL     1       4.365 -14.039   9.993  1.00  0.00     0.074 A 
ATOM     59  C   UNL     1      10.603 -14.229   8.813  1.00  0.00     0.029 A 
ATOM     60  N   UNL     1       8.411 -13.873   8.706  1.00  0.00    -0.354 N 
ATOM     61  N   UNL     1       5.638 -13.995   9.681  1.00  0.00    -0.248 NA
ATOM     62  C   UNL     1       4.080 -14.711  11.268  1.00  0.00     0.031 C 
ATOM     63  C   UNL     1      10.010 -14.759   9.965  1.00  0.00     0.029 A 
ATOM     64  C   UNL     1       8.647 -14.517   9.908  1.00  0.00     0.049 A 
ATOM     65  H   UNL     1       7.527 -13.583   8.385  1.00  0.00     0.167 HD
ATOM     66  C   UNL     1       6.309 -14.605  10.734  1.00  0.00     0.074 A 
ATOM     67  C   UNL     1       5.302 -14.977  11.707  1.00  0.00     0.031 C 
ATOM     68  C   UNL     1       7.636 -14.849  10.879  1.00  0.00     0.034 A 
BRANCH  55  69
ATOM     69  C   UNL     1      11.077 -13.018   6.076  1.00  0.00     0.023 A 
ATOM     70  C   UNL     1      11.744 -11.780   5.959  1.00  0.00     0.012 A 
ATOM     71  C   UNL     1      11.716 -14.188   5.622  1.00  0.00     0.148 A 
ATOM     72  C   UNL     1      13.004 -11.701   5.367  1.00  0.00     0.002 A 
ATOM     73  C   UNL     1      12.993 -14.109   5.080  1.00  0.00     0.091 A 
ATOM     74  F   UNL     1      11.059 -15.353   5.718  1.00  0.00    -0.205 F 
ATOM     75  C   UNL     1      13.632 -12.866   4.939  1.00  0.00     0.022 A 
BRANCH  73  76
ATOM     76  S   UNL     1      13.924 -15.559   4.574  1.00  0.00     0.127 S 
ATOM     77  O   UNL     1      13.964 -15.393   3.122  1.00  0.00    -0.237 OA
ATOM     78  O   UNL     1      15.206 -15.349   5.247  1.00  0.00    -0.237 OA
ATOM     79  O   UNL     1      13.168 -16.710   5.049  1.00  0.00    -0.744 OA
ENDBRANCH  73  76
ENDBRANCH  55  69
BRANCH  56  80
ATOM     80  C   UNL     1       1.805 -13.583   9.798  1.00  0.00     0.023 A 
ATOM     81  C   UNL     1       1.466 -12.904  10.985  1.00  0.00     0.012 A 
ATOM     82  C   UNL     1       0.821 -14.339   9.135  1.00  0.00     0.148 A 
ATOM     83  C   UNL     1       0.182 -13.009  11.523  1.00  0.00     0.002 A 
ATOM     84  C   UNL     1      -0.471 -14.391   9.643  1.00  0.00     0.091 A 
ATOM     85  F   UNL     1       1.166 -14.983   8.011  1.00  0.00    -0.205 F 
ATOM     86  C   UNL     1      -0.788 -13.744  10.847  1.00  0.00     0.022 A 
BRANCH  84  87
ATOM     87  S   UNL     1      -1.816 -15.200   8.771  1.00  0.00     0.127 S 
ATOM     88  O   UNL     1      -2.076 -16.355   9.627  1.00  0.00    -0.237 OA
ATOM     89  O   UNL     1      -2.854 -14.169   8.794  1.00  0.00    -0.237 OA
ATOM     90  O   UNL     1      -1.299 -15.501   7.443  1.00  0.00    -0.744 OA
ENDBRANCH  84  87
ENDBRANCH  56  80
BRANCH  68  91
ATOM     91  C   UNL     1       8.076 -15.524  12.153  1.00  0.00     0.023 A 
ATOM     92  C   UNL     1       7.738 -16.871  12.391  1.00  0.00     0.012 A 
ATOM     93  C   UNL     1       8.852 -14.828  13.101  1.00  0.00     0.148 A 
ATOM     94  C   UNL     1       8.116 -17.497  13.578  1.00  0.00     0.002 A 
ATOM     95  C   UNL     1       9.274 -15.477  14.254  1.00  0.00     0.091 A 
ATOM     96  F   UNL     1       9.151 -13.542  12.866  1.00  0.00    -0.205 F 
ATOM     97  C   UNL     1       8.892 -16.804  14.504  1.00  0.00     0.022 A 
BRANCH  95  98
ATOM     98  S   UNL     1      10.361 -14.693  15.450  1.00  0.00     0.127 S 
ATOM     99  O   UNL     1       9.435 -14.390  16.540  1.00  0.00    -0.237 OA
ATOM    100  O   UNL     1      11.322 -15.757  15.742  1.00  0.00    -0.237 OA
ATOM    101  O   UNL     1      10.932 -13.537  14.772  1.00  0.00    -0.744 OA
ENDBRANCH  95  98
ENDBRANCH  68  91
ENDBRANCH  42  43
ENDBRANCH  34  37
ENDBRANCH  32  33
ENDBRANCH  31  32
ENDBRANCH  30  31
ENDBRANCH   1  30
TORSDOF 20
