REMARK SMILES O=C(NCCCCNC(=O)c1ccc([C@@H]2CC(O)=Nc3c2ncn3-c2cccc(Cl)c2)cc1)c1ccc(-c2c3nc(c(-c4cccc(S(=O)(=O)[O-])c4F)c4ccc([nH]4)c(-c4cccc(S(=O)(=O)[O-])c4F)c4nc(c(-c5cccc(S(=O)(=O)[O-])c5F)c5ccc2[nH]5)C=C4)C=C3)cc1
REMARK SMILES IDX 5 1 4 2 3 3 1 4 2 5 34 7 35 8 96 9 36 10 95 11 37 12 38 13
REMARK SMILES IDX 39 14 89 15 40 16 94 17 88 18 90 19 41 20 93 21 87 22 86 23
REMARK SMILES IDX 42 25 74 26 54 27 73 28 55 29 58 30 72 31 91 32 56 33 57 34
REMARK SMILES IDX 71 36 92 37 59 38 43 39 44 40 52 41 45 42 47 43 53 44 46 45
REMARK SMILES IDX 48 46 49 47 50 48 51 49 75 50 76 51 84 52 77 53 79 54 85 55
REMARK SMILES IDX 78 56 80 57 81 58 82 59 83 60 60 61 61 62 69 63 62 64 64 65
REMARK SMILES IDX 70 66 63 67 65 68 66 69 67 70 68 71 6 72 7 73 8 74 9 75
REMARK SMILES IDX 10 77 11 78 12 79 33 80 13 81 32 82 14 83 15 84 16 85 21 86
REMARK SMILES IDX 17 87 20 88 22 89 19 90 24 91 23 92 18 93 25 95 26 96 31 97
REMARK SMILES IDX 27 98 29 99 28 100 30 101
REMARK H PARENT 3 6 90 24 58 35 8 76 18 94
REMARK Flexibility Score: inf
ROOT
ATOM      1  C   UNL     1       4.919  -1.576  -1.648  1.00  0.00     0.023 C 
ENDROOT
BRANCH   1   2
ATOM      2  C   UNL     1       4.700  -0.098  -1.323  1.00  0.00     0.116 C 
BRANCH   2   3
ATOM      3  N   UNL     1       3.320   0.336  -1.360  1.00  0.00    -0.352 N 
ATOM      4  O   UNL     1       1.283   0.941  -0.750  1.00  0.00    -0.269 OA
ATOM      5  C   UNL     1       2.293   0.298  -0.456  1.00  0.00     0.251 C 
ATOM      6  H   UNL     1       3.066   0.745  -2.218  1.00  0.00     0.163 HD
BRANCH   5   7
ATOM      7  C   UNL     1       2.295  -0.544   0.766  1.00  0.00     0.039 A 
ATOM      8  C   UNL     1       3.433  -1.095   1.361  1.00  0.00     0.014 A 
ATOM      9  C   UNL     1       1.031  -0.852   1.294  1.00  0.00     0.014 A 
ATOM     10  C   UNL     1       3.312  -2.063   2.343  1.00  0.00     0.010 A 
ATOM     11  C   UNL     1       0.903  -1.790   2.305  1.00  0.00     0.010 A 
ATOM     12  C   UNL     1       2.044  -2.438   2.774  1.00  0.00    -0.014 A 
BRANCH  12  13
ATOM     13  C   UNL     1       1.947  -3.439   3.825  1.00  0.00     0.031 A 
ATOM     14  C   UNL     1       2.450  -2.988   5.157  1.00  0.00     0.074 A 
ATOM     15  C   UNL     1       1.286  -4.593   3.607  1.00  0.00     0.049 A 
ATOM     16  N   UNL     1       3.314  -3.558   5.935  1.00  0.00    -0.248 NA
ATOM     17  C   UNL     1       2.018  -1.657   5.624  1.00  0.00     0.031 C 
ATOM     18  C   UNL     1       0.533  -4.973   2.405  1.00  0.00     0.029 A 
ATOM     19  N   UNL     1       0.988  -5.592   4.483  1.00  0.00    -0.354 N 
ATOM     20  C   UNL     1       3.361  -2.765   7.085  1.00  0.00     0.074 A 
ATOM     21  C   UNL     1       2.690  -1.535   6.767  1.00  0.00     0.031 C 
ATOM     22  C   UNL     1      -0.351  -5.941   2.729  1.00  0.00     0.029 A 
ATOM     23  C   UNL     1      -0.139  -6.323   4.112  1.00  0.00     0.049 A 
ATOM     24  H   UNL     1       1.514  -5.778   5.294  1.00  0.00     0.167 HD
ATOM     25  C   UNL     1       3.725  -3.265   8.297  1.00  0.00     0.034 A 
ATOM     26  C   UNL     1      -0.915  -7.079   4.929  1.00  0.00     0.034 A 
ATOM     27  C   UNL     1       4.462  -4.492   8.176  1.00  0.00     0.049 A 
ATOM     28  C   UNL     1      -0.127  -7.369   6.148  1.00  0.00     0.074 A 
ATOM     29  C   UNL     1       5.653  -4.865   7.588  1.00  0.00     0.029 A 
ATOM     30  N   UNL     1       3.783  -5.659   8.422  1.00  0.00    -0.354 N 
ATOM     31  N   UNL     1       0.959  -8.091   6.146  1.00  0.00    -0.248 NA
ATOM     32  C   UNL     1      -0.288  -6.477   7.285  1.00  0.00     0.031 C 
ATOM     33  C   UNL     1       5.404  -6.166   7.061  1.00  0.00     0.029 A 
ATOM     34  C   UNL     1       4.100  -6.524   7.408  1.00  0.00     0.049 A 
ATOM     35  H   UNL     1       3.183  -5.840   9.181  1.00  0.00     0.167 HD
ATOM     36  C   UNL     1       1.815  -7.429   7.017  1.00  0.00     0.074 A 
ATOM     37  C   UNL     1       0.961  -6.502   7.760  1.00  0.00     0.031 C 
ATOM     38  C   UNL     1       3.170  -7.478   6.850  1.00  0.00     0.034 A 
BRANCH  25  39
ATOM     39  C   UNL     1       3.099  -2.845   9.607  1.00  0.00     0.023 A 
ATOM     40  C   UNL     1       3.699  -3.307  10.799  1.00  0.00     0.012 A 
ATOM     41  C   UNL     1       1.808  -2.278   9.717  1.00  0.00     0.148 A 
ATOM     42  C   UNL     1       3.028  -3.253  12.027  1.00  0.00     0.002 A 
ATOM     43  C   UNL     1       1.177  -2.156  10.950  1.00  0.00     0.091 A 
ATOM     44  F   UNL     1       1.114  -1.974   8.617  1.00  0.00    -0.205 F 
ATOM     45  C   UNL     1       1.769  -2.671  12.104  1.00  0.00     0.022 A 
BRANCH  43  46
ATOM     46  S   UNL     1      -0.434  -1.375  11.106  1.00  0.00     0.127 S 
ATOM     47  O   UNL     1      -1.302  -2.533  11.294  1.00  0.00    -0.237 OA
ATOM     48  O   UNL     1      -0.247  -0.540  12.294  1.00  0.00    -0.237 OA
ATOM     49  O   UNL     1      -0.619  -0.621   9.873  1.00  0.00    -0.744 OA
ENDBRANCH  43  46
ENDBRANCH  25  39
BRANCH  26  50
ATOM     50  C   UNL     1      -2.388  -7.253   4.878  1.00  0.00     0.023 A 
ATOM     51  C   UNL     1      -2.991  -8.361   5.502  1.00  0.00     0.012 A 
ATOM     52  C   UNL     1      -3.225  -6.202   4.436  1.00  0.00     0.148 A 
ATOM     53  C   UNL     1      -4.379  -8.417   5.686  1.00  0.00     0.002 A 
ATOM     54  C   UNL     1      -4.604  -6.269   4.604  1.00  0.00     0.091 A 
ATOM     55  F   UNL     1      -2.663  -5.096   3.933  1.00  0.00    -0.205 F 
ATOM     56  C   UNL     1      -5.185  -7.372   5.240  1.00  0.00     0.022 A 
BRANCH  54  57
ATOM     57  S   UNL     1      -5.700  -4.953   4.057  1.00  0.00     0.127 S 
ATOM     58  O   UNL     1      -6.713  -5.697   3.307  1.00  0.00    -0.237 OA
ATOM     59  O   UNL     1      -6.163  -4.397   5.325  1.00  0.00    -0.237 OA
ATOM     60  O   UNL     1      -4.881  -4.067   3.238  1.00  0.00    -0.744 OA
ENDBRANCH  54  57
ENDBRANCH  26  50
BRANCH  38  61
ATOM     61  C   UNL     1       3.723  -8.409   5.799  1.00  0.00     0.023 A 
ATOM     62  C   UNL     1       3.468  -8.219   4.423  1.00  0.00     0.012 A 
ATOM     63  C   UNL     1       4.667  -9.372   6.185  1.00  0.00     0.148 A 
ATOM     64  C   UNL     1       4.122  -8.987   3.456  1.00  0.00     0.002 A 
ATOM     65  C   UNL     1       5.348 -10.105   5.219  1.00  0.00     0.091 A 
ATOM     66  F   UNL     1       4.913  -9.527   7.494  1.00  0.00    -0.205 F 
ATOM     67  C   UNL     1       5.071  -9.923   3.854  1.00  0.00     0.022 A 
BRANCH  65  68
ATOM     68  S   UNL     1       6.672 -11.234   5.653  1.00  0.00     0.127 S 
ATOM     69  O   UNL     1       6.061 -12.536   5.391  1.00  0.00    -0.237 OA
ATOM     70  O   UNL     1       7.727 -10.853   4.713  1.00  0.00    -0.237 OA
ATOM     71  O   UNL     1       6.992 -10.964   7.049  1.00  0.00    -0.744 OA
ENDBRANCH  65  68
ENDBRANCH  38  61
ENDBRANCH  12  13
ENDBRANCH   5   7
ENDBRANCH   2   3
ENDBRANCH   1   2
BRANCH   1  72
ATOM     72  C   UNL     1       4.444  -2.006  -3.036  1.00  0.00     0.023 C 
BRANCH  72  73
ATOM     73  C   UNL     1       4.858  -1.088  -4.178  1.00  0.00     0.116 C 
BRANCH  73  74
ATOM     74  N   UNL     1       6.302  -0.943  -4.297  1.00  0.00    -0.352 N 
ATOM     75  C   UNL     1       7.072  -1.026  -5.428  1.00  0.00     0.251 C 
ATOM     76  H   UNL     1       6.787  -0.763  -3.459  1.00  0.00     0.163 HD
ATOM     77  O   UNL     1       8.300  -0.979  -5.367  1.00  0.00    -0.269 OA
BRANCH  75  78
ATOM     78  C   UNL     1       6.410  -1.201  -6.733  1.00  0.00     0.039 A 
ATOM     79  C   UNL     1       6.765  -2.295  -7.521  1.00  0.00     0.014 A 
ATOM     80  C   UNL     1       5.414  -0.314  -7.152  1.00  0.00     0.014 A 
ATOM     81  C   UNL     1       6.071  -2.540  -8.705  1.00  0.00     0.005 A 
ATOM     82  C   UNL     1       4.710  -0.570  -8.326  1.00  0.00     0.005 A 
ATOM     83  C   UNL     1       5.024  -1.693  -9.114  1.00  0.00    -0.038 A 
BRANCH  83  84
ATOM     84  C   UNL     1       4.292  -1.994 -10.409  1.00  0.00     0.081 C 
ATOM     85  C   UNL     1       4.365  -0.814 -11.401  1.00  0.00     0.111 C 
ATOM     86  C   UNL     1       2.888  -2.321 -10.050  1.00  0.00     0.093 A 
ATOM     87  C   UNL     1       3.048  -0.100 -11.655  1.00  0.00     0.188 C 
ATOM     88  C   UNL     1       1.831  -1.600 -10.557  1.00  0.00     0.164 A 
ATOM     89  N   UNL     1       2.466  -3.304  -9.197  1.00  0.00    -0.238 NA
ATOM     90  N   UNL     1       1.859  -0.483 -11.323  1.00  0.00    -0.198 NA
ATOM     91  N   UNL     1       0.701  -2.166  -9.996  1.00  0.00    -0.283 N 
ATOM     92  C   UNL     1       1.157  -3.150  -9.141  1.00  0.00     0.206 A 
BRANCH  87  93
ATOM     93  O   UNL     1       3.175   1.047 -12.353  1.00  0.00    -0.496 OA
ATOM     94  H   UNL     1       4.025   1.349 -12.608  1.00  0.00     0.294 HD
ENDBRANCH  87  93
BRANCH  91  95
ATOM     95  C   UNL     1      -0.644  -1.813 -10.248  1.00  0.00     0.050 A 
ATOM     96  C   UNL     1      -1.570  -1.759  -9.200  1.00  0.00     0.027 A 
ATOM     97  C   UNL     1      -1.037  -1.508 -11.559  1.00  0.00     0.047 A 
ATOM     98  C   UNL     1      -2.879  -1.349  -9.464  1.00  0.00     0.004 A 
ATOM     99  C   UNL     1      -2.358  -1.152 -11.814  1.00  0.00     0.043 A 
ATOM    100  C   UNL     1      -3.276  -1.053 -10.770  1.00  0.00     0.020 A 
ATOM    101  Cl  UNL     1      -2.863  -0.846 -13.431  1.00  0.00    -0.084 Cl
ENDBRANCH  91  95
ENDBRANCH  83  84
ENDBRANCH  75  78
ENDBRANCH  73  74
ENDBRANCH  72  73
ENDBRANCH   1  72
TORSDOF 17
