REMARK SMILES Cc1ccc2c(CC(=O)N3CCC(C(=O)NCCCCNC(=O)c4ccc(-c5c6nc(c(-c7cccc(S(=O)(=O)[O-])c7F)c7ccc([nH]7)c(-c7cccc(S(=O)(=O)[O-])c7F)c7nc(c(-c8cccc(S(=O)(=O)[O-])c8F)c8ccc5[nH]8)C=C7)C=C6)cc4)CC3)coc2c1
REMARK SMILES IDX 19 1 18 2 17 3 16 4 14 5 15 6 13 8 8 9 9 10 10 11 11 12
REMARK SMILES IDX 88 13 12 14 87 15 7 16 6 17 1 18 2 19 3 20 92 21 4 22 91 23
REMARK SMILES IDX 5 24 90 25 89 26 20 27 21 28 22 29 23 31 24 32 25 33 86 34
REMARK SMILES IDX 26 35 85 36 27 37 28 38 29 39 79 40 30 41 84 42 78 43 80 44
REMARK SMILES IDX 31 45 83 46 77 47 76 48 32 50 64 51 44 52 63 53 45 54 48 55
REMARK SMILES IDX 62 56 81 57 46 58 47 59 61 61 82 62 49 63 33 64 34 65 42 66
REMARK SMILES IDX 35 67 37 68 43 69 36 70 38 71 39 72 40 73 41 74 65 75 66 76
REMARK SMILES IDX 74 77 67 78 69 79 75 80 68 81 70 82 71 83 72 84 73 85 50 86
REMARK SMILES IDX 51 87 59 88 52 89 54 90 60 91 53 92 55 93 56 94 57 95 58 96
REMARK H PARENT 16 7 21 30 80 49 48 60
REMARK Flexibility Score: inf
ROOT
ATOM      1  C   UNL     1      -7.457   4.428  -7.913  1.00  0.00     0.023 C 
ENDROOT
BRANCH   1   2
ATOM      2  C   UNL     1      -6.607   3.165  -7.733  1.00  0.00     0.023 C 
BRANCH   2   3
ATOM      3  C   UNL     1      -5.972   3.011  -6.354  1.00  0.00     0.116 C 
BRANCH   3   4
ATOM      4  N   UNL     1      -6.965   2.778  -5.317  1.00  0.00    -0.356 N 
ATOM      5  C   UNL     1      -7.123   1.738  -4.455  1.00  0.00     0.223 C 
ATOM      6  O   UNL     1      -8.035   1.803  -3.627  1.00  0.00    -0.275 OA
ATOM      7  H   UNL     1      -7.635   3.493  -5.223  1.00  0.00     0.163 HD
BRANCH   5   8
ATOM      8  C   UNL     1      -6.188   0.536  -4.468  1.00  0.00     0.082 C 
ATOM      9  C   UNL     1      -2.913  -0.309  -6.591  1.00  0.00     0.227 C 
ATOM     10  O   UNL     1      -3.302  -0.111  -7.747  1.00  0.00    -0.275 OA
ATOM     11  N   UNL     1      -3.817  -0.642  -5.588  1.00  0.00    -0.342 N 
ATOM     12  C   UNL     1      -5.103  -1.218  -5.961  1.00  0.00     0.120 C 
ATOM     13  C   UNL     1      -3.764  -0.177  -4.209  1.00  0.00     0.120 C 
ATOM     14  C   UNL     1      -6.244  -0.227  -5.800  1.00  0.00     0.035 C 
ATOM     15  C   UNL     1      -4.784   0.935  -3.992  1.00  0.00     0.035 C 
BRANCH   9  16
ATOM     16  C   UNL     1      -1.413  -0.443  -6.331  1.00  0.00     0.139 C 
BRANCH  16  17
ATOM     17  C   UNL     1      -0.816   0.441  -5.298  1.00  0.00     0.008 A 
ATOM     18  C   UNL     1       1.076  -0.024   0.058  1.00  0.00     0.044 C 
ATOM     19  C   UNL     1       0.611   0.006  -1.370  1.00  0.00    -0.047 A 
ATOM     20  C   UNL     1       0.323  -1.194  -2.037  1.00  0.00     0.004 A 
ATOM     21  C   UNL     1       0.505   1.235  -2.044  1.00  0.00     0.051 A 
ATOM     22  C   UNL     1      -0.128  -1.199  -3.364  1.00  0.00     0.012 A 
ATOM     23  C   UNL     1       0.049   1.196  -3.360  1.00  0.00     0.134 A 
ATOM     24  C   UNL     1      -0.287   0.030  -4.032  1.00  0.00     0.024 A 
ATOM     25  O   UNL     1      -0.161   2.276  -4.162  1.00  0.00    -0.464 OA
ATOM     26  C   UNL     1      -0.670   1.813  -5.334  1.00  0.00     0.200 A 
ENDBRANCH  16  17
ENDBRANCH   9  16
ENDBRANCH   5   8
ENDBRANCH   3   4
ENDBRANCH   2   3
ENDBRANCH   1   2
BRANCH   1  27
ATOM     27  C   UNL     1      -6.767   5.730  -7.501  1.00  0.00     0.116 C 
BRANCH  27  28
ATOM     28  N   UNL     1      -5.478   5.933  -8.130  1.00  0.00    -0.352 N 
ATOM     29  C   UNL     1      -5.050   6.566  -9.264  1.00  0.00     0.251 C 
ATOM     30  H   UNL     1      -4.741   5.519  -7.625  1.00  0.00     0.163 HD
ATOM     31  O   UNL     1      -3.827   6.678  -9.383  1.00  0.00    -0.269 OA
BRANCH  29  32
ATOM     32  C   UNL     1      -5.931   7.051 -10.359  1.00  0.00     0.039 A 
ATOM     33  C   UNL     1      -7.322   6.952 -10.376  1.00  0.00     0.014 A 
ATOM     34  C   UNL     1      -5.279   7.563 -11.498  1.00  0.00     0.014 A 
ATOM     35  C   UNL     1      -8.031   7.243 -11.532  1.00  0.00     0.010 A 
ATOM     36  C   UNL     1      -5.986   7.875 -12.653  1.00  0.00     0.010 A 
ATOM     37  C   UNL     1      -7.357   7.656 -12.683  1.00  0.00    -0.014 A 
BRANCH  37  38
ATOM     38  C   UNL     1      -8.162   7.901 -13.871  1.00  0.00     0.031 A 
ATOM     39  C   UNL     1      -9.222   8.935 -13.704  1.00  0.00     0.074 A 
ATOM     40  C   UNL     1      -7.963   7.279 -15.050  1.00  0.00     0.049 A 
ATOM     41  N   UNL     1     -10.505   8.762 -13.693  1.00  0.00    -0.248 NA
ATOM     42  C   UNL     1      -8.794  10.301 -13.375  1.00  0.00     0.031 C 
ATOM     43  C   UNL     1      -6.839   6.437 -15.463  1.00  0.00     0.029 A 
ATOM     44  N   UNL     1      -8.710   7.371 -16.184  1.00  0.00    -0.354 N 
ATOM     45  C   UNL     1     -11.054  10.037 -13.567  1.00  0.00     0.074 A 
ATOM     46  C   UNL     1      -9.966  10.919 -13.226  1.00  0.00     0.031 C 
ATOM     47  C   UNL     1      -6.856   6.302 -16.809  1.00  0.00     0.029 A 
ATOM     48  C   UNL     1      -8.064   6.916 -17.329  1.00  0.00     0.049 A 
ATOM     49  H   UNL     1      -9.627   7.728 -16.194  1.00  0.00     0.167 HD
ATOM     50  C   UNL     1     -12.326  10.320 -13.960  1.00  0.00     0.034 A 
ATOM     51  C   UNL     1      -8.480   7.101 -18.606  1.00  0.00     0.034 A 
ATOM     52  C   UNL     1     -13.127   9.137 -14.110  1.00  0.00     0.049 A 
ATOM     53  C   UNL     1      -9.938   7.365 -18.546  1.00  0.00     0.074 A 
ATOM     54  C   UNL     1     -13.526   8.115 -13.272  1.00  0.00     0.029 A 
ATOM     55  N   UNL     1     -13.347   8.681 -15.386  1.00  0.00    -0.354 N 
ATOM     56  N   UNL     1     -10.817   6.476 -18.179  1.00  0.00    -0.248 NA
ATOM     57  C   UNL     1     -10.384   8.748 -18.503  1.00  0.00     0.031 C 
ATOM     58  C   UNL     1     -13.477   6.943 -14.081  1.00  0.00     0.029 A 
ATOM     59  C   UNL     1     -13.102   7.334 -15.367  1.00  0.00     0.049 A 
ATOM     60  H   UNL     1     -13.626   9.217 -16.163  1.00  0.00     0.167 HD
ATOM     61  C   UNL     1     -11.757   7.196 -17.456  1.00  0.00     0.074 A 
ATOM     62  C   UNL     1     -11.492   8.597 -17.774  1.00  0.00     0.031 C 
ATOM     63  C   UNL     1     -12.476   6.614 -16.453  1.00  0.00     0.034 A 
BRANCH  50  64
ATOM     64  C   UNL     1     -12.756  11.642 -14.540  1.00  0.00     0.023 A 
ATOM     65  C   UNL     1     -14.139  11.893 -14.677  1.00  0.00     0.012 A 
ATOM     66  C   UNL     1     -11.872  12.519 -15.209  1.00  0.00     0.148 A 
ATOM     67  C   UNL     1     -14.616  12.947 -15.465  1.00  0.00     0.002 A 
ATOM     68  C   UNL     1     -12.349  13.607 -15.930  1.00  0.00     0.091 A 
ATOM     69  F   UNL     1     -10.568  12.229 -15.271  1.00  0.00    -0.205 F 
ATOM     70  C   UNL     1     -13.721  13.812 -16.083  1.00  0.00     0.022 A 
BRANCH  68  71
ATOM     71  S   UNL     1     -11.225  14.763 -16.721  1.00  0.00     0.127 S 
ATOM     72  O   UNL     1     -11.307  14.340 -18.115  1.00  0.00    -0.237 OA
ATOM     73  O   UNL     1     -11.856  16.049 -16.422  1.00  0.00    -0.237 OA
ATOM     74  O   UNL     1      -9.942  14.563 -16.059  1.00  0.00    -0.744 OA
ENDBRANCH  68  71
ENDBRANCH  50  64
BRANCH  51  75
ATOM     75  C   UNL     1      -7.703   7.306 -19.853  1.00  0.00     0.023 A 
ATOM     76  C   UNL     1      -8.360   7.201 -21.098  1.00  0.00     0.012 A 
ATOM     77  C   UNL     1      -6.416   7.888 -19.833  1.00  0.00     0.148 A 
ATOM     78  C   UNL     1      -7.782   7.705 -22.269  1.00  0.00     0.002 A 
ATOM     79  C   UNL     1      -5.840   8.378 -21.003  1.00  0.00     0.091 A 
ATOM     80  F   UNL     1      -5.796   8.051 -18.657  1.00  0.00    -0.205 F 
ATOM     81  C   UNL     1      -6.528   8.304 -22.220  1.00  0.00     0.022 A 
BRANCH  79  82
ATOM     82  S   UNL     1      -4.227   9.175 -21.018  1.00  0.00     0.127 S 
ATOM     83  O   UNL     1      -3.587   8.548 -22.174  1.00  0.00    -0.237 OA
ATOM     84  O   UNL     1      -4.582  10.578 -21.200  1.00  0.00    -0.237 OA
ATOM     85  O   UNL     1      -3.608   8.837 -19.739  1.00  0.00    -0.744 OA
ENDBRANCH  79  82
ENDBRANCH  51  75
BRANCH  63  86
ATOM     86  C   UNL     1     -12.381   5.120 -16.279  1.00  0.00     0.023 A 
ATOM     87  C   UNL     1     -11.191   4.500 -15.843  1.00  0.00     0.012 A 
ATOM     88  C   UNL     1     -13.564   4.366 -16.337  1.00  0.00     0.148 A 
ATOM     89  C   UNL     1     -11.182   3.152 -15.475  1.00  0.00     0.002 A 
ATOM     90  C   UNL     1     -13.559   3.037 -15.933  1.00  0.00     0.091 A 
ATOM     91  F   UNL     1     -14.686   4.982 -16.738  1.00  0.00    -0.205 F 
ATOM     92  C   UNL     1     -12.370   2.425 -15.505  1.00  0.00     0.022 A 
BRANCH  90  93
ATOM     93  S   UNL     1     -15.069   2.073 -15.831  1.00  0.00     0.127 S 
ATOM     94  O   UNL     1     -14.866   1.074 -16.879  1.00  0.00    -0.237 OA
ATOM     95  O   UNL     1     -15.009   1.548 -14.466  1.00  0.00    -0.237 OA
ATOM     96  O   UNL     1     -16.165   3.005 -16.066  1.00  0.00    -0.744 OA
ENDBRANCH  90  93
ENDBRANCH  63  86
ENDBRANCH  37  38
ENDBRANCH  29  32
ENDBRANCH  27  28
ENDBRANCH   1  27
TORSDOF 16
