REMARK SMILES C[C@]1(c2nnnn2CCC(=O)NCCCCNC(=O)c2ccc(-c3c4nc(c(-c5cccc(S(=O)(=O)[O-])c5F)c5ccc([nH]5)c(-c5cccc(S(=O)(=O)[O-])c5F)c5nc(c(-c6cccc(S(=O)(=O)[O-])c6F)c6ccc3[nH]6)C=C5)C=C4)cc2)CCCO1
REMARK SMILES IDX 14 1 13 2 12 3 10 4 11 5 9 7 8 8 7 9 3 10 4 11 5 12 6 13
REMARK SMILES IDX 2 14 1 15 83 16 86 17 84 18 85 19 15 20 16 21 17 22 18 23
REMARK SMILES IDX 19 25 20 26 21 27 82 28 22 29 81 30 23 31 24 32 25 33 75 34
REMARK SMILES IDX 26 35 80 36 74 37 76 38 27 39 79 40 73 41 72 42 28 44 60 45
REMARK SMILES IDX 40 46 59 47 41 48 44 49 58 50 77 51 42 52 43 53 57 55 78 56
REMARK SMILES IDX 45 57 29 58 30 59 38 60 31 61 33 62 39 63 32 64 34 65 35 66
REMARK SMILES IDX 36 67 37 68 61 69 62 70 70 71 63 72 65 73 71 74 64 75 66 76
REMARK SMILES IDX 67 77 68 78 69 79 46 80 47 81 55 82 48 83 50 84 56 85 49 86
REMARK SMILES IDX 51 87 52 88 53 89 54 90
REMARK H PARENT 12 6 17 24 76 43 44 54
REMARK Flexibility Score: inf
ROOT
ATOM      1  C   UNL     1       1.687  -0.793   3.182  1.00  0.00     0.023 C 
ENDROOT
BRANCH   1   2
ATOM      2  C   UNL     1       0.537   0.170   3.472  1.00  0.00     0.116 C 
BRANCH   2   3
ATOM      3  N   UNL     1       1.045   1.462   3.899  1.00  0.00    -0.356 N 
ATOM      4  C   UNL     1       1.315   2.575   3.163  1.00  0.00     0.221 C 
ATOM      5  O   UNL     1       1.973   3.483   3.673  1.00  0.00    -0.275 OA
ATOM      6  H   UNL     1       1.221   1.545   4.864  1.00  0.00     0.163 HD
BRANCH   4   7
ATOM      7  C   UNL     1       0.800   2.718   1.743  1.00  0.00     0.124 C 
BRANCH   7   8
ATOM      8  C   UNL     1       1.887   2.487   0.697  1.00  0.00     0.158 C 
BRANCH   8   9
ATOM      9  N   UNL     1       2.047   1.110   0.289  1.00  0.00    -0.226 N 
ATOM     10  C   UNL     1       1.283   0.269  -0.486  1.00  0.00     0.183 A 
ATOM     11  N   UNL     1       1.720  -0.960  -0.253  1.00  0.00    -0.111 NA
ATOM     12  N   UNL     1       2.923  -0.823   0.378  1.00  0.00    -0.024 NA
ATOM     13  N   UNL     1       3.164   0.449   0.652  1.00  0.00    -0.045 NA
BRANCH  10  14
ATOM     14  C   UNL     1       0.447   0.617  -1.673  1.00  0.00     0.126 C 
ATOM     15  C   UNL     1       1.136  -0.021  -2.899  1.00  0.00     0.051 C 
ATOM     16  C   UNL     1      -1.018   0.206  -1.579  1.00  0.00     0.046 C 
ATOM     17  O   UNL     1       0.430   2.041  -1.873  1.00  0.00    -0.367 OA
ATOM     18  C   UNL     1      -1.667   1.157  -2.563  1.00  0.00     0.032 C 
ATOM     19  C   UNL     1      -0.872   2.427  -2.344  1.00  0.00     0.161 C 
ENDBRANCH  10  14
ENDBRANCH   8   9
ENDBRANCH   7   8
ENDBRANCH   4   7
ENDBRANCH   2   3
ENDBRANCH   1   2
BRANCH   1  20
ATOM     20  C   UNL     1       2.308  -1.555   4.349  1.00  0.00     0.023 C 
BRANCH  20  21
ATOM     21  C   UNL     1       1.385  -2.585   4.966  1.00  0.00     0.116 C 
BRANCH  21  22
ATOM     22  N   UNL     1       1.001  -3.650   4.035  1.00  0.00    -0.352 N 
ATOM     23  C   UNL     1       0.132  -4.689   4.293  1.00  0.00     0.251 C 
ATOM     24  H   UNL     1       1.403  -3.620   3.136  1.00  0.00     0.163 HD
ATOM     25  O   UNL     1       0.130  -5.716   3.614  1.00  0.00    -0.269 OA
BRANCH  23  26
ATOM     26  C   UNL     1      -0.809  -4.529   5.411  1.00  0.00     0.039 A 
ATOM     27  C   UNL     1      -0.919  -5.497   6.409  1.00  0.00     0.014 A 
ATOM     28  C   UNL     1      -1.493  -3.314   5.499  1.00  0.00     0.014 A 
ATOM     29  C   UNL     1      -1.642  -5.186   7.557  1.00  0.00     0.010 A 
ATOM     30  C   UNL     1      -2.090  -2.960   6.684  1.00  0.00     0.010 A 
ATOM     31  C   UNL     1      -2.189  -3.898   7.708  1.00  0.00    -0.014 A 
BRANCH  31  32
ATOM     32  C   UNL     1      -2.666  -3.452   9.018  1.00  0.00     0.031 A 
ATOM     33  C   UNL     1      -1.638  -3.615  10.086  1.00  0.00     0.074 A 
ATOM     34  C   UNL     1      -3.821  -2.774   9.202  1.00  0.00     0.049 A 
ATOM     35  N   UNL     1      -1.623  -4.506  11.022  1.00  0.00    -0.248 NA
ATOM     36  C   UNL     1      -0.379  -2.857   9.981  1.00  0.00     0.031 C 
ATOM     37  C   UNL     1      -4.738  -2.290   8.159  1.00  0.00     0.029 A 
ATOM     38  N   UNL     1      -4.370  -2.254  10.339  1.00  0.00    -0.354 N 
ATOM     39  C   UNL     1      -0.505  -4.205  11.802  1.00  0.00     0.074 A 
ATOM     40  C   UNL     1       0.337  -3.389  10.977  1.00  0.00     0.031 C 
ATOM     41  C   UNL     1      -5.566  -1.355   8.677  1.00  0.00     0.029 A 
ATOM     42  C   UNL     1      -5.363  -1.299  10.112  1.00  0.00     0.049 A 
ATOM     43  H   UNL     1      -4.088  -2.528  11.242  1.00  0.00     0.167 HD
ATOM     44  C   UNL     1      -0.557  -4.364  13.156  1.00  0.00     0.034 A 
ATOM     45  C   UNL     1      -5.970  -0.505  11.031  1.00  0.00     0.034 A 
ATOM     46  C   UNL     1      -1.737  -5.116  13.512  1.00  0.00     0.049 A 
ATOM     47  C   UNL     1      -5.790  -1.154  12.342  1.00  0.00     0.074 A 
ATOM     48  C   UNL     1      -2.191  -6.408  13.370  1.00  0.00     0.029 A 
ATOM     49  N   UNL     1      -2.825  -4.315  13.746  1.00  0.00    -0.354 N 
ATOM     50  N   UNL     1      -6.362  -2.280  12.658  1.00  0.00    -0.248 NA
ATOM     51  C   UNL     1      -4.687  -0.743  13.199  1.00  0.00     0.031 C 
ATOM     52  C   UNL     1      -3.613  -6.313  13.315  1.00  0.00     0.029 A 
ATOM     53  C   UNL     1      -3.988  -4.982  13.498  1.00  0.00     0.049 A 
ATOM     54  H   UNL     1      -2.773  -3.381  14.052  1.00  0.00     0.167 HD
ATOM     55  C   UNL     1      -5.399  -2.931  13.405  1.00  0.00     0.074 A 
ATOM     56  C   UNL     1      -4.499  -1.882  13.870  1.00  0.00     0.031 C 
ATOM     57  C   UNL     1      -5.232  -4.278  13.284  1.00  0.00     0.034 A 
BRANCH  44  58
ATOM     58  C   UNL     1       0.079  -3.448  14.201  1.00  0.00     0.023 A 
ATOM     59  C   UNL     1      -0.189  -3.762  15.559  1.00  0.00     0.012 A 
ATOM     60  C   UNL     1       0.638  -2.174  13.955  1.00  0.00     0.148 A 
ATOM     61  C   UNL     1      -0.002  -2.835  16.591  1.00  0.00     0.002 A 
ATOM     62  C   UNL     1       0.874  -1.272  14.991  1.00  0.00     0.091 A 
ATOM     63  F   UNL     1       0.857  -1.763  12.708  1.00  0.00    -0.205 F 
ATOM     64  C   UNL     1       0.525  -1.585  16.306  1.00  0.00     0.022 A 
BRANCH  62  65
ATOM     65  S   UNL     1       1.576   0.358  14.691  1.00  0.00     0.127 S 
ATOM     66  O   UNL     1       0.458   1.228  15.045  1.00  0.00    -0.237 OA
ATOM     67  O   UNL     1       2.697   0.372  15.630  1.00  0.00    -0.237 OA
ATOM     68  O   UNL     1       1.967   0.373  13.287  1.00  0.00    -0.744 OA
ENDBRANCH  62  65
ENDBRANCH  44  58
BRANCH  45  69
ATOM     69  C   UNL     1      -6.587   0.838  10.936  1.00  0.00     0.023 A 
ATOM     70  C   UNL     1      -7.529   1.248  11.905  1.00  0.00     0.012 A 
ATOM     71  C   UNL     1      -6.016   1.823  10.104  1.00  0.00     0.148 A 
ATOM     72  C   UNL     1      -7.847   2.601  12.080  1.00  0.00     0.002 A 
ATOM     73  C   UNL     1      -6.331   3.168  10.286  1.00  0.00     0.091 A 
ATOM     74  F   UNL     1      -5.099   1.446   9.204  1.00  0.00    -0.205 F 
ATOM     75  C   UNL     1      -7.234   3.562  11.283  1.00  0.00     0.022 A 
BRANCH  73  76
ATOM     76  S   UNL     1      -5.541   4.476   9.338  1.00  0.00     0.127 S 
ATOM     77  O   UNL     1      -6.695   5.226   8.841  1.00  0.00    -0.237 OA
ATOM     78  O   UNL     1      -4.760   5.161  10.364  1.00  0.00    -0.237 OA
ATOM     79  O   UNL     1      -4.768   3.804   8.301  1.00  0.00    -0.744 OA
ENDBRANCH  73  76
ENDBRANCH  45  69
BRANCH  57  80
ATOM     80  C   UNL     1      -6.386  -5.072  12.748  1.00  0.00     0.023 A 
ATOM     81  C   UNL     1      -6.845  -4.987  11.419  1.00  0.00     0.012 A 
ATOM     82  C   UNL     1      -6.947  -6.026  13.610  1.00  0.00     0.148 A 
ATOM     83  C   UNL     1      -7.858  -5.837  10.967  1.00  0.00     0.002 A 
ATOM     84  C   UNL     1      -7.912  -6.902  13.143  1.00  0.00     0.091 A 
ATOM     85  F   UNL     1      -6.502  -6.072  14.875  1.00  0.00    -0.205 F 
ATOM     86  C   UNL     1      -8.380  -6.806  11.825  1.00  0.00     0.022 A 
BRANCH  84  87
ATOM     87  S   UNL     1      -8.514  -8.240  14.171  1.00  0.00     0.127 S 
ATOM     88  O   UNL     1      -9.839  -7.758  14.553  1.00  0.00    -0.237 OA
ATOM     89  O   UNL     1      -8.516  -9.371  13.242  1.00  0.00    -0.237 OA
ATOM     90  O   UNL     1      -7.554  -8.371  15.261  1.00  0.00    -0.744 OA
ENDBRANCH  84  87
ENDBRANCH  57  80
ENDBRANCH  31  32
ENDBRANCH  23  26
ENDBRANCH  21  22
ENDBRANCH  20  21
ENDBRANCH   1  20
TORSDOF 17
