REMARK SMILES O=C(NCCCCNC(=O)[C@H]1C[C@H]2CCCC[C@@H]2[N@@H+]1C1CCS(=O)(=O)CC1)c1ccc(-c2c3nc(c(-c4cccc(S(=O)(=O)[O-])c4F)c4ccc([nH]4)c(-c4cccc(S(=O)(=O)[O-])c4F)c4nc(c(-c5cccc(S(=O)(=O)[O-])c5F)c5ccc2[nH]5)C=C4)C=C3)cc1
REMARK SMILES IDX 4 1 3 2 1 3 2 4 28 6 29 7 90 8 30 9 89 10 31 11 32 12 33 13
REMARK SMILES IDX 83 14 34 15 88 16 82 17 84 18 35 19 87 20 81 21 80 22 36 24
REMARK SMILES IDX 68 25 48 26 67 27 49 28 52 29 66 30 85 31 50 32 51 33 65 35
REMARK SMILES IDX 86 36 53 37 37 38 38 39 46 40 39 41 41 42 47 43 40 44 42 45
REMARK SMILES IDX 43 46 44 47 45 48 69 49 70 50 78 51 71 52 73 53 79 54 72 55
REMARK SMILES IDX 74 56 75 57 76 58 77 59 54 60 55 61 63 62 56 63 58 64 64 65
REMARK SMILES IDX 57 66 59 67 60 68 61 69 62 70 5 71 6 72 7 73 8 74 9 75 10 77
REMARK SMILES IDX 11 78 12 79 19 80 13 81 18 82 14 84 17 85 15 86 16 87 20 88
REMARK SMILES IDX 21 89 27 90 22 91 26 92 23 93 24 94 25 95
REMARK H PARENT 3 5 84 23 52 34 8 76 19 83
REMARK Flexibility Score: inf
ROOT
ATOM      1  C   UNL     1       1.307   6.363   5.155  1.00  0.00     0.116 C 
ENDROOT
BRANCH   1   2
ATOM      2  N   UNL     1       1.520   7.799   5.004  1.00  0.00    -0.352 N 
ATOM      3  O   UNL     1       0.953   9.961   4.676  1.00  0.00    -0.269 OA
ATOM      4  C   UNL     1       0.597   8.819   4.945  1.00  0.00     0.251 C 
ATOM      5  H   UNL     1       2.462   8.079   4.935  1.00  0.00     0.163 HD
BRANCH   4   6
ATOM      6  C   UNL     1      -0.825   8.502   5.178  1.00  0.00     0.039 A 
ATOM      7  C   UNL     1      -1.177   7.717   6.276  1.00  0.00     0.014 A 
ATOM      8  C   UNL     1      -1.796   8.929   4.271  1.00  0.00     0.014 A 
ATOM      9  C   UNL     1      -2.452   7.184   6.354  1.00  0.00     0.010 A 
ATOM     10  C   UNL     1      -3.117   8.502   4.432  1.00  0.00     0.010 A 
ATOM     11  C   UNL     1      -3.448   7.603   5.458  1.00  0.00    -0.014 A 
BRANCH  11  12
ATOM     12  C   UNL     1      -4.850   7.201   5.721  1.00  0.00     0.031 A 
ATOM     13  C   UNL     1      -5.649   6.405   4.730  1.00  0.00     0.074 A 
ATOM     14  C   UNL     1      -5.399   7.598   6.888  1.00  0.00     0.049 A 
ATOM     15  N   UNL     1      -6.896   6.018   4.814  1.00  0.00    -0.248 NA
ATOM     16  C   UNL     1      -4.978   5.994   3.486  1.00  0.00     0.031 C 
ATOM     17  C   UNL     1      -4.717   8.410   7.903  1.00  0.00     0.029 A 
ATOM     18  N   UNL     1      -6.646   7.394   7.415  1.00  0.00    -0.354 N 
ATOM     19  C   UNL     1      -7.179   5.370   3.618  1.00  0.00     0.074 A 
ATOM     20  C   UNL     1      -5.966   5.396   2.829  1.00  0.00     0.031 C 
ATOM     21  C   UNL     1      -5.545   8.624   8.931  1.00  0.00     0.029 A 
ATOM     22  C   UNL     1      -6.842   8.047   8.611  1.00  0.00     0.049 A 
ATOM     23  H   UNL     1      -7.334   6.838   6.983  1.00  0.00     0.167 HD
ATOM     24  C   UNL     1      -8.348   4.814   3.223  1.00  0.00     0.034 A 
ATOM     25  C   UNL     1      -7.955   8.221   9.344  1.00  0.00     0.034 A 
ATOM     26  C   UNL     1      -9.536   4.771   4.037  1.00  0.00     0.049 A 
ATOM     27  C   UNL     1      -9.230   7.594   8.869  1.00  0.00     0.074 A 
ATOM     28  C   UNL     1     -10.737   4.139   3.767  1.00  0.00     0.029 A 
ATOM     29  N   UNL     1      -9.686   5.408   5.259  1.00  0.00    -0.354 N 
ATOM     30  N   UNL     1      -9.433   6.847   7.812  1.00  0.00    -0.248 NA
ATOM     31  C   UNL     1     -10.425   7.817   9.692  1.00  0.00     0.031 C 
ATOM     32  C   UNL     1     -11.630   4.439   4.799  1.00  0.00     0.029 A 
ATOM     33  C   UNL     1     -10.973   5.221   5.734  1.00  0.00     0.049 A 
ATOM     34  H   UNL     1      -8.982   5.919   5.720  1.00  0.00     0.167 HD
ATOM     35  C   UNL     1     -10.776   6.498   7.849  1.00  0.00     0.074 A 
ATOM     36  C   UNL     1     -11.326   7.083   9.055  1.00  0.00     0.031 C 
ATOM     37  C   UNL     1     -11.494   5.779   6.955  1.00  0.00     0.034 A 
BRANCH  24  38
ATOM     38  C   UNL     1      -8.430   4.195   1.852  1.00  0.00     0.023 A 
ATOM     39  C   UNL     1      -7.831   2.945   1.603  1.00  0.00     0.012 A 
ATOM     40  C   UNL     1      -9.219   4.797   0.849  1.00  0.00     0.148 A 
ATOM     41  C   UNL     1      -8.006   2.309   0.373  1.00  0.00     0.002 A 
ATOM     42  C   UNL     1      -9.423   4.138  -0.356  1.00  0.00     0.091 A 
ATOM     43  F   UNL     1      -9.766   5.994   1.103  1.00  0.00    -0.205 F 
ATOM     44  C   UNL     1      -8.812   2.897  -0.599  1.00  0.00     0.022 A 
BRANCH  42  45
ATOM     45  S   UNL     1     -10.509   4.772  -1.640  1.00  0.00     0.127 S 
ATOM     46  O   UNL     1      -9.559   5.051  -2.717  1.00  0.00    -0.237 OA
ATOM     47  O   UNL     1     -11.391   3.631  -1.885  1.00  0.00    -0.237 OA
ATOM     48  O   UNL     1     -11.164   5.943  -1.074  1.00  0.00    -0.744 OA
ENDBRANCH  42  45
ENDBRANCH  24  38
BRANCH  25  49
ATOM     49  C   UNL     1      -7.910   9.051  10.579  1.00  0.00     0.023 A 
ATOM     50  C   UNL     1      -8.120   8.452  11.834  1.00  0.00     0.012 A 
ATOM     51  C   UNL     1      -7.636  10.432  10.512  1.00  0.00     0.148 A 
ATOM     52  C   UNL     1      -8.100   9.221  12.997  1.00  0.00     0.002 A 
ATOM     53  C   UNL     1      -7.551  11.179  11.679  1.00  0.00     0.091 A 
ATOM     54  F   UNL     1      -7.450  10.988   9.306  1.00  0.00    -0.205 F 
ATOM     55  C   UNL     1      -7.805  10.581  12.921  1.00  0.00     0.022 A 
BRANCH  53  56
ATOM     56  S   UNL     1      -7.029  12.897  11.677  1.00  0.00     0.127 S 
ATOM     57  O   UNL     1      -8.289  13.592  11.923  1.00  0.00    -0.237 OA
ATOM     58  O   UNL     1      -6.079  12.928  12.790  1.00  0.00    -0.237 OA
ATOM     59  O   UNL     1      -6.423  13.118  10.370  1.00  0.00    -0.744 OA
ENDBRANCH  53  56
ENDBRANCH  25  49
BRANCH  37  60
ATOM     60  C   UNL     1     -12.953   5.568   7.253  1.00  0.00     0.023 A 
ATOM     61  C   UNL     1     -13.854   6.644   7.127  1.00  0.00     0.012 A 
ATOM     62  C   UNL     1     -13.439   4.290   7.590  1.00  0.00     0.148 A 
ATOM     63  C   UNL     1     -15.215   6.457   7.361  1.00  0.00     0.002 A 
ATOM     64  C   UNL     1     -14.803   4.100   7.769  1.00  0.00     0.091 A 
ATOM     65  F   UNL     1     -12.560   3.286   7.720  1.00  0.00    -0.205 F 
ATOM     66  C   UNL     1     -15.690   5.184   7.669  1.00  0.00     0.022 A 
BRANCH  64  67
ATOM     67  S   UNL     1     -15.521   2.483   8.075  1.00  0.00     0.127 S 
ATOM     68  O   UNL     1     -16.037   2.638   9.434  1.00  0.00    -0.237 OA
ATOM     69  O   UNL     1     -16.548   2.402   7.036  1.00  0.00    -0.237 OA
ATOM     70  O   UNL     1     -14.434   1.523   7.932  1.00  0.00    -0.744 OA
ENDBRANCH  64  67
ENDBRANCH  37  60
ENDBRANCH  11  12
ENDBRANCH   4   6
ENDBRANCH   1   2
BRANCH   1  71
ATOM     71  C   UNL     1       1.511   5.578   3.866  1.00  0.00     0.023 C 
BRANCH  71  72
ATOM     72  C   UNL     1       2.915   5.626   3.285  1.00  0.00     0.023 C 
BRANCH  72  73
ATOM     73  C   UNL     1       4.051   5.483   4.280  1.00  0.00     0.116 C 
BRANCH  73  74
ATOM     74  N   UNL     1       4.140   4.247   5.030  1.00  0.00    -0.351 N 
ATOM     75  C   UNL     1       5.217   3.747   5.728  1.00  0.00     0.278 C 
ATOM     76  H   UNL     1       3.326   3.693   5.043  1.00  0.00     0.163 HD
ATOM     77  O   UNL     1       5.016   2.733   6.406  1.00  0.00    -0.268 OA
BRANCH  75  78
ATOM     78  C   UNL     1       6.659   4.330   5.532  1.00  0.00     0.275 C 
ATOM     79  C   UNL     1       6.746   5.847   5.331  1.00  0.00     0.085 C 
ATOM     80  N   UNL     1       7.517   4.064   6.726  1.00  0.00    -0.320 N 
ATOM     81  C   UNL     1       7.798   6.344   6.279  1.00  0.00     0.054 C 
ATOM     82  C   UNL     1       7.668   5.354   7.422  1.00  0.00     0.188 C 
ATOM     83  H   UNL     1       7.026   3.381   7.303  1.00  0.00     0.349 HD
ATOM     84  C   UNL     1       7.572   7.776   6.744  1.00  0.00     0.010 C 
ATOM     85  C   UNL     1       8.756   5.646   8.457  1.00  0.00     0.065 C 
ATOM     86  C   UNL     1       8.578   8.133   7.831  1.00  0.00     0.001 C 
ATOM     87  C   UNL     1       8.611   7.095   8.961  1.00  0.00     0.006 C 
BRANCH  80  88
ATOM     88  C   UNL     1       8.688   3.185   6.641  1.00  0.00     0.186 C 
ATOM     89  C   UNL     1       8.334   1.692   6.440  1.00  0.00     0.081 C 
ATOM     90  C   UNL     1       9.850   3.605   5.716  1.00  0.00     0.081 C 
ATOM     91  C   UNL     1       7.992   1.257   5.026  1.00  0.00     0.143 C 
ATOM     92  C   UNL     1       9.633   3.388   4.231  1.00  0.00     0.143 C 
ATOM     93  S   UNL     1       9.261   1.690   3.855  1.00  0.00     0.150 S 
ATOM     94  O   UNL     1       8.683   1.654   2.530  1.00  0.00    -0.229 OA
ATOM     95  O   UNL     1      10.448   0.908   4.167  1.00  0.00    -0.229 OA
ENDBRANCH  80  88
ENDBRANCH  75  78
ENDBRANCH  73  74
ENDBRANCH  72  73
ENDBRANCH  71  72
ENDBRANCH   1  71
TORSDOF 15
