REMARK SMILES COc1ccc([C@H]2C[NH2+]C[C@@H]2C(=O)NCCCCNC(=O)c2ccc(-c3c4nc(c(-c5cccc(S(=O)(=O)[O-])c5F)c5ccc([nH]5)c(-c5cccc(S(=O)(=O)[O-])c5F)c5nc(c(-c6cccc(S(=O)(=O)[O-])c6F)c6ccc3[nH]6)C=C5)C=C4)cc2)cc1OC
REMARK SMILES IDX 17 1 16 2 15 3 14 4 12 5 13 6 11 8 7 9 8 10 9 11 10 12 6 15
REMARK SMILES IDX 3 16 4 17 86 18 5 19 85 20 2 21 1 22 87 23 88 24 18 25 19 26
REMARK SMILES IDX 20 27 21 29 22 30 23 31 84 32 24 33 83 34 25 35 26 36 27 37
REMARK SMILES IDX 77 38 28 39 82 40 76 41 78 42 29 43 81 44 75 45 74 46 30 48
REMARK SMILES IDX 62 49 42 50 61 51 43 52 46 53 60 54 79 55 44 56 45 57 59 59
REMARK SMILES IDX 80 60 47 61 31 62 32 63 40 64 33 65 35 66 41 67 34 68 36 69
REMARK SMILES IDX 37 70 38 71 39 72 63 73 64 74 72 75 65 76 67 77 73 78 66 79
REMARK SMILES IDX 68 80 69 81 70 82 71 83 48 84 49 85 57 86 50 87 52 88 58 89
REMARK SMILES IDX 51 90 53 91 54 92 55 93 56 94
REMARK H PARENT 14 7 9 13 9 14 19 28 78 47 46 58
REMARK Flexibility Score: inf
ROOT
ATOM      1  C   UNL     1       3.902  -0.891   8.252  1.00  0.00     0.023 C 
ENDROOT
BRANCH   1   2
ATOM      2  C   UNL     1       3.105   0.408   8.348  1.00  0.00     0.023 C 
BRANCH   2   3
ATOM      3  C   UNL     1       3.851   1.642   7.848  1.00  0.00     0.116 C 
BRANCH   3   4
ATOM      4  N   UNL     1       4.055   1.620   6.404  1.00  0.00    -0.356 N 
ATOM      5  C   UNL     1       3.604   2.515   5.463  1.00  0.00     0.229 C 
ATOM      6  O   UNL     1       3.850   2.332   4.275  1.00  0.00    -0.275 OA
ATOM      7  H   UNL     1       4.586   0.867   6.059  1.00  0.00     0.163 HD
BRANCH   5   8
ATOM      8  C   UNL     1       2.797   3.693   5.976  1.00  0.00     0.146 C 
ATOM      9  C   UNL     1       2.021   4.489   4.917  1.00  0.00     0.092 C 
ATOM     10  C   UNL     1       3.072   5.540   4.538  1.00  0.00     0.269 C 
ATOM     11  N   UNL     1       3.666   5.954   5.821  1.00  0.00    -0.345 N 
ATOM     12  C   UNL     1       3.727   4.721   6.626  1.00  0.00     0.274 C 
ATOM     13  H   UNL     1       3.080   6.652   6.278  1.00  0.00     0.346 HD
ATOM     14  H   UNL     1       4.585   6.378   5.699  1.00  0.00     0.346 HD
BRANCH   9  15
ATOM     15  C   UNL     1       0.696   5.097   5.422  1.00  0.00    -0.034 A 
ATOM     16  C   UNL     1      -1.867   6.026   6.246  1.00  0.00     0.160 A 
ATOM     17  C   UNL     1      -1.291   6.463   5.044  1.00  0.00     0.051 A 
ATOM     18  C   UNL     1      -1.167   5.136   7.053  1.00  0.00     0.161 A 
ATOM     19  C   UNL     1      -0.028   6.001   4.634  1.00  0.00     0.008 A 
ATOM     20  C   UNL     1       0.099   4.704   6.634  1.00  0.00     0.054 A 
BRANCH  16  21
ATOM     21  O   UNL     1      -3.170   6.359   6.490  1.00  0.00    -0.493 OA
ATOM     22  C   UNL     1      -3.296   7.619   7.144  1.00  0.00     0.278 C 
ENDBRANCH  16  21
BRANCH  18  23
ATOM     23  O   UNL     1      -1.540   4.521   8.215  1.00  0.00    -0.493 OA
ATOM     24  C   UNL     1      -2.632   5.030   8.951  1.00  0.00     0.278 C 
ENDBRANCH  18  23
ENDBRANCH   9  15
ENDBRANCH   5   8
ENDBRANCH   3   4
ENDBRANCH   2   3
ENDBRANCH   1   2
BRANCH   1  25
ATOM     25  C   UNL     1       5.265  -0.861   8.934  1.00  0.00     0.116 C 
BRANCH  25  26
ATOM     26  N   UNL     1       5.181  -0.593  10.363  1.00  0.00    -0.352 N 
ATOM     27  C   UNL     1       5.837  -1.225  11.393  1.00  0.00     0.251 C 
ATOM     28  H   UNL     1       4.574   0.136  10.627  1.00  0.00     0.163 HD
ATOM     29  O   UNL     1       5.544  -0.965  12.558  1.00  0.00    -0.269 OA
BRANCH  27  30
ATOM     30  C   UNL     1       6.872  -2.237  11.090  1.00  0.00     0.039 A 
ATOM     31  C   UNL     1       6.856  -3.449  11.783  1.00  0.00     0.014 A 
ATOM     32  C   UNL     1       7.838  -2.001  10.108  1.00  0.00     0.014 A 
ATOM     33  C   UNL     1       7.777  -4.446  11.452  1.00  0.00     0.010 A 
ATOM     34  C   UNL     1       8.694  -3.026   9.720  1.00  0.00     0.010 A 
ATOM     35  C   UNL     1       8.684  -4.255  10.396  1.00  0.00    -0.014 A 
BRANCH  35  36
ATOM     36  C   UNL     1       9.631  -5.327   9.991  1.00  0.00     0.031 A 
ATOM     37  C   UNL     1      11.117  -5.098  10.078  1.00  0.00     0.074 A 
ATOM     38  C   UNL     1       9.158  -6.478   9.473  1.00  0.00     0.049 A 
ATOM     39  N   UNL     1      12.095  -5.899   9.741  1.00  0.00    -0.248 NA
ATOM     40  C   UNL     1      11.564  -3.789  10.581  1.00  0.00     0.031 C 
ATOM     41  C   UNL     1       7.744  -6.790   9.257  1.00  0.00     0.029 A 
ATOM     42  N   UNL     1       9.817  -7.590   9.012  1.00  0.00    -0.354 N 
ATOM     43  C   UNL     1      13.266  -5.180   9.954  1.00  0.00     0.074 A 
ATOM     44  C   UNL     1      12.875  -3.865  10.411  1.00  0.00     0.031 C 
ATOM     45  C   UNL     1       7.641  -8.014   8.715  1.00  0.00     0.029 A 
ATOM     46  C   UNL     1       8.980  -8.562   8.515  1.00  0.00     0.049 A 
ATOM     47  H   UNL     1      10.797  -7.684   9.034  1.00  0.00     0.167 HD
ATOM     48  C   UNL     1      14.551  -5.584   9.812  1.00  0.00     0.034 A 
ATOM     49  C   UNL     1       9.257  -9.756   7.955  1.00  0.00     0.034 A 
ATOM     50  C   UNL     1      14.937  -6.904   9.392  1.00  0.00     0.049 A 
ATOM     51  C   UNL     1      10.691 -10.199   7.846  1.00  0.00     0.074 A 
ATOM     52  C   UNL     1      16.209  -7.441   9.305  1.00  0.00     0.029 A 
ATOM     53  N   UNL     1      14.057  -7.891   8.975  1.00  0.00    -0.354 N 
ATOM     54  N   UNL     1      11.780  -9.565   8.206  1.00  0.00    -0.248 NA
ATOM     55  C   UNL     1      10.932 -11.538   7.290  1.00  0.00     0.031 C 
ATOM     56  C   UNL     1      16.101  -8.741   8.801  1.00  0.00     0.029 A 
ATOM     57  C   UNL     1      14.758  -9.030   8.616  1.00  0.00     0.049 A 
ATOM     58  H   UNL     1      13.078  -7.796   8.939  1.00  0.00     0.167 HD
ATOM     59  C   UNL     1      12.831 -10.441   7.958  1.00  0.00     0.074 A 
ATOM     60  C   UNL     1      12.244 -11.657   7.435  1.00  0.00     0.031 C 
ATOM     61  C   UNL     1      14.162 -10.252   8.140  1.00  0.00     0.034 A 
BRANCH  48  62
ATOM     62  C   UNL     1      15.636  -4.594  10.152  1.00  0.00     0.023 A 
ATOM     63  C   UNL     1      15.836  -4.207  11.494  1.00  0.00     0.012 A 
ATOM     64  C   UNL     1      16.487  -4.081   9.154  1.00  0.00     0.148 A 
ATOM     65  C   UNL     1      16.833  -3.292  11.831  1.00  0.00     0.002 A 
ATOM     66  C   UNL     1      17.512  -3.210   9.504  1.00  0.00     0.091 A 
ATOM     67  F   UNL     1      16.272  -4.444   7.881  1.00  0.00    -0.205 F 
ATOM     68  C   UNL     1      17.676  -2.802  10.838  1.00  0.00     0.022 A 
BRANCH  66  69
ATOM     69  S   UNL     1      18.705  -2.590   8.313  1.00  0.00     0.127 S 
ATOM     70  O   UNL     1      18.319  -1.183   8.214  1.00  0.00    -0.237 OA
ATOM     71  O   UNL     1      19.975  -2.827   9.000  1.00  0.00    -0.237 OA
ATOM     72  O   UNL     1      18.512  -3.378   7.104  1.00  0.00    -0.744 OA
ENDBRANCH  66  69
ENDBRANCH  48  62
BRANCH  49  73
ATOM     73  C   UNL     1       8.145 -10.645   7.513  1.00  0.00     0.023 A 
ATOM     74  C   UNL     1       7.878 -11.830   8.225  1.00  0.00     0.012 A 
ATOM     75  C   UNL     1       7.336 -10.308   6.411  1.00  0.00     0.148 A 
ATOM     76  C   UNL     1       6.846 -12.681   7.828  1.00  0.00     0.002 A 
ATOM     77  C   UNL     1       6.274 -11.131   6.055  1.00  0.00     0.091 A 
ATOM     78  F   UNL     1       7.612  -9.179   5.743  1.00  0.00    -0.205 F 
ATOM     79  C   UNL     1       6.039 -12.328   6.750  1.00  0.00     0.022 A 
BRANCH  77  80
ATOM     80  S   UNL     1       5.102 -10.693   4.767  1.00  0.00     0.127 S 
ATOM     81  O   UNL     1       5.384 -11.704   3.751  1.00  0.00    -0.237 OA
ATOM     82  O   UNL     1       3.823 -10.853   5.459  1.00  0.00    -0.237 OA
ATOM     83  O   UNL     1       5.418  -9.321   4.395  1.00  0.00    -0.744 OA
ENDBRANCH  77  80
ENDBRANCH  49  73
BRANCH  61  84
ATOM     84  C   UNL     1      15.083 -11.400   7.818  1.00  0.00     0.023 A 
ATOM     85  C   UNL     1      15.300 -11.781   6.479  1.00  0.00     0.012 A 
ATOM     86  C   UNL     1      15.786 -12.060   8.846  1.00  0.00     0.148 A 
ATOM     87  C   UNL     1      16.173 -12.825   6.172  1.00  0.00     0.002 A 
ATOM     88  C   UNL     1      16.695 -13.062   8.529  1.00  0.00     0.091 A 
ATOM     89  F   UNL     1      15.553 -11.696  10.116  1.00  0.00    -0.205 F 
ATOM     90  C   UNL     1      16.878 -13.456   7.194  1.00  0.00     0.022 A 
BRANCH  88  91
ATOM     91  S   UNL     1      17.720 -13.859   9.769  1.00  0.00     0.127 S 
ATOM     92  O   UNL     1      17.120 -15.190   9.842  1.00  0.00    -0.237 OA
ATOM     93  O   UNL     1      19.044 -13.820   9.148  1.00  0.00    -0.237 OA
ATOM     94  O   UNL     1      17.595 -13.051  10.975  1.00  0.00    -0.744 OA
ENDBRANCH  88  91
ENDBRANCH  61  84
ENDBRANCH  35  36
ENDBRANCH  27  30
ENDBRANCH  25  26
ENDBRANCH   1  25
TORSDOF 17
