REMARK SMILES C[C@H](C(=O)NCCCCNC(=O)c1ccc(-c2c3nc(c(-c4cccc(S(=O)(=O)[O-])c4F)c4ccc([nH]4)c(-c4cccc(S(=O)(=O)[O-])c4F)c4nc(c(-c5cccc(S(=O)(=O)[O-])c5F)c5ccc2[nH]5)C=C4)C=C3)cc1)c1ccc(C(=O)c2ccccc2)s1
REMARK SMILES IDX 7 1 6 2 5 3 3 4 4 5 2 7 1 8 76 9 77 10 88 11 78 12 79 13
REMARK SMILES IDX 80 14 81 15 82 16 83 17 87 18 84 19 86 20 85 21 8 22 9 23
REMARK SMILES IDX 10 24 11 25 12 27 13 28 14 29 75 30 15 31 74 32 16 33 17 34
REMARK SMILES IDX 18 35 68 36 19 37 73 38 67 39 69 40 20 41 72 42 66 43 65 44
REMARK SMILES IDX 21 46 53 47 33 48 52 49 34 50 37 51 51 52 70 53 35 54 36 55
REMARK SMILES IDX 50 57 71 58 38 59 22 60 23 61 31 62 24 63 26 64 32 65 25 66
REMARK SMILES IDX 27 67 28 68 29 69 30 70 54 71 55 72 63 73 56 74 58 75 64 76
REMARK SMILES IDX 57 77 59 78 60 79 61 80 62 81 39 82 40 83 48 84 41 85 43 86
REMARK SMILES IDX 49 87 42 88 44 89 45 90 46 91 47 92
REMARK H PARENT 5 6 10 26 69 45 37 56
REMARK Flexibility Score: inf
ROOT
ATOM      1  C   UNL     1       0.395   2.638   2.526  1.00  0.00     0.023 C 
ENDROOT
BRANCH   1   2
ATOM      2  C   UNL     1      -0.165   1.660   1.503  1.00  0.00     0.116 C 
BRANCH   2   3
ATOM      3  N   UNL     1       0.833   1.169   0.567  1.00  0.00    -0.356 N 
ATOM      4  C   UNL     1       1.038  -0.088   0.071  1.00  0.00     0.228 C 
ATOM      5  O   UNL     1       1.819  -0.198  -0.881  1.00  0.00    -0.274 OA
ATOM      6  H   UNL     1       1.461   1.851   0.237  1.00  0.00     0.163 HD
BRANCH   4   7
ATOM      7  C   UNL     1       0.411  -1.342   0.690  1.00  0.00     0.115 C 
ATOM      8  C   UNL     1       0.915  -1.524   2.126  1.00  0.00     0.024 C 
BRANCH   7   9
ATOM      9  C   UNL     1      -1.100  -1.426   0.597  1.00  0.00     0.017 A 
ATOM     10  C   UNL     1      -1.934  -2.386   1.149  1.00  0.00     0.017 A 
ATOM     11  S   UNL     1      -2.043  -0.332  -0.326  1.00  0.00    -0.136 S 
ATOM     12  C   UNL     1      -3.307  -2.002   1.090  1.00  0.00     0.024 A 
ATOM     13  C   UNL     1      -3.472  -0.762   0.499  1.00  0.00     0.075 A 
BRANCH  13  14
ATOM     14  C   UNL     1      -4.670   0.065   0.526  1.00  0.00     0.202 C 
ATOM     15  O   UNL     1      -5.786  -0.390   0.776  1.00  0.00    -0.288 OA
BRANCH  14  16
ATOM     16  C   UNL     1      -4.552   1.549   0.474  1.00  0.00     0.023 A 
ATOM     17  C   UNL     1      -4.942   2.275   1.610  1.00  0.00     0.012 A 
ATOM     18  C   UNL     1      -4.092   2.225  -0.661  1.00  0.00     0.012 A 
ATOM     19  C   UNL     1      -4.854   3.667   1.613  1.00  0.00     0.001 A 
ATOM     20  C   UNL     1      -3.996   3.618  -0.648  1.00  0.00     0.001 A 
ATOM     21  C   UNL     1      -4.385   4.335   0.483  1.00  0.00     0.000 A 
ENDBRANCH  14  16
ENDBRANCH  13  14
ENDBRANCH   7   9
ENDBRANCH   4   7
ENDBRANCH   2   3
ENDBRANCH   1   2
BRANCH   1  22
ATOM     22  C   UNL     1       0.935   3.948   1.950  1.00  0.00     0.023 C 
BRANCH  22  23
ATOM     23  C   UNL     1      -0.032   4.752   1.085  1.00  0.00     0.116 C 
BRANCH  23  24
ATOM     24  N   UNL     1      -1.248   5.142   1.784  1.00  0.00    -0.352 N 
ATOM     25  C   UNL     1      -1.869   6.368   1.845  1.00  0.00     0.251 C 
ATOM     26  H   UNL     1      -1.691   4.422   2.288  1.00  0.00     0.163 HD
ATOM     27  O   UNL     1      -2.842   6.524   2.580  1.00  0.00    -0.269 OA
BRANCH  25  28
ATOM     28  C   UNL     1      -1.366   7.507   1.044  1.00  0.00     0.039 A 
ATOM     29  C   UNL     1      -1.255   8.758   1.658  1.00  0.00     0.014 A 
ATOM     30  C   UNL     1      -0.992   7.350  -0.293  1.00  0.00     0.014 A 
ATOM     31  C   UNL     1      -0.677   9.823   0.963  1.00  0.00     0.010 A 
ATOM     32  C   UNL     1      -0.352   8.392  -0.961  1.00  0.00     0.010 A 
ATOM     33  C   UNL     1      -0.172   9.634  -0.334  1.00  0.00    -0.014 A 
BRANCH  33  34
ATOM     34  C   UNL     1       0.612  10.699  -1.012  1.00  0.00     0.031 A 
ATOM     35  C   UNL     1       0.128  11.319  -2.293  1.00  0.00     0.074 A 
ATOM     36  C   UNL     1       1.821  11.036  -0.517  1.00  0.00     0.049 A 
ATOM     37  N   UNL     1       0.704  12.230  -3.034  1.00  0.00    -0.248 NA
ATOM     38  C   UNL     1      -1.155  10.836  -2.827  1.00  0.00     0.031 C 
ATOM     39  C   UNL     1       2.447  10.434   0.663  1.00  0.00     0.029 A 
ATOM     40  N   UNL     1       2.753  11.942  -0.958  1.00  0.00    -0.354 N 
ATOM     41  C   UNL     1      -0.123  12.405  -4.136  1.00  0.00     0.074 A 
ATOM     42  C   UNL     1      -1.230  11.486  -3.981  1.00  0.00     0.031 C 
ATOM     43  C   UNL     1       3.654  10.988   0.854  1.00  0.00     0.029 A 
ATOM     44  C   UNL     1       3.901  11.966  -0.201  1.00  0.00     0.049 A 
ATOM     45  H   UNL     1       2.612  12.521  -1.742  1.00  0.00     0.167 HD
ATOM     46  C   UNL     1       0.012  13.271  -5.168  1.00  0.00     0.034 A 
ATOM     47  C   UNL     1       5.029  12.690  -0.339  1.00  0.00     0.034 A 
ATOM     48  C   UNL     1       1.089  14.217  -5.294  1.00  0.00     0.049 A 
ATOM     49  C   UNL     1       5.121  13.693  -1.456  1.00  0.00     0.074 A 
ATOM     50  C   UNL     1       1.257  15.207  -6.247  1.00  0.00     0.029 A 
ATOM     51  N   UNL     1       2.184  14.287  -4.448  1.00  0.00    -0.354 N 
ATOM     52  N   UNL     1       4.240  13.972  -2.386  1.00  0.00    -0.248 NA
ATOM     53  C   UNL     1       6.343  14.508  -1.520  1.00  0.00     0.031 C 
ATOM     54  C   UNL     1       2.464  15.864  -5.985  1.00  0.00     0.029 A 
ATOM     55  C   UNL     1       3.038  15.296  -4.859  1.00  0.00     0.049 A 
ATOM     56  H   UNL     1       2.334  13.704  -3.669  1.00  0.00     0.167 HD
ATOM     57  C   UNL     1       4.785  15.015  -3.126  1.00  0.00     0.074 A 
ATOM     58  C   UNL     1       6.063  15.333  -2.521  1.00  0.00     0.031 C 
ATOM     59  C   UNL     1       4.281  15.640  -4.218  1.00  0.00     0.034 A 
BRANCH  46  60
ATOM     60  C   UNL     1      -1.068  13.284  -6.218  1.00  0.00     0.023 A 
ATOM     61  C   UNL     1      -2.329  13.833  -5.908  1.00  0.00     0.012 A 
ATOM     62  C   UNL     1      -0.820  12.819  -7.525  1.00  0.00     0.148 A 
ATOM     63  C   UNL     1      -3.336  13.890  -6.870  1.00  0.00     0.002 A 
ATOM     64  C   UNL     1      -1.816  12.918  -8.490  1.00  0.00     0.091 A 
ATOM     65  F   UNL     1       0.378  12.281  -7.796  1.00  0.00    -0.205 F 
ATOM     66  C   UNL     1      -3.076  13.443  -8.162  1.00  0.00     0.022 A 
BRANCH  64  67
ATOM     67  S   UNL     1      -1.556  12.438 -10.202  1.00  0.00     0.127 S 
ATOM     68  O   UNL     1      -2.342  11.208 -10.286  1.00  0.00    -0.237 OA
ATOM     69  O   UNL     1      -2.122  13.574 -10.931  1.00  0.00    -0.237 OA
ATOM     70  O   UNL     1      -0.118  12.275 -10.358  1.00  0.00    -0.744 OA
ENDBRANCH  64  67
ENDBRANCH  46  60
BRANCH  47  71
ATOM     71  C   UNL     1       6.129  12.544   0.656  1.00  0.00     0.023 A 
ATOM     72  C   UNL     1       6.371  13.586   1.573  1.00  0.00     0.012 A 
ATOM     73  C   UNL     1       6.902  11.370   0.731  1.00  0.00     0.148 A 
ATOM     74  C   UNL     1       7.382  13.472   2.528  1.00  0.00     0.002 A 
ATOM     75  C   UNL     1       7.870  11.241   1.720  1.00  0.00     0.091 A 
ATOM     76  F   UNL     1       6.664  10.395  -0.158  1.00  0.00    -0.205 F 
ATOM     77  C   UNL     1       8.123  12.296   2.609  1.00  0.00     0.022 A 
BRANCH  75  78
ATOM     78  S   UNL     1       8.775   9.711   1.984  1.00  0.00     0.127 S 
ATOM     79  O   UNL     1      10.101  10.057   1.480  1.00  0.00    -0.237 OA
ATOM     80  O   UNL     1       8.689   9.553   3.436  1.00  0.00    -0.237 OA
ATOM     81  O   UNL     1       8.053   8.695   1.229  1.00  0.00    -0.744 OA
ENDBRANCH  75  78
ENDBRANCH  47  71
BRANCH  59  82
ATOM     82  C   UNL     1       5.094  16.753  -4.824  1.00  0.00     0.023 A 
ATOM     83  C   UNL     1       6.257  16.448  -5.557  1.00  0.00     0.012 A 
ATOM     84  C   UNL     1       4.664  18.091  -4.734  1.00  0.00     0.148 A 
ATOM     85  C   UNL     1       6.996  17.460  -6.168  1.00  0.00     0.002 A 
ATOM     86  C   UNL     1       5.379  19.090  -5.384  1.00  0.00     0.091 A 
ATOM     87  F   UNL     1       3.566  18.364  -4.013  1.00  0.00    -0.205 F 
ATOM     88  C   UNL     1       6.550  18.778  -6.092  1.00  0.00     0.022 A 
BRANCH  86  89
ATOM     89  S   UNL     1       4.826  20.799  -5.417  1.00  0.00     0.127 S 
ATOM     90  O   UNL     1       5.748  21.430  -4.474  1.00  0.00    -0.237 OA
ATOM     91  O   UNL     1       5.038  21.169  -6.817  1.00  0.00    -0.237 OA
ATOM     92  O   UNL     1       3.428  20.774  -5.007  1.00  0.00    -0.744 OA
ENDBRANCH  86  89
ENDBRANCH  59  82
ENDBRANCH  33  34
ENDBRANCH  25  28
ENDBRANCH  23  24
ENDBRANCH  22  23
ENDBRANCH   1  22
TORSDOF 17
