REMARK SMILES O=C(NCCCCNC(=O)[C@]1(NC(=O)C2CCN(C(=O)C3CC3)CC2)CCCc2ccccc21)c1ccc(-c2c3nc(c(-c4cccc(S(=O)(=O)[O-])c4F)c4ccc([nH]4)c(-c4cccc(S(=O)(=O)[O-])c4F)c4nc(c(-c5cccc(S(=O)(=O)[O-])c5F)c5ccc2[nH]5)C=C4)C=C3)cc1
REMARK SMILES IDX 5 1 4 2 3 3 1 4 2 5 35 7 36 8 97 9 37 10 96 11 38 12 39 13
REMARK SMILES IDX 40 14 90 15 41 16 95 17 89 18 91 19 42 20 94 21 88 22 87 23
REMARK SMILES IDX 43 25 75 26 55 27 74 28 56 29 59 30 73 31 92 32 57 33 58 34
REMARK SMILES IDX 72 36 93 37 60 38 44 39 45 40 53 41 46 42 48 43 54 44 47 45
REMARK SMILES IDX 49 46 50 47 51 48 52 49 76 50 77 51 85 52 78 53 80 54 86 55
REMARK SMILES IDX 79 56 81 57 82 58 83 59 84 60 61 61 62 62 70 63 63 64 65 65
REMARK SMILES IDX 71 66 64 67 66 68 67 69 68 70 69 71 6 72 7 73 8 74 9 75
REMARK SMILES IDX 10 77 11 78 26 79 34 80 27 81 29 82 33 83 28 84 30 85 32 86
REMARK SMILES IDX 31 87 12 88 13 89 14 91 15 92 16 93 25 94 17 95 24 96 18 97
REMARK SMILES IDX 19 98 20 99 21 100 22 101 23 102
REMARK H PARENT 3 6 91 24 59 35 8 76 12 90
REMARK Flexibility Score: inf
ROOT
ATOM      1  C   UNL     1       4.759   2.488  -1.281  1.00  0.00     0.023 C 
ENDROOT
BRANCH   1   2
ATOM      2  C   UNL     1       4.516   1.246  -0.428  1.00  0.00     0.116 C 
BRANCH   2   3
ATOM      3  N   UNL     1       3.112   1.048  -0.104  1.00  0.00    -0.352 N 
ATOM      4  O   UNL     1       1.168  -0.096  -0.036  1.00  0.00    -0.269 OA
ATOM      5  C   UNL     1       2.379  -0.114  -0.200  1.00  0.00     0.251 C 
ATOM      6  H   UNL     1       2.628   1.840   0.223  1.00  0.00     0.163 HD
BRANCH   5   7
ATOM      7  C   UNL     1       3.088  -1.364  -0.544  1.00  0.00     0.039 A 
ATOM      8  C   UNL     1       4.224  -1.745   0.175  1.00  0.00     0.014 A 
ATOM      9  C   UNL     1       2.642  -2.122  -1.629  1.00  0.00     0.014 A 
ATOM     10  C   UNL     1       4.984  -2.822  -0.266  1.00  0.00     0.010 A 
ATOM     11  C   UNL     1       3.369  -3.246  -2.025  1.00  0.00     0.010 A 
ATOM     12  C   UNL     1       4.558  -3.591  -1.363  1.00  0.00    -0.014 A 
BRANCH  12  13
ATOM     13  C   UNL     1       5.310  -4.815  -1.733  1.00  0.00     0.031 A 
ATOM     14  C   UNL     1       6.010  -4.942  -3.058  1.00  0.00     0.074 A 
ATOM     15  C   UNL     1       5.325  -5.837  -0.855  1.00  0.00     0.049 A 
ATOM     16  N   UNL     1       6.705  -5.948  -3.523  1.00  0.00    -0.248 NA
ATOM     17  C   UNL     1       5.915  -3.803  -3.985  1.00  0.00     0.031 C 
ATOM     18  C   UNL     1       4.631  -5.844   0.436  1.00  0.00     0.029 A 
ATOM     19  N   UNL     1       5.927  -7.066  -0.915  1.00  0.00    -0.354 N 
ATOM     20  C   UNL     1       7.097  -5.586  -4.806  1.00  0.00     0.074 A 
ATOM     21  C   UNL     1       6.562  -4.263  -5.050  1.00  0.00     0.031 C 
ATOM     22  C   UNL     1       4.854  -7.014   1.050  1.00  0.00     0.029 A 
ATOM     23  C   UNL     1       5.668  -7.856   0.181  1.00  0.00     0.049 A 
ATOM     24  H   UNL     1       6.491  -7.356  -1.668  1.00  0.00     0.167 HD
ATOM     25  C   UNL     1       7.846  -6.289  -5.689  1.00  0.00     0.034 A 
ATOM     26  C   UNL     1       6.027  -9.124   0.452  1.00  0.00     0.034 A 
ATOM     27  C   UNL     1       8.412  -7.585  -5.418  1.00  0.00     0.049 A 
ATOM     28  C   UNL     1       6.888  -9.858  -0.534  1.00  0.00     0.074 A 
ATOM     29  C   UNL     1       9.262  -8.335  -6.213  1.00  0.00     0.029 A 
ATOM     30  N   UNL     1       8.181  -8.329  -4.271  1.00  0.00    -0.354 N 
ATOM     31  N   UNL     1       7.381  -9.435  -1.673  1.00  0.00    -0.248 NA
ATOM     32  C   UNL     1       7.268 -11.234  -0.186  1.00  0.00     0.031 C 
ATOM     33  C   UNL     1       9.529  -9.540  -5.556  1.00  0.00     0.029 A 
ATOM     34  C   UNL     1       8.857  -9.535  -4.344  1.00  0.00     0.049 A 
ATOM     35  H   UNL     1       7.619  -8.041  -3.515  1.00  0.00     0.167 HD
ATOM     36  C   UNL     1       8.143 -10.484  -2.169  1.00  0.00     0.074 A 
ATOM     37  C   UNL     1       8.075 -11.550  -1.189  1.00  0.00     0.031 C 
ATOM     38  C   UNL     1       8.818 -10.567  -3.341  1.00  0.00     0.034 A 
BRANCH  25  39
ATOM     39  C   UNL     1       8.153  -5.663  -7.025  1.00  0.00     0.023 A 
ATOM     40  C   UNL     1       9.134  -4.656  -7.108  1.00  0.00     0.012 A 
ATOM     41  C   UNL     1       7.562  -6.153  -8.208  1.00  0.00     0.148 A 
ATOM     42  C   UNL     1       9.515  -4.136  -8.345  1.00  0.00     0.002 A 
ATOM     43  C   UNL     1       7.972  -5.654  -9.440  1.00  0.00     0.091 A 
ATOM     44  F   UNL     1       6.619  -7.101  -8.106  1.00  0.00    -0.205 F 
ATOM     45  C   UNL     1       8.944  -4.643  -9.509  1.00  0.00     0.022 A 
BRANCH  43  46
ATOM     46  S   UNL     1       7.351  -6.289 -11.002  1.00  0.00     0.127 S 
ATOM     47  O   UNL     1       6.557  -5.159 -11.484  1.00  0.00    -0.237 OA
ATOM     48  O   UNL     1       8.586  -6.528 -11.750  1.00  0.00    -0.237 OA
ATOM     49  O   UNL     1       6.594  -7.489 -10.678  1.00  0.00    -0.744 OA
ENDBRANCH  43  46
ENDBRANCH  25  39
BRANCH  26  50
ATOM     50  C   UNL     1       5.605  -9.752   1.733  1.00  0.00     0.023 A 
ATOM     51  C   UNL     1       6.567 -10.015   2.726  1.00  0.00     0.012 A 
ATOM     52  C   UNL     1       4.252 -10.047   1.992  1.00  0.00     0.148 A 
ATOM     53  C   UNL     1       6.194 -10.584   3.944  1.00  0.00     0.002 A 
ATOM     54  C   UNL     1       3.879 -10.560   3.228  1.00  0.00     0.091 A 
ATOM     55  F   UNL     1       3.351  -9.811   1.028  1.00  0.00    -0.205 F 
ATOM     56  C   UNL     1       4.850 -10.844   4.200  1.00  0.00     0.022 A 
BRANCH  54  57
ATOM     57  S   UNL     1       2.153 -10.779   3.674  1.00  0.00     0.127 S 
ATOM     58  O   UNL     1       1.952 -12.200   3.407  1.00  0.00    -0.237 OA
ATOM     59  O   UNL     1       2.146 -10.412   5.091  1.00  0.00    -0.237 OA
ATOM     60  O   UNL     1       1.420  -9.854   2.819  1.00  0.00    -0.744 OA
ENDBRANCH  54  57
ENDBRANCH  26  50
BRANCH  38  61
ATOM     61  C   UNL     1       9.545 -11.853  -3.627  1.00  0.00     0.023 A 
ATOM     62  C   UNL     1       8.807 -13.000  -3.981  1.00  0.00     0.012 A 
ATOM     63  C   UNL     1      10.951 -11.914  -3.600  1.00  0.00     0.148 A 
ATOM     64  C   UNL     1       9.456 -14.198  -4.273  1.00  0.00     0.002 A 
ATOM     65  C   UNL     1      11.594 -13.100  -3.936  1.00  0.00     0.091 A 
ATOM     66  F   UNL     1      11.634 -10.818  -3.240  1.00  0.00    -0.205 F 
ATOM     67  C   UNL     1      10.848 -14.245  -4.262  1.00  0.00     0.022 A 
BRANCH  65  68
ATOM     68  S   UNL     1      13.383 -13.225  -4.032  1.00  0.00     0.127 S 
ATOM     69  O   UNL     1      13.699 -13.946  -2.801  1.00  0.00    -0.237 OA
ATOM     70  O   UNL     1      13.578 -13.999  -5.259  1.00  0.00    -0.237 OA
ATOM     71  O   UNL     1      13.874 -11.855  -4.103  1.00  0.00    -0.744 OA
ENDBRANCH  65  68
ENDBRANCH  38  61
ENDBRANCH  12  13
ENDBRANCH   5   7
ENDBRANCH   2   3
ENDBRANCH   1   2
BRANCH   1  72
ATOM     72  C   UNL     1       4.282   3.803  -0.665  1.00  0.00     0.023 C 
BRANCH  72  73
ATOM     73  C   UNL     1       4.869   4.085   0.710  1.00  0.00     0.116 C 
BRANCH  73  74
ATOM     74  N   UNL     1       6.282   4.472   0.636  1.00  0.00    -0.354 N 
ATOM     75  C   UNL     1       7.013   5.367   1.394  1.00  0.00     0.250 C 
ATOM     76  H   UNL     1       6.795   4.019  -0.072  1.00  0.00     0.163 HD
ATOM     77  O   UNL     1       8.233   5.395   1.216  1.00  0.00    -0.272 OA
BRANCH  75  78
ATOM     78  C   UNL     1       6.279   6.353   2.347  1.00  0.00     0.145 C 
ATOM     79  C   UNL     1       5.330   7.201   1.418  1.00  0.00     0.044 C 
ATOM     80  C   UNL     1       7.155   7.403   3.093  1.00  0.00    -0.010 A 
ATOM     81  C   UNL     1       6.133   8.079   0.461  1.00  0.00     0.008 C 
ATOM     82  C   UNL     1       7.342   8.718   2.579  1.00  0.00    -0.042 A 
ATOM     83  C   UNL     1       7.701   7.143   4.364  1.00  0.00     0.007 A 
ATOM     84  C   UNL     1       6.805   9.180   1.245  1.00  0.00     0.036 C 
ATOM     85  C   UNL     1       7.980   9.709   3.351  1.00  0.00     0.004 A 
ATOM     86  C   UNL     1       8.332   8.138   5.120  1.00  0.00     0.000 A 
ATOM     87  C   UNL     1       8.457   9.426   4.622  1.00  0.00     0.000 A 
BRANCH  78  88
ATOM     88  N   UNL     1       5.444   5.559   3.302  1.00  0.00    -0.338 N 
ATOM     89  C   UNL     1       5.700   4.537   4.173  1.00  0.00     0.224 C 
ATOM     90  H   UNL     1       4.498   5.834   3.302  1.00  0.00     0.164 HD
ATOM     91  O   UNL     1       4.832   4.348   5.032  1.00  0.00    -0.275 OA
BRANCH  89  92
ATOM     92  C   UNL     1       6.945   3.622   4.106  1.00  0.00     0.082 C 
ATOM     93  C   UNL     1       6.785   2.424   3.162  1.00  0.00     0.035 C 
ATOM     94  C   UNL     1       7.309   3.051   5.508  1.00  0.00     0.035 C 
ATOM     95  C   UNL     1       5.743   1.445   3.682  1.00  0.00     0.120 C 
ATOM     96  C   UNL     1       6.426   1.868   5.969  1.00  0.00     0.120 C 
ATOM     97  N   UNL     1       6.268   0.871   4.910  1.00  0.00    -0.342 N 
ATOM     98  C   UNL     1       6.644  -0.474   4.849  1.00  0.00     0.225 C 
ATOM     99  O   UNL     1       6.430  -1.131   3.828  1.00  0.00    -0.275 OA
BRANCH  98 100
ATOM    100  C   UNL     1       7.338  -1.221   5.935  1.00  0.00     0.079 C 
ATOM    101  C   UNL     1       8.345  -0.668   6.900  1.00  0.00     0.014 C 
ATOM    102  C   UNL     1       6.997  -1.135   7.394  1.00  0.00     0.014 C 
ENDBRANCH  98 100
ENDBRANCH  89  92
ENDBRANCH  78  88
ENDBRANCH  75  78
ENDBRANCH  73  74
ENDBRANCH  72  73
ENDBRANCH   1  72
TORSDOF 17
