REMARK SMILES CC[C@](C)([NH3+])C(=O)NC[C@](C)(O)C(=O)NCCCCNC(=O)c1ccc(-c2c3nc(c(-c4cccc(S(=O)(=O)[O-])c4F)c4ccc([nH]4)c(-c4cccc(S(=O)(=O)[O-])c4F)c4nc(c(-c5cccc(S(=O)(=O)[O-])c5F)c5ccc2[nH]5)C=C4)C=C3)cc1
REMARK SMILES IDX 17 1 16 2 15 3 13 4 14 5 10 7 11 8 9 9 8 10 6 11 7 12 3 14
REMARK SMILES IDX 4 15 2 16 1 17 5 18 12 22 18 24 19 25 20 26 21 27 22 29
REMARK SMILES IDX 23 30 24 31 85 32 25 33 84 34 26 35 27 36 28 37 78 38 29 39
REMARK SMILES IDX 83 40 77 41 79 42 30 43 82 44 76 45 75 46 31 48 63 49 43 50
REMARK SMILES IDX 62 51 44 52 47 53 61 54 80 55 45 56 46 57 60 59 81 60 48 61
REMARK SMILES IDX 32 62 33 63 41 64 34 65 36 66 42 67 35 68 37 69 38 70 39 71
REMARK SMILES IDX 40 72 64 73 65 74 73 75 66 76 68 77 74 78 67 79 69 80 70 81
REMARK SMILES IDX 71 82 72 83 49 84 50 85 58 86 51 87 53 88 59 89 52 90 54 91
REMARK SMILES IDX 55 92 56 93 57 94
REMARK H PARENT 15 6 8 13 5 19 5 20 5 21 12 23 20 28 79 47 47 58
REMARK Flexibility Score: inf
ROOT
ATOM      1  C   UNL     1       2.200   0.156  -9.574  1.00  0.00     0.023 C 
ENDROOT
BRANCH   1   2
ATOM      2  C   UNL     1       3.122   0.065  -8.365  1.00  0.00     0.116 C 
BRANCH   2   3
ATOM      3  N   UNL     1       2.572   0.726  -7.192  1.00  0.00    -0.354 N 
ATOM      4  C   UNL     1       2.341   0.235  -5.936  1.00  0.00     0.253 C 
ATOM      5  O   UNL     1       1.882   1.013  -5.096  1.00  0.00    -0.272 OA
ATOM      6  H   UNL     1       2.330   1.671  -7.322  1.00  0.00     0.163 HD
BRANCH   4   7
ATOM      7  C   UNL     1       2.711  -1.228  -5.583  1.00  0.00     0.157 C 
ATOM      8  C   UNL     1       2.158  -1.599  -4.199  1.00  0.00     0.055 C 
BRANCH   7   9
ATOM      9  C   UNL     1       4.239  -1.403  -5.666  1.00  0.00     0.161 C 
BRANCH   9  10
ATOM     10  N   UNL     1       5.023  -1.079  -4.495  1.00  0.00    -0.347 N 
ATOM     11  C   UNL     1       6.075  -1.742  -3.932  1.00  0.00     0.281 C 
ATOM     12  O   UNL     1       6.760  -1.090  -3.135  1.00  0.00    -0.268 OA
ATOM     13  H   UNL     1       4.757  -0.251  -4.032  1.00  0.00     0.163 HD
BRANCH  11  14
ATOM     14  C   UNL     1       6.430  -3.233  -4.275  1.00  0.00     0.170 C 
ATOM     15  C   UNL     1       7.287  -3.764  -3.097  1.00  0.00     0.090 C 
BRANCH  14  16
ATOM     16  C   UNL     1       7.282  -3.426  -5.559  1.00  0.00     0.075 C 
ATOM     17  C   UNL     1       6.920  -2.662  -6.822  1.00  0.00     0.011 C 
ENDBRANCH  14  16
BRANCH  14  18
ATOM     18  N   UNL     1       5.206  -4.079  -4.282  1.00  0.00    -0.345 N 
ATOM     19  H   UNL     1       4.678  -3.921  -3.424  1.00  0.00     0.345 HD
ATOM     20  H   UNL     1       5.473  -5.062  -4.341  1.00  0.00     0.345 HD
ATOM     21  H   UNL     1       4.628  -3.834  -5.086  1.00  0.00     0.345 HD
ENDBRANCH  14  18
ENDBRANCH  11  14
ENDBRANCH   9  10
ENDBRANCH   7   9
BRANCH   7  22
ATOM     22  O   UNL     1       2.128  -2.141  -6.537  1.00  0.00    -0.378 OA
ATOM     23  H   UNL     1       1.162  -2.060  -6.514  1.00  0.00     0.212 HD
ENDBRANCH   7  22
ENDBRANCH   4   7
ENDBRANCH   2   3
ENDBRANCH   1   2
BRANCH   1  24
ATOM     24  C   UNL     1       1.938   1.576 -10.072  1.00  0.00     0.023 C 
BRANCH  24  25
ATOM     25  C   UNL     1       3.184   2.399 -10.379  1.00  0.00     0.116 C 
BRANCH  25  26
ATOM     26  N   UNL     1       4.003   1.817 -11.432  1.00  0.00    -0.352 N 
ATOM     27  C   UNL     1       4.481   2.403 -12.584  1.00  0.00     0.251 C 
ATOM     28  H   UNL     1       4.250   0.872 -11.303  1.00  0.00     0.163 HD
ATOM     29  O   UNL     1       5.038   1.725 -13.433  1.00  0.00    -0.269 OA
BRANCH  27  30
ATOM     30  C   UNL     1       4.285   3.856 -12.794  1.00  0.00     0.039 A 
ATOM     31  C   UNL     1       3.780   4.299 -14.019  1.00  0.00     0.014 A 
ATOM     32  C   UNL     1       4.565   4.770 -11.776  1.00  0.00     0.014 A 
ATOM     33  C   UNL     1       3.486   5.654 -14.195  1.00  0.00     0.010 A 
ATOM     34  C   UNL     1       4.195   6.104 -11.925  1.00  0.00     0.010 A 
ATOM     35  C   UNL     1       3.652   6.561 -13.135  1.00  0.00    -0.014 A 
BRANCH  35  36
ATOM     36  C   UNL     1       3.242   7.985 -13.264  1.00  0.00     0.031 A 
ATOM     37  C   UNL     1       4.260   9.085 -13.125  1.00  0.00     0.074 A 
ATOM     38  C   UNL     1       1.938   8.292 -13.415  1.00  0.00     0.049 A 
ATOM     39  N   UNL     1       4.082  10.380 -13.147  1.00  0.00    -0.248 NA
ATOM     40  C   UNL     1       5.658   8.678 -12.904  1.00  0.00     0.031 C 
ATOM     41  C   UNL     1       0.842   7.322 -13.481  1.00  0.00     0.029 A 
ATOM     42  N   UNL     1       1.308   9.508 -13.511  1.00  0.00    -0.354 N 
ATOM     43  C   UNL     1       5.330  10.941 -12.907  1.00  0.00     0.074 A 
ATOM     44  C   UNL     1       6.253   9.845 -12.708  1.00  0.00     0.031 C 
ATOM     45  C   UNL     1      -0.322   7.980 -13.611  1.00  0.00     0.029 A 
ATOM     46  C   UNL     1      -0.062   9.416 -13.605  1.00  0.00     0.049 A 
ATOM     47  H   UNL     1       1.791  10.366 -13.512  1.00  0.00     0.167 HD
ATOM     48  C   UNL     1       5.685  12.248 -12.883  1.00  0.00     0.034 A 
ATOM     49  C   UNL     1      -1.005  10.377 -13.668  1.00  0.00     0.034 A 
ATOM     50  C   UNL     1       4.774  13.335 -13.121  1.00  0.00     0.049 A 
ATOM     51  C   UNL     1      -0.579  11.821 -13.675  1.00  0.00     0.074 A 
ATOM     52  C   UNL     1       5.053  14.687 -13.207  1.00  0.00     0.029 A 
ATOM     53  N   UNL     1       3.406  13.197 -13.298  1.00  0.00    -0.354 N 
ATOM     54  N   UNL     1       0.629  12.325 -13.610  1.00  0.00    -0.248 NA
ATOM     55  C   UNL     1      -1.644  12.827 -13.802  1.00  0.00     0.031 C 
ATOM     56  C   UNL     1       3.850  15.370 -13.408  1.00  0.00     0.029 A 
ATOM     57  C   UNL     1       2.826  14.441 -13.483  1.00  0.00     0.049 A 
ATOM     58  H   UNL     1       2.919  12.342 -13.294  1.00  0.00     0.167 HD
ATOM     59  C   UNL     1       0.474  13.702 -13.728  1.00  0.00     0.074 A 
ATOM     60  C   UNL     1      -0.944  13.950 -13.887  1.00  0.00     0.031 C 
ATOM     61  C   UNL     1       1.420  14.673 -13.695  1.00  0.00     0.034 A 
BRANCH  48  62
ATOM     62  C   UNL     1       7.136  12.576 -12.639  1.00  0.00     0.023 A 
ATOM     63  C   UNL     1       8.093  12.289 -13.634  1.00  0.00     0.012 A 
ATOM     64  C   UNL     1       7.544  13.223 -11.456  1.00  0.00     0.148 A 
ATOM     65  C   UNL     1       9.437  12.604 -13.442  1.00  0.00     0.002 A 
ATOM     66  C   UNL     1       8.878  13.579 -11.292  1.00  0.00     0.091 A 
ATOM     67  F   UNL     1       6.625  13.472 -10.513  1.00  0.00    -0.205 F 
ATOM     68  C   UNL     1       9.827  13.259 -12.277  1.00  0.00     0.022 A 
BRANCH  66  69
ATOM     69  S   UNL     1       9.469  14.498  -9.866  1.00  0.00     0.127 S 
ATOM     70  O   UNL     1      10.258  13.484  -9.169  1.00  0.00    -0.237 OA
ATOM     71  O   UNL     1      10.256  15.561 -10.491  1.00  0.00    -0.237 OA
ATOM     72  O   UNL     1       8.279  14.956  -9.162  1.00  0.00    -0.744 OA
ENDBRANCH  66  69
ENDBRANCH  48  62
BRANCH  49  73
ATOM     73  C   UNL     1      -2.443  10.005 -13.792  1.00  0.00     0.023 A 
ATOM     74  C   UNL     1      -3.120  10.251 -15.003  1.00  0.00     0.012 A 
ATOM     75  C   UNL     1      -3.136   9.390 -12.732  1.00  0.00     0.148 A 
ATOM     76  C   UNL     1      -4.469   9.925 -15.143  1.00  0.00     0.002 A 
ATOM     77  C   UNL     1      -4.465   9.016 -12.897  1.00  0.00     0.091 A 
ATOM     78  F   UNL     1      -2.478   9.174 -11.584  1.00  0.00    -0.205 F 
ATOM     79  C   UNL     1      -5.138   9.300 -14.095  1.00  0.00     0.022 A 
BRANCH  77  80
ATOM     80  S   UNL     1      -5.367   8.089 -11.652  1.00  0.00     0.127 S 
ATOM     81  O   UNL     1      -6.331   9.080 -11.181  1.00  0.00    -0.237 OA
ATOM     82  O   UNL     1      -5.940   7.000 -12.445  1.00  0.00    -0.237 OA
ATOM     83  O   UNL     1      -4.370   7.662 -10.680  1.00  0.00    -0.744 OA
ENDBRANCH  77  80
ENDBRANCH  49  73
BRANCH  61  84
ATOM     84  C   UNL     1       0.969  16.098 -13.882  1.00  0.00     0.023 A 
ATOM     85  C   UNL     1       0.259  16.754 -12.856  1.00  0.00     0.012 A 
ATOM     86  C   UNL     1       1.318  16.811 -15.046  1.00  0.00     0.148 A 
ATOM     87  C   UNL     1      -0.125  18.087 -13.001  1.00  0.00     0.002 A 
ATOM     88  C   UNL     1       0.978  18.154 -15.161  1.00  0.00     0.091 A 
ATOM     89  F   UNL     1       1.978  16.165 -16.018  1.00  0.00    -0.205 F 
ATOM     90  C   UNL     1       0.245  18.789 -14.146  1.00  0.00     0.022 A 
BRANCH  88  91
ATOM     91  S   UNL     1       1.497  19.164 -16.553  1.00  0.00     0.127 S 
ATOM     92  O   UNL     1       0.234  19.364 -17.262  1.00  0.00    -0.237 OA
ATOM     93  O   UNL     1       2.021  20.358 -15.890  1.00  0.00    -0.237 OA
ATOM     94  O   UNL     1       2.497  18.381 -17.267  1.00  0.00    -0.744 OA
ENDBRANCH  88  91
ENDBRANCH  61  84
ENDBRANCH  35  36
ENDBRANCH  27  30
ENDBRANCH  25  26
ENDBRANCH  24  25
ENDBRANCH   1  24
TORSDOF 20
