REMARK SMILES O=C(NCCCCNC(=O)c1ccc(C[NH+]2CC[NH2+]CC2)c(Br)c1)c1ccc(-c2c3nc(c(-c4cccc(S(=O)(=O)[O-])c4F)c4ccc([nH]4)c(-c4cccc(S(=O)(=O)[O-])c4F)c4nc(c(-c5cccc(S(=O)(=O)[O-])c5F)c5ccc2[nH]5)C=C4)C=C3)cc1
REMARK SMILES IDX 5 1 4 2 3 3 1 4 2 5 25 7 26 8 87 9 27 10 86 11 28 12 29 13
REMARK SMILES IDX 30 14 80 15 31 16 85 17 79 18 81 19 32 20 84 21 78 22 77 23
REMARK SMILES IDX 33 25 65 26 45 27 64 28 46 29 49 30 63 31 82 32 47 33 48 34
REMARK SMILES IDX 62 36 83 37 50 38 34 39 35 40 43 41 36 42 38 43 44 44 37 45
REMARK SMILES IDX 39 46 40 47 41 48 42 49 66 50 67 51 75 52 68 53 70 54 76 55
REMARK SMILES IDX 69 56 71 57 72 58 73 59 74 60 51 61 52 62 60 63 53 64 55 65
REMARK SMILES IDX 61 66 54 67 56 68 57 69 58 70 59 71 6 72 7 73 8 74 9 75
REMARK SMILES IDX 10 77 11 78 12 79 24 80 13 81 22 82 14 83 23 84 15 85 16 86
REMARK SMILES IDX 17 87 21 88 18 90 20 91 19 92
REMARK H PARENT 3 6 81 24 49 35 8 76 16 89 19 93 19 94
REMARK Flexibility Score: inf
ROOT
ATOM      1  C   UNL     1       4.869  -2.111   1.668  1.00  0.00     0.023 C 
ENDROOT
BRANCH   1   2
ATOM      2  C   UNL     1       4.529  -1.344   0.395  1.00  0.00     0.116 C 
BRANCH   2   3
ATOM      3  N   UNL     1       3.098  -1.206   0.177  1.00  0.00    -0.352 N 
ATOM      4  O   UNL     1       1.132  -0.139  -0.076  1.00  0.00    -0.269 OA
ATOM      5  C   UNL     1       2.357  -0.069  -0.051  1.00  0.00     0.251 C 
ATOM      6  H   UNL     1       2.586  -2.047   0.196  1.00  0.00     0.163 HD
BRANCH   5   7
ATOM      7  C   UNL     1       3.034   1.238  -0.231  1.00  0.00     0.039 A 
ATOM      8  C   UNL     1       4.166   1.357  -1.040  1.00  0.00     0.014 A 
ATOM      9  C   UNL     1       2.522   2.365   0.419  1.00  0.00     0.014 A 
ATOM     10  C   UNL     1       4.869   2.558  -1.078  1.00  0.00     0.010 A 
ATOM     11  C   UNL     1       3.184   3.593   0.313  1.00  0.00     0.010 A 
ATOM     12  C   UNL     1       4.384   3.693  -0.406  1.00  0.00    -0.014 A 
BRANCH  12  13
ATOM     13  C   UNL     1       5.114   4.983  -0.526  1.00  0.00     0.031 A 
ATOM     14  C   UNL     1       5.741   5.645   0.671  1.00  0.00     0.074 A 
ATOM     15  C   UNL     1       5.210   5.561  -1.740  1.00  0.00     0.049 A 
ATOM     16  N   UNL     1       6.438   6.751   0.726  1.00  0.00    -0.248 NA
ATOM     17  C   UNL     1       5.560   4.989   1.976  1.00  0.00     0.031 C 
ATOM     18  C   UNL     1       4.602   5.042  -2.967  1.00  0.00     0.029 A 
ATOM     19  N   UNL     1       5.847   6.707  -2.144  1.00  0.00    -0.354 N 
ATOM     20  C   UNL     1       6.747   6.947   2.067  1.00  0.00     0.074 A 
ATOM     21  C   UNL     1       6.154   5.846   2.797  1.00  0.00     0.031 C 
ATOM     22  C   UNL     1       4.912   5.853  -3.989  1.00  0.00     0.029 A 
ATOM     23  C   UNL     1       5.702   6.971  -3.486  1.00  0.00     0.049 A 
ATOM     24  H   UNL     1       6.358   7.284  -1.532  1.00  0.00     0.167 HD
ATOM     25  C   UNL     1       7.474   7.939   2.635  1.00  0.00     0.034 A 
ATOM     26  C   UNL     1       6.142   8.003  -4.230  1.00  0.00     0.034 A 
ATOM     27  C   UNL     1       8.097   9.010   1.901  1.00  0.00     0.049 A 
ATOM     28  C   UNL     1       6.969   9.073  -3.577  1.00  0.00     0.074 A 
ATOM     29  C   UNL     1       8.912  10.021   2.381  1.00  0.00     0.029 A 
ATOM     30  N   UNL     1       7.969   9.217   0.536  1.00  0.00    -0.354 N 
ATOM     31  N   UNL     1       7.367   9.161  -2.332  1.00  0.00    -0.248 NA
ATOM     32  C   UNL     1       7.431  10.172  -4.437  1.00  0.00     0.031 C 
ATOM     33  C   UNL     1       9.263  10.849   1.309  1.00  0.00     0.029 A 
ATOM     34  C   UNL     1       8.681  10.344   0.158  1.00  0.00     0.049 A 
ATOM     35  H   UNL     1       7.449   8.646  -0.075  1.00  0.00     0.167 HD
ATOM     36  C   UNL     1       8.145  10.310  -2.262  1.00  0.00     0.074 A 
ATOM     37  C   UNL     1       8.186  10.869  -3.598  1.00  0.00     0.031 C 
ATOM     38  C   UNL     1       8.753  10.863  -1.184  1.00  0.00     0.034 A 
BRANCH  25  39
ATOM     39  C   UNL     1       7.684   7.895   4.128  1.00  0.00     0.023 A 
ATOM     40  C   UNL     1       8.586   6.960   4.673  1.00  0.00     0.012 A 
ATOM     41  C   UNL     1       7.055   8.825   4.979  1.00  0.00     0.148 A 
ATOM     42  C   UNL     1       8.840   6.933   6.044  1.00  0.00     0.002 A 
ATOM     43  C   UNL     1       7.341   8.817   6.340  1.00  0.00     0.091 A 
ATOM     44  F   UNL     1       6.184   9.694   4.446  1.00  0.00    -0.205 F 
ATOM     45  C   UNL     1       8.227   7.867   6.875  1.00  0.00     0.022 A 
BRANCH  43  46
ATOM     46  S   UNL     1       6.659  10.027   7.480  1.00  0.00     0.127 S 
ATOM     47  O   UNL     1       5.666   9.228   8.198  1.00  0.00    -0.237 OA
ATOM     48  O   UNL     1       7.829  10.401   8.275  1.00  0.00    -0.237 OA
ATOM     49  O   UNL     1       6.123  11.098   6.652  1.00  0.00    -0.744 OA
ENDBRANCH  43  46
ENDBRANCH  25  39
BRANCH  26  50
ATOM     50  C   UNL     1       5.848   8.035  -5.690  1.00  0.00     0.023 A 
ATOM     51  C   UNL     1       6.892   7.831  -6.611  1.00  0.00     0.012 A 
ATOM     52  C   UNL     1       4.534   8.208  -6.166  1.00  0.00     0.148 A 
ATOM     53  C   UNL     1       6.636   7.820  -7.983  1.00  0.00     0.002 A 
ATOM     54  C   UNL     1       4.277   8.137  -7.530  1.00  0.00     0.091 A 
ATOM     55  F   UNL     1       3.556   8.420  -5.274  1.00  0.00    -0.205 F 
ATOM     56  C   UNL     1       5.329   7.958  -8.441  1.00  0.00     0.022 A 
BRANCH  54  57
ATOM     57  S   UNL     1       2.606   8.157  -8.189  1.00  0.00     0.127 S 
ATOM     58  O   UNL     1       2.519   9.505  -8.742  1.00  0.00    -0.237 OA
ATOM     59  O   UNL     1       2.656   7.084  -9.183  1.00  0.00    -0.237 OA
ATOM     60  O   UNL     1       1.738   7.876  -7.053  1.00  0.00    -0.744 OA
ENDBRANCH  54  57
ENDBRANCH  26  50
BRANCH  38  61
ATOM     61  C   UNL     1       9.531  12.133  -1.404  1.00  0.00     0.023 A 
ATOM     62  C   UNL     1       8.841  13.343  -1.619  1.00  0.00     0.012 A 
ATOM     63  C   UNL     1      10.938  12.142  -1.335  1.00  0.00     0.148 A 
ATOM     64  C   UNL     1       9.540  14.536  -1.794  1.00  0.00     0.002 A 
ATOM     65  C   UNL     1      11.627  13.342  -1.466  1.00  0.00     0.091 A 
ATOM     66  F   UNL     1      11.578  10.977  -1.152  1.00  0.00    -0.205 F 
ATOM     67  C   UNL     1      10.931  14.538  -1.706  1.00  0.00     0.022 A 
BRANCH  65  68
ATOM     68  S   UNL     1      13.410  13.450  -1.280  1.00  0.00     0.127 S 
ATOM     69  O   UNL     1      13.847  13.600  -2.666  1.00  0.00    -0.237 OA
ATOM     70  O   UNL     1      13.567  14.651  -0.457  1.00  0.00    -0.237 OA
ATOM     71  O   UNL     1      13.817  12.215  -0.623  1.00  0.00    -0.744 OA
ENDBRANCH  65  68
ENDBRANCH  38  61
ENDBRANCH  12  13
ENDBRANCH   5   7
ENDBRANCH   2   3
ENDBRANCH   1   2
BRANCH   1  72
ATOM     72  C   UNL     1       4.452  -3.581   1.679  1.00  0.00     0.023 C 
BRANCH  72  73
ATOM     73  C   UNL     1       4.976  -4.420   0.515  1.00  0.00     0.116 C 
BRANCH  73  74
ATOM     74  N   UNL     1       6.431  -4.439   0.434  1.00  0.00    -0.352 N 
ATOM     75  C   UNL     1       7.283  -5.520   0.451  1.00  0.00     0.251 C 
ATOM     76  H   UNL     1       6.864  -3.559   0.356  1.00  0.00     0.163 HD
ATOM     77  O   UNL     1       8.496  -5.383   0.467  1.00  0.00    -0.269 OA
BRANCH  75  78
ATOM     78  C   UNL     1       6.698  -6.870   0.488  1.00  0.00     0.040 A 
ATOM     79  C   UNL     1       5.922  -7.327  -0.574  1.00  0.00     0.014 A 
ATOM     80  C   UNL     1       6.875  -7.644   1.632  1.00  0.00     0.030 A 
ATOM     81  C   UNL     1       5.193  -8.504  -0.422  1.00  0.00     0.011 A 
ATOM     82  C   UNL     1       6.146  -8.826   1.777  1.00  0.00     0.027 A 
ATOM     83  C   UNL     1       5.221  -9.222   0.791  1.00  0.00     0.020 A 
ATOM     84  Br  UNL     1       6.459  -9.819   3.367  1.00  0.00    -0.050 Br
BRANCH  83  85
ATOM     85  C   UNL     1       4.205 -10.328   0.984  1.00  0.00     0.300 C 
BRANCH  85  86
ATOM     86  N   UNL     1       2.859  -9.935   1.432  1.00  0.00    -0.322 N 
ATOM     87  C   UNL     1       2.769  -9.360   2.780  1.00  0.00     0.324 C 
ATOM     88  C   UNL     1       2.035  -9.190   0.470  1.00  0.00     0.324 C 
ATOM     89  H   UNL     1       2.430 -10.859   1.492  1.00  0.00     0.348 HD
ATOM     90  C   UNL     1       2.850  -7.818   2.853  1.00  0.00     0.322 C 
ATOM     91  C   UNL     1       2.044  -7.646   0.599  1.00  0.00     0.322 C 
ATOM     92  N   UNL     1       1.874  -7.153   1.974  1.00  0.00    -0.337 N 
ATOM     93  H   UNL     1       2.027  -6.145   1.996  1.00  0.00     0.346 HD
ATOM     94  H   UNL     1       0.928  -7.358   2.297  1.00  0.00     0.346 HD
ENDBRANCH  85  86
ENDBRANCH  83  85
ENDBRANCH  75  78
ENDBRANCH  73  74
ENDBRANCH  72  73
ENDBRANCH   1  72
TORSDOF 16
