REMARK SMILES O=C(NCCCCNC(=O)[C@@H]1CC2(CC[NH2+]CC2)C[N@H+]1Cc1cccc2nonc12)c1ccc(-c2c3nc(c(-c4cccc(S(=O)(=O)[O-])c4F)c4ccc([nH]4)c(-c4cccc(S(=O)(=O)[O-])c4F)c4nc(c(-c5cccc(S(=O)(=O)[O-])c5F)c5ccc2[nH]5)C=C4)C=C3)cc1
REMARK SMILES IDX 5 1 4 2 3 3 1 4 2 5 31 7 32 8 93 9 33 10 92 11 34 12 35 13
REMARK SMILES IDX 36 14 86 15 37 16 91 17 85 18 87 19 38 20 90 21 84 22 83 23
REMARK SMILES IDX 39 25 71 26 51 27 70 28 52 29 55 30 69 31 88 32 53 33 54 34
REMARK SMILES IDX 68 36 89 37 56 38 40 39 41 40 49 41 42 42 44 43 50 44 43 45
REMARK SMILES IDX 45 46 46 47 47 48 48 49 72 50 73 51 81 52 74 53 76 54 82 55
REMARK SMILES IDX 75 56 77 57 78 58 79 59 80 60 57 61 58 62 66 63 59 64 61 65
REMARK SMILES IDX 67 66 60 67 62 68 63 69 64 70 65 71 6 72 7 73 8 74 9 75
REMARK SMILES IDX 10 77 11 78 12 79 20 80 13 81 19 82 14 84 18 85 15 86 17 87
REMARK SMILES IDX 16 88 21 91 22 92 23 93 30 94 24 95 26 96 29 97 25 98 27 99
REMARK SMILES IDX 28 100
REMARK H PARENT 3 6 87 24 55 35 8 76 20 83 16 89 16 90
REMARK Flexibility Score: inf
ROOT
ATOM      1  C   UNL     1       5.106  -1.281  -0.187  1.00  0.00     0.023 C 
ENDROOT
BRANCH   1   2
ATOM      2  C   UNL     1       4.404   0.061  -0.373  1.00  0.00     0.116 C 
BRANCH   2   3
ATOM      3  N   UNL     1       2.955  -0.110  -0.401  1.00  0.00    -0.352 N 
ATOM      4  O   UNL     1       0.908  -0.101   0.517  1.00  0.00    -0.269 OA
ATOM      5  C   UNL     1       2.004   0.445   0.410  1.00  0.00     0.251 C 
ATOM      6  H   UNL     1       2.613  -0.710  -1.103  1.00  0.00     0.163 HD
BRANCH   5   7
ATOM      7  C   UNL     1       2.292   1.694   1.137  1.00  0.00     0.039 A 
ATOM      8  C   UNL     1       1.699   1.886   2.387  1.00  0.00     0.014 A 
ATOM      9  C   UNL     1       3.067   2.703   0.553  1.00  0.00     0.014 A 
ATOM     10  C   UNL     1       1.921   3.074   3.071  1.00  0.00     0.010 A 
ATOM     11  C   UNL     1       3.315   3.876   1.249  1.00  0.00     0.010 A 
ATOM     12  C   UNL     1       2.746   4.060   2.511  1.00  0.00    -0.014 A 
BRANCH  12  13
ATOM     13  C   UNL     1       2.986   5.275   3.300  1.00  0.00     0.031 A 
ATOM     14  C   UNL     1       4.438   5.605   3.501  1.00  0.00     0.074 A 
ATOM     15  C   UNL     1       2.087   6.275   3.203  1.00  0.00     0.049 A 
ATOM     16  N   UNL     1       5.188   6.171   2.600  1.00  0.00    -0.248 NA
ATOM     17  C   UNL     1       5.195   5.059   4.630  1.00  0.00     0.031 C 
ATOM     18  C   UNL     1       1.402   6.655   1.959  1.00  0.00     0.029 A 
ATOM     19  N   UNL     1       1.757   7.266   4.094  1.00  0.00    -0.354 N 
ATOM     20  C   UNL     1       6.507   6.027   3.003  1.00  0.00     0.074 A 
ATOM     21  C   UNL     1       6.460   5.331   4.270  1.00  0.00     0.031 C 
ATOM     22  C   UNL     1       0.875   7.885   2.114  1.00  0.00     0.029 A 
ATOM     23  C   UNL     1       1.080   8.325   3.490  1.00  0.00     0.049 A 
ATOM     24  H   UNL     1       1.974   7.233   5.054  1.00  0.00     0.167 HD
ATOM     25  C   UNL     1       7.565   6.500   2.285  1.00  0.00     0.034 A 
ATOM     26  C   UNL     1       1.174   9.616   3.915  1.00  0.00     0.034 A 
ATOM     27  C   UNL     1       7.217   7.234   1.103  1.00  0.00     0.049 A 
ATOM     28  C   UNL     1       2.509   9.987   3.297  1.00  0.00     0.074 A 
ATOM     29  C   UNL     1       7.225   7.059  -0.263  1.00  0.00     0.029 A 
ATOM     30  N   UNL     1       6.688   8.489   1.282  1.00  0.00    -0.354 N 
ATOM     31  N   UNL     1       2.736  10.216   2.027  1.00  0.00    -0.248 NA
ATOM     32  C   UNL     1       3.707   9.671   4.076  1.00  0.00     0.031 C 
ATOM     33  C   UNL     1       6.282   8.011  -0.775  1.00  0.00     0.029 A 
ATOM     34  C   UNL     1       5.745   8.700   0.312  1.00  0.00     0.049 A 
ATOM     35  H   UNL     1       6.943   9.127   1.987  1.00  0.00     0.167 HD
ATOM     36  C   UNL     1       4.033   9.744   1.791  1.00  0.00     0.074 A 
ATOM     37  C   UNL     1       4.579   9.449   3.102  1.00  0.00     0.031 C 
ATOM     38  C   UNL     1       4.530   9.455   0.549  1.00  0.00     0.034 A 
BRANCH  25  39
ATOM     39  C   UNL     1       8.961   6.554   2.789  1.00  0.00     0.023 A 
ATOM     40  C   UNL     1       9.329   7.744   3.450  1.00  0.00     0.012 A 
ATOM     41  C   UNL     1       9.952   5.607   2.473  1.00  0.00     0.148 A 
ATOM     42  C   UNL     1      10.659   8.019   3.752  1.00  0.00     0.002 A 
ATOM     43  C   UNL     1      11.284   5.884   2.788  1.00  0.00     0.091 A 
ATOM     44  F   UNL     1       9.589   4.482   1.841  1.00  0.00    -0.205 F 
ATOM     45  C   UNL     1      11.636   7.093   3.414  1.00  0.00     0.022 A 
BRANCH  43  46
ATOM     46  S   UNL     1      12.645   4.773   2.402  1.00  0.00     0.127 S 
ATOM     47  O   UNL     1      13.419   5.566   1.441  1.00  0.00    -0.237 OA
ATOM     48  O   UNL     1      13.287   4.621   3.713  1.00  0.00    -0.237 OA
ATOM     49  O   UNL     1      12.044   3.566   1.877  1.00  0.00    -0.744 OA
ENDBRANCH  43  46
ENDBRANCH  25  39
BRANCH  26  50
ATOM     50  C   UNL     1       0.826   9.800   5.371  1.00  0.00     0.023 A 
ATOM     51  C   UNL     1      -0.338   9.135   5.839  1.00  0.00     0.012 A 
ATOM     52  C   UNL     1       1.572  10.530   6.312  1.00  0.00     0.148 A 
ATOM     53  C   UNL     1      -0.659   9.068   7.195  1.00  0.00     0.002 A 
ATOM     54  C   UNL     1       1.275  10.427   7.672  1.00  0.00     0.091 A 
ATOM     55  F   UNL     1       2.581  11.299   5.884  1.00  0.00    -0.205 F 
ATOM     56  C   UNL     1       0.171   9.686   8.117  1.00  0.00     0.022 A 
BRANCH  54  57
ATOM     57  S   UNL     1       2.316  11.148   8.948  1.00  0.00     0.127 S 
ATOM     58  O   UNL     1       1.335  11.820   9.800  1.00  0.00    -0.237 OA
ATOM     59  O   UNL     1       2.924   9.954   9.531  1.00  0.00    -0.237 OA
ATOM     60  O   UNL     1       3.233  12.038   8.251  1.00  0.00    -0.744 OA
ENDBRANCH  54  57
ENDBRANCH  26  50
BRANCH  38  61
ATOM     61  C   UNL     1       3.667   9.821  -0.623  1.00  0.00     0.023 A 
ATOM     62  C   UNL     1       3.475  11.185  -0.907  1.00  0.00     0.012 A 
ATOM     63  C   UNL     1       3.125   8.854  -1.497  1.00  0.00     0.148 A 
ATOM     64  C   UNL     1       2.780  11.587  -2.046  1.00  0.00     0.002 A 
ATOM     65  C   UNL     1       2.458   9.260  -2.649  1.00  0.00     0.091 A 
ATOM     66  F   UNL     1       3.286   7.554  -1.205  1.00  0.00    -0.205 F 
ATOM     67  C   UNL     1       2.285  10.627  -2.924  1.00  0.00     0.022 A 
BRANCH  65  68
ATOM     68  S   UNL     1       1.827   8.111  -3.879  1.00  0.00     0.127 S 
ATOM     69  O   UNL     1       0.405   8.453  -3.915  1.00  0.00    -0.237 OA
ATOM     70  O   UNL     1       2.576   8.505  -5.073  1.00  0.00    -0.237 OA
ATOM     71  O   UNL     1       2.124   6.774  -3.384  1.00  0.00    -0.744 OA
ENDBRANCH  65  68
ENDBRANCH  38  61
ENDBRANCH  12  13
ENDBRANCH   5   7
ENDBRANCH   2   3
ENDBRANCH   1   2
BRANCH   1  72
ATOM     72  C   UNL     1       4.798  -2.266  -1.293  1.00  0.00     0.023 C 
BRANCH  72  73
ATOM     73  C   UNL     1       5.322  -1.912  -2.665  1.00  0.00     0.116 C 
BRANCH  73  74
ATOM     74  N   UNL     1       6.691  -2.130  -3.054  1.00  0.00    -0.351 N 
ATOM     75  C   UNL     1       7.102  -2.545  -4.312  1.00  0.00     0.278 C 
ATOM     76  H   UNL     1       7.387  -1.973  -2.376  1.00  0.00     0.163 HD
ATOM     77  O   UNL     1       8.188  -2.127  -4.728  1.00  0.00    -0.268 OA
BRANCH  75  78
ATOM     78  C   UNL     1       6.284  -3.562  -5.184  1.00  0.00     0.275 C 
ATOM     79  C   UNL     1       5.324  -3.018  -6.275  1.00  0.00     0.089 C 
ATOM     80  N   UNL     1       5.474  -4.437  -4.326  1.00  0.00    -0.320 N 
ATOM     81  C   UNL     1       3.886  -3.240  -5.751  1.00  0.00     0.036 C 
ATOM     82  C   UNL     1       4.118  -4.497  -4.843  1.00  0.00     0.270 C 
ATOM     83  H   UNL     1       5.370  -4.023  -3.400  1.00  0.00     0.349 HD
ATOM     84  C   UNL     1       2.802  -3.638  -6.779  1.00  0.00     0.074 C 
ATOM     85  C   UNL     1       3.421  -1.923  -5.062  1.00  0.00     0.074 C 
ATOM     86  C   UNL     1       2.207  -2.489  -7.587  1.00  0.00     0.261 C 
ATOM     87  C   UNL     1       2.767  -0.869  -5.952  1.00  0.00     0.261 C 
ATOM     88  N   UNL     1       1.681  -1.437  -6.728  1.00  0.00    -0.346 N 
ATOM     89  H   UNL     1       0.980  -1.828  -6.098  1.00  0.00     0.346 HD
ATOM     90  H   UNL     1       1.251  -0.710  -7.300  1.00  0.00     0.346 HD
BRANCH  80  91
ATOM     91  C   UNL     1       6.138  -5.666  -3.883  1.00  0.00     0.302 C 
BRANCH  91  92
ATOM     92  C   UNL     1       6.758  -5.464  -2.521  1.00  0.00     0.038 A 
ATOM     93  C   UNL     1       5.966  -5.531  -1.346  1.00  0.00     0.012 A 
ATOM     94  C   UNL     1       8.077  -5.012  -2.272  1.00  0.00     0.144 A 
ATOM     95  C   UNL     1       6.397  -5.079  -0.066  1.00  0.00     0.003 A 
ATOM     96  C   UNL     1       8.507  -4.525  -0.963  1.00  0.00     0.135 A 
ATOM     97  N   UNL     1       9.116  -4.904  -3.111  1.00  0.00    -0.049 NA
ATOM     98  C   UNL     1       7.661  -4.512   0.160  1.00  0.00     0.034 A 
ATOM     99  N   UNL     1       9.772  -4.103  -1.063  1.00  0.00    -0.050 NA
ATOM    100  O   UNL     1      10.137  -4.320  -2.380  1.00  0.00    -0.243 OA
ENDBRANCH  91  92
ENDBRANCH  80  91
ENDBRANCH  75  78
ENDBRANCH  73  74
ENDBRANCH  72  73
ENDBRANCH   1  72
TORSDOF 16
