REMARK SMILES Cc1ccc2c(c1)c(-c1ccnc3c(C)cccc13)c(C)n2CC(=O)NCCCCNC(=O)c1ccc(-c2c3nc(c(-c4cccc(S(=O)(=O)[O-])c4F)c4ccc([nH]4)c(-c4cccc(S(=O)(=O)[O-])c4F)c4nc(c(-c5cccc(S(=O)(=O)[O-])c5F)c5ccc2[nH]5)C=C4)C=C3)cc1
REMARK SMILES IDX 29 1 28 2 27 3 26 4 24 5 25 6 23 8 22 9 1 10 2 11 3 12 7 13
REMARK SMILES IDX 4 14 6 15 5 16 8 17 20 18 21 19 9 20 10 21 19 22 11 23 13 24
REMARK SMILES IDX 18 25 12 26 14 27 17 28 15 29 16 30 30 31 31 32 32 33 33 35
REMARK SMILES IDX 34 36 35 37 96 38 36 39 95 40 37 41 38 42 39 43 89 44 40 45
REMARK SMILES IDX 94 46 88 47 90 48 41 49 93 50 87 51 86 52 42 54 74 55 54 56
REMARK SMILES IDX 73 57 55 58 58 59 72 60 91 61 56 62 57 63 71 65 92 66 59 67
REMARK SMILES IDX 43 68 44 69 52 70 45 71 47 72 53 73 46 74 48 75 49 76 50 77
REMARK SMILES IDX 51 78 75 79 76 80 84 81 77 82 79 83 85 84 78 85 80 86 81 87
REMARK SMILES IDX 82 88 83 89 60 90 61 91 69 92 62 93 64 94 70 95 63 96 65 97
REMARK SMILES IDX 66 98 67 99 68 100
REMARK H PARENT 26 7 31 34 90 53 58 64
REMARK Flexibility Score: inf
ROOT
ATOM      1  C   UNL     1      -3.153  -5.161   2.994  1.00  0.00     0.023 C 
ENDROOT
BRANCH   1   2
ATOM      2  C   UNL     1      -2.075  -4.690   2.007  1.00  0.00     0.023 C 
BRANCH   2   3
ATOM      3  C   UNL     1      -1.013  -5.739   1.690  1.00  0.00     0.116 C 
BRANCH   3   4
ATOM      4  N   UNL     1      -1.551  -6.864   0.949  1.00  0.00    -0.355 N 
ATOM      5  C   UNL     1      -1.272  -7.258  -0.328  1.00  0.00     0.239 C 
ATOM      6  O   UNL     1      -1.804  -8.291  -0.744  1.00  0.00    -0.273 OA
ATOM      7  H   UNL     1      -2.206  -7.418   1.432  1.00  0.00     0.163 HD
BRANCH   5   8
ATOM      8  C   UNL     1      -0.273  -6.493  -1.177  1.00  0.00     0.222 C 
BRANCH   8   9
ATOM      9  N   UNL     1      -0.719  -5.153  -1.543  1.00  0.00    -0.335 N 
ATOM     10  C   UNL     1       1.034   0.017  -0.059  1.00  0.00     0.044 C 
ATOM     11  C   UNL     1       0.672  -1.373  -0.492  1.00  0.00    -0.050 A 
ATOM     12  C   UNL     1       1.486  -2.451  -0.147  1.00  0.00     0.005 A 
ATOM     13  C   UNL     1      -0.526  -1.608  -1.186  1.00  0.00     0.014 A 
ATOM     14  C   UNL     1       1.144  -3.761  -0.497  1.00  0.00     0.027 A 
ATOM     15  C   UNL     1      -0.902  -2.923  -1.538  1.00  0.00     0.008 A 
ATOM     16  C   UNL     1      -0.069  -3.983  -1.175  1.00  0.00     0.049 A 
ATOM     17  C   UNL     1      -2.026  -3.482  -2.215  1.00  0.00     0.011 A 
ATOM     18  C   UNL     1      -1.856  -4.857  -2.273  1.00  0.00     0.024 A 
ATOM     19  C   UNL     1      -2.726  -5.889  -2.915  1.00  0.00     0.065 C 
BRANCH  17  20
ATOM     20  C   UNL     1      -3.176  -2.785  -2.783  1.00  0.00    -0.005 A 
ATOM     21  C   UNL     1      -2.969  -2.040  -3.941  1.00  0.00     0.029 A 
ATOM     22  C   UNL     1      -4.461  -2.822  -2.179  1.00  0.00     0.008 A 
ATOM     23  C   UNL     1      -4.046  -1.372  -4.474  1.00  0.00     0.112 A 
ATOM     24  C   UNL     1      -5.501  -2.097  -2.805  1.00  0.00     0.074 A 
ATOM     25  C   UNL     1      -4.743  -3.533  -0.987  1.00  0.00     0.011 A 
ATOM     26  N   UNL     1      -5.284  -1.396  -3.940  1.00  0.00    -0.256 NA
ATOM     27  C   UNL     1      -6.777  -2.112  -2.218  1.00  0.00    -0.025 A 
ATOM     28  C   UNL     1      -6.006  -3.528  -0.411  1.00  0.00     0.001 A 
ATOM     29  C   UNL     1      -7.939  -1.368  -2.824  1.00  0.00     0.047 C 
ATOM     30  C   UNL     1      -7.022  -2.817  -1.025  1.00  0.00     0.005 A 
ENDBRANCH  17  20
ENDBRANCH   8   9
ENDBRANCH   5   8
ENDBRANCH   3   4
ENDBRANCH   2   3
ENDBRANCH   1   2
BRANCH   1  31
ATOM     31  C   UNL     1      -2.580  -5.803   4.258  1.00  0.00     0.116 C 
BRANCH  31  32
ATOM     32  N   UNL     1      -1.664  -4.936   4.971  1.00  0.00    -0.352 N 
ATOM     33  C   UNL     1      -1.778  -4.052   6.007  1.00  0.00     0.251 C 
ATOM     34  H   UNL     1      -0.743  -4.998   4.629  1.00  0.00     0.163 HD
ATOM     35  O   UNL     1      -0.719  -3.574   6.421  1.00  0.00    -0.269 OA
BRANCH  33  36
ATOM     36  C   UNL     1      -3.062  -3.582   6.583  1.00  0.00     0.039 A 
ATOM     37  C   UNL     1      -4.322  -4.077   6.249  1.00  0.00     0.014 A 
ATOM     38  C   UNL     1      -2.975  -2.484   7.460  1.00  0.00     0.014 A 
ATOM     39  C   UNL     1      -5.464  -3.404   6.644  1.00  0.00     0.010 A 
ATOM     40  C   UNL     1      -4.116  -1.825   7.888  1.00  0.00     0.010 A 
ATOM     41  C   UNL     1      -5.351  -2.246   7.411  1.00  0.00    -0.014 A 
BRANCH  41  42
ATOM     42  C   UNL     1      -6.582  -1.547   7.740  1.00  0.00     0.031 A 
ATOM     43  C   UNL     1      -7.545  -2.366   8.529  1.00  0.00     0.074 A 
ATOM     44  C   UNL     1      -6.786  -0.261   7.392  1.00  0.00     0.049 A 
ATOM     45  N   UNL     1      -8.712  -2.794   8.170  1.00  0.00    -0.248 NA
ATOM     46  C   UNL     1      -7.072  -2.918   9.809  1.00  0.00     0.031 C 
ATOM     47  C   UNL     1      -5.815   0.686   6.831  1.00  0.00     0.029 A 
ATOM     48  N   UNL     1      -7.887   0.514   7.586  1.00  0.00    -0.354 N 
ATOM     49  C   UNL     1      -9.210  -3.485   9.275  1.00  0.00     0.074 A 
ATOM     50  C   UNL     1      -8.107  -3.671  10.180  1.00  0.00     0.031 C 
ATOM     51  C   UNL     1      -6.281   1.946   6.985  1.00  0.00     0.029 A 
ATOM     52  C   UNL     1      -7.635   1.882   7.500  1.00  0.00     0.049 A 
ATOM     53  H   UNL     1      -8.780   0.143   7.770  1.00  0.00     0.167 HD
ATOM     54  C   UNL     1     -10.544  -3.642   9.489  1.00  0.00     0.034 A 
ATOM     55  C   UNL     1      -8.474   2.866   7.904  1.00  0.00     0.034 A 
ATOM     56  C   UNL     1     -11.318  -3.326   8.325  1.00  0.00     0.049 A 
ATOM     57  C   UNL     1      -9.829   2.275   7.931  1.00  0.00     0.074 A 
ATOM     58  C   UNL     1     -11.575  -3.913   7.107  1.00  0.00     0.029 A 
ATOM     59  N   UNL     1     -11.659  -2.002   8.223  1.00  0.00    -0.354 N 
ATOM     60  N   UNL     1     -10.457   1.867   6.866  1.00  0.00    -0.248 NA
ATOM     61  C   UNL     1     -10.383   1.827   9.200  1.00  0.00     0.031 C 
ATOM     62  C   UNL     1     -11.780  -2.833   6.199  1.00  0.00     0.029 A 
ATOM     63  C   UNL     1     -11.679  -1.634   6.906  1.00  0.00     0.049 A 
ATOM     64  H   UNL     1     -11.858  -1.407   8.982  1.00  0.00     0.167 HD
ATOM     65  C   UNL     1     -11.192   0.781   7.304  1.00  0.00     0.074 A 
ATOM     66  C   UNL     1     -11.252   0.917   8.754  1.00  0.00     0.031 C 
ATOM     67  C   UNL     1     -11.418  -0.279   6.479  1.00  0.00     0.034 A 
BRANCH  54  68
ATOM     68  C   UNL     1     -11.171  -3.659  10.860  1.00  0.00     0.023 A 
ATOM     69  C   UNL     1     -12.489  -4.142  10.997  1.00  0.00     0.012 A 
ATOM     70  C   UNL     1     -10.618  -2.966  11.962  1.00  0.00     0.148 A 
ATOM     71  C   UNL     1     -13.213  -3.957  12.182  1.00  0.00     0.002 A 
ATOM     72  C   UNL     1     -11.312  -2.847  13.160  1.00  0.00     0.091 A 
ATOM     73  F   UNL     1      -9.468  -2.299  11.810  1.00  0.00    -0.205 F 
ATOM     74  C   UNL     1     -12.619  -3.325  13.271  1.00  0.00     0.022 A 
BRANCH  72  75
ATOM     75  S   UNL     1     -10.582  -2.062  14.601  1.00  0.00     0.127 S 
ATOM     76  O   UNL     1     -11.324  -0.810  14.662  1.00  0.00    -0.237 OA
ATOM     77  O   UNL     1     -10.893  -3.026  15.655  1.00  0.00    -0.237 OA
ATOM     78  O   UNL     1      -9.156  -1.952  14.297  1.00  0.00    -0.744 OA
ENDBRANCH  72  75
ENDBRANCH  54  68
BRANCH  55  79
ATOM     79  C   UNL     1      -8.213   4.180   8.541  1.00  0.00     0.023 A 
ATOM     80  C   UNL     1      -9.279   5.103   8.633  1.00  0.00     0.012 A 
ATOM     81  C   UNL     1      -7.082   4.386   9.358  1.00  0.00     0.148 A 
ATOM     82  C   UNL     1      -9.266   6.133   9.579  1.00  0.00     0.002 A 
ATOM     83  C   UNL     1      -7.072   5.418  10.295  1.00  0.00     0.091 A 
ATOM     84  F   UNL     1      -6.069   3.513   9.296  1.00  0.00    -0.205 F 
ATOM     85  C   UNL     1      -8.172   6.277  10.424  1.00  0.00     0.022 A 
BRANCH  83  86
ATOM     86  S   UNL     1      -5.707   5.657  11.440  1.00  0.00     0.127 S 
ATOM     87  O   UNL     1      -5.526   7.109  11.402  1.00  0.00    -0.237 OA
ATOM     88  O   UNL     1      -6.264   5.142  12.686  1.00  0.00    -0.237 OA
ATOM     89  O   UNL     1      -4.590   4.903  10.882  1.00  0.00    -0.744 OA
ENDBRANCH  83  86
ENDBRANCH  55  79
BRANCH  67  90
ATOM     90  C   UNL     1     -11.184  -0.061   5.011  1.00  0.00     0.023 A 
ATOM     91  C   UNL     1      -9.894   0.018   4.446  1.00  0.00     0.012 A 
ATOM     92  C   UNL     1     -12.305  -0.068   4.169  1.00  0.00     0.148 A 
ATOM     93  C   UNL     1      -9.731   0.093   3.060  1.00  0.00     0.002 A 
ATOM     94  C   UNL     1     -12.137  -0.032   2.793  1.00  0.00     0.091 A 
ATOM     95  F   UNL     1     -13.518  -0.149   4.736  1.00  0.00    -0.205 F 
ATOM     96  C   UNL     1     -10.852   0.056   2.232  1.00  0.00     0.022 A 
BRANCH  94  97
ATOM     97  S   UNL     1     -13.528  -0.184   1.673  1.00  0.00     0.127 S 
ATOM     98  O   UNL     1     -13.567   1.137   1.050  1.00  0.00    -0.237 OA
ATOM     99  O   UNL     1     -13.092  -1.267   0.789  1.00  0.00    -0.237 OA
ATOM    100  O   UNL     1     -14.682  -0.516   2.500  1.00  0.00    -0.744 OA
ENDBRANCH  94  97
ENDBRANCH  67  90
ENDBRANCH  41  42
ENDBRANCH  33  36
ENDBRANCH  31  32
ENDBRANCH   1  31
TORSDOF 16
