REMARK SMILES CCN1C(=O)N/C(=C/c2cc(Cl)c(OCc3cccc(C(=O)NCCCCNC(=O)c4ccc(-c5c6nc(c(-c7cccc(S(=O)(=O)[O-])c7F)c7ccc([nH]7)c(-c7cccc(S(=O)(=O)[O-])c7F)c7nc(c(-c8cccc(S(=O)(=O)[O-])c8F)c8ccc5[nH]8)C=C7)C=C6)cc4)c3)c(OC)c2)C1=O
REMARK SMILES IDX 24 1 23 2 21 3 22 4 20 6 16 7 17 8 94 9 18 10 19 11 15 12
REMARK SMILES IDX 14 13 13 14 9 15 10 16 98 17 11 18 95 19 12 20 8 21 3 22
REMARK SMILES IDX 4 23 99 24 5 25 6 26 7 27 100 28 2 30 1 31 96 32 97 33 25 34
REMARK SMILES IDX 26 35 27 36 28 37 29 38 30 40 31 41 32 42 93 43 33 44 92 45
REMARK SMILES IDX 34 46 35 47 36 48 86 49 37 50 91 51 85 52 87 53 38 54 90 55
REMARK SMILES IDX 84 56 83 57 39 59 71 60 51 61 70 62 52 63 55 64 69 65 88 66
REMARK SMILES IDX 53 67 54 68 68 70 89 71 56 72 40 73 41 74 49 75 42 76 44 77
REMARK SMILES IDX 50 78 43 79 45 80 46 81 47 82 48 83 72 84 73 85 81 86 74 87
REMARK SMILES IDX 76 88 82 89 75 90 77 91 78 92 79 93 80 94 57 95 58 96 66 97
REMARK SMILES IDX 59 98 61 99 67 100 60 101 62 102 63 103 64 104 65 105
REMARK H PARENT 23 5 6 29 28 39 87 58 55 69
REMARK Flexibility Score: inf
ROOT
ATOM      1  C   UNL     1       8.058   4.407  -7.641  1.00  0.00     0.116 C 
ENDROOT
BRANCH   1   2
ATOM      2  N   UNL     1       7.467   5.294  -6.649  1.00  0.00    -0.352 N 
ATOM      3  C   UNL     1       6.707   5.039  -5.525  1.00  0.00     0.251 C 
ATOM      4  O   UNL     1       6.345   5.983  -4.825  1.00  0.00    -0.269 OA
ATOM      5  H   UNL     1       7.641   6.249  -6.808  1.00  0.00     0.163 HD
BRANCH   3   6
ATOM      6  C   UNL     1       6.233   3.669  -5.193  1.00  0.00     0.040 A 
ATOM      7  C   UNL     1       6.359   1.264  -5.584  1.00  0.00    -0.010 A 
ATOM      8  C   UNL     1       5.067   1.145  -5.065  1.00  0.00     0.007 A 
ATOM      9  C   UNL     1       6.971   2.525  -5.497  1.00  0.00     0.021 A 
ATOM     10  C   UNL     1       4.399   2.254  -4.534  1.00  0.00     0.001 A 
ATOM     11  C   UNL     1       4.962   3.523  -4.635  1.00  0.00     0.014 A 
BRANCH   7  12
ATOM     12  C   UNL     1       7.167   0.173  -6.277  1.00  0.00     0.265 C 
BRANCH  12  13
ATOM     13  O   UNL     1       6.528  -0.949  -6.889  1.00  0.00    -0.483 OA
BRANCH  13  14
ATOM     14  C   UNL     1       5.729  -1.782  -6.159  1.00  0.00     0.180 A 
ATOM     15  C   UNL     1       3.717  -3.187  -4.806  1.00  0.00    -0.018 A 
ATOM     16  C   UNL     1       4.887  -2.816  -4.141  1.00  0.00     0.033 A 
ATOM     17  C   UNL     1       3.599  -2.966  -6.179  1.00  0.00     0.058 A 
ATOM     18  C   UNL     1       5.903  -2.138  -4.815  1.00  0.00     0.087 A 
ATOM     19  C   UNL     1       4.608  -2.282  -6.864  1.00  0.00     0.162 A 
ATOM     20  Cl  UNL     1       7.326  -1.822  -3.889  1.00  0.00    -0.080 Cl
BRANCH  15  21
ATOM     21  C   UNL     1       2.619  -3.787  -4.052  1.00  0.00     0.040 C 
ATOM     22  N   UNL     1       0.774  -1.470  -2.021  1.00  0.00    -0.259 N 
ATOM     23  C   UNL     1       0.185  -2.681  -1.734  1.00  0.00     0.328 C 
ATOM     24  C   UNL     1       1.789  -1.615  -2.938  1.00  0.00     0.278 C 
ATOM     25  O   UNL     1      -0.731  -2.902  -0.959  1.00  0.00    -0.248 OA
ATOM     26  N   UNL     1       0.825  -3.652  -2.485  1.00  0.00    -0.303 N 
ATOM     27  C   UNL     1       1.816  -3.093  -3.238  1.00  0.00     0.109 C 
ATOM     28  O   UNL     1       2.499  -0.756  -3.417  1.00  0.00    -0.267 OA
ATOM     29  H   UNL     1       0.598  -4.610  -2.478  1.00  0.00     0.172 HD
BRANCH  22  30
ATOM     30  C   UNL     1       0.368  -0.209  -1.436  1.00  0.00     0.127 C 
ATOM     31  C   UNL     1       0.951  -0.021  -0.044  1.00  0.00     0.028 C 
ENDBRANCH  22  30
ENDBRANCH  15  21
BRANCH  19  32
ATOM     32  O   UNL     1       4.549  -1.998  -8.210  1.00  0.00    -0.493 OA
ATOM     33  C   UNL     1       3.692  -2.809  -9.007  1.00  0.00     0.278 C 
ENDBRANCH  19  32
ENDBRANCH  13  14
ENDBRANCH  12  13
ENDBRANCH   7  12
ENDBRANCH   3   6
ENDBRANCH   1   2
BRANCH   1  34
ATOM     34  C   UNL     1       7.724   4.737  -9.087  1.00  0.00     0.023 C 
BRANCH  34  35
ATOM     35  C   UNL     1       8.253   6.062  -9.606  1.00  0.00     0.023 C 
BRANCH  35  36
ATOM     36  C   UNL     1       9.725   6.329  -9.333  1.00  0.00     0.116 C 
BRANCH  36  37
ATOM     37  N   UNL     1      10.615   5.299  -9.854  1.00  0.00    -0.352 N 
ATOM     38  C   UNL     1      11.768   5.450 -10.590  1.00  0.00     0.251 C 
ATOM     39  H   UNL     1      10.358   4.370  -9.651  1.00  0.00     0.163 HD
ATOM     40  O   UNL     1      12.349   4.465 -11.037  1.00  0.00    -0.269 OA
BRANCH  38  41
ATOM     41  C   UNL     1      12.279   6.809 -10.863  1.00  0.00     0.039 A 
ATOM     42  C   UNL     1      12.662   7.145 -12.164  1.00  0.00     0.014 A 
ATOM     43  C   UNL     1      12.337   7.762  -9.843  1.00  0.00     0.014 A 
ATOM     44  C   UNL     1      13.052   8.455 -12.449  1.00  0.00     0.010 A 
ATOM     45  C   UNL     1      12.620   9.086 -10.152  1.00  0.00     0.010 A 
ATOM     46  C   UNL     1      13.008   9.443 -11.452  1.00  0.00    -0.014 A 
BRANCH  46  47
ATOM     47  C   UNL     1      13.409  10.846 -11.731  1.00  0.00     0.031 A 
ATOM     48  C   UNL     1      14.565  11.453 -10.979  1.00  0.00     0.074 A 
ATOM     49  C   UNL     1      12.699  11.593 -12.599  1.00  0.00     0.049 A 
ATOM     50  N   UNL     1      15.040  12.670 -11.038  1.00  0.00    -0.248 NA
ATOM     51  C   UNL     1      15.259  10.589 -10.007  1.00  0.00     0.031 C 
ATOM     52  C   UNL     1      11.512  11.147 -13.332  1.00  0.00     0.029 A 
ATOM     53  N   UNL     1      12.861  12.898 -12.996  1.00  0.00    -0.354 N 
ATOM     54  C   UNL     1      16.054  12.727 -10.088  1.00  0.00     0.074 A 
ATOM     55  C   UNL     1      16.094  11.440  -9.432  1.00  0.00     0.031 C 
ATOM     56  C   UNL     1      11.062  12.154 -14.097  1.00  0.00     0.029 A 
ATOM     57  C   UNL     1      11.905  13.328 -13.886  1.00  0.00     0.049 A 
ATOM     58  H   UNL     1      13.593  13.472 -12.673  1.00  0.00     0.167 HD
ATOM     59  C   UNL     1      16.900  13.745  -9.808  1.00  0.00     0.034 A 
ATOM     60  C   UNL     1      11.724  14.533 -14.461  1.00  0.00     0.034 A 
ATOM     61  C   UNL     1      16.886  15.008 -10.492  1.00  0.00     0.049 A 
ATOM     62  C   UNL     1      12.702  15.638 -14.161  1.00  0.00     0.074 A 
ATOM     63  C   UNL     1      17.752  16.076 -10.344  1.00  0.00     0.029 A 
ATOM     64  N   UNL     1      15.952  15.378 -11.447  1.00  0.00    -0.354 N 
ATOM     65  N   UNL     1      13.746  15.625 -13.368  1.00  0.00    -0.248 NA
ATOM     66  C   UNL     1      12.502  16.912 -14.867  1.00  0.00     0.031 C 
ATOM     67  C   UNL     1      17.320  17.106 -11.185  1.00  0.00     0.029 A 
ATOM     68  C   UNL     1      16.215  16.661 -11.893  1.00  0.00     0.049 A 
ATOM     69  H   UNL     1      15.211  14.811 -11.762  1.00  0.00     0.167 HD
ATOM     70  C   UNL     1      14.353  16.867 -13.515  1.00  0.00     0.074 A 
ATOM     71  C   UNL     1      13.567  17.602 -14.484  1.00  0.00     0.031 C 
ATOM     72  C   UNL     1      15.456  17.358 -12.899  1.00  0.00     0.034 A 
BRANCH  59  73
ATOM     73  C   UNL     1      17.941  13.517  -8.742  1.00  0.00     0.023 A 
ATOM     74  C   UNL     1      18.996  12.610  -8.973  1.00  0.00     0.012 A 
ATOM     75  C   UNL     1      17.902  14.234  -7.530  1.00  0.00     0.148 A 
ATOM     76  C   UNL     1      19.969  12.386  -8.000  1.00  0.00     0.002 A 
ATOM     77  C   UNL     1      18.905  14.046  -6.587  1.00  0.00     0.091 A 
ATOM     78  F   UNL     1      16.881  15.077  -7.319  1.00  0.00    -0.205 F 
ATOM     79  C   UNL     1      19.930  13.112  -6.813  1.00  0.00     0.022 A 
BRANCH  77  80
ATOM     80  S   UNL     1      18.994  14.994  -5.064  1.00  0.00     0.127 S 
ATOM     81  O   UNL     1      18.714  13.967  -4.061  1.00  0.00    -0.237 OA
ATOM     82  O   UNL     1      20.379  15.467  -5.081  1.00  0.00    -0.237 OA
ATOM     83  O   UNL     1      17.991  16.041  -5.181  1.00  0.00    -0.744 OA
ENDBRANCH  77  80
ENDBRANCH  59  73
BRANCH  60  84
ATOM     84  C   UNL     1      10.608  14.743 -15.428  1.00  0.00     0.023 A 
ATOM     85  C   UNL     1      10.898  14.942 -16.792  1.00  0.00     0.012 A 
ATOM     86  C   UNL     1       9.265  14.740 -15.006  1.00  0.00     0.148 A 
ATOM     87  C   UNL     1       9.875  15.174 -17.712  1.00  0.00     0.002 A 
ATOM     88  C   UNL     1       8.247  14.915 -15.936  1.00  0.00     0.091 A 
ATOM     89  F   UNL     1       9.010  14.556 -13.703  1.00  0.00    -0.205 F 
ATOM     90  C   UNL     1       8.550  15.152 -17.286  1.00  0.00     0.022 A 
BRANCH  88  91
ATOM     91  S   UNL     1       6.510  14.778 -15.502  1.00  0.00     0.127 S 
ATOM     92  O   UNL     1       6.048  16.152 -15.682  1.00  0.00    -0.237 OA
ATOM     93  O   UNL     1       6.025  13.828 -16.504  1.00  0.00    -0.237 OA
ATOM     94  O   UNL     1       6.482  14.276 -14.135  1.00  0.00    -0.744 OA
ENDBRANCH  88  91
ENDBRANCH  60  84
BRANCH  72  95
ATOM     95  C   UNL     1      15.930  18.732 -13.297  1.00  0.00     0.023 A 
ATOM     96  C   UNL     1      15.197  19.874 -12.922  1.00  0.00     0.012 A 
ATOM     97  C   UNL     1      17.151  18.888 -13.984  1.00  0.00     0.148 A 
ATOM     98  C   UNL     1      15.651  21.149 -13.259  1.00  0.00     0.002 A 
ATOM     99  C   UNL     1      17.625  20.162 -14.266  1.00  0.00     0.091 A 
ATOM    100  F   UNL     1      17.825  17.787 -14.347  1.00  0.00    -0.205 F 
ATOM    101  C   UNL     1      16.870  21.293 -13.919  1.00  0.00     0.022 A 
BRANCH  99 102
ATOM    102  S   UNL     1      19.232  20.445 -15.018  1.00  0.00     0.127 S 
ATOM    103  O   UNL     1      18.858  20.902 -16.355  1.00  0.00    -0.237 OA
ATOM    104  O   UNL     1      19.799  21.481 -14.154  1.00  0.00    -0.237 OA
ATOM    105  O   UNL     1      19.931  19.168 -14.968  1.00  0.00    -0.744 OA
ENDBRANCH  99 102
ENDBRANCH  72  95
ENDBRANCH  46  47
ENDBRANCH  38  41
ENDBRANCH  36  37
ENDBRANCH  35  36
ENDBRANCH  34  35
ENDBRANCH   1  34
TORSDOF 20
