REMARK SMILES CC(C)[N@@H+](C)Cc1cc2c(cc1Cl)C=C(C(=O)NCCCCNC(=O)c1ccc(-c3c4nc(c(-c5cccc(S(=O)(=O)[O-])c5F)c5ccc([nH]5)c(-c5cccc(S(=O)(=O)[O-])c5F)c5nc(c(-c6cccc(S(=O)(=O)[O-])c6F)c6ccc3[nH]6)C=C5)C=C4)cc1)[C@@H](C(F)(F)F)O2
REMARK SMILES IDX 20 1 19 2 18 3 16 4 17 5 15 7 7 8 8 9 12 10 9 11 11 12 13 13
REMARK SMILES IDX 10 14 94 15 14 16 89 17 6 18 4 19 5 20 2 22 1 23 3 24 90 25
REMARK SMILES IDX 91 26 92 27 93 28 21 29 22 30 23 31 24 32 25 34 26 35 27 36
REMARK SMILES IDX 88 37 28 38 87 39 29 40 30 41 31 42 81 43 32 44 86 45 80 46
REMARK SMILES IDX 82 47 33 48 85 49 79 50 78 51 34 53 66 54 46 55 65 56 47 57
REMARK SMILES IDX 50 58 64 59 83 60 48 61 49 62 63 64 84 65 51 66 35 67 36 68
REMARK SMILES IDX 44 69 37 70 39 71 45 72 38 73 40 74 41 75 42 76 43 77 67 78
REMARK SMILES IDX 68 79 76 80 69 81 71 82 77 83 70 84 72 85 73 86 74 87 75 88
REMARK SMILES IDX 52 89 53 90 61 91 54 92 56 93 62 94 55 95 57 96 58 97 59 98
REMARK SMILES IDX 60 99
REMARK H PARENT 18 6 4 21 23 33 82 52 50 63
REMARK Flexibility Score: inf
ROOT
ATOM      1  C   UNL     1       1.320  -4.429   9.477  1.00  0.00     0.023 C 
ENDROOT
BRANCH   1   2
ATOM      2  C   UNL     1       2.209  -4.882   8.324  1.00  0.00     0.116 C 
BRANCH   2   3
ATOM      3  N   UNL     1       1.629  -5.989   7.584  1.00  0.00    -0.352 N 
ATOM      4  C   UNL     1       0.935  -6.142   6.433  1.00  0.00     0.251 C 
ATOM      5  O   UNL     1       0.606  -7.300   6.156  1.00  0.00    -0.270 OA
ATOM      6  H   UNL     1       1.780  -6.850   8.037  1.00  0.00     0.163 HD
BRANCH   4   7
ATOM      7  C   UNL     1       0.558  -5.032   5.506  1.00  0.00     0.067 C 
ATOM      8  C   UNL     1      -1.424  -2.398   1.664  1.00  0.00     0.029 A 
ATOM      9  C   UNL     1      -0.604  -2.091   2.765  1.00  0.00     0.058 A 
ATOM     10  C   UNL     1      -1.991  -3.682   1.616  1.00  0.00     0.050 A 
ATOM     11  C   UNL     1      -0.271  -3.057   3.712  1.00  0.00     0.128 A 
ATOM     12  C   UNL     1      -1.652  -4.652   2.571  1.00  0.00     0.033 A 
ATOM     13  Cl  UNL     1      -3.182  -4.131   0.447  1.00  0.00    -0.084 Cl
ATOM     14  C   UNL     1      -0.771  -4.348   3.610  1.00  0.00     0.019 A 
ATOM     15  O   UNL     1       0.535  -2.647   4.730  1.00  0.00    -0.475 OA
ATOM     16  C   UNL     1      -0.391  -5.342   4.602  1.00  0.00     0.025 C 
ATOM     17  C   UNL     1       1.213  -3.678   5.500  1.00  0.00     0.314 C 
BRANCH   8  18
ATOM     18  C   UNL     1      -1.653  -1.320   0.625  1.00  0.00     0.300 C 
BRANCH  18  19
ATOM     19  N   UNL     1      -0.831  -1.340  -0.593  1.00  0.00    -0.332 N 
ATOM     20  C   UNL     1      -1.229  -2.346  -1.567  1.00  0.00     0.333 C 
ATOM     21  H   UNL     1      -1.093  -0.420  -0.947  1.00  0.00     0.348 HD
BRANCH  19  22
ATOM     22  C   UNL     1       0.627  -1.161  -0.513  1.00  0.00     0.177 C 
ATOM     23  C   UNL     1       1.018   0.164   0.150  1.00  0.00     0.075 C 
ATOM     24  C   UNL     1       1.435  -2.321   0.081  1.00  0.00     0.075 C 
ENDBRANCH  19  22
ENDBRANCH  18  19
ENDBRANCH   8  18
BRANCH  17  25
ATOM     25  C   UNL     1       2.687  -3.716   5.057  1.00  0.00     0.429 C 
ATOM     26  F   UNL     1       3.305  -2.551   5.382  1.00  0.00    -0.167 F 
ATOM     27  F   UNL     1       3.393  -4.702   5.653  1.00  0.00    -0.167 F 
ATOM     28  F   UNL     1       2.819  -3.882   3.721  1.00  0.00    -0.167 F 
ENDBRANCH  17  25
ENDBRANCH   4   7
ENDBRANCH   2   3
ENDBRANCH   1   2
BRANCH   1  29
ATOM     29  C   UNL     1       1.466  -5.267  10.749  1.00  0.00     0.023 C 
BRANCH  29  30
ATOM     30  C   UNL     1       2.893  -5.432  11.268  1.00  0.00     0.116 C 
BRANCH  30  31
ATOM     31  N   UNL     1       3.633  -4.183  11.393  1.00  0.00    -0.352 N 
ATOM     32  C   UNL     1       4.642  -3.879  12.280  1.00  0.00     0.251 C 
ATOM     33  H   UNL     1       3.380  -3.467  10.765  1.00  0.00     0.163 HD
ATOM     34  O   UNL     1       5.128  -2.753  12.303  1.00  0.00    -0.269 OA
BRANCH  32  35
ATOM     35  C   UNL     1       5.082  -4.916  13.235  1.00  0.00     0.039 A 
ATOM     36  C   UNL     1       5.400  -6.196  12.780  1.00  0.00     0.014 A 
ATOM     37  C   UNL     1       5.075  -4.627  14.601  1.00  0.00     0.014 A 
ATOM     38  C   UNL     1       5.530  -7.231  13.697  1.00  0.00     0.010 A 
ATOM     39  C   UNL     1       5.288  -5.656  15.522  1.00  0.00     0.010 A 
ATOM     40  C   UNL     1       5.457  -6.977  15.078  1.00  0.00    -0.014 A 
BRANCH  40  41
ATOM     41  C   UNL     1       5.545  -8.114  16.029  1.00  0.00     0.031 A 
ATOM     42  C   UNL     1       4.374  -8.487  16.900  1.00  0.00     0.074 A 
ATOM     43  C   UNL     1       6.672  -8.850  16.063  1.00  0.00     0.049 A 
ATOM     44  N   UNL     1       4.267  -9.482  17.744  1.00  0.00    -0.248 NA
ATOM     45  C   UNL     1       3.171  -7.642  16.821  1.00  0.00     0.031 C 
ATOM     46  C   UNL     1       7.879  -8.575  15.280  1.00  0.00     0.029 A 
ATOM     47  N   UNL     1       6.980  -9.989  16.761  1.00  0.00    -0.354 N 
ATOM     48  C   UNL     1       3.012  -9.357  18.327  1.00  0.00     0.074 A 
ATOM     49  C   UNL     1       2.388  -8.191  17.742  1.00  0.00     0.031 C 
ATOM     50  C   UNL     1       8.776  -9.546  15.502  1.00  0.00     0.029 A 
ATOM     51  C   UNL     1       8.230 -10.485  16.477  1.00  0.00     0.049 A 
ATOM     52  H   UNL     1       6.366 -10.410  17.405  1.00  0.00     0.167 HD
ATOM     53  C   UNL     1       2.424 -10.155  19.248  1.00  0.00     0.034 A 
ATOM     54  C   UNL     1       8.870 -11.573  16.945  1.00  0.00     0.034 A 
ATOM     55  C   UNL     1       3.014 -11.353  19.779  1.00  0.00     0.049 A 
ATOM     56  C   UNL     1       8.183 -12.456  17.944  1.00  0.00     0.074 A 
ATOM     57  C   UNL     1       2.465 -12.256  20.673  1.00  0.00     0.029 A 
ATOM     58  N   UNL     1       4.279 -11.821  19.461  1.00  0.00    -0.354 N 
ATOM     59  N   UNL     1       6.965 -12.363  18.419  1.00  0.00    -0.248 NA
ATOM     60  C   UNL     1       8.951 -13.595  18.467  1.00  0.00     0.031 C 
ATOM     61  C   UNL     1       3.399 -13.272  20.896  1.00  0.00     0.029 A 
ATOM     62  C   UNL     1       4.529 -12.999  20.143  1.00  0.00     0.049 A 
ATOM     63  H   UNL     1       4.906 -11.381  18.843  1.00  0.00     0.167 HD
ATOM     64  C   UNL     1       6.818 -13.431  19.294  1.00  0.00     0.074 A 
ATOM     65  C   UNL     1       8.061 -14.174  19.264  1.00  0.00     0.031 C 
ATOM     66  C   UNL     1       5.755 -13.749  20.072  1.00  0.00     0.034 A 
BRANCH  53  67
ATOM     67  C   UNL     1       1.036  -9.804  19.709  1.00  0.00     0.023 A 
ATOM     68  C   UNL     1      -0.065 -10.172  18.911  1.00  0.00     0.012 A 
ATOM     69  C   UNL     1       0.817  -9.213  20.969  1.00  0.00     0.148 A 
ATOM     70  C   UNL     1      -1.367  -9.952  19.358  1.00  0.00     0.002 A 
ATOM     71  C   UNL     1      -0.484  -9.020  21.418  1.00  0.00     0.091 A 
ATOM     72  F   UNL     1       1.883  -8.861  21.702  1.00  0.00    -0.205 F 
ATOM     73  C   UNL     1      -1.576  -9.386  20.613  1.00  0.00     0.022 A 
BRANCH  71  74
ATOM     74  S   UNL     1      -0.866  -8.346  23.039  1.00  0.00     0.127 S 
ATOM     75  O   UNL     1      -1.492  -7.072  22.686  1.00  0.00    -0.237 OA
ATOM     76  O   UNL     1      -1.785  -9.348  23.579  1.00  0.00    -0.237 OA
ATOM     77  O   UNL     1       0.404  -8.238  23.741  1.00  0.00    -0.744 OA
ENDBRANCH  71  74
ENDBRANCH  53  67
BRANCH  54  78
ATOM     78  C   UNL     1      10.220 -11.902  16.415  1.00  0.00     0.023 A 
ATOM     79  C   UNL     1      10.358 -12.959  15.497  1.00  0.00     0.012 A 
ATOM     80  C   UNL     1      11.341 -11.115  16.740  1.00  0.00     0.148 A 
ATOM     81  C   UNL     1      11.594 -13.229  14.910  1.00  0.00     0.002 A 
ATOM     82  C   UNL     1      12.558 -11.359  16.117  1.00  0.00     0.091 A 
ATOM     83  F   UNL     1      11.181 -10.120  17.624  1.00  0.00    -0.205 F 
ATOM     84  C   UNL     1      12.689 -12.421  15.209  1.00  0.00     0.022 A 
BRANCH  82  85
ATOM     85  S   UNL     1      13.989 -10.297  16.343  1.00  0.00     0.127 S 
ATOM     86  O   UNL     1      14.908 -11.183  17.052  1.00  0.00    -0.237 OA
ATOM     87  O   UNL     1      14.362  -9.999  14.960  1.00  0.00    -0.237 OA
ATOM     88  O   UNL     1      13.512  -9.148  17.100  1.00  0.00    -0.744 OA
ENDBRANCH  82  85
ENDBRANCH  54  78
BRANCH  66  89
ATOM     89  C   UNL     1       5.879 -14.944  20.973  1.00  0.00     0.023 A 
ATOM     90  C   UNL     1       6.557 -14.806  22.198  1.00  0.00     0.012 A 
ATOM     91  C   UNL     1       5.228 -16.154  20.667  1.00  0.00     0.148 A 
ATOM     92  C   UNL     1       6.591 -15.860  23.109  1.00  0.00     0.002 A 
ATOM     93  C   UNL     1       5.240 -17.191  21.593  1.00  0.00     0.091 A 
ATOM     94  F   UNL     1       4.597 -16.260  19.488  1.00  0.00    -0.205 F 
ATOM     95  C   UNL     1       5.924 -17.047  22.812  1.00  0.00     0.022 A 
BRANCH  93  96
ATOM     96  S   UNL     1       4.353 -18.731  21.334  1.00  0.00     0.127 S 
ATOM     97  O   UNL     1       5.450 -19.687  21.194  1.00  0.00    -0.237 OA
ATOM     98  O   UNL     1       3.586 -18.857  22.574  1.00  0.00    -0.237 OA
ATOM     99  O   UNL     1       3.545 -18.535  20.138  1.00  0.00    -0.744 OA
ENDBRANCH  93  96
ENDBRANCH  66  89
ENDBRANCH  40  41
ENDBRANCH  32  35
ENDBRANCH  30  31
ENDBRANCH  29  30
ENDBRANCH   1  29
TORSDOF 18
