REMARK SMILES [NH3+]Cc1c(-c2ccccc2)c(C(=O)NCCCCNC(=O)c2ccc(-c3c4nc(c(-c5cccc(S(=O)(=O)[O-])c5F)c5ccc([nH]5)c(-c5cccc(S(=O)(=O)[O-])c5F)c5nc(c(-c6cccc(S(=O)(=O)[O-])c6F)c6ccc3[nH]6)C=C5)C=C4)cc2)c2ccccn12
REMARK SMILES IDX 17 1 16 2 15 3 14 4 12 5 13 6 11 8 3 9 4 10 90 11 85 12
REMARK SMILES IDX 89 13 86 14 88 15 87 16 2 17 1 18 5 22 6 23 10 24 7 25 9 26
REMARK SMILES IDX 8 27 18 28 19 29 20 30 21 32 22 33 23 34 84 35 24 36 83 37
REMARK SMILES IDX 25 38 26 39 27 40 77 41 28 42 82 43 76 44 78 45 29 46 81 47
REMARK SMILES IDX 75 48 74 49 30 51 62 52 42 53 61 54 43 55 46 56 60 57 79 58
REMARK SMILES IDX 44 59 45 60 59 62 80 63 47 64 31 65 32 66 40 67 33 68 35 69
REMARK SMILES IDX 41 70 34 71 36 72 37 73 38 74 39 75 63 76 64 77 72 78 65 79
REMARK SMILES IDX 67 80 73 81 66 82 68 83 69 84 70 85 71 86 48 87 49 88 57 89
REMARK SMILES IDX 50 90 52 91 58 92 51 93 53 94 54 95 55 96 56 97
REMARK H PARENT 14 7 1 19 1 20 1 21 19 31 78 50 46 61
REMARK Flexibility Score: inf
ROOT
ATOM      1  C   UNL     1       1.297   1.993   9.452  1.00  0.00     0.023 C 
ENDROOT
BRANCH   1   2
ATOM      2  C   UNL     1       0.542   1.961   8.126  1.00  0.00     0.023 C 
BRANCH   2   3
ATOM      3  C   UNL     1       1.365   1.778   6.856  1.00  0.00     0.116 C 
BRANCH   3   4
ATOM      4  N   UNL     1       2.162   0.571   6.784  1.00  0.00    -0.352 N 
ATOM      5  C   UNL     1       2.537  -0.193   5.696  1.00  0.00     0.254 C 
ATOM      6  O   UNL     1       3.307  -1.125   5.915  1.00  0.00    -0.269 OA
ATOM      7  H   UNL     1       2.489   0.241   7.652  1.00  0.00     0.163 HD
BRANCH   5   8
ATOM      8  C   UNL     1       1.974   0.044   4.360  1.00  0.00     0.073 A 
ATOM      9  C   UNL     1       1.039  -0.373   2.295  1.00  0.00     0.086 A 
ATOM     10  C   UNL     1       1.670  -0.975   3.382  1.00  0.00     0.022 A 
ATOM     11  N   UNL     1       0.947   0.976   2.583  1.00  0.00    -0.314 N 
ATOM     12  C   UNL     1       1.727   1.246   3.706  1.00  0.00     0.059 A 
ATOM     13  C   UNL     1       0.243   1.978   1.903  1.00  0.00     0.092 A 
ATOM     14  C   UNL     1       2.024   2.622   3.956  1.00  0.00     0.027 A 
ATOM     15  C   UNL     1       0.392   3.263   2.264  1.00  0.00     0.018 A 
ATOM     16  C   UNL     1       1.363   3.587   3.290  1.00  0.00     0.004 A 
BRANCH   9  17
ATOM     17  C   UNL     1       0.503  -0.965   1.034  1.00  0.00     0.315 C 
BRANCH  17  18
ATOM     18  N   UNL     1       1.297  -0.537  -0.114  1.00  0.00    -0.353 N 
ATOM     19  H   UNL     1       0.916  -0.952  -0.964  1.00  0.00     0.344 HD
ATOM     20  H   UNL     1       2.263  -0.841   0.009  1.00  0.00     0.344 HD
ATOM     21  H   UNL     1       1.267   0.480  -0.188  1.00  0.00     0.344 HD
ENDBRANCH  17  18
ENDBRANCH   9  17
BRANCH  10  22
ATOM     22  C   UNL     1       1.934  -2.406   3.438  1.00  0.00    -0.016 A 
ATOM     23  C   UNL     1       1.252  -3.227   4.340  1.00  0.00     0.009 A 
ATOM     24  C   UNL     1       2.899  -2.969   2.590  1.00  0.00     0.009 A 
ATOM     25  C   UNL     1       1.533  -4.596   4.393  1.00  0.00     0.001 A 
ATOM     26  C   UNL     1       3.175  -4.337   2.642  1.00  0.00     0.001 A 
ATOM     27  C   UNL     1       2.492  -5.149   3.544  1.00  0.00     0.000 A 
ENDBRANCH  10  22
ENDBRANCH   5   8
ENDBRANCH   3   4
ENDBRANCH   2   3
ENDBRANCH   1   2
BRANCH   1  28
ATOM     28  C   UNL     1       2.542   2.870   9.523  1.00  0.00     0.116 C 
BRANCH  28  29
ATOM     29  N   UNL     1       2.307   4.273   9.212  1.00  0.00    -0.352 N 
ATOM     30  C   UNL     1       2.578   5.406   9.946  1.00  0.00     0.251 C 
ATOM     31  H   UNL     1       1.887   4.438   8.336  1.00  0.00     0.163 HD
ATOM     32  O   UNL     1       2.244   6.504   9.507  1.00  0.00    -0.269 OA
BRANCH  30  33
ATOM     33  C   UNL     1       3.225   5.310  11.276  1.00  0.00     0.039 A 
ATOM     34  C   UNL     1       2.698   6.055  12.336  1.00  0.00     0.014 A 
ATOM     35  C   UNL     1       4.328   4.482  11.492  1.00  0.00     0.014 A 
ATOM     36  C   UNL     1       3.215   5.895  13.626  1.00  0.00     0.010 A 
ATOM     37  C   UNL     1       4.782   4.256  12.790  1.00  0.00     0.010 A 
ATOM     38  C   UNL     1       4.230   4.957  13.874  1.00  0.00    -0.014 A 
BRANCH  38  39
ATOM     39  C   UNL     1       4.707   4.677  15.256  1.00  0.00     0.031 A 
ATOM     40  C   UNL     1       6.149   4.907  15.629  1.00  0.00     0.074 A 
ATOM     41  C   UNL     1       3.865   4.124  16.153  1.00  0.00     0.049 A 
ATOM     42  N   UNL     1       6.753   4.674  16.766  1.00  0.00    -0.248 NA
ATOM     43  C   UNL     1       7.035   5.437  14.580  1.00  0.00     0.031 C 
ATOM     44  C   UNL     1       2.470   3.759  15.893  1.00  0.00     0.029 A 
ATOM     45  N   UNL     1       4.065   3.747  17.459  1.00  0.00    -0.354 N 
ATOM     46  C   UNL     1       8.091   4.989  16.559  1.00  0.00     0.074 A 
ATOM     47  C   UNL     1       8.218   5.394  15.176  1.00  0.00     0.031 C 
ATOM     48  C   UNL     1       1.940   3.220  17.003  1.00  0.00     0.029 A 
ATOM     49  C   UNL     1       2.959   3.176  18.047  1.00  0.00     0.049 A 
ATOM     50  H   UNL     1       4.920   3.873  17.930  1.00  0.00     0.167 HD
ATOM     51  C   UNL     1       9.116   4.977  17.444  1.00  0.00     0.034 A 
ATOM     52  C   UNL     1       2.783   2.674  19.285  1.00  0.00     0.034 A 
ATOM     53  C   UNL     1       8.978   4.629  18.832  1.00  0.00     0.049 A 
ATOM     54  C   UNL     1       3.920   2.737  20.269  1.00  0.00     0.074 A 
ATOM     55  C   UNL     1       9.934   4.685  19.832  1.00  0.00     0.029 A 
ATOM     56  N   UNL     1       7.814   4.157  19.418  1.00  0.00    -0.354 N 
ATOM     57  N   UNL     1       5.132   3.206  20.100  1.00  0.00    -0.248 NA
ATOM     58  C   UNL     1       3.653   2.239  21.627  1.00  0.00     0.031 C 
ATOM     59  C   UNL     1       9.351   4.230  21.020  1.00  0.00     0.029 A 
ATOM     60  C   UNL     1       8.027   3.912  20.764  1.00  0.00     0.049 A 
ATOM     61  H   UNL     1       6.962   4.016  18.947  1.00  0.00     0.167 HD
ATOM     62  C   UNL     1       5.760   3.093  21.335  1.00  0.00     0.074 A 
ATOM     63  C   UNL     1       4.786   2.534  22.250  1.00  0.00     0.031 C 
ATOM     64  C   UNL     1       7.034   3.409  21.678  1.00  0.00     0.034 A 
BRANCH  51  65
ATOM     65  C   UNL     1      10.471   5.417  16.952  1.00  0.00     0.023 A 
ATOM     66  C   UNL     1      10.692   6.779  16.658  1.00  0.00     0.012 A 
ATOM     67  C   UNL     1      11.537   4.504  16.836  1.00  0.00     0.148 A 
ATOM     68  C   UNL     1      11.940   7.219  16.221  1.00  0.00     0.002 A 
ATOM     69  C   UNL     1      12.791   4.958  16.443  1.00  0.00     0.091 A 
ATOM     70  F   UNL     1      11.304   3.211  17.100  1.00  0.00    -0.205 F 
ATOM     71  C   UNL     1      12.991   6.312  16.124  1.00  0.00     0.022 A 
BRANCH  69  72
ATOM     72  S   UNL     1      14.230   3.885  16.365  1.00  0.00     0.127 S 
ATOM     73  O   UNL     1      14.433   3.769  14.921  1.00  0.00    -0.237 OA
ATOM     74  O   UNL     1      15.244   4.679  17.060  1.00  0.00    -0.237 OA
ATOM     75  O   UNL     1      13.851   2.655  17.045  1.00  0.00    -0.744 OA
ENDBRANCH  69  72
ENDBRANCH  51  65
BRANCH  52  76
ATOM     76  C   UNL     1       1.450   2.143  19.692  1.00  0.00     0.023 A 
ATOM     77  C   UNL     1       0.673   2.866  20.619  1.00  0.00     0.012 A 
ATOM     78  C   UNL     1       0.936   0.949  19.151  1.00  0.00     0.148 A 
ATOM     79  C   UNL     1      -0.575   2.393  21.026  1.00  0.00     0.002 A 
ATOM     80  C   UNL     1      -0.332   0.511  19.518  1.00  0.00     0.091 A 
ATOM     81  F   UNL     1       1.694   0.268  18.279  1.00  0.00    -0.205 F 
ATOM     82  C   UNL     1      -1.081   1.222  20.469  1.00  0.00     0.022 A 
BRANCH  80  83
ATOM     83  S   UNL     1      -1.118  -0.911  18.753  1.00  0.00     0.127 S 
ATOM     84  O   UNL     1      -1.064  -1.898  19.828  1.00  0.00    -0.237 OA
ATOM     85  O   UNL     1      -2.455  -0.395  18.456  1.00  0.00    -0.237 OA
ATOM     86  O   UNL     1      -0.318  -1.212  17.573  1.00  0.00    -0.744 OA
ENDBRANCH  80  83
ENDBRANCH  52  76
BRANCH  64  87
ATOM     87  C   UNL     1       7.448   3.193  23.110  1.00  0.00     0.023 A 
ATOM     88  C   UNL     1       7.646   1.884  23.591  1.00  0.00     0.012 A 
ATOM     89  C   UNL     1       7.710   4.288  23.956  1.00  0.00     0.148 A 
ATOM     90  C   UNL     1       8.067   1.667  24.903  1.00  0.00     0.002 A 
ATOM     91  C   UNL     1       8.176   4.066  25.247  1.00  0.00     0.091 A 
ATOM     92  F   UNL     1       7.496   5.526  23.487  1.00  0.00    -0.205 F 
ATOM     93  C   UNL     1       8.343   2.756  25.726  1.00  0.00     0.022 A 
BRANCH  91  94
ATOM     94  S   UNL     1       8.648   5.410  26.341  1.00  0.00     0.127 S 
ATOM     95  O   UNL     1       7.526   5.441  27.277  1.00  0.00    -0.237 OA
ATOM     96  O   UNL     1       9.904   4.922  26.912  1.00  0.00    -0.237 OA
ATOM     97  O   UNL     1       8.790   6.585  25.491  1.00  0.00    -0.744 OA
ENDBRANCH  91  94
ENDBRANCH  64  87
ENDBRANCH  38  39
ENDBRANCH  30  33
ENDBRANCH  28  29
ENDBRANCH   1  28
TORSDOF 17
