REMARK SMILES COc1ccc([C@@H]2C(C#N)=C(N)N3C(=O)[C@H](CC(=O)NCCCCNC(=O)c4ccc(-c5c6nc(c(-c7cccc(S(=O)(=O)[O-])c7F)c7ccc([nH]7)c(-c7cccc(S(=O)(=O)[O-])c7F)c7nc(c(-c8cccc(S(=O)(=O)[O-])c8F)c8ccc5[nH]8)C=C7)C=C6)cc4)SC3=C2C#N)cc1
REMARK SMILES IDX 22 1 21 2 20 3 18 4 19 5 17 7 16 8 7 9 8 10 93 11 11 12
REMARK SMILES IDX 92 13 13 14 91 15 14 16 15 17 6 18 3 19 4 20 97 21 5 22
REMARK SMILES IDX 96 23 2 24 1 25 9 26 10 27 94 28 95 29 12 30 23 33 24 34
REMARK SMILES IDX 25 35 26 36 27 38 28 39 29 40 90 41 30 42 89 43 31 44 32 45
REMARK SMILES IDX 33 46 83 47 34 48 88 49 82 50 84 51 35 52 87 53 81 54 80 55
REMARK SMILES IDX 36 57 68 58 48 59 67 60 49 61 52 62 66 63 85 64 50 65 51 66
REMARK SMILES IDX 65 68 86 69 53 70 37 71 38 72 46 73 39 74 41 75 47 76 40 77
REMARK SMILES IDX 42 78 43 79 44 80 45 81 69 82 70 83 78 84 71 85 73 86 79 87
REMARK SMILES IDX 72 88 74 89 75 90 76 91 77 92 54 93 55 94 63 95 56 96 58 97
REMARK SMILES IDX 64 98 57 99 59 100 60 101 61 102 62 103
REMARK H PARENT 20 6 12 31 12 32 25 37 84 56 52 67
REMARK Flexibility Score: inf
ROOT
ATOM      1  C   UNL     1       6.641  -0.967  10.832  1.00  0.00     0.023 C 
ENDROOT
BRANCH   1   2
ATOM      2  C   UNL     1       7.346  -1.995   9.947  1.00  0.00     0.116 C 
BRANCH   2   3
ATOM      3  N   UNL     1       7.259  -3.318  10.528  1.00  0.00    -0.356 N 
ATOM      4  C   UNL     1       6.550  -4.402  10.107  1.00  0.00     0.221 C 
ATOM      5  O   UNL     1       6.459  -5.380  10.848  1.00  0.00    -0.275 OA
ATOM      6  H   UNL     1       7.788  -3.454  11.346  1.00  0.00     0.163 HD
BRANCH   4   7
ATOM      7  C   UNL     1       5.915  -4.417   8.730  1.00  0.00     0.125 C 
BRANCH   7   8
ATOM      8  C   UNL     1       4.448  -4.013   8.780  1.00  0.00     0.152 C 
ATOM      9  C   UNL     1       1.839  -0.789   6.187  1.00  0.00     0.107 C 
ATOM     10  C   UNL     1       2.937   0.051   6.804  1.00  0.00     0.083 C 
ATOM     11  C   UNL     1       2.170  -2.273   6.164  1.00  0.00     0.073 C 
ATOM     12  C   UNL     1       3.935  -0.520   7.516  1.00  0.00     0.126 C 
ATOM     13  C   UNL     1       3.188  -2.723   6.909  1.00  0.00     0.099 C 
ATOM     14  N   UNL     1       3.911  -1.899   7.730  1.00  0.00    -0.258 N 
ATOM     15  S   UNL     1       3.603  -4.386   7.184  1.00  0.00    -0.093 SA
ATOM     16  C   UNL     1       4.257  -2.514   8.927  1.00  0.00     0.247 C 
ATOM     17  O   UNL     1       4.254  -1.950  10.011  1.00  0.00    -0.273 OA
BRANCH   9  18
ATOM     18  C   UNL     1       1.477  -0.309   4.792  1.00  0.00    -0.034 A 
ATOM     19  C   UNL     1       0.731   0.386   2.191  1.00  0.00     0.118 A 
ATOM     20  C   UNL     1      -0.190   0.488   3.234  1.00  0.00     0.047 A 
ATOM     21  C   UNL     1       2.043  -0.005   2.457  1.00  0.00     0.047 A 
ATOM     22  C   UNL     1       0.176   0.139   4.530  1.00  0.00     0.008 A 
ATOM     23  C   UNL     1       2.418  -0.350   3.752  1.00  0.00     0.008 A 
BRANCH  19  24
ATOM     24  O   UNL     1       0.261   0.723   0.952  1.00  0.00    -0.497 OA
ATOM     25  C   UNL     1       0.848  -0.007  -0.119  1.00  0.00     0.278 C 
ENDBRANCH  19  24
ENDBRANCH   9  18
BRANCH  10  26
ATOM     26  C   UNL     1       2.879   1.472   6.645  1.00  0.00     0.100 C 
ATOM     27  N   UNL     1       2.851   2.625   6.523  1.00  0.00    -0.193 NA
ENDBRANCH  10  26
BRANCH  11  28
ATOM     28  C   UNL     1       1.302  -3.167   5.474  1.00  0.00     0.098 C 
ATOM     29  N   UNL     1       0.574  -3.887   4.924  1.00  0.00    -0.193 NA
ENDBRANCH  11  28
BRANCH  12  30
ATOM     30  N   UNL     1       4.989   0.226   7.980  1.00  0.00    -0.384 N 
ATOM     31  H   UNL     1       5.007   1.199   7.830  1.00  0.00     0.158 HD
ATOM     32  H   UNL     1       5.726  -0.211   8.464  1.00  0.00     0.158 HD
ENDBRANCH  12  30
ENDBRANCH   7   8
ENDBRANCH   4   7
ENDBRANCH   2   3
ENDBRANCH   1   2
BRANCH   1  33
ATOM     33  C   UNL     1       7.457  -0.362  11.945  1.00  0.00     0.023 C 
BRANCH  33  34
ATOM     34  C   UNL     1       8.742   0.276  11.483  1.00  0.00     0.116 C 
BRANCH  34  35
ATOM     35  N   UNL     1       8.553   1.312  10.471  1.00  0.00    -0.352 N 
ATOM     36  C   UNL     1       8.985   2.619  10.497  1.00  0.00     0.251 C 
ATOM     37  H   UNL     1       8.052   1.042   9.668  1.00  0.00     0.163 HD
ATOM     38  O   UNL     1       8.643   3.408   9.624  1.00  0.00    -0.269 OA
BRANCH  36  39
ATOM     39  C   UNL     1       9.835   3.046  11.625  1.00  0.00     0.039 A 
ATOM     40  C   UNL     1       9.503   4.196  12.339  1.00  0.00     0.014 A 
ATOM     41  C   UNL     1      10.871   2.214  12.054  1.00  0.00     0.014 A 
ATOM     42  C   UNL     1      10.162   4.460  13.539  1.00  0.00     0.010 A 
ATOM     43  C   UNL     1      11.400   2.392  13.321  1.00  0.00     0.010 A 
ATOM     44  C   UNL     1      11.078   3.533  14.066  1.00  0.00    -0.014 A 
BRANCH  44  45
ATOM     45  C   UNL     1      11.736   3.745  15.379  1.00  0.00     0.031 A 
ATOM     46  C   UNL     1      13.240   3.776  15.461  1.00  0.00     0.074 A 
ATOM     47  C   UNL     1      10.992   3.841  16.499  1.00  0.00     0.049 A 
ATOM     48  N   UNL     1      14.004   3.912  16.512  1.00  0.00    -0.248 NA
ATOM     49  C   UNL     1      13.988   3.593  14.203  1.00  0.00     0.031 C 
ATOM     50  C   UNL     1       9.531   3.739  16.562  1.00  0.00     0.029 A 
ATOM     51  N   UNL     1      11.365   4.029  17.806  1.00  0.00    -0.354 N 
ATOM     52  C   UNL     1      15.308   3.795  16.049  1.00  0.00     0.074 A 
ATOM     53  C   UNL     1      15.236   3.516  14.635  1.00  0.00     0.031 C 
ATOM     54  C   UNL     1       9.132   3.897  17.834  1.00  0.00     0.029 A 
ATOM     55  C   UNL     1      10.306   4.061  18.684  1.00  0.00     0.049 A 
ATOM     56  H   UNL     1      12.302   4.132  18.089  1.00  0.00     0.167 HD
ATOM     57  C   UNL     1      16.467   3.942  16.730  1.00  0.00     0.034 A 
ATOM     58  C   UNL     1      10.286   4.195  20.024  1.00  0.00     0.034 A 
ATOM     59  C   UNL     1      16.535   4.249  18.130  1.00  0.00     0.049 A 
ATOM     60  C   UNL     1      11.588   4.371  20.757  1.00  0.00     0.074 A 
ATOM     61  C   UNL     1      17.656   4.498  18.900  1.00  0.00     0.029 A 
ATOM     62  N   UNL     1      15.440   4.328  18.976  1.00  0.00    -0.354 N 
ATOM     63  N   UNL     1      12.808   4.403  20.277  1.00  0.00    -0.248 NA
ATOM     64  C   UNL     1      11.510   4.563  22.211  1.00  0.00     0.031 C 
ATOM     65  C   UNL     1      17.242   4.673  20.224  1.00  0.00     0.029 A 
ATOM     66  C   UNL     1      15.859   4.601  20.265  1.00  0.00     0.049 A 
ATOM     67  H   UNL     1      14.503   4.208  18.699  1.00  0.00     0.167 HD
ATOM     68  C   UNL     1      13.637   4.661  21.362  1.00  0.00     0.074 A 
ATOM     69  C   UNL     1      12.778   4.795  22.520  1.00  0.00     0.031 C 
ATOM     70  C   UNL     1      14.988   4.771  21.399  1.00  0.00     0.034 A 
BRANCH  57  71
ATOM     71  C   UNL     1      17.754   3.797  15.960  1.00  0.00     0.023 A 
ATOM     72  C   UNL     1      18.109   4.756  14.987  1.00  0.00     0.012 A 
ATOM     73  C   UNL     1      18.634   2.732  16.231  1.00  0.00     0.148 A 
ATOM     74  C   UNL     1      19.297   4.633  14.269  1.00  0.00     0.002 A 
ATOM     75  C   UNL     1      19.841   2.647  15.551  1.00  0.00     0.091 A 
ATOM     76  F   UNL     1      18.268   1.818  17.142  1.00  0.00    -0.205 F 
ATOM     77  C   UNL     1      20.168   3.587  14.559  1.00  0.00     0.022 A 
BRANCH  75  78
ATOM     78  S   UNL     1      21.068   1.387  15.910  1.00  0.00     0.127 S 
ATOM     79  O   UNL     1      21.063   0.611  14.671  1.00  0.00    -0.237 OA
ATOM     80  O   UNL     1      22.273   2.188  16.124  1.00  0.00    -0.237 OA
ATOM     81  O   UNL     1      20.587   0.678  17.088  1.00  0.00    -0.744 OA
ENDBRANCH  75  78
ENDBRANCH  57  71
BRANCH  58  82
ATOM     82  C   UNL     1       8.989   4.207  20.759  1.00  0.00     0.023 A 
ATOM     83  C   UNL     1       8.549   5.388  21.388  1.00  0.00     0.012 A 
ATOM     84  C   UNL     1       8.187   3.052  20.833  1.00  0.00     0.148 A 
ATOM     85  C   UNL     1       7.357   5.407  22.113  1.00  0.00     0.002 A 
ATOM     86  C   UNL     1       6.973   3.093  21.506  1.00  0.00     0.091 A 
ATOM     87  F   UNL     1       8.626   1.937  20.231  1.00  0.00    -0.205 F 
ATOM     88  C   UNL     1       6.566   4.263  22.166  1.00  0.00     0.022 A 
BRANCH  86  89
ATOM     89  S   UNL     1       5.832   1.707  21.522  1.00  0.00     0.127 S 
ATOM     90  O   UNL     1       5.843   1.328  22.933  1.00  0.00    -0.237 OA
ATOM     91  O   UNL     1       4.594   2.334  21.060  1.00  0.00    -0.237 OA
ATOM     92  O   UNL     1       6.390   0.724  20.603  1.00  0.00    -0.744 OA
ENDBRANCH  86  89
ENDBRANCH  58  82
BRANCH  70  93
ATOM     93  C   UNL     1      15.625   5.112  22.721  1.00  0.00     0.023 A 
ATOM     94  C   UNL     1      15.635   4.176  23.773  1.00  0.00     0.012 A 
ATOM     95  C   UNL     1      16.273   6.353  22.892  1.00  0.00     0.148 A 
ATOM     96  C   UNL     1      16.239   4.487  24.991  1.00  0.00     0.002 A 
ATOM     97  C   UNL     1      16.924   6.631  24.085  1.00  0.00     0.091 A 
ATOM     98  F   UNL     1      16.241   7.235  21.882  1.00  0.00    -0.205 F 
ATOM     99  C   UNL     1      16.893   5.708  25.142  1.00  0.00     0.022 A 
BRANCH  97 100
ATOM    100  S   UNL     1      17.878   8.132  24.333  1.00  0.00     0.127 S 
ATOM    101  O   UNL     1      17.068   8.838  25.324  1.00  0.00    -0.237 OA
ATOM    102  O   UNL     1      19.147   7.609  24.841  1.00  0.00    -0.237 OA
ATOM    103  O   UNL     1      17.967   8.776  23.030  1.00  0.00    -0.744 OA
ENDBRANCH  97 100
ENDBRANCH  70  93
ENDBRANCH  44  45
ENDBRANCH  36  39
ENDBRANCH  34  35
ENDBRANCH  33  34
ENDBRANCH   1  33
TORSDOF 20
