REMARK SMILES COc1cccc([C@H]2CC(c3ccc(S(C)(=O)=O)cc3)=NN2c2ccc(C(=O)NCCCCNC(=O)c3ccc(-c4c5nc(c(-c6cccc(S(=O)(=O)[O-])c6F)c6ccc([nH]6)c(-c6cccc(S(=O)(=O)[O-])c6F)c6nc(c(-c7cccc(S(=O)(=O)[O-])c7F)c7ccc4[nH]7)C=C6)C=C5)cc3)cc2)c1
REMARK SMILES IDX 31 1 30 2 29 3 27 4 28 5 26 7 23 8 24 9 101 10 25 11 100 12
REMARK SMILES IDX 22 13 8 14 9 15 10 16 21 17 7 18 3 19 4 20 102 21 5 22 6 23
REMARK SMILES IDX 2 24 1 25 11 26 12 27 20 28 13 29 19 30 14 31 15 32 16 33
REMARK SMILES IDX 17 34 18 35 32 36 33 37 34 38 35 39 36 41 37 42 38 43 99 44
REMARK SMILES IDX 39 45 98 46 40 47 41 48 42 49 92 50 43 51 97 52 91 53 93 54
REMARK SMILES IDX 44 55 96 56 90 57 89 58 45 60 77 61 57 62 76 63 58 64 61 65
REMARK SMILES IDX 75 66 94 67 59 68 60 69 74 71 95 72 62 73 46 74 47 75 55 76
REMARK SMILES IDX 48 77 50 78 56 79 49 80 51 81 52 82 53 83 54 84 78 85 79 86
REMARK SMILES IDX 87 87 80 88 82 89 88 90 81 91 83 92 84 93 85 94 86 95 63 96
REMARK SMILES IDX 64 97 72 98 65 99 67 100 73 101 66 102 68 103 69 104 70 105
REMARK SMILES IDX 71 106
REMARK H PARENT 29 6 34 40 93 59 61 70
REMARK Flexibility Score: inf
ROOT
ATOM      1  C   UNL     1       6.006   2.400   9.758  1.00  0.00     0.023 C 
ENDROOT
BRANCH   1   2
ATOM      2  C   UNL     1       4.704   2.809   9.064  1.00  0.00     0.116 C 
BRANCH   2   3
ATOM      3  N   UNL     1       4.953   3.865   8.105  1.00  0.00    -0.352 N 
ATOM      4  C   UNL     1       5.178   3.847   6.753  1.00  0.00     0.251 C 
ATOM      5  O   UNL     1       5.352   4.930   6.191  1.00  0.00    -0.269 OA
ATOM      6  H   UNL     1       4.961   4.768   8.498  1.00  0.00     0.163 HD
BRANCH   4   7
ATOM      7  C   UNL     1       5.169   2.603   5.929  1.00  0.00     0.039 A 
ATOM      8  C   UNL     1       5.016   0.351   4.215  1.00  0.00     0.060 A 
ATOM      9  C   UNL     1       4.813   1.642   3.721  1.00  0.00     0.029 A 
ATOM     10  C   UNL     1       5.358   0.207   5.561  1.00  0.00     0.029 A 
ATOM     11  C   UNL     1       4.868   2.753   4.569  1.00  0.00     0.016 A 
ATOM     12  C   UNL     1       5.470   1.323   6.399  1.00  0.00     0.016 A 
BRANCH   8  13
ATOM     13  N   UNL     1       4.892  -0.738   3.369  1.00  0.00    -0.257 N 
ATOM     14  C   UNL     1       4.029  -1.887   3.641  1.00  0.00     0.144 C 
ATOM     15  C   UNL     1       4.463  -2.893   2.567  1.00  0.00     0.091 C 
ATOM     16  C   UNL     1       5.647  -2.165   1.999  1.00  0.00     0.071 C 
ATOM     17  N   UNL     1       5.867  -0.974   2.455  1.00  0.00    -0.176 NA
BRANCH  14  18
ATOM     18  C   UNL     1       2.562  -1.508   3.546  1.00  0.00    -0.019 A 
ATOM     19  C   UNL     1       0.705  -0.501   2.320  1.00  0.00     0.119 A 
ATOM     20  C   UNL     1      -0.124  -0.716   3.421  1.00  0.00     0.046 A 
ATOM     21  C   UNL     1       2.044  -0.889   2.390  1.00  0.00     0.052 A 
ATOM     22  C   UNL     1       0.369  -1.330   4.572  1.00  0.00     0.004 A 
ATOM     23  C   UNL     1       1.704  -1.727   4.635  1.00  0.00     0.006 A 
BRANCH  19  24
ATOM     24  O   UNL     1       0.104   0.116   1.258  1.00  0.00    -0.497 OA
ATOM     25  C   UNL     1       0.808   0.083   0.022  1.00  0.00     0.278 C 
ENDBRANCH  19  24
ENDBRANCH  14  18
BRANCH  16  26
ATOM     26  C   UNL     1       6.516  -2.798   1.008  1.00  0.00    -0.002 A 
ATOM     27  C   UNL     1       7.857  -3.021   1.337  1.00  0.00     0.011 A 
ATOM     28  C   UNL     1       6.011  -3.141  -0.247  1.00  0.00     0.011 A 
ATOM     29  C   UNL     1       8.702  -3.619   0.404  1.00  0.00     0.021 A 
ATOM     30  C   UNL     1       6.863  -3.716  -1.192  1.00  0.00     0.021 A 
ATOM     31  C   UNL     1       8.202  -3.952  -0.860  1.00  0.00     0.067 A 
BRANCH  31  32
ATOM     32  S   UNL     1       9.288  -4.710  -2.045  1.00  0.00     0.175 S 
ATOM     33  C   UNL     1      10.552  -3.497  -2.322  1.00  0.00     0.163 C 
ATOM     34  O   UNL     1       9.885  -5.857  -1.391  1.00  0.00    -0.224 OA
ATOM     35  O   UNL     1       8.549  -4.860  -3.286  1.00  0.00    -0.224 OA
ENDBRANCH  31  32
ENDBRANCH  16  26
ENDBRANCH   8  13
ENDBRANCH   4   7
ENDBRANCH   2   3
ENDBRANCH   1   2
BRANCH   1  36
ATOM     36  C   UNL     1       6.447   3.356  10.871  1.00  0.00     0.023 C 
BRANCH  36  37
ATOM     37  C   UNL     1       5.486   3.448  12.051  1.00  0.00     0.116 C 
BRANCH  37  38
ATOM     38  N   UNL     1       5.230   2.161  12.683  1.00  0.00    -0.352 N 
ATOM     39  C   UNL     1       4.935   1.906  14.001  1.00  0.00     0.251 C 
ATOM     40  H   UNL     1       5.274   1.375  12.092  1.00  0.00     0.163 HD
ATOM     41  O   UNL     1       4.852   0.750  14.403  1.00  0.00    -0.269 OA
BRANCH  39  42
ATOM     42  C   UNL     1       4.760   3.040  14.931  1.00  0.00     0.039 A 
ATOM     43  C   UNL     1       5.468   3.039  16.134  1.00  0.00     0.014 A 
ATOM     44  C   UNL     1       3.937   4.118  14.592  1.00  0.00     0.014 A 
ATOM     45  C   UNL     1       5.396   4.152  16.974  1.00  0.00     0.010 A 
ATOM     46  C   UNL     1       3.926   5.254  15.395  1.00  0.00     0.010 A 
ATOM     47  C   UNL     1       4.651   5.281  16.595  1.00  0.00    -0.014 A 
BRANCH  47  48
ATOM     48  C   UNL     1       4.628   6.503  17.438  1.00  0.00     0.031 A 
ATOM     49  C   UNL     1       3.339   6.978  18.050  1.00  0.00     0.074 A 
ATOM     50  C   UNL     1       5.754   7.230  17.582  1.00  0.00     0.049 A 
ATOM     51  N   UNL     1       3.119   8.035  18.788  1.00  0.00    -0.248 NA
ATOM     52  C   UNL     1       2.133   6.180  17.773  1.00  0.00     0.031 C 
ATOM     53  C   UNL     1       7.045   6.924  16.960  1.00  0.00     0.029 A 
ATOM     54  N   UNL     1       5.988   8.390  18.276  1.00  0.00    -0.354 N 
ATOM     55  C   UNL     1       1.751   8.048  19.034  1.00  0.00     0.074 A 
ATOM     56  C   UNL     1       1.185   6.916  18.335  1.00  0.00     0.031 C 
ATOM     57  C   UNL     1       7.936   7.867  17.308  1.00  0.00     0.029 A 
ATOM     58  C   UNL     1       7.278   8.855  18.157  1.00  0.00     0.049 A 
ATOM     59  H   UNL     1       5.298   8.848  18.809  1.00  0.00     0.167 HD
ATOM     60  C   UNL     1       1.035   8.905  19.801  1.00  0.00     0.034 A 
ATOM     61  C   UNL     1       7.864   9.952  18.676  1.00  0.00     0.034 A 
ATOM     62  C   UNL     1       1.611  10.000  20.533  1.00  0.00     0.049 A 
ATOM     63  C   UNL     1       7.060  10.852  19.575  1.00  0.00     0.074 A 
ATOM     64  C   UNL     1       0.988  10.868  21.412  1.00  0.00     0.029 A 
ATOM     65  N   UNL     1       2.942  10.379  20.471  1.00  0.00    -0.354 N 
ATOM     66  N   UNL     1       5.803  10.749  19.935  1.00  0.00    -0.248 NA
ATOM     67  C   UNL     1       7.764  11.995  20.174  1.00  0.00     0.031 C 
ATOM     68  C   UNL     1       1.941  11.786  21.867  1.00  0.00     0.029 A 
ATOM     69  C   UNL     1       3.162  11.472  21.291  1.00  0.00     0.049 A 
ATOM     70  H   UNL     1       3.631   9.937  19.923  1.00  0.00     0.167 HD
ATOM     71  C   UNL     1       5.577  11.786  20.832  1.00  0.00     0.074 A 
ATOM     72  C   UNL     1       6.832  12.495  20.975  1.00  0.00     0.031 C 
ATOM     73  C   UNL     1       4.431  12.129  21.471  1.00  0.00     0.034 A 
BRANCH  60  74
ATOM     74  C   UNL     1      -0.444   8.653  19.936  1.00  0.00     0.023 A 
ATOM     75  C   UNL     1      -0.893   7.545  20.684  1.00  0.00     0.012 A 
ATOM     76  C   UNL     1      -1.388   9.537  19.378  1.00  0.00     0.148 A 
ATOM     77  C   UNL     1      -2.256   7.298  20.843  1.00  0.00     0.002 A 
ATOM     78  C   UNL     1      -2.745   9.310  19.579  1.00  0.00     0.091 A 
ATOM     79  F   UNL     1      -0.944  10.573  18.652  1.00  0.00    -0.205 F 
ATOM     80  C   UNL     1      -3.180   8.185  20.300  1.00  0.00     0.022 A 
BRANCH  78  81
ATOM     81  S   UNL     1      -4.013  10.437  18.990  1.00  0.00     0.127 S 
ATOM     82  O   UNL     1      -4.610   9.666  17.901  1.00  0.00    -0.237 OA
ATOM     83  O   UNL     1      -4.866  10.585  20.170  1.00  0.00    -0.237 OA
ATOM     84  O   UNL     1      -3.316  11.651  18.590  1.00  0.00    -0.744 OA
ENDBRANCH  78  81
ENDBRANCH  60  74
BRANCH  61  85
ATOM     85  C   UNL     1       9.310  10.211  18.427  1.00  0.00     0.023 A 
ATOM     86  C   UNL     1      10.230  10.058  19.484  1.00  0.00     0.012 A 
ATOM     87  C   UNL     1       9.784  10.575  17.153  1.00  0.00     0.148 A 
ATOM     88  C   UNL     1      11.590  10.297  19.284  1.00  0.00     0.002 A 
ATOM     89  C   UNL     1      11.147  10.759  16.947  1.00  0.00     0.091 A 
ATOM     90  F   UNL     1       8.892  10.726  16.163  1.00  0.00    -0.205 F 
ATOM     91  C   UNL     1      12.049  10.637  18.015  1.00  0.00     0.022 A 
BRANCH  89  92
ATOM     92  S   UNL     1      11.841  11.069  15.320  1.00  0.00     0.127 S 
ATOM     93  O   UNL     1      12.236  12.471  15.426  1.00  0.00    -0.237 OA
ATOM     94  O   UNL     1      12.952  10.117  15.278  1.00  0.00    -0.237 OA
ATOM     95  O   UNL     1      10.770  10.781  14.376  1.00  0.00    -0.744 OA
ENDBRANCH  89  92
ENDBRANCH  61  85
BRANCH  73  96
ATOM     96  C   UNL     1       4.481  13.295  22.422  1.00  0.00     0.023 A 
ATOM     97  C   UNL     1       4.579  14.608  21.920  1.00  0.00     0.012 A 
ATOM     98  C   UNL     1       4.348  13.093  23.810  1.00  0.00     0.148 A 
ATOM     99  C   UNL     1       4.575  15.699  22.787  1.00  0.00     0.002 A 
ATOM    100  C   UNL     1       4.295  14.188  24.664  1.00  0.00     0.091 A 
ATOM    101  F   UNL     1       4.276  11.835  24.269  1.00  0.00    -0.205 F 
ATOM    102  C   UNL     1       4.420  15.491  24.156  1.00  0.00     0.022 A 
BRANCH 100 103
ATOM    103  S   UNL     1       3.998  14.016  26.427  1.00  0.00     0.127 S 
ATOM    104  O   UNL     1       5.322  14.296  26.981  1.00  0.00    -0.237 OA
ATOM    105  O   UNL     1       3.000  15.056  26.678  1.00  0.00    -0.237 OA
ATOM    106  O   UNL     1       3.513  12.656  26.621  1.00  0.00    -0.744 OA
ENDBRANCH 100 103
ENDBRANCH  73  96
ENDBRANCH  47  48
ENDBRANCH  39  42
ENDBRANCH  37  38
ENDBRANCH  36  37
ENDBRANCH   1  36
TORSDOF 19
