REMARK SMILES O=C(NCCCCNC(=O)c1ccc2c(=O)n(CCC[NH+]3CCOCC3)c(=O)[nH]c2c1)c1ccc(-c2c3nc(c(-c4cccc(S(=O)(=O)[O-])c4F)c4ccc([nH]4)c(-c4cccc(S(=O)(=O)[O-])c4F)c4nc(c(-c5cccc(S(=O)(=O)[O-])c5F)c5ccc2[nH]5)C=C4)C=C3)cc1
REMARK SMILES IDX 6 1 5 2 4 3 3 4 1 5 2 6 32 8 33 9 94 10 34 11 93 12 35 13
REMARK SMILES IDX 36 14 37 15 87 16 38 17 92 18 86 19 88 20 39 21 91 22 85 23
REMARK SMILES IDX 84 24 40 26 72 27 52 28 71 29 53 30 56 31 70 32 89 33 54 34
REMARK SMILES IDX 55 35 69 37 90 38 57 39 41 40 42 41 50 42 43 43 45 44 51 45
REMARK SMILES IDX 44 46 46 47 47 48 48 49 49 50 73 51 74 52 82 53 75 54 77 55
REMARK SMILES IDX 83 56 76 57 78 58 79 59 80 60 81 61 58 62 59 63 67 64 60 65
REMARK SMILES IDX 62 66 68 67 61 68 63 69 64 70 65 71 66 72 7 73 8 74 9 75
REMARK SMILES IDX 10 77 11 78 12 79 31 80 13 81 30 82 14 83 29 84 15 85 27 86
REMARK SMILES IDX 16 88 17 89 28 90 18 91 19 92 20 93 21 94 22 95 26 96 23 98
REMARK SMILES IDX 25 99 24 100
REMARK H PARENT 3 7 88 25 56 36 8 76 29 87 21 97
REMARK Flexibility Score: inf
ROOT
ATOM      1  C   UNL     1       4.508  -1.259   3.404  1.00  0.00     0.023 C 
ENDROOT
BRANCH   1   2
ATOM      2  C   UNL     1       4.920  -0.203   2.377  1.00  0.00     0.023 C 
BRANCH   2   3
ATOM      3  C   UNL     1       4.558  -0.536   0.934  1.00  0.00     0.116 C 
BRANCH   3   4
ATOM      4  N   UNL     1       3.123  -0.676   0.754  1.00  0.00    -0.352 N 
ATOM      5  O   UNL     1       1.069  -0.086   0.057  1.00  0.00    -0.269 OA
ATOM      6  C   UNL     1       2.285   0.013  -0.086  1.00  0.00     0.251 C 
ATOM      7  H   UNL     1       2.691  -1.361   1.314  1.00  0.00     0.163 HD
BRANCH   6   8
ATOM      8  C   UNL     1       2.841   0.866  -1.159  1.00  0.00     0.039 A 
ATOM      9  C   UNL     1       2.242   2.103  -1.417  1.00  0.00     0.014 A 
ATOM     10  C   UNL     1       3.904   0.421  -1.951  1.00  0.00     0.014 A 
ATOM     11  C   UNL     1       2.716   2.899  -2.463  1.00  0.00     0.010 A 
ATOM     12  C   UNL     1       4.418   1.244  -2.948  1.00  0.00     0.010 A 
ATOM     13  C   UNL     1       3.805   2.472  -3.237  1.00  0.00    -0.014 A 
BRANCH  13  14
ATOM     14  C   UNL     1       4.260   3.236  -4.423  1.00  0.00     0.031 A 
ATOM     15  C   UNL     1       4.097   2.631  -5.791  1.00  0.00     0.074 A 
ATOM     16  C   UNL     1       4.856   4.433  -4.282  1.00  0.00     0.049 A 
ATOM     17  N   UNL     1       4.540   3.061  -6.943  1.00  0.00    -0.248 NA
ATOM     18  C   UNL     1       3.353   1.362  -5.869  1.00  0.00     0.031 C 
ATOM     19  C   UNL     1       5.086   5.120  -3.012  1.00  0.00     0.029 A 
ATOM     20  N   UNL     1       5.393   5.275  -5.223  1.00  0.00    -0.354 N 
ATOM     21  C   UNL     1       4.161   2.102  -7.873  1.00  0.00     0.074 A 
ATOM     22  C   UNL     1       3.480   1.051  -7.150  1.00  0.00     0.031 C 
ATOM     23  C   UNL     1       5.711   6.285  -3.253  1.00  0.00     0.029 A 
ATOM     24  C   UNL     1       5.955   6.408  -4.689  1.00  0.00     0.049 A 
ATOM     25  H   UNL     1       5.376   5.085  -6.189  1.00  0.00     0.167 HD
ATOM     26  C   UNL     1       4.329   2.109  -9.216  1.00  0.00     0.034 A 
ATOM     27  C   UNL     1       6.603   7.428  -5.286  1.00  0.00     0.034 A 
ATOM     28  C   UNL     1       4.957   3.174  -9.945  1.00  0.00     0.049 A 
ATOM     29  C   UNL     1       6.784   7.417  -6.777  1.00  0.00     0.074 A 
ATOM     30  C   UNL     1       5.149   3.286 -11.310  1.00  0.00     0.029 A 
ATOM     31  N   UNL     1       5.484   4.320  -9.370  1.00  0.00    -0.354 N 
ATOM     32  N   UNL     1       6.380   6.524  -7.648  1.00  0.00    -0.248 NA
ATOM     33  C   UNL     1       7.493   8.560  -7.370  1.00  0.00     0.031 C 
ATOM     34  C   UNL     1       5.791   4.503 -11.561  1.00  0.00     0.029 A 
ATOM     35  C   UNL     1       5.993   5.151 -10.352  1.00  0.00     0.049 A 
ATOM     36  H   UNL     1       5.495   4.514  -8.404  1.00  0.00     0.167 HD
ATOM     37  C   UNL     1       6.772   7.000  -8.893  1.00  0.00     0.074 A 
ATOM     38  C   UNL     1       7.430   8.272  -8.665  1.00  0.00     0.031 C 
ATOM     39  C   UNL     1       6.616   6.427 -10.112  1.00  0.00     0.034 A 
BRANCH  26  40
ATOM     40  C   UNL     1       3.756   0.952  -9.987  1.00  0.00     0.023 A 
ATOM     41  C   UNL     1       2.362   0.887 -10.188  1.00  0.00     0.012 A 
ATOM     42  C   UNL     1       4.584  -0.046 -10.534  1.00  0.00     0.148 A 
ATOM     43  C   UNL     1       1.796  -0.168 -10.901  1.00  0.00     0.002 A 
ATOM     44  C   UNL     1       4.015  -1.078 -11.273  1.00  0.00     0.091 A 
ATOM     45  F   UNL     1       5.903   0.023 -10.310  1.00  0.00    -0.205 F 
ATOM     46  C   UNL     1       2.622  -1.144 -11.450  1.00  0.00     0.022 A 
BRANCH  44  47
ATOM     47  S   UNL     1       4.992  -2.362 -12.062  1.00  0.00     0.127 S 
ATOM     48  O   UNL     1       4.622  -3.538 -11.276  1.00  0.00    -0.237 OA
ATOM     49  O   UNL     1       4.466  -2.351 -13.428  1.00  0.00    -0.237 OA
ATOM     50  O   UNL     1       6.381  -1.943 -11.941  1.00  0.00    -0.744 OA
ENDBRANCH  44  47
ENDBRANCH  26  40
BRANCH  27  51
ATOM     51  C   UNL     1       7.059   8.573  -4.454  1.00  0.00     0.023 A 
ATOM     52  C   UNL     1       6.297   9.757  -4.452  1.00  0.00     0.012 A 
ATOM     53  C   UNL     1       8.167   8.459  -3.593  1.00  0.00     0.148 A 
ATOM     54  C   UNL     1       6.630  10.810  -3.600  1.00  0.00     0.002 A 
ATOM     55  C   UNL     1       8.470   9.497  -2.721  1.00  0.00     0.091 A 
ATOM     56  F   UNL     1       8.868   7.316  -3.613  1.00  0.00    -0.205 F 
ATOM     57  C   UNL     1       7.708  10.677  -2.729  1.00  0.00     0.022 A 
BRANCH  55  58
ATOM     58  S   UNL     1       9.771   9.384  -1.488  1.00  0.00     0.127 S 
ATOM     59  O   UNL     1      10.599  10.543  -1.818  1.00  0.00    -0.237 OA
ATOM     60  O   UNL     1       9.010   9.503  -0.245  1.00  0.00    -0.237 OA
ATOM     61  O   UNL     1      10.407   8.091  -1.698  1.00  0.00    -0.744 OA
ENDBRANCH  55  58
ENDBRANCH  27  51
BRANCH  39  62
ATOM     62  C   UNL     1       7.165   7.159 -11.307  1.00  0.00     0.023 A 
ATOM     63  C   UNL     1       8.549   7.112 -11.565  1.00  0.00     0.012 A 
ATOM     64  C   UNL     1       6.307   7.798 -12.223  1.00  0.00     0.148 A 
ATOM     65  C   UNL     1       9.074   7.705 -12.712  1.00  0.00     0.002 A 
ATOM     66  C   UNL     1       6.834   8.358 -13.381  1.00  0.00     0.091 A 
ATOM     67  F   UNL     1       4.995   7.838 -11.948  1.00  0.00    -0.205 F 
ATOM     68  C   UNL     1       8.217   8.317 -13.624  1.00  0.00     0.022 A 
BRANCH  66  69
ATOM     69  S   UNL     1       5.803   9.105 -14.649  1.00  0.00     0.127 S 
ATOM     70  O   UNL     1       6.136  10.521 -14.505  1.00  0.00    -0.237 OA
ATOM     71  O   UNL     1       6.312   8.480 -15.870  1.00  0.00    -0.237 OA
ATOM     72  O   UNL     1       4.431   8.750 -14.313  1.00  0.00    -0.744 OA
ENDBRANCH  66  69
ENDBRANCH  39  62
ENDBRANCH  13  14
ENDBRANCH   6   8
ENDBRANCH   3   4
ENDBRANCH   2   3
ENDBRANCH   1   2
BRANCH   1  73
ATOM     73  C   UNL     1       4.990  -2.674   3.097  1.00  0.00     0.116 C 
BRANCH  73  74
ATOM     74  N   UNL     1       6.440  -2.745   3.004  1.00  0.00    -0.352 N 
ATOM     75  C   UNL     1       7.306  -3.515   3.731  1.00  0.00     0.251 C 
ATOM     76  H   UNL     1       6.854  -2.160   2.328  1.00  0.00     0.163 HD
ATOM     77  O   UNL     1       8.519  -3.344   3.684  1.00  0.00    -0.269 OA
BRANCH  75  78
ATOM     78  C   UNL     1       6.760  -4.566   4.600  1.00  0.00     0.041 A 
ATOM     79  C   UNL     1       5.995  -5.599   4.042  1.00  0.00     0.015 A 
ATOM     80  C   UNL     1       7.013  -4.499   5.975  1.00  0.00     0.040 A 
ATOM     81  C   UNL     1       5.457  -6.572   4.875  1.00  0.00     0.017 A 
ATOM     82  C   UNL     1       6.434  -5.453   6.801  1.00  0.00     0.056 A 
ATOM     83  C   UNL     1       5.685  -6.485   6.251  1.00  0.00     0.064 A 
ATOM     84  N   UNL     1       6.579  -5.391   8.184  1.00  0.00    -0.307 N 
ATOM     85  C   UNL     1       5.175  -7.509   7.163  1.00  0.00     0.264 A 
ATOM     86  C   UNL     1       5.890  -6.196   9.054  1.00  0.00     0.328 A 
ATOM     87  H   UNL     1       7.208  -4.733   8.558  1.00  0.00     0.171 HD
ATOM     88  O   UNL     1       4.961  -8.623   6.702  1.00  0.00    -0.268 OA
ATOM     89  N   UNL     1       5.041  -7.143   8.492  1.00  0.00    -0.260 N 
ATOM     90  O   UNL     1       6.077  -6.060  10.262  1.00  0.00    -0.248 OA
BRANCH  89  91
ATOM     91  C   UNL     1       4.287  -8.012   9.396  1.00  0.00     0.137 C 
BRANCH  91  92
ATOM     92  C   UNL     1       2.785  -8.193   9.104  1.00  0.00     0.083 C 
BRANCH  92  93
ATOM     93  C   UNL     1       2.276  -8.914   7.839  1.00  0.00     0.264 C 
BRANCH  93  94
ATOM     94  N   UNL     1       2.557 -10.315   7.510  1.00  0.00    -0.331 N 
ATOM     95  C   UNL     1       1.376 -11.189   7.461  1.00  0.00     0.291 C 
ATOM     96  C   UNL     1       3.643 -11.029   8.182  1.00  0.00     0.291 C 
ATOM     97  H   UNL     1       2.920 -10.133   6.574  1.00  0.00     0.348 HD
ATOM     98  C   UNL     1       0.995 -11.733   8.846  1.00  0.00     0.221 C 
ATOM     99  C   UNL     1       3.243 -11.575   9.560  1.00  0.00     0.221 C 
ATOM    100  O   UNL     1       2.089 -12.423   9.469  1.00  0.00    -0.370 OA
ENDBRANCH  93  94
ENDBRANCH  92  93
ENDBRANCH  91  92
ENDBRANCH  89  91
ENDBRANCH  75  78
ENDBRANCH  73  74
ENDBRANCH   1  73
TORSDOF 18
