REMARK SMILES CSc1ccc(-c2cc(C[C@H]3CCCC3=O)ccc2[C@@H](C)C(=O)NCCCCNC(=O)c2ccc(-c3c4nc(c(-c5cccc(S(=O)(=O)[O-])c5F)c5ccc([nH]5)c(-c5cccc(S(=O)(=O)[O-])c5F)c5nc(c(-c6cccc(S(=O)(=O)[O-])c6F)c6ccc3[nH]6)C=C5)C=C4)cc2)cc1
REMARK SMILES IDX 26 1 25 2 24 3 22 4 23 5 20 7 21 8 19 9 7 10 8 11 9 12 18 13
REMARK SMILES IDX 17 14 6 15 3 16 4 17 96 18 5 19 95 20 2 21 1 22 10 23 11 24
REMARK SMILES IDX 12 25 15 26 13 27 14 28 16 29 27 30 28 31 29 32 30 33 31 35
REMARK SMILES IDX 32 36 33 37 94 38 34 39 93 40 35 41 36 42 37 43 87 44 38 45
REMARK SMILES IDX 92 46 86 47 88 48 39 49 91 50 85 51 84 52 40 54 72 55 52 56
REMARK SMILES IDX 71 57 53 58 56 59 70 60 89 61 54 62 55 63 69 65 90 66 57 67
REMARK SMILES IDX 41 68 42 69 50 70 43 71 45 72 51 73 44 74 46 75 47 76 48 77
REMARK SMILES IDX 49 78 73 79 74 80 82 81 75 82 77 83 83 84 76 85 78 86 79 87
REMARK SMILES IDX 80 88 81 89 58 90 59 91 67 92 60 93 62 94 68 95 61 96 63 97
REMARK SMILES IDX 64 98 65 99 66 100
REMARK H PARENT 24 6 29 34 88 53 56 64
REMARK Flexibility Score: inf
ROOT
ATOM      1  C   UNL     1       0.878   6.567   9.171  1.00  0.00     0.023 C 
ENDROOT
BRANCH   1   2
ATOM      2  C   UNL     1      -0.468   6.590   8.444  1.00  0.00     0.116 C 
BRANCH   2   3
ATOM      3  N   UNL     1      -0.315   6.818   7.023  1.00  0.00    -0.356 N 
ATOM      4  C   UNL     1      -0.240   5.967   5.963  1.00  0.00     0.227 C 
ATOM      5  O   UNL     1      -0.033   6.491   4.861  1.00  0.00    -0.274 OA
ATOM      6  H   UNL     1      -0.255   7.769   6.776  1.00  0.00     0.163 HD
BRANCH   4   7
ATOM      7  C   UNL     1      -0.399   4.437   6.064  1.00  0.00     0.106 C 
ATOM      8  C   UNL     1      -1.734   3.972   6.645  1.00  0.00     0.023 C 
BRANCH   7   9
ATOM      9  C   UNL     1       0.849   3.742   6.609  1.00  0.00    -0.028 A 
ATOM     10  C   UNL     1       1.875   3.270   5.754  1.00  0.00    -0.014 A 
ATOM     11  C   UNL     1       3.094   2.830   6.315  1.00  0.00     0.012 A 
ATOM     12  C   UNL     1       3.275   2.737   7.699  1.00  0.00    -0.047 A 
ATOM     13  C   UNL     1       1.027   3.583   7.992  1.00  0.00     0.005 A 
ATOM     14  C   UNL     1       2.221   3.102   8.532  1.00  0.00     0.004 A 
BRANCH  10  15
ATOM     15  C   UNL     1       1.640   2.975   4.332  1.00  0.00    -0.018 A 
ATOM     16  C   UNL     1       1.056   2.251   1.656  1.00  0.00     0.007 A 
ATOM     17  C   UNL     1       1.044   1.289   2.665  1.00  0.00     0.015 A 
ATOM     18  C   UNL     1       1.358   3.577   1.997  1.00  0.00     0.015 A 
ATOM     19  C   UNL     1       1.334   1.649   3.981  1.00  0.00     0.010 A 
ATOM     20  C   UNL     1       1.658   3.937   3.321  1.00  0.00     0.010 A 
BRANCH  16  21
ATOM     21  S   UNL     1       0.644   1.881  -0.045  1.00  0.00    -0.130 SA
ATOM     22  C   UNL     1       1.123   0.137  -0.188  1.00  0.00     0.091 C 
ENDBRANCH  16  21
ENDBRANCH  10  15
BRANCH  12  23
ATOM     23  C   UNL     1       4.543   2.165   8.282  1.00  0.00     0.047 C 
BRANCH  23  24
ATOM     24  C   UNL     1       4.646   0.634   8.274  1.00  0.00     0.060 C 
ATOM     25  C   UNL     1       3.433  -0.148   8.793  1.00  0.00     0.012 C 
ATOM     26  C   UNL     1       4.800   0.079   6.876  1.00  0.00     0.136 C 
ATOM     27  C   UNL     1       2.628  -0.551   7.563  1.00  0.00     0.009 C 
ATOM     28  C   UNL     1       3.662  -0.824   6.481  1.00  0.00     0.076 C 
ATOM     29  O   UNL     1       5.762   0.305   6.151  1.00  0.00    -0.299 OA
ENDBRANCH  23  24
ENDBRANCH  12  23
ENDBRANCH   7   9
ENDBRANCH   4   7
ENDBRANCH   2   3
ENDBRANCH   1   2
BRANCH   1  30
ATOM     30  C   UNL     1       1.340   7.906   9.740  1.00  0.00     0.023 C 
BRANCH  30  31
ATOM     31  C   UNL     1       0.417   8.524  10.783  1.00  0.00     0.116 C 
BRANCH  31  32
ATOM     32  N   UNL     1       0.129   7.655  11.917  1.00  0.00    -0.352 N 
ATOM     33  C   UNL     1      -0.208   8.026  13.204  1.00  0.00     0.251 C 
ATOM     34  H   UNL     1       0.180   6.687  11.745  1.00  0.00     0.163 HD
ATOM     35  O   UNL     1      -0.355   7.188  14.075  1.00  0.00    -0.269 OA
BRANCH  33  36
ATOM     36  C   UNL     1      -0.332   9.469  13.510  1.00  0.00     0.039 A 
ATOM     37  C   UNL     1       0.409  10.001  14.567  1.00  0.00     0.014 A 
ATOM     38  C   UNL     1      -1.110  10.299  12.700  1.00  0.00     0.014 A 
ATOM     39  C   UNL     1       0.435  11.384  14.760  1.00  0.00     0.010 A 
ATOM     40  C   UNL     1      -1.021  11.678  12.846  1.00  0.00     0.010 A 
ATOM     41  C   UNL     1      -0.245  12.235  13.874  1.00  0.00    -0.014 A 
BRANCH  41  42
ATOM     42  C   UNL     1      -0.146  13.712  13.986  1.00  0.00     0.031 A 
ATOM     43  C   UNL     1      -1.377  14.530  14.263  1.00  0.00     0.074 A 
ATOM     44  C   UNL     1       1.028  14.322  13.728  1.00  0.00     0.049 A 
ATOM     45  N   UNL     1      -1.506  15.829  14.323  1.00  0.00    -0.248 NA
ATOM     46  C   UNL     1      -2.636  13.793  14.464  1.00  0.00     0.031 C 
ATOM     47  C   UNL     1       2.270  13.644  13.349  1.00  0.00     0.029 A 
ATOM     48  N   UNL     1       1.361  15.653  13.716  1.00  0.00    -0.354 N 
ATOM     49  C   UNL     1      -2.860  16.067  14.524  1.00  0.00     0.074 A 
ATOM     50  C   UNL     1      -3.518  14.779  14.541  1.00  0.00     0.031 C 
ATOM     51  C   UNL     1       3.229  14.563  13.148  1.00  0.00     0.029 A 
ATOM     52  C   UNL     1       2.669  15.893  13.363  1.00  0.00     0.049 A 
ATOM     53  H   UNL     1       0.724  16.370  13.940  1.00  0.00     0.167 HD
ATOM     54  C   UNL     1      -3.495  17.247  14.715  1.00  0.00     0.034 A 
ATOM     55  C   UNL     1       3.342  17.054  13.233  1.00  0.00     0.034 A 
ATOM     56  C   UNL     1      -2.828  18.518  14.768  1.00  0.00     0.049 A 
ATOM     57  C   UNL     1       2.631  18.346  13.534  1.00  0.00     0.074 A 
ATOM     58  C   UNL     1      -3.363  19.759  15.062  1.00  0.00     0.029 A 
ATOM     59  N   UNL     1      -1.477  18.711  14.525  1.00  0.00    -0.354 N 
ATOM     60  N   UNL     1       1.385  18.535  13.898  1.00  0.00    -0.248 NA
ATOM     61  C   UNL     1       3.425  19.579  13.446  1.00  0.00     0.031 C 
ATOM     62  C   UNL     1      -2.333  20.705  14.995  1.00  0.00     0.029 A 
ATOM     63  C   UNL     1      -1.157  20.050  14.665  1.00  0.00     0.049 A 
ATOM     64  H   UNL     1      -0.839  18.000  14.288  1.00  0.00     0.167 HD
ATOM     65  C   UNL     1       1.256  19.902  14.115  1.00  0.00     0.074 A 
ATOM     66  C   UNL     1       2.555  20.490  13.863  1.00  0.00     0.031 C 
ATOM     67  C   UNL     1       0.156  20.609  14.473  1.00  0.00     0.034 A 
BRANCH  54  68
ATOM     68  C   UNL     1      -4.979  17.206  14.962  1.00  0.00     0.023 A 
ATOM     69  C   UNL     1      -5.459  16.729  16.199  1.00  0.00     0.012 A 
ATOM     70  C   UNL     1      -5.895  17.678  14.002  1.00  0.00     0.148 A 
ATOM     71  C   UNL     1      -6.826  16.688  16.465  1.00  0.00     0.002 A 
ATOM     72  C   UNL     1      -7.255  17.672  14.290  1.00  0.00     0.091 A 
ATOM     73  F   UNL     1      -5.423  18.105  12.822  1.00  0.00    -0.205 F 
ATOM     74  C   UNL     1      -7.723  17.168  15.515  1.00  0.00     0.022 A 
BRANCH  72  75
ATOM     75  S   UNL     1      -8.483  18.336  13.159  1.00  0.00     0.127 S 
ATOM     76  O   UNL     1      -9.082  17.115  12.623  1.00  0.00    -0.237 OA
ATOM     77  O   UNL     1      -9.353  19.098  14.057  1.00  0.00    -0.237 OA
ATOM     78  O   UNL     1      -7.745  19.148  12.202  1.00  0.00    -0.744 OA
ENDBRANCH  72  75
ENDBRANCH  54  68
BRANCH  55  79
ATOM     79  C   UNL     1       4.793  17.038  12.894  1.00  0.00     0.023 A 
ATOM     80  C   UNL     1       5.732  17.362  13.893  1.00  0.00     0.012 A 
ATOM     81  C   UNL     1       5.250  16.672  11.614  1.00  0.00     0.148 A 
ATOM     82  C   UNL     1       7.099  17.350  13.616  1.00  0.00     0.002 A 
ATOM     83  C   UNL     1       6.617  16.613  11.359  1.00  0.00     0.091 A 
ATOM     84  F   UNL     1       4.342  16.381  10.673  1.00  0.00    -0.205 F 
ATOM     85  C   UNL     1       7.542  16.966  12.353  1.00  0.00     0.022 A 
BRANCH  83  86
ATOM     86  S   UNL     1       7.274  16.003   9.802  1.00  0.00     0.127 S 
ATOM     87  O   UNL     1       7.685  17.240   9.145  1.00  0.00    -0.237 OA
ATOM     88  O   UNL     1       8.374  15.146  10.248  1.00  0.00    -0.237 OA
ATOM     89  O   UNL     1       6.174  15.281   9.176  1.00  0.00    -0.744 OA
ENDBRANCH  83  86
ENDBRANCH  55  79
BRANCH  67  90
ATOM     90  C   UNL     1       0.306  22.096  14.645  1.00  0.00     0.023 A 
ATOM     91  C   UNL     1       0.411  22.919  13.507  1.00  0.00     0.012 A 
ATOM     92  C   UNL     1       0.253  22.684  15.924  1.00  0.00     0.148 A 
ATOM     93  C   UNL     1       0.485  24.305  13.640  1.00  0.00     0.002 A 
ATOM     94  C   UNL     1       0.284  24.069  16.046  1.00  0.00     0.091 A 
ATOM     95  F   UNL     1       0.175  21.882  16.995  1.00  0.00    -0.205 F 
ATOM     96  C   UNL     1       0.409  24.880  14.906  1.00  0.00     0.022 A 
BRANCH  94  97
ATOM     97  S   UNL     1       0.098  24.892  17.632  1.00  0.00     0.127 S 
ATOM     98  O   UNL     1       1.475  25.279  17.931  1.00  0.00    -0.237 OA
ATOM     99  O   UNL     1      -0.792  26.007  17.305  1.00  0.00    -0.237 OA
ATOM    100  O   UNL     1      -0.487  23.901  18.526  1.00  0.00    -0.744 OA
ENDBRANCH  94  97
ENDBRANCH  67  90
ENDBRANCH  41  42
ENDBRANCH  33  36
ENDBRANCH  31  32
ENDBRANCH  30  31
ENDBRANCH   1  30
TORSDOF 19
