REMARK SMILES O=C(CC[NH+]1CC[NH+](Cc2ccccc2C2CC2)CC1)NCCCCNC(=O)c1ccc(-c2c3nc(c(-c4cccc(S(=O)(=O)[O-])c4F)c4ccc([nH]4)c(-c4cccc(S(=O)(=O)[O-])c4F)c4nc(c(-c5cccc(S(=O)(=O)[O-])c5F)c5ccc2[nH]5)C=C4)C=C3)cc1
REMARK SMILES IDX 22 1 21 2 1 3 2 4 3 6 4 7 5 8 6 9 20 10 7 12 19 13 8 14 9 16
REMARK SMILES IDX 10 17 11 18 15 19 12 20 14 21 13 22 16 23 17 24 18 25 23 26
REMARK SMILES IDX 24 27 25 28 26 29 27 30 28 32 29 33 30 34 91 35 31 36 90 37
REMARK SMILES IDX 32 38 33 39 34 40 84 41 35 42 89 43 83 44 85 45 36 46 88 47
REMARK SMILES IDX 82 48 81 49 37 51 69 52 49 53 68 54 50 55 53 56 67 57 86 58
REMARK SMILES IDX 51 59 52 60 66 62 87 63 54 64 38 65 39 66 47 67 40 68 42 69
REMARK SMILES IDX 48 70 41 71 43 72 44 73 45 74 46 75 70 76 71 77 79 78 72 79
REMARK SMILES IDX 74 80 80 81 73 82 75 83 76 84 77 85 78 86 55 87 56 88 64 89
REMARK SMILES IDX 57 90 59 91 65 92 58 93 60 94 61 95 62 96 63 97
REMARK H PARENT 21 5 5 11 8 15 26 31 85 50 53 61
REMARK Flexibility Score: inf
ROOT
ATOM      1  C   UNL     1       1.695   2.483   0.934  1.00  0.00     0.116 C 
ENDROOT
BRANCH   1   2
ATOM      2  N   UNL     1       2.273   1.165   1.095  1.00  0.00    -0.356 N 
ATOM      3  O   UNL     1       0.599  -0.046   0.072  1.00  0.00    -0.275 OA
ATOM      4  C   UNL     1       1.719   0.017   0.556  1.00  0.00     0.225 C 
ATOM      5  H   UNL     1       3.104   1.081   1.617  1.00  0.00     0.163 HD
BRANCH   4   6
ATOM      6  C   UNL     1       2.672  -1.177   0.592  1.00  0.00     0.161 C 
BRANCH   6   7
ATOM      7  C   UNL     1       3.490  -1.296  -0.701  1.00  0.00     0.272 C 
BRANCH   7   8
ATOM      8  N   UNL     1       3.981  -0.000  -1.142  1.00  0.00    -0.325 N 
ATOM      9  C   UNL     1       4.143   0.130  -2.592  1.00  0.00     0.324 C 
ATOM     10  C   UNL     1       5.197   0.479  -0.476  1.00  0.00     0.324 C 
ATOM     11  H   UNL     1       3.215   0.605  -0.846  1.00  0.00     0.348 HD
ATOM     12  C   UNL     1       4.349   1.615  -2.975  1.00  0.00     0.324 C 
ATOM     13  C   UNL     1       5.348   1.983  -0.797  1.00  0.00     0.324 C 
ATOM     14  N   UNL     1       5.364   2.358  -2.217  1.00  0.00    -0.322 N 
ATOM     15  H   UNL     1       5.082   3.337  -2.255  1.00  0.00     0.348 HD
BRANCH  14  16
ATOM     16  C   UNL     1       6.690   2.449  -2.838  1.00  0.00     0.299 C 
BRANCH  16  17
ATOM     17  C   UNL     1       7.708   1.396  -2.457  1.00  0.00     0.010 A 
ATOM     18  C   UNL     1       8.508   1.715  -1.324  1.00  0.00     0.010 A 
ATOM     19  C   UNL     1       7.853   0.137  -3.081  1.00  0.00    -0.036 A 
ATOM     20  C   UNL     1       9.357   0.790  -0.734  1.00  0.00     0.001 A 
ATOM     21  C   UNL     1       8.740  -0.773  -2.447  1.00  0.00     0.004 A 
ATOM     22  C   UNL     1       9.459  -0.470  -1.287  1.00  0.00     0.000 A 
BRANCH  19  23
ATOM     23  C   UNL     1       7.134  -0.407  -4.309  1.00  0.00     0.020 C 
ATOM     24  C   UNL     1       6.415   0.334  -5.403  1.00  0.00     0.009 C 
ATOM     25  C   UNL     1       7.788  -0.194  -5.659  1.00  0.00     0.009 C 
ENDBRANCH  19  23
ENDBRANCH  16  17
ENDBRANCH  14  16
ENDBRANCH   7   8
ENDBRANCH   6   7
ENDBRANCH   4   6
ENDBRANCH   1   2
BRANCH   1  26
ATOM     26  C   UNL     1       2.127   3.451   2.041  1.00  0.00     0.023 C 
BRANCH  26  27
ATOM     27  C   UNL     1       3.627   3.782   2.100  1.00  0.00     0.023 C 
BRANCH  27  28
ATOM     28  C   UNL     1       4.162   4.669   0.975  1.00  0.00     0.116 C 
BRANCH  28  29
ATOM     29  N   UNL     1       3.768   6.058   1.084  1.00  0.00    -0.352 N 
ATOM     30  C   UNL     1       4.521   7.205   1.021  1.00  0.00     0.251 C 
ATOM     31  H   UNL     1       2.805   6.204   1.226  1.00  0.00     0.163 HD
ATOM     32  O   UNL     1       3.952   8.290   1.142  1.00  0.00    -0.269 OA
BRANCH  30  33
ATOM     33  C   UNL     1       6.000   7.175   0.872  1.00  0.00     0.039 A 
ATOM     34  C   UNL     1       6.742   8.056   1.669  1.00  0.00     0.014 A 
ATOM     35  C   UNL     1       6.670   6.352  -0.039  1.00  0.00     0.014 A 
ATOM     36  C   UNL     1       8.139   8.070   1.600  1.00  0.00     0.010 A 
ATOM     37  C   UNL     1       8.072   6.324  -0.064  1.00  0.00     0.010 A 
ATOM     38  C   UNL     1       8.824   7.180   0.758  1.00  0.00    -0.014 A 
BRANCH  38  39
ATOM     39  C   UNL     1      10.315   7.131   0.770  1.00  0.00     0.031 A 
ATOM     40  C   UNL     1      11.119   7.513  -0.445  1.00  0.00     0.074 A 
ATOM     41  C   UNL     1      10.957   6.707   1.879  1.00  0.00     0.049 A 
ATOM     42  N   UNL     1      12.419   7.545  -0.596  1.00  0.00    -0.248 NA
ATOM     43  C   UNL     1      10.369   7.895  -1.652  1.00  0.00     0.031 C 
ATOM     44  C   UNL     1      10.306   6.252   3.109  1.00  0.00     0.029 A 
ATOM     45  N   UNL     1      12.299   6.576   2.148  1.00  0.00    -0.354 N 
ATOM     46  C   UNL     1      12.646   7.919  -1.915  1.00  0.00     0.074 A 
ATOM     47  C   UNL     1      11.345   8.081  -2.531  1.00  0.00     0.031 C 
ATOM     48  C   UNL     1      11.245   5.902   4.002  1.00  0.00     0.029 A 
ATOM     49  C   UNL     1      12.565   6.077   3.403  1.00  0.00     0.049 A 
ATOM     50  H   UNL     1      13.003   6.817   1.504  1.00  0.00     0.167 HD
ATOM     51  C   UNL     1      13.823   8.133  -2.552  1.00  0.00     0.034 A 
ATOM     52  C   UNL     1      13.736   5.785   4.006  1.00  0.00     0.034 A 
ATOM     53  C   UNL     1      15.118   8.009  -1.934  1.00  0.00     0.049 A 
ATOM     54  C   UNL     1      15.028   6.050   3.281  1.00  0.00     0.074 A 
ATOM     55  C   UNL     1      16.359   8.291  -2.479  1.00  0.00     0.029 A 
ATOM     56  N   UNL     1      15.345   7.555  -0.645  1.00  0.00    -0.354 N 
ATOM     57  N   UNL     1      15.216   6.560   2.089  1.00  0.00    -0.248 NA
ATOM     58  C   UNL     1      16.272   5.733   4.000  1.00  0.00     0.031 C 
ATOM     59  C   UNL     1      17.338   7.976  -1.531  1.00  0.00     0.029 A 
ATOM     60  C   UNL     1      16.705   7.531  -0.383  1.00  0.00     0.049 A 
ATOM     61  H   UNL     1      14.642   7.288  -0.009  1.00  0.00     0.167 HD
ATOM     62  C   UNL     1      16.594   6.660   1.929  1.00  0.00     0.074 A 
ATOM     63  C   UNL     1      17.193   6.177   3.156  1.00  0.00     0.031 C 
ATOM     64  C   UNL     1      17.298   7.100   0.857  1.00  0.00     0.034 A 
BRANCH  51  65
ATOM     65  C   UNL     1      13.774   8.568  -3.995  1.00  0.00     0.023 A 
ATOM     66  C   UNL     1      13.349   9.873  -4.316  1.00  0.00     0.012 A 
ATOM     67  C   UNL     1      14.224   7.716  -5.024  1.00  0.00     0.148 A 
ATOM     68  C   UNL     1      13.339  10.312  -5.639  1.00  0.00     0.002 A 
ATOM     69  C   UNL     1      14.254   8.176  -6.335  1.00  0.00     0.091 A 
ATOM     70  F   UNL     1      14.611   6.473  -4.702  1.00  0.00    -0.205 F 
ATOM     71  C   UNL     1      13.802   9.469  -6.646  1.00  0.00     0.022 A 
BRANCH  69  72
ATOM     72  S   UNL     1      14.909   7.197  -7.692  1.00  0.00     0.127 S 
ATOM     73  O   UNL     1      13.693   6.881  -8.441  1.00  0.00    -0.237 OA
ATOM     74  O   UNL     1      15.802   8.148  -8.355  1.00  0.00    -0.237 OA
ATOM     75  O   UNL     1      15.579   6.059  -7.080  1.00  0.00    -0.744 OA
ENDBRANCH  69  72
ENDBRANCH  51  65
BRANCH  52  76
ATOM     76  C   UNL     1      13.745   5.255   5.400  1.00  0.00     0.023 A 
ATOM     77  C   UNL     1      14.244   6.057   6.445  1.00  0.00     0.012 A 
ATOM     78  C   UNL     1      13.256   3.968   5.696  1.00  0.00     0.148 A 
ATOM     79  C   UNL     1      14.288   5.574   7.754  1.00  0.00     0.002 A 
ATOM     80  C   UNL     1      13.249   3.515   7.009  1.00  0.00     0.091 A 
ATOM     81  F   UNL     1      12.800   3.215   4.685  1.00  0.00    -0.205 F 
ATOM     82  C   UNL     1      13.781   4.308   8.037  1.00  0.00     0.022 A 
BRANCH  80  83
ATOM     83  S   UNL     1      12.498   1.954   7.483  1.00  0.00     0.127 S 
ATOM     84  O   UNL     1      13.667   1.150   7.826  1.00  0.00    -0.237 OA
ATOM     85  O   UNL     1      11.666   2.352   8.620  1.00  0.00    -0.237 OA
ATOM     86  O   UNL     1      11.744   1.511   6.317  1.00  0.00    -0.744 OA
ENDBRANCH  80  83
ENDBRANCH  52  76
BRANCH  64  87
ATOM     87  C   UNL     1      18.802   7.124   0.964  1.00  0.00     0.023 A 
ATOM     88  C   UNL     1      19.528   5.916   0.956  1.00  0.00     0.012 A 
ATOM     89  C   UNL     1      19.500   8.348   1.001  1.00  0.00     0.148 A 
ATOM     90  C   UNL     1      20.921   5.925   1.017  1.00  0.00     0.002 A 
ATOM     91  C   UNL     1      20.890   8.350   1.011  1.00  0.00     0.091 A 
ATOM     92  F   UNL     1      18.793   9.487   1.027  1.00  0.00    -0.205 F 
ATOM     93  C   UNL     1      21.602   7.140   1.032  1.00  0.00     0.022 A 
BRANCH  91  94
ATOM     94  S   UNL     1      21.853   9.865   0.933  1.00  0.00     0.127 S 
ATOM     95  O   UNL     1      22.399   9.941   2.287  1.00  0.00    -0.237 OA
ATOM     96  O   UNL     1      22.837   9.555  -0.104  1.00  0.00    -0.237 OA
ATOM     97  O   UNL     1      20.913  10.921   0.579  1.00  0.00    -0.744 OA
ENDBRANCH  91  94
ENDBRANCH  64  87
ENDBRANCH  38  39
ENDBRANCH  30  33
ENDBRANCH  28  29
ENDBRANCH  27  28
ENDBRANCH  26  27
ENDBRANCH   1  26
TORSDOF 19
