REMARK SMILES O=C(NCCCCNC(=O)[C@@H](Cc1c[nH]c2ccccc12)Nc1ncnc2ccccc12)c1ccc(-c2c3nc(c(-c4cccc(S(=O)(=O)[O-])c4F)c4ccc([nH]4)c(-c4cccc(S(=O)(=O)[O-])c4F)c4nc(c(-c5cccc(S(=O)(=O)[O-])c5F)c5ccc2[nH]5)C=C4)C=C3)cc1
REMARK SMILES IDX 5 1 4 2 3 3 1 4 2 5 33 7 34 8 95 9 35 10 94 11 36 12 37 13
REMARK SMILES IDX 38 14 88 15 39 16 93 17 87 18 89 19 40 20 92 21 86 22 85 23
REMARK SMILES IDX 41 25 73 26 53 27 72 28 54 29 57 30 71 31 90 32 55 33 56 34
REMARK SMILES IDX 70 36 91 37 58 38 42 39 43 40 51 41 44 42 46 43 52 44 45 45
REMARK SMILES IDX 47 46 48 47 49 48 50 49 74 50 75 51 83 52 76 53 78 54 84 55
REMARK SMILES IDX 77 56 79 57 80 58 81 59 82 60 59 61 60 62 68 63 61 64 63 65
REMARK SMILES IDX 69 66 62 67 64 68 65 69 66 70 67 71 6 72 7 73 8 74 9 75
REMARK SMILES IDX 10 77 11 78 12 79 13 80 14 81 21 82 15 83 16 84 20 85 17 87
REMARK SMILES IDX 19 88 18 89 22 90 23 92 24 93 32 94 25 95 27 96 31 97 26 98
REMARK SMILES IDX 28 99 30 100 29 101
REMARK H PARENT 3 6 89 24 57 35 8 76 15 86 22 91
REMARK Flexibility Score: inf
ROOT
ATOM      1  C   UNL     1       5.788  -2.241  -1.194  1.00  0.00     0.023 C 
ENDROOT
BRANCH   1   2
ATOM      2  C   UNL     1       5.083  -1.002  -0.654  1.00  0.00     0.116 C 
BRANCH   2   3
ATOM      3  N   UNL     1       3.647  -0.950  -0.883  1.00  0.00    -0.352 N 
ATOM      4  O   UNL     1       1.495  -0.486  -0.310  1.00  0.00    -0.269 OA
ATOM      5  C   UNL     1       2.684  -0.414  -0.041  1.00  0.00     0.251 C 
ATOM      6  H   UNL     1       3.323  -1.337  -1.728  1.00  0.00     0.163 HD
BRANCH   5   7
ATOM      7  C   UNL     1       3.137   0.198   1.235  1.00  0.00     0.039 A 
ATOM      8  C   UNL     1       4.182   1.123   1.233  1.00  0.00     0.014 A 
ATOM      9  C   UNL     1       2.609  -0.263   2.444  1.00  0.00     0.014 A 
ATOM     10  C   UNL     1       4.846   1.407   2.421  1.00  0.00     0.010 A 
ATOM     11  C   UNL     1       3.219   0.106   3.649  1.00  0.00     0.010 A 
ATOM     12  C   UNL     1       4.389   0.882   3.643  1.00  0.00    -0.014 A 
BRANCH  12  13
ATOM     13  C   UNL     1       5.167   1.146   4.885  1.00  0.00     0.031 A 
ATOM     14  C   UNL     1       5.800   0.021   5.666  1.00  0.00     0.074 A 
ATOM     15  C   UNL     1       5.346   2.420   5.286  1.00  0.00     0.049 A 
ATOM     16  N   UNL     1       6.544   0.083   6.743  1.00  0.00    -0.248 NA
ATOM     17  C   UNL     1       5.567  -1.352   5.188  1.00  0.00     0.031 C 
ATOM     18  C   UNL     1       4.763   3.594   4.633  1.00  0.00     0.029 A 
ATOM     19  N   UNL     1       6.076   2.945   6.322  1.00  0.00    -0.354 N 
ATOM     20  C   UNL     1       6.822  -1.232   7.098  1.00  0.00     0.074 A 
ATOM     21  C   UNL     1       6.168  -2.077   6.123  1.00  0.00     0.031 C 
ATOM     22  C   UNL     1       5.192   4.701   5.254  1.00  0.00     0.029 A 
ATOM     23  C   UNL     1       6.037   4.318   6.380  1.00  0.00     0.049 A 
ATOM     24  H   UNL     1       6.580   2.392   6.962  1.00  0.00     0.167 HD
ATOM     25  C   UNL     1       7.570  -1.696   8.130  1.00  0.00     0.034 A 
ATOM     26  C   UNL     1       6.609   5.178   7.244  1.00  0.00     0.034 A 
ATOM     27  C   UNL     1       8.276  -0.855   9.061  1.00  0.00     0.049 A 
ATOM     28  C   UNL     1       7.473   4.638   8.347  1.00  0.00     0.074 A 
ATOM     29  C   UNL     1       9.106  -1.233  10.102  1.00  0.00     0.029 A 
ATOM     30  N   UNL     1       8.242   0.531   9.061  1.00  0.00    -0.354 N 
ATOM     31  N   UNL     1       7.804   3.395   8.600  1.00  0.00    -0.248 NA
ATOM     32  C   UNL     1       8.060   5.619   9.271  1.00  0.00     0.031 C 
ATOM     33  C   UNL     1       9.572  -0.074  10.735  1.00  0.00     0.029 A 
ATOM     34  C   UNL     1       9.035   1.025  10.083  1.00  0.00     0.049 A 
ATOM     35  H   UNL     1       7.729   1.083   8.427  1.00  0.00     0.167 HD
ATOM     36  C   UNL     1       8.647   3.444   9.703  1.00  0.00     0.074 A 
ATOM     37  C   UNL     1       8.803   4.842  10.048  1.00  0.00     0.031 C 
ATOM     38  C   UNL     1       9.218   2.421  10.385  1.00  0.00     0.034 A 
BRANCH  25  39
ATOM     39  C   UNL     1       7.711  -3.189   8.285  1.00  0.00     0.023 A 
ATOM     40  C   UNL     1       8.576  -3.896   7.426  1.00  0.00     0.012 A 
ATOM     41  C   UNL     1       7.054  -3.879   9.322  1.00  0.00     0.148 A 
ATOM     42  C   UNL     1       8.768  -5.269   7.582  1.00  0.00     0.002 A 
ATOM     43  C   UNL     1       7.277  -5.242   9.493  1.00  0.00     0.091 A 
ATOM     44  F   UNL     1       6.215  -3.197  10.116  1.00  0.00    -0.205 F 
ATOM     45  C   UNL     1       8.128  -5.939   8.621  1.00  0.00     0.022 A 
BRANCH  43  46
ATOM     46  S   UNL     1       6.547  -6.171  10.849  1.00  0.00     0.127 S 
ATOM     47  O   UNL     1       5.441  -6.852  10.179  1.00  0.00    -0.237 OA
ATOM     48  O   UNL     1       7.646  -7.050  11.255  1.00  0.00    -0.237 OA
ATOM     49  O   UNL     1       6.170  -5.181  11.847  1.00  0.00    -0.744 OA
ENDBRANCH  43  46
ENDBRANCH  25  39
BRANCH  26  50
ATOM     50  C   UNL     1       6.425   6.643   7.046  1.00  0.00     0.023 A 
ATOM     51  C   UNL     1       7.511   7.424   6.611  1.00  0.00     0.012 A 
ATOM     52  C   UNL     1       5.163   7.249   7.206  1.00  0.00     0.148 A 
ATOM     53  C   UNL     1       7.347   8.784   6.346  1.00  0.00     0.002 A 
ATOM     54  C   UNL     1       4.992   8.589   6.880  1.00  0.00     0.091 A 
ATOM     55  F   UNL     1       4.145   6.496   7.648  1.00  0.00    -0.205 F 
ATOM     56  C   UNL     1       6.085   9.363   6.464  1.00  0.00     0.022 A 
BRANCH  54  57
ATOM     57  S   UNL     1       3.364   9.347   6.849  1.00  0.00     0.127 S 
ATOM     58  O   UNL     1       3.326  10.033   8.137  1.00  0.00    -0.237 OA
ATOM     59  O   UNL     1       3.452  10.228   5.684  1.00  0.00    -0.237 OA
ATOM     60  O   UNL     1       2.433   8.238   6.683  1.00  0.00    -0.744 OA
ENDBRANCH  54  57
ENDBRANCH  26  50
BRANCH  38  61
ATOM     61  C   UNL     1      10.067   2.776  11.574  1.00  0.00     0.023 A 
ATOM     62  C   UNL     1       9.443   3.173  12.773  1.00  0.00     0.012 A 
ATOM     63  C   UNL     1      11.470   2.666  11.527  1.00  0.00     0.148 A 
ATOM     64  C   UNL     1      10.203   3.482  13.899  1.00  0.00     0.002 A 
ATOM     65  C   UNL     1      12.220   2.939  12.665  1.00  0.00     0.091 A 
ATOM     66  F   UNL     1      12.047   2.311  10.369  1.00  0.00    -0.205 F 
ATOM     67  C   UNL     1      11.589   3.356  13.849  1.00  0.00     0.022 A 
BRANCH  65  68
ATOM     68  S   UNL     1      14.003   2.722  12.701  1.00  0.00     0.127 S 
ATOM     69  O   UNL     1      14.475   4.090  12.495  1.00  0.00    -0.237 OA
ATOM     70  O   UNL     1      14.232   2.195  14.047  1.00  0.00    -0.237 OA
ATOM     71  O   UNL     1      14.303   1.780  11.631  1.00  0.00    -0.744 OA
ENDBRANCH  65  68
ENDBRANCH  38  61
ENDBRANCH  12  13
ENDBRANCH   5   7
ENDBRANCH   2   3
ENDBRANCH   1   2
BRANCH   1  72
ATOM     72  C   UNL     1       5.839  -2.373  -2.714  1.00  0.00     0.023 C 
BRANCH  72  73
ATOM     73  C   UNL     1       6.410  -1.156  -3.443  1.00  0.00     0.116 C 
BRANCH  73  74
ATOM     74  N   UNL     1       7.436  -1.473  -4.416  1.00  0.00    -0.354 N 
ATOM     75  C   UNL     1       7.421  -1.690  -5.755  1.00  0.00     0.242 C 
ATOM     76  H   UNL     1       8.335  -1.547  -4.021  1.00  0.00     0.163 HD
ATOM     77  O   UNL     1       8.539  -1.670  -6.296  1.00  0.00    -0.273 OA
BRANCH  75  78
ATOM     78  C   UNL     1       6.181  -2.034  -6.613  1.00  0.00     0.174 C 
BRANCH  78  79
ATOM     79  C   UNL     1       5.131  -2.967  -6.014  1.00  0.00     0.072 C 
BRANCH  79  80
ATOM     80  C   UNL     1       3.817  -2.499  -5.421  1.00  0.00    -0.020 A 
ATOM     81  C   UNL     1       2.880  -3.434  -5.001  1.00  0.00     0.087 A 
ATOM     82  C   UNL     1       3.261  -1.206  -5.080  1.00  0.00     0.003 A 
ATOM     83  N   UNL     1       1.855  -2.795  -4.372  1.00  0.00    -0.361 N 
ATOM     84  C   UNL     1       2.074  -1.442  -4.376  1.00  0.00     0.046 A 
ATOM     85  C   UNL     1       3.649   0.151  -5.217  1.00  0.00     0.010 A 
ATOM     86  H   UNL     1       1.072  -3.239  -3.973  1.00  0.00     0.166 HD
ATOM     87  C   UNL     1       1.313  -0.430  -3.778  1.00  0.00     0.026 A 
ATOM     88  C   UNL     1       2.896   1.178  -4.632  1.00  0.00     0.001 A 
ATOM     89  C   UNL     1       1.751   0.886  -3.908  1.00  0.00     0.002 A 
ENDBRANCH  79  80
ENDBRANCH  78  79
BRANCH  78  90
ATOM     90  N   UNL     1       5.589  -0.926  -7.365  1.00  0.00    -0.358 N 
ATOM     91  H   UNL     1       4.734  -0.550  -7.054  1.00  0.00     0.162 HD
BRANCH  90  92
ATOM     92  C   UNL     1       6.178  -0.386  -8.495  1.00  0.00     0.137 A 
ATOM     93  N   UNL     1       6.492   0.914  -8.386  1.00  0.00    -0.219 NA
ATOM     94  C   UNL     1       6.233  -1.068  -9.730  1.00  0.00     0.043 A 
ATOM     95  C   UNL     1       6.902   1.530  -9.498  1.00  0.00     0.224 A 
ATOM     96  C   UNL     1       6.677  -0.304 -10.820  1.00  0.00     0.076 A 
ATOM     97  C   UNL     1       5.858  -2.421  -9.954  1.00  0.00     0.014 A 
ATOM     98  N   UNL     1       7.009   0.985 -10.716  1.00  0.00    -0.236 NA
ATOM     99  C   UNL     1       6.751  -0.902 -12.073  1.00  0.00     0.029 A 
ATOM    100  C   UNL     1       5.963  -3.005 -11.214  1.00  0.00     0.001 A 
ATOM    101  C   UNL     1       6.409  -2.241 -12.280  1.00  0.00     0.002 A 
ENDBRANCH  90  92
ENDBRANCH  78  90
ENDBRANCH  75  78
ENDBRANCH  73  74
ENDBRANCH  72  73
ENDBRANCH   1  72
TORSDOF 18
