REMARK SMILES Cn1c(=O)c(=O)n(C)c2cc(S(=O)(=O)N3CCC[C@H]3C(=O)NCCCCNC(=O)c3ccc(-c4c5nc(c(-c6cccc(S(=O)(=O)[O-])c6F)c6ccc([nH]6)c(-c6cccc(S(=O)(=O)[O-])c6F)c6nc(c(-c7cccc(S(=O)(=O)[O-])c7F)c7ccc4[nH]7)C=C6)C=C5)cc3)ccc21
REMARK SMILES IDX 25 1 24 2 23 3 22 4 20 5 21 6 19 8 15 9 16 10 17 11 18 12
REMARK SMILES IDX 12 13 13 14 14 15 11 16 1 17 2 18 3 19 95 20 4 21 5 22 9 23
REMARK SMILES IDX 94 24 6 25 7 26 10 27 93 28 8 29 26 30 27 31 28 32 29 34
REMARK SMILES IDX 30 35 31 36 92 37 32 38 91 39 33 40 34 41 35 42 85 43 36 44
REMARK SMILES IDX 90 45 84 46 86 47 37 48 89 49 83 50 82 51 38 53 70 54 50 55
REMARK SMILES IDX 69 56 51 57 54 58 68 59 87 60 52 61 53 62 67 64 88 65 55 66
REMARK SMILES IDX 39 67 40 68 48 69 41 70 43 71 49 72 42 73 44 74 45 75 46 76
REMARK SMILES IDX 47 77 71 78 72 79 80 80 73 81 75 82 81 83 74 84 76 85 77 86
REMARK SMILES IDX 78 87 79 88 56 89 57 90 65 91 58 92 60 93 66 94 59 95 61 96
REMARK SMILES IDX 62 97 63 98 64 99
REMARK H PARENT 22 7 27 33 86 52 54 63
REMARK Flexibility Score: inf
ROOT
ATOM      1  C   UNL     1       6.174   9.278   3.870  1.00  0.00     0.023 C 
ENDROOT
BRANCH   1   2
ATOM      2  C   UNL     1       5.854   8.336   2.724  1.00  0.00     0.023 C 
BRANCH   2   3
ATOM      3  C   UNL     1       4.740   7.356   3.033  1.00  0.00     0.116 C 
BRANCH   3   4
ATOM      4  N   UNL     1       3.435   7.970   3.052  1.00  0.00    -0.355 N 
ATOM      5  C   UNL     1       2.259   7.575   2.493  1.00  0.00     0.238 C 
ATOM      6  O   UNL     1       1.276   8.291   2.713  1.00  0.00    -0.273 OA
ATOM      7  H   UNL     1       3.386   8.816   3.553  1.00  0.00     0.163 HD
BRANCH   5   8
ATOM      8  C   UNL     1       2.112   6.312   1.635  1.00  0.00     0.162 C 
ATOM      9  N   UNL     1       2.476   6.514   0.207  1.00  0.00    -0.185 NA
ATOM     10  C   UNL     1       3.782   5.894  -0.048  1.00  0.00     0.103 C 
ATOM     11  C   UNL     1       3.859   4.734   0.936  1.00  0.00     0.019 C 
ATOM     12  C   UNL     1       2.904   5.074   2.085  1.00  0.00     0.032 C 
BRANCH   9  13
ATOM     13  S   UNL     1       1.283   6.431  -0.997  1.00  0.00     0.243 S 
ATOM     14  O   UNL     1       1.918   6.801  -2.244  1.00  0.00    -0.207 OA
ATOM     15  O   UNL     1       0.086   7.093  -0.530  1.00  0.00    -0.207 OA
BRANCH  13  16
ATOM     16  C   UNL     1       0.858   4.699  -1.157  1.00  0.00     0.084 A 
ATOM     17  C   UNL     1       0.770  -0.322  -0.353  1.00  0.00     0.154 C 
ATOM     18  N   UNL     1       0.395   0.516  -1.485  1.00  0.00    -0.305 N 
ATOM     19  C   UNL     1       0.034  -0.102  -2.676  1.00  0.00     0.316 A 
ATOM     20  C   UNL     1       0.479   1.926  -1.384  1.00  0.00     0.068 A 
ATOM     21  O   UNL     1      -0.027  -1.321  -2.817  1.00  0.00    -0.263 OA
ATOM     22  C   UNL     1      -0.324   0.803  -3.864  1.00  0.00     0.316 A 
ATOM     23  C   UNL     1       0.388   2.741  -2.528  1.00  0.00     0.069 A 
ATOM     24  C   UNL     1       0.621   2.530  -0.137  1.00  0.00     0.030 A 
ATOM     25  O   UNL     1      -0.832   0.288  -4.857  1.00  0.00    -0.263 OA
ATOM     26  N   UNL     1      -0.041   2.167  -3.755  1.00  0.00    -0.305 N 
ATOM     27  C   UNL     1       0.668   4.122  -2.416  1.00  0.00     0.050 A 
ATOM     28  C   UNL     1       0.705   3.910  -0.030  1.00  0.00     0.024 A 
ATOM     29  C   UNL     1      -0.365   3.022  -4.886  1.00  0.00     0.154 C 
ENDBRANCH  13  16
ENDBRANCH   9  13
ENDBRANCH   5   8
ENDBRANCH   3   4
ENDBRANCH   2   3
ENDBRANCH   1   2
BRANCH   1  30
ATOM     30  C   UNL     1       6.436   8.588   5.200  1.00  0.00     0.116 C 
BRANCH  30  31
ATOM     31  N   UNL     1       7.502   7.590   5.145  1.00  0.00    -0.352 N 
ATOM     32  C   UNL     1       8.602   7.475   5.969  1.00  0.00     0.251 C 
ATOM     33  H   UNL     1       7.425   6.915   4.432  1.00  0.00     0.163 HD
ATOM     34  O   UNL     1       9.473   6.645   5.744  1.00  0.00    -0.269 OA
BRANCH  32  35
ATOM     35  C   UNL     1       8.709   8.419   7.098  1.00  0.00     0.039 A 
ATOM     36  C   UNL     1       7.609   8.585   7.939  1.00  0.00     0.014 A 
ATOM     37  C   UNL     1       9.812   9.268   7.179  1.00  0.00     0.014 A 
ATOM     38  C   UNL     1       7.512   9.748   8.688  1.00  0.00     0.010 A 
ATOM     39  C   UNL     1       9.759  10.370   8.036  1.00  0.00     0.010 A 
ATOM     40  C   UNL     1       8.581  10.660   8.742  1.00  0.00    -0.014 A 
BRANCH  40  41
ATOM     41  C   UNL     1       8.431  11.905   9.541  1.00  0.00     0.031 A 
ATOM     42  C   UNL     1       8.559  13.267   8.904  1.00  0.00     0.074 A 
ATOM     43  C   UNL     1       8.127  11.801  10.850  1.00  0.00     0.049 A 
ATOM     44  N   UNL     1       8.481  14.444   9.472  1.00  0.00    -0.248 NA
ATOM     45  C   UNL     1       8.806  13.327   7.452  1.00  0.00     0.031 C 
ATOM     46  C   UNL     1       7.986  10.540  11.585  1.00  0.00     0.029 A 
ATOM     47  N   UNL     1       7.878  12.762  11.796  1.00  0.00    -0.354 N 
ATOM     48  C   UNL     1       8.710  15.375   8.466  1.00  0.00     0.074 A 
ATOM     49  C   UNL     1       8.931  14.633   7.246  1.00  0.00     0.031 C 
ATOM     50  C   UNL     1       7.643  10.802  12.852  1.00  0.00     0.029 A 
ATOM     51  C   UNL     1       7.619  12.247  13.043  1.00  0.00     0.049 A 
ATOM     52  H   UNL     1       7.884  13.727  11.600  1.00  0.00     0.167 HD
ATOM     53  C   UNL     1       8.714  16.726   8.550  1.00  0.00     0.034 A 
ATOM     54  C   UNL     1       7.421  12.859  14.226  1.00  0.00     0.034 A 
ATOM     55  C   UNL     1       8.440  17.464   9.753  1.00  0.00     0.049 A 
ATOM     56  C   UNL     1       7.441  14.355  14.288  1.00  0.00     0.074 A 
ATOM     57  C   UNL     1       8.387  18.838   9.918  1.00  0.00     0.029 A 
ATOM     58  N   UNL     1       8.167  16.901  10.988  1.00  0.00    -0.354 N 
ATOM     59  N   UNL     1       7.606  15.212  13.311  1.00  0.00    -0.248 NA
ATOM     60  C   UNL     1       7.234  14.971  15.605  1.00  0.00     0.031 C 
ATOM     61  C   UNL     1       8.095  19.106  11.256  1.00  0.00     0.029 A 
ATOM     62  C   UNL     1       7.945  17.899  11.919  1.00  0.00     0.049 A 
ATOM     63  H   UNL     1       8.135  15.935  11.175  1.00  0.00     0.167 HD
ATOM     64  C   UNL     1       7.508  16.468  13.892  1.00  0.00     0.074 A 
ATOM     65  C   UNL     1       7.250  16.263  15.302  1.00  0.00     0.031 C 
ATOM     66  C   UNL     1       7.638  17.682  13.307  1.00  0.00     0.034 A 
BRANCH  53  67
ATOM     67  C   UNL     1       8.967  17.531   7.304  1.00  0.00     0.023 A 
ATOM     68  C   UNL     1       7.909  17.749   6.402  1.00  0.00     0.012 A 
ATOM     69  C   UNL     1      10.190  18.208   7.121  1.00  0.00     0.148 A 
ATOM     70  C   UNL     1       8.059  18.637   5.337  1.00  0.00     0.002 A 
ATOM     71  C   UNL     1      10.323  19.111   6.073  1.00  0.00     0.091 A 
ATOM     72  F   UNL     1      11.181  17.981   7.995  1.00  0.00    -0.205 F 
ATOM     73  C   UNL     1       9.259  19.326   5.181  1.00  0.00     0.022 A 
BRANCH  71  74
ATOM     74  S   UNL     1      11.806  20.092   5.811  1.00  0.00     0.127 S 
ATOM     75  O   UNL     1      12.222  19.647   4.481  1.00  0.00    -0.237 OA
ATOM     76  O   UNL     1      11.282  21.456   5.862  1.00  0.00    -0.237 OA
ATOM     77  O   UNL     1      12.720  19.740   6.889  1.00  0.00    -0.744 OA
ENDBRANCH  71  74
ENDBRANCH  53  67
BRANCH  54  78
ATOM     78  C   UNL     1       7.194  12.033  15.440  1.00  0.00     0.023 A 
ATOM     79  C   UNL     1       5.909  11.963  16.006  1.00  0.00     0.012 A 
ATOM     80  C   UNL     1       8.237  11.260  15.988  1.00  0.00     0.148 A 
ATOM     81  C   UNL     1       5.668  11.144  17.110  1.00  0.00     0.002 A 
ATOM     82  C   UNL     1       7.980  10.413  17.057  1.00  0.00     0.091 A 
ATOM     83  F   UNL     1       9.451  11.346  15.426  1.00  0.00    -0.205 F 
ATOM     84  C   UNL     1       6.699  10.362  17.627  1.00  0.00     0.022 A 
BRANCH  82  85
ATOM     85  S   UNL     1       9.216   9.291  17.718  1.00  0.00     0.127 S 
ATOM     86  O   UNL     1       9.420   9.832  19.060  1.00  0.00    -0.237 OA
ATOM     87  O   UNL     1       8.512   8.010  17.669  1.00  0.00    -0.237 OA
ATOM     88  O   UNL     1      10.360   9.387  16.821  1.00  0.00    -0.744 OA
ENDBRANCH  82  85
ENDBRANCH  54  78
BRANCH  66  89
ATOM     89  C   UNL     1       7.480  18.902  14.168  1.00  0.00     0.023 A 
ATOM     90  C   UNL     1       8.546  19.314  14.988  1.00  0.00     0.012 A 
ATOM     91  C   UNL     1       6.330  19.707  14.057  1.00  0.00     0.148 A 
ATOM     92  C   UNL     1       8.469  20.514  15.693  1.00  0.00     0.002 A 
ATOM     93  C   UNL     1       6.274  20.918  14.736  1.00  0.00     0.091 A 
ATOM     94  F   UNL     1       5.329  19.285  13.271  1.00  0.00    -0.205 F 
ATOM     95  C   UNL     1       7.340  21.321  15.556  1.00  0.00     0.022 A 
BRANCH  93  96
ATOM     96  S   UNL     1       4.895  22.056  14.572  1.00  0.00     0.127 S 
ATOM     97  O   UNL     1       4.349  22.058  15.928  1.00  0.00    -0.237 OA
ATOM     98  O   UNL     1       5.565  23.296  14.181  1.00  0.00    -0.237 OA
ATOM     99  O   UNL     1       4.018  21.489  13.556  1.00  0.00    -0.744 OA
ENDBRANCH  93  96
ENDBRANCH  66  89
ENDBRANCH  40  41
ENDBRANCH  32  35
ENDBRANCH  30  31
ENDBRANCH   1  30
TORSDOF 16
