REMARK SMILES Cc1ccccc1C[C@H](CCSc1ccccc1)C(=O)NCCCCNC(=O)c1ccc(-c2c3nc(c(-c4cccc(S(=O)(=O)[O-])c4F)c4ccc([nH]4)c(-c4cccc(S(=O)(=O)[O-])c4F)c4nc(c(-c5cccc(S(=O)(=O)[O-])c5F)c5ccc2[nH]5)C=C4)C=C3)cc1
REMARK SMILES IDX 23 1 22 2 21 3 19 4 20 5 9 7 8 8 7 9 1 10 2 11 3 12 4 13
REMARK SMILES IDX 6 14 5 15 10 16 11 17 12 18 13 19 14 20 18 21 15 22 17 23
REMARK SMILES IDX 16 24 24 25 25 26 26 27 27 28 28 30 29 31 30 32 91 33 31 34
REMARK SMILES IDX 90 35 32 36 33 37 34 38 84 39 35 40 89 41 83 42 85 43 36 44
REMARK SMILES IDX 88 45 82 46 81 47 37 49 69 50 49 51 68 52 50 53 53 54 67 55
REMARK SMILES IDX 86 56 51 57 52 58 66 60 87 61 54 62 38 63 39 64 47 65 40 66
REMARK SMILES IDX 42 67 48 68 41 69 43 70 44 71 45 72 46 73 70 74 71 75 79 76
REMARK SMILES IDX 72 77 74 78 80 79 73 80 75 81 76 82 77 83 78 84 55 85 56 86
REMARK SMILES IDX 64 87 57 88 59 89 65 90 58 91 60 92 61 93 62 94 63 95
REMARK H PARENT 21 6 26 29 85 48 53 59
REMARK Flexibility Score: inf
ROOT
ATOM      1  C   UNL     1       1.813   4.787   2.978  1.00  0.00     0.023 C 
ENDROOT
BRANCH   1   2
ATOM      2  C   UNL     1       0.839   5.102   1.841  1.00  0.00     0.116 C 
BRANCH   2   3
ATOM      3  N   UNL     1       1.548   5.278   0.591  1.00  0.00    -0.356 N 
ATOM      4  C   UNL     1       1.424   4.658  -0.605  1.00  0.00     0.223 C 
ATOM      5  O   UNL     1       2.266   4.928  -1.467  1.00  0.00    -0.275 OA
ATOM      6  H   UNL     1       2.246   5.973   0.616  1.00  0.00     0.163 HD
BRANCH   4   7
ATOM      7  C   UNL     1       0.333   3.636  -0.887  1.00  0.00     0.083 C 
BRANCH   7   8
ATOM      8  C   UNL     1      -1.128   4.127  -0.772  1.00  0.00     0.049 C 
BRANCH   8   9
ATOM      9  C   UNL     1      -1.499   5.352  -1.596  1.00  0.00    -0.044 A 
ATOM     10  C   UNL     1      -3.155   4.131  -3.169  1.00  0.00     0.044 C 
ATOM     11  C   UNL     1      -2.380   5.333  -2.701  1.00  0.00    -0.048 A 
ATOM     12  C   UNL     1      -2.668   6.540  -3.375  1.00  0.00     0.004 A 
ATOM     13  C   UNL     1      -2.116   7.750  -2.969  1.00  0.00     0.000 A 
ATOM     14  C   UNL     1      -0.984   6.599  -1.190  1.00  0.00     0.004 A 
ATOM     15  C   UNL     1      -1.277   7.780  -1.870  1.00  0.00     0.000 A 
ENDBRANCH   8   9
ENDBRANCH   7   8
BRANCH   7  16
ATOM     16  C   UNL     1       0.641   2.313  -0.155  1.00  0.00     0.025 C 
BRANCH  16  17
ATOM     17  C   UNL     1      -0.209   1.105  -0.566  1.00  0.00     0.076 C 
BRANCH  17  18
ATOM     18  S   UNL     1       0.371   0.218  -2.067  1.00  0.00    -0.126 SA
BRANCH  18  19
ATOM     19  C   UNL     1      -0.403   1.076  -3.431  1.00  0.00     0.007 A 
ATOM     20  C   UNL     1       0.195   2.204  -4.001  1.00  0.00     0.015 A 
ATOM     21  C   UNL     1      -1.514   0.520  -4.075  1.00  0.00     0.015 A 
ATOM     22  C   UNL     1      -0.363   2.837  -5.114  1.00  0.00     0.001 A 
ATOM     23  C   UNL     1      -2.027   1.105  -5.242  1.00  0.00     0.001 A 
ATOM     24  C   UNL     1      -1.464   2.275  -5.749  1.00  0.00     0.000 A 
ENDBRANCH  18  19
ENDBRANCH  17  18
ENDBRANCH  16  17
ENDBRANCH   7  16
ENDBRANCH   4   7
ENDBRANCH   2   3
ENDBRANCH   1   2
BRANCH   1  25
ATOM     25  C   UNL     1       2.929   5.823   3.210  1.00  0.00     0.023 C 
BRANCH  25  26
ATOM     26  C   UNL     1       2.422   7.247   3.315  1.00  0.00     0.116 C 
BRANCH  26  27
ATOM     27  N   UNL     1       1.459   7.373   4.393  1.00  0.00    -0.352 N 
ATOM     28  C   UNL     1       0.929   8.533   4.899  1.00  0.00     0.251 C 
ATOM     29  H   UNL     1       1.152   6.535   4.807  1.00  0.00     0.163 HD
ATOM     30  O   UNL     1       0.882   8.636   6.132  1.00  0.00    -0.269 OA
BRANCH  28  31
ATOM     31  C   UNL     1       0.295   9.526   4.010  1.00  0.00     0.039 A 
ATOM     32  C   UNL     1      -0.455  10.569   4.573  1.00  0.00     0.014 A 
ATOM     33  C   UNL     1       0.219   9.291   2.641  1.00  0.00     0.014 A 
ATOM     34  C   UNL     1      -1.438  11.190   3.810  1.00  0.00     0.010 A 
ATOM     35  C   UNL     1      -0.639   9.992   1.860  1.00  0.00     0.010 A 
ATOM     36  C   UNL     1      -1.574  10.795   2.489  1.00  0.00    -0.014 A 
BRANCH  36  37
ATOM     37  C   UNL     1      -2.665  11.106   1.603  1.00  0.00     0.031 A 
ATOM     38  C   UNL     1      -2.676  12.421   0.986  1.00  0.00     0.074 A 
ATOM     39  C   UNL     1      -3.367  10.039   1.161  1.00  0.00     0.049 A 
ATOM     40  N   UNL     1      -3.695  12.919   0.393  1.00  0.00    -0.248 NA
ATOM     41  C   UNL     1      -1.516  13.302   1.022  1.00  0.00     0.031 C 
ATOM     42  C   UNL     1      -4.091   9.853  -0.085  1.00  0.00     0.029 A 
ATOM     43  N   UNL     1      -3.570   8.838   1.834  1.00  0.00    -0.354 N 
ATOM     44  C   UNL     1      -3.238  14.013  -0.306  1.00  0.00     0.074 A 
ATOM     45  C   UNL     1      -1.940  14.305   0.249  1.00  0.00     0.031 C 
ATOM     46  C   UNL     1      -4.848   8.741   0.012  1.00  0.00     0.029 A 
ATOM     47  C   UNL     1      -4.771   8.281   1.391  1.00  0.00     0.049 A 
ATOM     48  H   UNL     1      -2.969   8.447   2.508  1.00  0.00     0.167 HD
ATOM     49  C   UNL     1      -3.933  14.391  -1.413  1.00  0.00     0.034 A 
ATOM     50  C   UNL     1      -5.822   8.247   2.272  1.00  0.00     0.034 A 
ATOM     51  C   UNL     1      -5.098  13.499  -1.594  1.00  0.00     0.049 A 
ATOM     52  C   UNL     1      -6.915   9.239   1.901  1.00  0.00     0.074 A 
ATOM     53  C   UNL     1      -5.302  12.374  -2.380  1.00  0.00     0.029 A 
ATOM     54  N   UNL     1      -6.099  13.477  -0.626  1.00  0.00    -0.354 N 
ATOM     55  N   UNL     1      -6.798  10.163   0.987  1.00  0.00    -0.248 NA
ATOM     56  C   UNL     1      -8.236   9.244   2.517  1.00  0.00     0.031 C 
ATOM     57  C   UNL     1      -6.392  11.641  -1.828  1.00  0.00     0.029 A 
ATOM     58  C   UNL     1      -6.872  12.328  -0.725  1.00  0.00     0.049 A 
ATOM     59  H   UNL     1      -6.240  14.186   0.043  1.00  0.00     0.167 HD
ATOM     60  C   UNL     1      -7.918  10.949   0.955  1.00  0.00     0.074 A 
ATOM     61  C   UNL     1      -8.820  10.272   1.876  1.00  0.00     0.031 C 
ATOM     62  C   UNL     1      -7.978  12.103   0.211  1.00  0.00     0.034 A 
BRANCH  49  63
ATOM     63  C   UNL     1      -3.414  15.314  -2.503  1.00  0.00     0.023 A 
ATOM     64  C   UNL     1      -4.077  15.255  -3.750  1.00  0.00     0.012 A 
ATOM     65  C   UNL     1      -2.322  16.214  -2.431  1.00  0.00     0.148 A 
ATOM     66  C   UNL     1      -3.647  15.976  -4.869  1.00  0.00     0.002 A 
ATOM     67  C   UNL     1      -1.862  16.901  -3.560  1.00  0.00     0.091 A 
ATOM     68  F   UNL     1      -1.753  16.485  -1.257  1.00  0.00    -0.205 F 
ATOM     69  C   UNL     1      -2.524  16.782  -4.782  1.00  0.00     0.022 A 
BRANCH  67  70
ATOM     70  S   UNL     1      -0.389  17.945  -3.536  1.00  0.00     0.127 S 
ATOM     71  O   UNL     1       0.396  17.392  -4.642  1.00  0.00    -0.237 OA
ATOM     72  O   UNL     1      -0.943  19.273  -3.791  1.00  0.00    -0.237 OA
ATOM     73  O   UNL     1       0.223  17.765  -2.225  1.00  0.00    -0.744 OA
ENDBRANCH  67  70
ENDBRANCH  49  63
BRANCH  50  74
ATOM     74  C   UNL     1      -5.350   7.948   3.674  1.00  0.00     0.023 A 
ATOM     75  C   UNL     1      -4.629   6.737   3.849  1.00  0.00     0.012 A 
ATOM     76  C   UNL     1      -5.165   8.978   4.612  1.00  0.00     0.148 A 
ATOM     77  C   UNL     1      -3.585   6.654   4.775  1.00  0.00     0.002 A 
ATOM     78  C   UNL     1      -4.140   8.875   5.554  1.00  0.00     0.091 A 
ATOM     79  F   UNL     1      -5.946  10.064   4.544  1.00  0.00    -0.205 F 
ATOM     80  C   UNL     1      -3.305   7.746   5.590  1.00  0.00     0.022 A 
BRANCH  78  81
ATOM     81  S   UNL     1      -3.808  10.230   6.688  1.00  0.00     0.127 S 
ATOM     82  O   UNL     1      -4.766   9.959   7.757  1.00  0.00    -0.237 OA
ATOM     83  O   UNL     1      -2.411  10.019   7.065  1.00  0.00    -0.237 OA
ATOM     84  O   UNL     1      -4.038  11.434   5.904  1.00  0.00    -0.744 OA
ENDBRANCH  78  81
ENDBRANCH  50  74
BRANCH  62  85
ATOM     85  C   UNL     1      -9.085  13.150   0.282  1.00  0.00     0.023 A 
ATOM     86  C   UNL     1     -10.038  13.185   1.315  1.00  0.00     0.012 A 
ATOM     87  C   UNL     1      -9.133  14.230  -0.645  1.00  0.00     0.148 A 
ATOM     88  C   UNL     1     -11.025  14.174   1.390  1.00  0.00     0.002 A 
ATOM     89  C   UNL     1     -10.024  15.286  -0.484  1.00  0.00     0.091 A 
ATOM     90  F   UNL     1      -8.338  14.232  -1.724  1.00  0.00    -0.205 F 
ATOM     91  C   UNL     1     -11.002  15.241   0.508  1.00  0.00     0.022 A 
BRANCH  89  92
ATOM     92  S   UNL     1      -9.863  16.805  -1.433  1.00  0.00     0.127 S 
ATOM     93  O   UNL     1     -10.903  16.638  -2.445  1.00  0.00    -0.237 OA
ATOM     94  O   UNL     1     -10.151  17.828  -0.426  1.00  0.00    -0.237 OA
ATOM     95  O   UNL     1      -8.491  16.817  -1.920  1.00  0.00    -0.744 OA
ENDBRANCH  89  92
ENDBRANCH  62  85
ENDBRANCH  36  37
ENDBRANCH  28  31
ENDBRANCH  26  27
ENDBRANCH  25  26
ENDBRANCH   1  25
TORSDOF 20
