REMARK SMILES O=C1O[C@@H](c2ccc(O)c(O)c2)[C@H](C(=O)NCCCCNC(=O)c2ccc(-c3c4nc(c(-c5cccc(S(=O)(=O)[O-])c5F)c5ccc([nH]5)c(-c5cccc(S(=O)(=O)[O-])c5F)c5nc(c(-c6cccc(S(=O)(=O)[O-])c6F)c6ccc3[nH]6)C=C5)C=C4)cc2)/C1=C\c1ccc(O)c(O)c1
REMARK SMILES IDX 19 1 18 2 17 3 16 4 14 5 15 6 13 8 1 9 2 10 3 11 87 12 4 13
REMARK SMILES IDX 88 14 5 15 6 16 12 17 7 18 10 19 8 20 11 21 9 23 89 25 90 26
REMARK SMILES IDX 96 27 91 28 94 29 92 30 95 31 93 33 20 35 21 36 22 37 23 39
REMARK SMILES IDX 24 40 25 41 86 42 26 43 85 44 27 45 28 46 29 47 79 48 30 49
REMARK SMILES IDX 84 50 78 51 80 52 31 53 83 54 77 55 76 56 32 58 64 59 44 60
REMARK SMILES IDX 63 61 45 62 48 63 62 64 81 65 46 66 47 67 61 69 82 70 49 71
REMARK SMILES IDX 33 72 34 73 42 74 35 75 37 76 43 77 36 78 38 79 39 80 40 81
REMARK SMILES IDX 41 82 65 83 66 84 74 85 67 86 69 87 75 88 68 89 70 90 71 91
REMARK SMILES IDX 72 92 73 93 50 94 51 95 59 96 52 97 54 98 60 99 53 100
REMARK SMILES IDX 55 101 56 102 57 103 58 104
REMARK H PARENT 16 7 11 22 9 24 95 32 93 34 21 38 80 57 48 68
REMARK Flexibility Score: inf
ROOT
ATOM      1  C   UNL     1       5.844   1.972   2.706  1.00  0.00     0.023 C 
ENDROOT
BRANCH   1   2
ATOM      2  C   UNL     1       5.191   1.641   1.370  1.00  0.00     0.023 C 
BRANCH   2   3
ATOM      3  C   UNL     1       4.070   0.617   1.451  1.00  0.00     0.116 C 
BRANCH   3   4
ATOM      4  N   UNL     1       2.869   1.099   2.103  1.00  0.00    -0.355 N 
ATOM      5  C   UNL     1       1.572   1.139   1.671  1.00  0.00     0.231 C 
ATOM      6  O   UNL     1       0.714   1.417   2.510  1.00  0.00    -0.274 OA
ATOM      7  H   UNL     1       3.011   1.458   3.009  1.00  0.00     0.163 HD
BRANCH   5   8
ATOM      8  C   UNL     1       1.236   0.950   0.186  1.00  0.00     0.161 C 
ATOM      9  O   UNL     1      -1.867  -0.807  -0.148  1.00  0.00    -0.247 OA
ATOM     10  C   UNL     1      -0.710  -0.424  -0.140  1.00  0.00     0.335 C 
ATOM     11  O   UNL     1       0.376  -1.222  -0.268  1.00  0.00    -0.453 OA
ATOM     12  C   UNL     1      -0.239   0.969  -0.048  1.00  0.00     0.054 C 
ATOM     13  C   UNL     1       1.581  -0.442  -0.338  1.00  0.00     0.224 C 
ATOM     14  C   UNL     1      -1.111   1.974  -0.214  1.00  0.00     0.020 C 
BRANCH  13  15
ATOM     15  C   UNL     1       2.183  -0.457  -1.749  1.00  0.00    -0.002 A 
ATOM     16  C   UNL     1       3.229   0.424  -2.111  1.00  0.00     0.012 A 
ATOM     17  C   UNL     1       1.775  -1.408  -2.696  1.00  0.00     0.057 A 
ATOM     18  C   UNL     1       3.863   0.348  -3.355  1.00  0.00     0.050 A 
ATOM     19  C   UNL     1       2.393  -1.462  -3.941  1.00  0.00     0.157 A 
ATOM     20  C   UNL     1       3.437  -0.601  -4.266  1.00  0.00     0.157 A 
BRANCH  19  21
ATOM     21  O   UNL     1       1.972  -2.386  -4.854  1.00  0.00    -0.504 OA
ATOM     22  H   UNL     1       2.380  -2.433  -5.696  1.00  0.00     0.293 HD
ENDBRANCH  19  21
BRANCH  20  23
ATOM     23  O   UNL     1       4.019  -0.731  -5.496  1.00  0.00    -0.504 OA
ATOM     24  H   UNL     1       4.724  -0.165  -5.742  1.00  0.00     0.293 HD
ENDBRANCH  20  23
ENDBRANCH  13  15
BRANCH  14  25
ATOM     25  C   UNL     1      -0.763   3.393  -0.174  1.00  0.00    -0.021 A 
ATOM     26  C   UNL     1       0.114   3.953  -1.117  1.00  0.00     0.012 A 
ATOM     27  C   UNL     1      -1.353   4.211   0.795  1.00  0.00     0.058 A 
ATOM     28  C   UNL     1       0.431   5.313  -1.072  1.00  0.00     0.051 A 
ATOM     29  C   UNL     1      -1.042   5.562   0.824  1.00  0.00     0.157 A 
ATOM     30  C   UNL     1      -0.150   6.110  -0.093  1.00  0.00     0.157 A 
BRANCH  29  31
ATOM     31  O   UNL     1      -1.621   6.357   1.772  1.00  0.00    -0.504 OA
ATOM     32  H   UNL     1      -1.420   7.272   1.803  1.00  0.00     0.293 HD
ENDBRANCH  29  31
BRANCH  30  33
ATOM     33  O   UNL     1       0.121   7.447   0.003  1.00  0.00    -0.504 OA
ATOM     34  H   UNL     1       0.717   7.848  -0.598  1.00  0.00     0.293 HD
ENDBRANCH  30  33
ENDBRANCH  14  25
ENDBRANCH   5   8
ENDBRANCH   3   4
ENDBRANCH   2   3
ENDBRANCH   1   2
BRANCH   1  35
ATOM     35  C   UNL     1       6.316   0.766   3.505  1.00  0.00     0.116 C 
BRANCH  35  36
ATOM     36  N   UNL     1       7.301  -0.048   2.801  1.00  0.00    -0.352 N 
ATOM     37  C   UNL     1       8.486  -0.549   3.294  1.00  0.00     0.251 C 
ATOM     38  H   UNL     1       7.095  -0.265   1.863  1.00  0.00     0.163 HD
ATOM     39  O   UNL     1       9.284  -1.119   2.559  1.00  0.00    -0.269 OA
BRANCH  37  40
ATOM     40  C   UNL     1       8.782  -0.348   4.726  1.00  0.00     0.039 A 
ATOM     41  C   UNL     1       9.964   0.295   5.098  1.00  0.00     0.014 A 
ATOM     42  C   UNL     1       7.819  -0.686   5.679  1.00  0.00     0.014 A 
ATOM     43  C   UNL     1      10.144   0.675   6.431  1.00  0.00     0.010 A 
ATOM     44  C   UNL     1       7.960  -0.222   6.979  1.00  0.00     0.010 A 
ATOM     45  C   UNL     1       9.124   0.459   7.371  1.00  0.00    -0.014 A 
BRANCH  45  46
ATOM     46  C   UNL     1       9.239   0.908   8.783  1.00  0.00     0.031 A 
ATOM     47  C   UNL     1       9.164  -0.115   9.884  1.00  0.00     0.074 A 
ATOM     48  C   UNL     1       9.291   2.222   9.079  1.00  0.00     0.049 A 
ATOM     49  N   UNL     1       9.076   0.065  11.175  1.00  0.00    -0.248 NA
ATOM     50  C   UNL     1       9.146  -1.530   9.473  1.00  0.00     0.031 C 
ATOM     51  C   UNL     1       9.316   3.315   8.104  1.00  0.00     0.029 A 
ATOM     52  N   UNL     1       9.293   2.864  10.294  1.00  0.00    -0.354 N 
ATOM     53  C   UNL     1       8.947  -1.204  11.724  1.00  0.00     0.074 A 
ATOM     54  C   UNL     1       8.925  -2.143  10.626  1.00  0.00     0.031 C 
ATOM     55  C   UNL     1       9.331   4.489   8.758  1.00  0.00     0.029 A 
ATOM     56  C   UNL     1       9.269   4.237  10.194  1.00  0.00     0.049 A 
ATOM     57  H   UNL     1       9.312   2.387  11.155  1.00  0.00     0.167 HD
ATOM     58  C   UNL     1       8.881  -1.562  13.028  1.00  0.00     0.034 A 
ATOM     59  C   UNL     1       9.182   5.183  11.151  1.00  0.00     0.034 A 
ATOM     60  C   UNL     1       8.942  -0.629  14.117  1.00  0.00     0.049 A 
ATOM     61  C   UNL     1       9.116   4.758  12.595  1.00  0.00     0.074 A 
ATOM     62  C   UNL     1       8.952  -0.893  15.475  1.00  0.00     0.029 A 
ATOM     63  N   UNL     1       8.999   0.748  13.975  1.00  0.00    -0.354 N 
ATOM     64  N   UNL     1       9.114   3.549  13.101  1.00  0.00    -0.248 NA
ATOM     65  C   UNL     1       9.070   5.828  13.604  1.00  0.00     0.031 C 
ATOM     66  C   UNL     1       8.981   0.327  16.155  1.00  0.00     0.029 A 
ATOM     67  C   UNL     1       9.040   1.349  15.220  1.00  0.00     0.049 A 
ATOM     68  H   UNL     1       9.009   1.228  13.116  1.00  0.00     0.167 HD
ATOM     69  C   UNL     1       9.126   3.712  14.482  1.00  0.00     0.074 A 
ATOM     70  C   UNL     1       9.137   5.138  14.734  1.00  0.00     0.031 C 
ATOM     71  C   UNL     1       9.123   2.767  15.453  1.00  0.00     0.034 A 
BRANCH  58  72
ATOM     72  C   UNL     1       8.776  -3.031  13.345  1.00  0.00     0.023 A 
ATOM     73  C   UNL     1       9.874  -3.881  13.099  1.00  0.00     0.012 A 
ATOM     74  C   UNL     1       7.611  -3.561  13.933  1.00  0.00     0.148 A 
ATOM     75  C   UNL     1       9.801  -5.241  13.392  1.00  0.00     0.002 A 
ATOM     76  C   UNL     1       7.564  -4.908  14.271  1.00  0.00     0.091 A 
ATOM     77  F   UNL     1       6.571  -2.742  14.142  1.00  0.00    -0.205 F 
ATOM     78  C   UNL     1       8.651  -5.752  13.988  1.00  0.00     0.022 A 
BRANCH  76  79
ATOM     79  S   UNL     1       6.165  -5.646  15.120  1.00  0.00     0.127 S 
ATOM     80  O   UNL     1       5.626  -6.529  14.085  1.00  0.00    -0.237 OA
ATOM     81  O   UNL     1       6.814  -6.338  16.234  1.00  0.00    -0.237 OA
ATOM     82  O   UNL     1       5.300  -4.542  15.508  1.00  0.00    -0.744 OA
ENDBRANCH  76  79
ENDBRANCH  58  72
BRANCH  59  83
ATOM     83  C   UNL     1       9.204   6.630  10.787  1.00  0.00     0.023 A 
ATOM     84  C   UNL     1      10.316   7.417  11.147  1.00  0.00     0.012 A 
ATOM     85  C   UNL     1       8.136   7.231  10.093  1.00  0.00     0.148 A 
ATOM     86  C   UNL     1      10.345   8.783  10.864  1.00  0.00     0.002 A 
ATOM     87  C   UNL     1       8.197   8.581   9.763  1.00  0.00     0.091 A 
ATOM     88  F   UNL     1       7.084   6.469   9.764  1.00  0.00    -0.205 F 
ATOM     89  C   UNL     1       9.290   9.363  10.166  1.00  0.00     0.022 A 
BRANCH  87  90
ATOM     90  S   UNL     1       6.946   9.386   8.757  1.00  0.00     0.127 S 
ATOM     91  O   UNL     1       6.327  10.295   9.719  1.00  0.00    -0.237 OA
ATOM     92  O   UNL     1       7.761  10.037   7.730  1.00  0.00    -0.237 OA
ATOM     93  O   UNL     1       6.092   8.317   8.258  1.00  0.00    -0.744 OA
ENDBRANCH  87  90
ENDBRANCH  59  83
BRANCH  71  94
ATOM     94  C   UNL     1       9.222   3.221  16.885  1.00  0.00     0.023 A 
ATOM     95  C   UNL     1       8.121   3.828  17.519  1.00  0.00     0.012 A 
ATOM     96  C   UNL     1      10.385   2.940  17.631  1.00  0.00     0.148 A 
ATOM     97  C   UNL     1       8.186   4.170  18.870  1.00  0.00     0.002 A 
ATOM     98  C   UNL     1      10.422   3.233  18.988  1.00  0.00     0.091 A 
ATOM     99  F   UNL     1      11.426   2.377  17.002  1.00  0.00    -0.205 F 
ATOM    100  C   UNL     1       9.328   3.860  19.606  1.00  0.00     0.022 A 
BRANCH  98 101
ATOM    101  S   UNL     1      11.806   2.774  20.036  1.00  0.00     0.127 S 
ATOM    102  O   UNL     1      12.363   4.081  20.382  1.00  0.00    -0.237 OA
ATOM    103  O   UNL     1      11.139   2.083  21.140  1.00  0.00    -0.237 OA
ATOM    104  O   UNL     1      12.668   1.928  19.222  1.00  0.00    -0.744 OA
ENDBRANCH  98 101
ENDBRANCH  71  94
ENDBRANCH  45  46
ENDBRANCH  37  40
ENDBRANCH  35  36
ENDBRANCH   1  35
TORSDOF 20
