REMARK SMILES O=C(NCCCCNC(=O)c1ccc(O[C@@H]2CCCCNC2=O)cn1)c1ccc(-c2c3nc(c(-c4cccc(S(=O)(=O)[O-])c4F)c4ccc([nH]4)c(-c4cccc(S(=O)(=O)[O-])c4F)c4nc(c(-c5cccc(S(=O)(=O)[O-])c5F)c5ccc2[nH]5)C=C4)C=C3)cc1
REMARK SMILES IDX 6 1 5 2 4 3 3 4 1 5 2 6 26 8 27 9 88 10 28 11 87 12 29 13
REMARK SMILES IDX 30 14 31 15 81 16 32 17 86 18 80 19 82 20 33 21 85 22 79 23
REMARK SMILES IDX 78 24 34 26 66 27 46 28 65 29 47 30 50 31 64 32 83 33 48 34
REMARK SMILES IDX 49 35 63 37 84 38 51 39 35 40 36 41 44 42 37 43 39 44 45 45
REMARK SMILES IDX 38 46 40 47 41 48 42 49 43 50 67 51 68 52 76 53 69 54 71 55
REMARK SMILES IDX 77 56 70 57 72 58 73 59 74 60 75 61 52 62 53 63 61 64 54 65
REMARK SMILES IDX 56 66 62 67 55 68 57 69 58 70 59 71 60 72 7 73 8 74 9 75
REMARK SMILES IDX 10 77 11 78 12 79 25 80 13 81 24 82 14 83 15 84 16 85 17 86
REMARK SMILES IDX 18 87 22 89 21 90 23 91 20 93 19 94
REMARK H PARENT 3 7 82 25 50 36 8 76 21 92
REMARK Flexibility Score: 80.00
ROOT
ATOM      1  C   UNL     1      -0.094   8.034 -12.822  1.00  0.00     0.023 C 
ENDROOT
BRANCH   1   2
ATOM      2  C   UNL     1      -1.028   9.212 -13.096  1.00  0.00     0.023 C 
BRANCH   2   3
ATOM      3  C   UNL     1      -1.800   9.707 -11.880  1.00  0.00     0.116 C 
BRANCH   3   4
ATOM      4  N   UNL     1      -0.942  10.358 -10.902  1.00  0.00    -0.352 N 
ATOM      5  O   UNL     1      -0.071  12.074  -9.732  1.00  0.00    -0.269 OA
ATOM      6  C   UNL     1      -0.992  11.648 -10.425  1.00  0.00     0.251 C 
ATOM      7  H   UNL     1      -0.225   9.796 -10.529  1.00  0.00     0.163 HD
BRANCH   6   8
ATOM      8  C   UNL     1      -2.136  12.520 -10.773  1.00  0.00     0.039 A 
ATOM      9  C   UNL     1      -3.444  12.032 -10.720  1.00  0.00     0.014 A 
ATOM     10  C   UNL     1      -1.900  13.841 -11.164  1.00  0.00     0.014 A 
ATOM     11  C   UNL     1      -4.492  12.806 -11.206  1.00  0.00     0.010 A 
ATOM     12  C   UNL     1      -2.969  14.650 -11.564  1.00  0.00     0.010 A 
ATOM     13  C   UNL     1      -4.271  14.129 -11.624  1.00  0.00    -0.014 A 
BRANCH  13  14
ATOM     14  C   UNL     1      -5.428  14.960 -12.049  1.00  0.00     0.031 A 
ATOM     15  C   UNL     1      -5.539  15.499 -13.450  1.00  0.00     0.074 A 
ATOM     16  C   UNL     1      -6.399  15.218 -11.150  1.00  0.00     0.049 A 
ATOM     17  N   UNL     1      -6.501  16.209 -13.982  1.00  0.00    -0.248 NA
ATOM     18  C   UNL     1      -4.429  15.213 -14.373  1.00  0.00     0.031 C 
ATOM     19  C   UNL     1      -6.383  14.788  -9.749  1.00  0.00     0.029 A 
ATOM     20  N   UNL     1      -7.584  15.898 -11.273  1.00  0.00    -0.354 N 
ATOM     21  C   UNL     1      -6.104  16.482 -15.286  1.00  0.00     0.074 A 
ATOM     22  C   UNL     1      -4.803  15.872 -15.462  1.00  0.00     0.031 C 
ATOM     23  C   UNL     1      -7.513  15.191  -9.150  1.00  0.00     0.029 A 
ATOM     24  C   UNL     1      -8.309  15.952 -10.105  1.00  0.00     0.049 A 
ATOM     25  H   UNL     1      -7.886  16.309 -12.115  1.00  0.00     0.167 HD
ATOM     26  C   UNL     1      -6.770  17.160 -16.253  1.00  0.00     0.034 A 
ATOM     27  C   UNL     1      -9.477  16.560  -9.825  1.00  0.00     0.034 A 
ATOM     28  C   UNL     1      -8.076  17.742 -16.081  1.00  0.00     0.049 A 
ATOM     29  C   UNL     1     -10.196  17.294 -10.920  1.00  0.00     0.074 A 
ATOM     30  C   UNL     1      -8.853  18.405 -17.016  1.00  0.00     0.029 A 
ATOM     31  N   UNL     1      -8.798  17.737 -14.897  1.00  0.00    -0.354 N 
ATOM     32  N   UNL     1      -9.860  17.430 -12.179  1.00  0.00    -0.248 NA
ATOM     33  C   UNL     1     -11.470  17.933 -10.563  1.00  0.00     0.031 C 
ATOM     34  C   UNL     1     -10.035  18.819 -16.392  1.00  0.00     0.029 A 
ATOM     35  C   UNL     1     -10.007  18.392 -15.074  1.00  0.00     0.049 A 
ATOM     36  H   UNL     1      -8.496  17.329 -14.053  1.00  0.00     0.167 HD
ATOM     37  C   UNL     1     -10.892  18.146 -12.773  1.00  0.00     0.074 A 
ATOM     38  C   UNL     1     -11.879  18.388 -11.740  1.00  0.00     0.031 C 
ATOM     39  C   UNL     1     -11.003  18.582 -14.051  1.00  0.00     0.034 A 
BRANCH  26  40
ATOM     40  C   UNL     1      -6.120  17.274 -17.609  1.00  0.00     0.023 A 
ATOM     41  C   UNL     1      -6.063  16.143 -18.448  1.00  0.00     0.012 A 
ATOM     42  C   UNL     1      -5.639  18.511 -18.086  1.00  0.00     0.148 A 
ATOM     43  C   UNL     1      -5.513  16.232 -19.727  1.00  0.00     0.002 A 
ATOM     44  C   UNL     1      -5.129  18.600 -19.377  1.00  0.00     0.091 A 
ATOM     45  F   UNL     1      -5.685  19.573 -17.269  1.00  0.00    -0.205 F 
ATOM     46  C   UNL     1      -5.057  17.461 -20.195  1.00  0.00     0.022 A 
BRANCH  44  47
ATOM     47  S   UNL     1      -4.586  20.154 -20.100  1.00  0.00     0.127 S 
ATOM     48  O   UNL     1      -3.135  19.973 -20.131  1.00  0.00    -0.237 OA
ATOM     49  O   UNL     1      -5.231  20.126 -21.413  1.00  0.00    -0.237 OA
ATOM     50  O   UNL     1      -5.067  21.200 -19.210  1.00  0.00    -0.744 OA
ENDBRANCH  44  47
ENDBRANCH  26  40
BRANCH  27  51
ATOM     51  C   UNL     1     -10.053  16.460  -8.455  1.00  0.00     0.023 A 
ATOM     52  C   UNL     1     -11.230  15.715  -8.247  1.00  0.00     0.012 A 
ATOM     53  C   UNL     1      -9.421  17.068  -7.352  1.00  0.00     0.148 A 
ATOM     54  C   UNL     1     -11.782  15.601  -6.971  1.00  0.00     0.002 A 
ATOM     55  C   UNL     1      -9.942  16.898  -6.075  1.00  0.00     0.091 A 
ATOM     56  F   UNL     1      -8.311  17.787  -7.572  1.00  0.00    -0.205 F 
ATOM     57  C   UNL     1     -11.133  16.181  -5.884  1.00  0.00     0.022 A 
BRANCH  55  58
ATOM     58  S   UNL     1      -9.085  17.486  -4.610  1.00  0.00     0.127 S 
ATOM     59  O   UNL     1      -9.881  18.656  -4.248  1.00  0.00    -0.237 OA
ATOM     60  O   UNL     1      -9.216  16.346  -3.702  1.00  0.00    -0.237 OA
ATOM     61  O   UNL     1      -7.719  17.752  -5.040  1.00  0.00    -0.744 OA
ENDBRANCH  55  58
ENDBRANCH  27  51
BRANCH  39  62
ATOM     62  C   UNL     1     -12.251  19.341 -14.417  1.00  0.00     0.023 A 
ATOM     63  C   UNL     1     -12.431  20.658 -13.948  1.00  0.00     0.012 A 
ATOM     64  C   UNL     1     -13.219  18.771 -15.266  1.00  0.00     0.148 A 
ATOM     65  C   UNL     1     -13.572  21.383 -14.290  1.00  0.00     0.002 A 
ATOM     66  C   UNL     1     -14.330  19.516 -15.642  1.00  0.00     0.091 A 
ATOM     67  F   UNL     1     -13.040  17.509 -15.684  1.00  0.00    -0.205 F 
ATOM     68  C   UNL     1     -14.514  20.817 -15.145  1.00  0.00     0.022 A 
BRANCH  66  69
ATOM     69  S   UNL     1     -15.549  18.902 -16.809  1.00  0.00     0.127 S 
ATOM     70  O   UNL     1     -16.683  18.614 -15.932  1.00  0.00    -0.237 OA
ATOM     71  O   UNL     1     -15.740  20.053 -17.694  1.00  0.00    -0.237 OA
ATOM     72  O   UNL     1     -14.941  17.744 -17.450  1.00  0.00    -0.744 OA
ENDBRANCH  66  69
ENDBRANCH  39  62
ENDBRANCH  13  14
ENDBRANCH   6   8
ENDBRANCH   3   4
ENDBRANCH   2   3
ENDBRANCH   1   2
BRANCH   1  73
ATOM     73  C   UNL     1      -0.799   6.779 -12.315  1.00  0.00     0.116 C 
BRANCH  73  74
ATOM     74  N   UNL     1      -1.744   6.261 -13.290  1.00  0.00    -0.351 N 
ATOM     75  C   UNL     1      -1.732   5.024 -13.893  1.00  0.00     0.269 C 
ATOM     76  H   UNL     1      -2.477   6.865 -13.549  1.00  0.00     0.163 HD
ATOM     77  O   UNL     1      -2.571   4.718 -14.733  1.00  0.00    -0.268 OA
BRANCH  75  78
ATOM     78  C   UNL     1      -0.759   4.026 -13.394  1.00  0.00     0.128 A 
ATOM     79  C   UNL     1      -1.120   3.305 -12.267  1.00  0.00     0.038 A 
ATOM     80  N   UNL     1       0.458   3.960 -13.990  1.00  0.00    -0.247 NA
ATOM     81  C   UNL     1      -0.169   2.464 -11.710  1.00  0.00     0.050 A 
ATOM     82  C   UNL     1       1.361   3.133 -13.405  1.00  0.00     0.158 A 
ATOM     83  C   UNL     1       1.117   2.427 -12.232  1.00  0.00     0.138 A 
BRANCH  83  84
ATOM     84  O   UNL     1       2.033   1.575 -11.713  1.00  0.00    -0.479 OA
BRANCH  84  85
ATOM     85  C   UNL     1       2.783   2.005 -10.579  1.00  0.00     0.262 C 
BRANCH  85  86
ATOM     86  C   UNL     1       2.250   1.478  -9.231  1.00  0.00     0.055 C 
BRANCH  86  87
ATOM     87  C   UNL     1       1.067   2.146  -8.532  1.00  0.00     0.006 CG0
ATOM     88  G   UNL     1       1.090   3.652  -8.289  1.00  0.00     0.000 G0
ENDBRANCH  86  87
ENDBRANCH  85  86
BRANCH  85  89
ATOM     89  C   UNL     1       3.511   3.364 -10.447  1.00  0.00     0.261 C 
ATOM     90  N   UNL     1       2.933   4.394  -9.773  1.00  0.00    -0.353 N 
ATOM     91  O   UNL     1       4.650   3.529 -10.892  1.00  0.00    -0.271 OA
ATOM     92  H   UNL     1       3.534   5.120  -9.491  1.00  0.00     0.163 HD
BRANCH  90  93
ATOM     93  C   UNL     1       1.547   4.545  -9.425  1.00  0.00     0.116 C 
BRANCH  93  94
ATOM     94  C   UNL     1       1.090   3.652  -8.289  1.00  0.00     0.021 CG0
ATOM     95  G   UNL     1       1.067   2.146  -8.532  1.00  0.00     0.000 G0
ENDBRANCH  93  94
ENDBRANCH  90  93
ENDBRANCH  85  89
ENDBRANCH  84  85
ENDBRANCH  83  84
ENDBRANCH  75  78
ENDBRANCH  73  74
ENDBRANCH   1  73
TORSDOF 16
