REMARK SMILES CO[C@@H]1C[C@H](C(=O)NCCCCNC(=O)c2ccc(-c3c4nc(c(-c5cccc(S(=O)(=O)[O-])c5F)c5ccc([nH]5)c(-c5cccc(S(=O)(=O)[O-])c5F)c5nc(c(-c6cccc(S(=O)(=O)[O-])c6F)c6ccc3[nH]6)C=C5)C=C4)cc2)N(C(=O)c2ccn(C)c(=O)c2)C1
REMARK SMILES IDX 11 1 10 2 9 3 8 4 6 5 7 6 5 8 3 9 4 10 90 11 79 12 2 13 1 14
REMARK SMILES IDX 80 15 81 16 82 17 83 18 89 19 84 20 87 21 85 22 88 23 86 24
REMARK SMILES IDX 12 25 13 26 14 27 15 29 16 30 17 31 78 32 18 33 77 34 19 35
REMARK SMILES IDX 20 36 21 37 71 38 22 39 76 40 70 41 72 42 23 43 75 44 69 45
REMARK SMILES IDX 68 46 24 48 56 49 36 50 55 51 37 52 40 53 54 54 73 55 38 56
REMARK SMILES IDX 39 57 53 59 74 60 41 61 25 62 26 63 34 64 27 65 29 66 35 67
REMARK SMILES IDX 28 68 30 69 31 70 32 71 33 72 57 73 58 74 66 75 59 76 61 77
REMARK SMILES IDX 67 78 60 79 62 80 63 81 64 82 65 83 42 84 43 85 51 86 44 87
REMARK SMILES IDX 46 88 52 89 45 90 47 91 48 92 49 93 50 94
REMARK H PARENT 8 7 13 28 72 47 40 58
REMARK Flexibility Score: inf
ROOT
ATOM      1  C   UNL     1      -1.351  -1.614   0.840  1.00  0.00     0.023 C 
ENDROOT
BRANCH   1   2
ATOM      2  C   UNL     1      -0.695  -1.014  -0.396  1.00  0.00     0.023 C 
BRANCH   2   3
ATOM      3  C   UNL     1      -1.140   0.407  -0.756  1.00  0.00     0.116 C 
BRANCH   3   4
ATOM      4  N   UNL     1      -0.502   1.396   0.092  1.00  0.00    -0.354 N 
ATOM      5  C   UNL     1       0.396   2.384  -0.133  1.00  0.00     0.242 C 
ATOM      6  O   UNL     1       0.837   2.940   0.885  1.00  0.00    -0.273 OA
ATOM      7  H   UNL     1      -0.782   1.335   1.034  1.00  0.00     0.163 HD
BRANCH   5   8
ATOM      8  C   UNL     1       0.993   2.809  -1.501  1.00  0.00     0.177 C 
ATOM      9  C   UNL     1       2.150   0.991  -2.547  1.00  0.00     0.139 C 
ATOM     10  C   UNL     1       2.398   2.269  -1.750  1.00  0.00     0.069 C 
ATOM     11  C   UNL     1       0.935   1.368  -3.427  1.00  0.00     0.152 C 
ATOM     12  N   UNL     1       0.324   2.527  -2.768  1.00  0.00    -0.324 N 
BRANCH   9  13
ATOM     13  O   UNL     1       1.839  -0.130  -1.728  1.00  0.00    -0.380 OA
ATOM     14  C   UNL     1       2.780  -0.388  -0.688  1.00  0.00     0.195 C 
ENDBRANCH   9  13
BRANCH  12  15
ATOM     15  C   UNL     1      -0.441   3.414  -3.508  1.00  0.00     0.254 C 
ATOM     16  O   UNL     1      -1.067   3.094  -4.514  1.00  0.00    -0.269 OA
BRANCH  15  17
ATOM     17  C   UNL     1      -0.325   4.853  -3.129  1.00  0.00     0.046 A 
ATOM     18  C   UNL     1      -1.401   5.588  -2.514  1.00  0.00     0.032 A 
ATOM     19  C   UNL     1       0.857   5.441  -3.376  1.00  0.00     0.085 A 
ATOM     20  C   UNL     1      -1.183   6.842  -2.093  1.00  0.00     0.089 A 
ATOM     21  C   UNL     1       1.116   6.818  -2.891  1.00  0.00     0.251 A 
ATOM     22  N   UNL     1       0.055   7.448  -2.246  1.00  0.00    -0.319 N 
ATOM     23  O   UNL     1       2.232   7.301  -3.061  1.00  0.00    -0.269 OA
ATOM     24  C   UNL     1       0.248   8.790  -1.720  1.00  0.00     0.153 C 
ENDBRANCH  15  17
ENDBRANCH  12  15
ENDBRANCH   5   8
ENDBRANCH   3   4
ENDBRANCH   2   3
ENDBRANCH   1   2
BRANCH   1  25
ATOM     25  C   UNL     1      -2.827  -1.915   0.674  1.00  0.00     0.116 C 
BRANCH  25  26
ATOM     26  N   UNL     1      -3.098  -2.876  -0.389  1.00  0.00    -0.352 N 
ATOM     27  C   UNL     1      -3.881  -4.010  -0.344  1.00  0.00     0.251 C 
ATOM     28  H   UNL     1      -2.663  -2.691  -1.253  1.00  0.00     0.163 HD
ATOM     29  O   UNL     1      -3.900  -4.798  -1.274  1.00  0.00    -0.269 OA
BRANCH  27  30
ATOM     30  C   UNL     1      -4.677  -4.257   0.876  1.00  0.00     0.039 A 
ATOM     31  C   UNL     1      -4.622  -5.509   1.491  1.00  0.00     0.014 A 
ATOM     32  C   UNL     1      -5.400  -3.211   1.451  1.00  0.00     0.014 A 
ATOM     33  C   UNL     1      -5.239  -5.686   2.731  1.00  0.00     0.010 A 
ATOM     34  C   UNL     1      -5.904  -3.355   2.732  1.00  0.00     0.010 A 
ATOM     35  C   UNL     1      -5.851  -4.599   3.377  1.00  0.00    -0.014 A 
BRANCH  35  36
ATOM     36  C   UNL     1      -6.475  -4.732   4.716  1.00  0.00     0.031 A 
ATOM     37  C   UNL     1      -7.938  -4.414   4.881  1.00  0.00     0.074 A 
ATOM     38  C   UNL     1      -5.713  -5.028   5.787  1.00  0.00     0.049 A 
ATOM     39  N   UNL     1      -8.654  -4.367   5.973  1.00  0.00    -0.248 NA
ATOM     40  C   UNL     1      -8.685  -4.053   3.663  1.00  0.00     0.031 C 
ATOM     41  C   UNL     1      -4.266  -5.257   5.765  1.00  0.00     0.029 A 
ATOM     42  N   UNL     1      -6.046  -5.161   7.111  1.00  0.00    -0.354 N 
ATOM     43  C   UNL     1      -9.911  -3.924   5.580  1.00  0.00     0.074 A 
ATOM     44  C   UNL     1      -9.848  -3.663   4.161  1.00  0.00     0.031 C 
ATOM     45  C   UNL     1      -3.840  -5.517   7.012  1.00  0.00     0.029 A 
ATOM     46  C   UNL     1      -4.975  -5.446   7.926  1.00  0.00     0.049 A 
ATOM     47  H   UNL     1      -6.966  -5.061   7.447  1.00  0.00     0.167 HD
ATOM     48  C   UNL     1     -11.033  -3.788   6.325  1.00  0.00     0.034 A 
ATOM     49  C   UNL     1      -4.920  -5.630   9.260  1.00  0.00     0.034 A 
ATOM     50  C   UNL     1     -11.105  -4.124   7.718  1.00  0.00     0.049 A 
ATOM     51  C   UNL     1      -6.198  -5.553  10.052  1.00  0.00     0.074 A 
ATOM     52  C   UNL     1     -12.211  -4.128   8.547  1.00  0.00     0.029 A 
ATOM     53  N   UNL     1     -10.022  -4.524   8.488  1.00  0.00    -0.354 N 
ATOM     54  N   UNL     1      -7.413  -5.291   9.634  1.00  0.00    -0.248 NA
ATOM     55  C   UNL     1      -6.106  -5.838  11.491  1.00  0.00     0.031 C 
ATOM     56  C   UNL     1     -11.793  -4.518   9.824  1.00  0.00     0.029 A 
ATOM     57  C   UNL     1     -10.432  -4.777   9.783  1.00  0.00     0.049 A 
ATOM     58  H   UNL     1      -9.099  -4.614   8.159  1.00  0.00     0.167 HD
ATOM     59  C   UNL     1      -8.235  -5.415  10.747  1.00  0.00     0.074 A 
ATOM     60  C   UNL     1      -7.381  -5.798  11.854  1.00  0.00     0.031 C 
ATOM     61  C   UNL     1      -9.572  -5.215  10.852  1.00  0.00     0.034 A 
BRANCH  48  62
ATOM     62  C   UNL     1     -12.284  -3.324   5.626  1.00  0.00     0.023 A 
ATOM     63  C   UNL     1     -12.923  -4.178   4.702  1.00  0.00     0.012 A 
ATOM     64  C   UNL     1     -12.850  -2.066   5.906  1.00  0.00     0.148 A 
ATOM     65  C   UNL     1     -14.079  -3.772   4.038  1.00  0.00     0.002 A 
ATOM     66  C   UNL     1     -14.030  -1.688   5.277  1.00  0.00     0.091 A 
ATOM     67  F   UNL     1     -12.217  -1.257   6.768  1.00  0.00    -0.205 F 
ATOM     68  C   UNL     1     -14.638  -2.533   4.333  1.00  0.00     0.022 A 
BRANCH  66  69
ATOM     69  S   UNL     1     -14.876  -0.146   5.646  1.00  0.00     0.127 S 
ATOM     70  O   UNL     1     -14.664   0.610   4.413  1.00  0.00    -0.237 OA
ATOM     71  O   UNL     1     -16.253  -0.595   5.857  1.00  0.00    -0.237 OA
ATOM     72  O   UNL     1     -14.225   0.396   6.830  1.00  0.00    -0.744 OA
ENDBRANCH  66  69
ENDBRANCH  48  62
BRANCH  49  73
ATOM     73  C   UNL     1      -3.629  -5.991   9.914  1.00  0.00     0.023 A 
ATOM     74  C   UNL     1      -3.455  -7.294  10.421  1.00  0.00     0.012 A 
ATOM     75  C   UNL     1      -2.569  -5.070  10.013  1.00  0.00     0.148 A 
ATOM     76  C   UNL     1      -2.263  -7.662  11.047  1.00  0.00     0.002 A 
ATOM     77  C   UNL     1      -1.364  -5.460  10.589  1.00  0.00     0.091 A 
ATOM     78  F   UNL     1      -2.755  -3.832   9.534  1.00  0.00    -0.205 F 
ATOM     79  C   UNL     1      -1.215  -6.750  11.123  1.00  0.00     0.022 A 
BRANCH  77  80
ATOM     80  S   UNL     1       0.082  -4.394  10.613  1.00  0.00     0.127 S 
ATOM     81  O   UNL     1       0.158  -4.024  12.023  1.00  0.00    -0.237 OA
ATOM     82  O   UNL     1       1.135  -5.300  10.155  1.00  0.00    -0.237 OA
ATOM     83  O   UNL     1      -0.218  -3.309   9.687  1.00  0.00    -0.744 OA
ENDBRANCH  77  80
ENDBRANCH  49  73
BRANCH  61  84
ATOM     84  C   UNL     1     -10.207  -5.444  12.197  1.00  0.00     0.023 A 
ATOM     85  C   UNL     1     -10.000  -4.516  13.236  1.00  0.00     0.012 A 
ATOM     86  C   UNL     1     -11.078  -6.532  12.400  1.00  0.00     0.148 A 
ATOM     87  C   UNL     1     -10.625  -4.686  14.470  1.00  0.00     0.002 A 
ATOM     88  C   UNL     1     -11.737  -6.667  13.615  1.00  0.00     0.091 A 
ATOM     89  F   UNL     1     -11.246  -7.412  11.403  1.00  0.00    -0.205 F 
ATOM     90  C   UNL     1     -11.503  -5.753  14.655  1.00  0.00     0.022 A 
BRANCH  88  91
ATOM     91  S   UNL     1     -12.960  -7.950  13.906  1.00  0.00     0.127 S 
ATOM     92  O   UNL     1     -12.235  -8.856  14.796  1.00  0.00    -0.237 OA
ATOM     93  O   UNL     1     -14.045  -7.205  14.546  1.00  0.00    -0.237 OA
ATOM     94  O   UNL     1     -13.292  -8.492  12.595  1.00  0.00    -0.744 OA
ENDBRANCH  88  91
ENDBRANCH  61  84
ENDBRANCH  35  36
ENDBRANCH  27  30
ENDBRANCH  25  26
ENDBRANCH   1  25
TORSDOF 17
