REMARK SMILES O=C(NCCCCNC(=O)c1cc(NC(=S)NC(=O)c2ccccc2F)ccc1Cl)c1ccc(-c2c3nc(c(-c4cccc(S(=O)(=O)[O-])c4F)c4ccc([nH]4)c(-c4cccc(S(=O)(=O)[O-])c4F)c4nc(c(-c5cccc(S(=O)(=O)[O-])c5F)c5ccc2[nH]5)C=C4)C=C3)cc1
REMARK SMILES IDX 6 1 5 2 4 3 3 4 1 5 2 6 31 8 32 9 93 10 33 11 92 12 34 13
REMARK SMILES IDX 35 14 36 15 86 16 37 17 91 18 85 19 87 20 38 21 90 22 84 23
REMARK SMILES IDX 83 24 39 26 71 27 51 28 70 29 52 30 55 31 69 32 88 33 53 34
REMARK SMILES IDX 54 35 68 37 89 38 56 39 40 40 41 41 49 42 42 43 44 44 50 45
REMARK SMILES IDX 43 46 45 47 46 48 47 49 48 50 72 51 73 52 81 53 74 54 76 55
REMARK SMILES IDX 82 56 75 57 77 58 78 59 79 60 80 61 57 62 58 63 66 64 59 65
REMARK SMILES IDX 61 66 67 67 60 68 62 69 63 70 64 71 65 72 7 73 8 74 9 75
REMARK SMILES IDX 10 77 11 78 12 79 29 80 13 81 28 82 30 83 27 84 14 85 15 87
REMARK SMILES IDX 16 88 17 89 18 90 19 92 20 93 21 94 25 95 22 96 24 97 26 98
REMARK SMILES IDX 23 99
REMARK H PARENT 3 7 87 25 55 36 8 76 14 86 17 91
REMARK Flexibility Score: inf
ROOT
ATOM      1  C   UNL     1       4.209   2.018  -3.145  1.00  0.00     0.023 C 
ENDROOT
BRANCH   1   2
ATOM      2  C   UNL     1       4.815   0.798  -2.458  1.00  0.00     0.023 C 
BRANCH   2   3
ATOM      3  C   UNL     1       4.510   0.708  -0.975  1.00  0.00     0.116 C 
BRANCH   3   4
ATOM      4  N   UNL     1       3.080   0.751  -0.687  1.00  0.00    -0.352 N 
ATOM      5  O   UNL     1       1.122  -0.028   0.131  1.00  0.00    -0.269 OA
ATOM      6  C   UNL     1       2.343  -0.111   0.089  1.00  0.00     0.251 C 
ATOM      7  H   UNL     1       2.581   1.491  -1.102  1.00  0.00     0.163 HD
BRANCH   6   8
ATOM      8  C   UNL     1       3.072  -1.155   0.827  1.00  0.00     0.039 A 
ATOM      9  C   UNL     1       4.218  -0.799   1.540  1.00  0.00     0.014 A 
ATOM     10  C   UNL     1       2.694  -2.491   0.694  1.00  0.00     0.014 A 
ATOM     11  C   UNL     1       5.096  -1.790   1.936  1.00  0.00     0.010 A 
ATOM     12  C   UNL     1       3.509  -3.485   1.237  1.00  0.00     0.010 A 
ATOM     13  C   UNL     1       4.733  -3.144   1.832  1.00  0.00    -0.014 A 
BRANCH  13  14
ATOM     14  C   UNL     1       5.611  -4.149   2.478  1.00  0.00     0.031 A 
ATOM     15  C   UNL     1       6.256  -5.263   1.711  1.00  0.00     0.074 A 
ATOM     16  C   UNL     1       5.838  -4.008   3.800  1.00  0.00     0.049 A 
ATOM     17  N   UNL     1       7.096  -6.167   2.144  1.00  0.00    -0.248 NA
ATOM     18  C   UNL     1       5.915  -5.399   0.286  1.00  0.00     0.031 C 
ATOM     19  C   UNL     1       5.221  -2.982   4.646  1.00  0.00     0.029 A 
ATOM     20  N   UNL     1       6.652  -4.697   4.657  1.00  0.00    -0.354 N 
ATOM     21  C   UNL     1       7.350  -7.005   1.067  1.00  0.00     0.074 A 
ATOM     22  C   UNL     1       6.570  -6.505  -0.045  1.00  0.00     0.031 C 
ATOM     23  C   UNL     1       5.731  -3.061   5.879  1.00  0.00     0.029 A 
ATOM     24  C   UNL     1       6.630  -4.204   5.940  1.00  0.00     0.049 A 
ATOM     25  H   UNL     1       7.198  -5.469   4.383  1.00  0.00     0.167 HD
ATOM     26  C   UNL     1       8.162  -8.088   1.018  1.00  0.00     0.034 A 
ATOM     27  C   UNL     1       7.239  -4.634   7.060  1.00  0.00     0.034 A 
ATOM     28  C   UNL     1       8.944  -8.555   2.134  1.00  0.00     0.049 A 
ATOM     29  C   UNL     1       8.137  -5.827   6.975  1.00  0.00     0.074 A 
ATOM     30  C   UNL     1       9.854  -9.597   2.164  1.00  0.00     0.029 A 
ATOM     31  N   UNL     1       8.896  -8.030   3.418  1.00  0.00    -0.354 N 
ATOM     32  N   UNL     1       8.445  -6.543   5.922  1.00  0.00    -0.248 NA
ATOM     33  C   UNL     1       8.785  -6.263   8.217  1.00  0.00     0.031 C 
ATOM     34  C   UNL     1      10.308  -9.742   3.477  1.00  0.00     0.029 A 
ATOM     35  C   UNL     1       9.737  -8.747   4.254  1.00  0.00     0.049 A 
ATOM     36  H   UNL     1       8.346  -7.263   3.694  1.00  0.00     0.167 HD
ATOM     37  C   UNL     1       9.345  -7.500   6.365  1.00  0.00     0.074 A 
ATOM     38  C   UNL     1       9.539  -7.266   7.783  1.00  0.00     0.031 C 
ATOM     39  C   UNL     1       9.949  -8.484   5.656  1.00  0.00     0.034 A 
BRANCH  26  40
ATOM     40  C   UNL     1       8.262  -8.849  -0.281  1.00  0.00     0.023 A 
ATOM     41  C   UNL     1       8.907  -8.271  -1.393  1.00  0.00     0.012 A 
ATOM     42  C   UNL     1       7.797 -10.178  -0.369  1.00  0.00     0.148 A 
ATOM     43  C   UNL     1       9.058  -8.989  -2.580  1.00  0.00     0.002 A 
ATOM     44  C   UNL     1       7.998 -10.905  -1.537  1.00  0.00     0.091 A 
ATOM     45  F   UNL     1       7.171 -10.708   0.691  1.00  0.00    -0.205 F 
ATOM     46  C   UNL     1       8.615 -10.308  -2.647  1.00  0.00     0.022 A 
BRANCH  44  47
ATOM     47  S   UNL     1       7.550 -12.638  -1.689  1.00  0.00     0.127 S 
ATOM     48  O   UNL     1       6.434 -12.572  -2.632  1.00  0.00    -0.237 OA
ATOM     49  O   UNL     1       8.774 -13.225  -2.235  1.00  0.00    -0.237 OA
ATOM     50  O   UNL     1       7.207 -13.086  -0.347  1.00  0.00    -0.744 OA
ENDBRANCH  44  47
ENDBRANCH  26  40
BRANCH  27  51
ATOM     51  C   UNL     1       7.016  -3.885   8.325  1.00  0.00     0.023 A 
ATOM     52  C   UNL     1       8.046  -3.085   8.850  1.00  0.00     0.012 A 
ATOM     53  C   UNL     1       5.739  -3.851   8.923  1.00  0.00     0.148 A 
ATOM     54  C   UNL     1       7.808  -2.261   9.951  1.00  0.00     0.002 A 
ATOM     55  C   UNL     1       5.492  -2.981   9.975  1.00  0.00     0.091 A 
ATOM     56  F   UNL     1       4.775  -4.621   8.398  1.00  0.00    -0.205 F 
ATOM     57  C   UNL     1       6.529  -2.196  10.502  1.00  0.00     0.022 A 
BRANCH  55  58
ATOM     58  S   UNL     1       3.844  -2.707  10.633  1.00  0.00     0.127 S 
ATOM     59  O   UNL     1       3.992  -3.171  12.011  1.00  0.00    -0.237 OA
ATOM     60  O   UNL     1       3.700  -1.259  10.482  1.00  0.00    -0.237 OA
ATOM     61  O   UNL     1       2.945  -3.494   9.801  1.00  0.00    -0.744 OA
ENDBRANCH  55  58
ENDBRANCH  27  51
BRANCH  39  62
ATOM     62  C   UNL     1      10.921  -9.379   6.377  1.00  0.00     0.023 A 
ATOM     63  C   UNL     1      10.450 -10.361   7.269  1.00  0.00     0.012 A 
ATOM     64  C   UNL     1      12.292  -9.332   6.055  1.00  0.00     0.148 A 
ATOM     65  C   UNL     1      11.333 -11.279   7.837  1.00  0.00     0.002 A 
ATOM     66  C   UNL     1      13.155 -10.284   6.578  1.00  0.00     0.091 A 
ATOM     67  F   UNL     1      12.717  -8.374   5.219  1.00  0.00    -0.205 F 
ATOM     68  C   UNL     1      12.680 -11.253   7.477  1.00  0.00     0.022 A 
BRANCH  66  69
ATOM     69  S   UNL     1      14.878 -10.400   6.086  1.00  0.00     0.127 S 
ATOM     70  O   UNL     1      15.567 -10.089   7.338  1.00  0.00    -0.237 OA
ATOM     71  O   UNL     1      14.983 -11.796   5.662  1.00  0.00    -0.237 OA
ATOM     72  O   UNL     1      15.063  -9.423   5.021  1.00  0.00    -0.744 OA
ENDBRANCH  66  69
ENDBRANCH  39  62
ENDBRANCH  13  14
ENDBRANCH   6   8
ENDBRANCH   3   4
ENDBRANCH   2   3
ENDBRANCH   1   2
BRANCH   1  73
ATOM     73  C   UNL     1       4.403   3.325  -2.377  1.00  0.00     0.116 C 
BRANCH  73  74
ATOM     74  N   UNL     1       5.803   3.594  -2.134  1.00  0.00    -0.352 N 
ATOM     75  C   UNL     1       6.616   4.590  -2.584  1.00  0.00     0.252 C 
ATOM     76  H   UNL     1       6.245   2.944  -1.540  1.00  0.00     0.163 HD
ATOM     77  O   UNL     1       7.761   4.649  -2.143  1.00  0.00    -0.269 OA
BRANCH  75  78
ATOM     78  C   UNL     1       6.099   5.664  -3.536  1.00  0.00     0.060 A 
ATOM     79  C   UNL     1       6.390   6.175  -5.462  1.00  0.00     0.041 A 
ATOM     80  C   UNL     1       5.161   6.870  -2.555  1.00  0.00     0.053 A 
ATOM     81  C   UNL     1       5.931   7.680  -6.108  1.00  0.00     0.041 A 
ATOM     82  C   UNL     1       4.622   8.371  -3.361  1.00  0.00     0.023 A 
ATOM     83  Cl  UNL     1       4.783   6.646  -0.894  1.00  0.00    -0.083 Cl
ATOM     84  C   UNL     1       5.013   8.757  -5.077  1.00  0.00     0.028 A 
BRANCH  81  85
ATOM     85  N   UNL     1       6.724   7.964  -7.231  1.00  0.00    -0.332 N 
ATOM     86  H   UNL     1       6.473   8.779  -7.722  1.00  0.00     0.169 HD
BRANCH  85  87
ATOM     87  C   UNL     1       7.806   7.274  -7.754  1.00  0.00     0.177 C 
ATOM     88  S   UNL     1       8.364   7.810  -9.249  1.00  0.00    -0.040 S 
BRANCH  87  89
ATOM     89  N   UNL     1       8.535   6.167  -7.185  1.00  0.00    -0.299 N 
ATOM     90  C   UNL     1       8.841   5.108  -6.154  1.00  0.00     0.260 C 
ATOM     91  H   UNL     1       9.238   6.013  -7.857  1.00  0.00     0.172 HD
ATOM     92  O   UNL     1       9.773   4.335  -6.360  1.00  0.00    -0.269 OA
BRANCH  90  93
ATOM     93  C   UNL     1       8.019   4.967  -4.880  1.00  0.00     0.075 A 
ATOM     94  C   UNL     1       8.042   6.582  -4.205  1.00  0.00     0.017 A 
ATOM     95  C   UNL     1       6.502   4.047  -5.188  1.00  0.00     0.135 A 
ATOM     96  C   UNL     1       6.500   7.446  -4.071  1.00  0.00     0.001 A 
ATOM     97  C   UNL     1       4.879   4.791  -5.112  1.00  0.00     0.040 A 
ATOM     98  F   UNL     1       6.591   2.918  -5.911  1.00  0.00    -0.206 F 
ATOM     99  C   UNL     1       4.779   6.529  -4.606  1.00  0.00     0.003 A 
ENDBRANCH  90  93
ENDBRANCH  87  89
ENDBRANCH  85  87
ENDBRANCH  81  85
ENDBRANCH  75  78
ENDBRANCH  73  74
ENDBRANCH   1  73
TORSDOF 18
