REMARK SMILES O=C(NCCCCNC(=O)[C@H]1CSC2(CCCCC2)[NH2+]1)c1ccc(-c2c3nc(c(-c4cccc(S(=O)(=O)[O-])c4F)c4ccc([nH]4)c(-c4cccc(S(=O)(=O)[O-])c4F)c4nc(c(-c5cccc(S(=O)(=O)[O-])c5F)c5ccc2[nH]5)C=C4)C=C3)cc1
REMARK SMILES IDX 4 1 3 2 1 3 2 4 21 6 22 7 83 8 23 9 82 10 24 11 25 12 26 13
REMARK SMILES IDX 76 14 27 15 81 16 75 17 77 18 28 19 80 20 74 21 73 22 29 24
REMARK SMILES IDX 61 25 41 26 60 27 42 28 45 29 59 30 78 31 43 32 44 33 58 35
REMARK SMILES IDX 79 36 46 37 30 38 31 39 39 40 32 41 34 42 40 43 33 44 35 45
REMARK SMILES IDX 36 46 37 47 38 48 62 49 63 50 71 51 64 52 66 53 72 54 65 55
REMARK SMILES IDX 67 56 68 57 69 58 70 59 47 60 48 61 56 62 49 63 51 64 57 65
REMARK SMILES IDX 50 66 52 67 53 68 54 69 55 70 5 71 6 72 7 73 8 74 9 75 10 77
REMARK SMILES IDX 11 78 12 79 20 80 13 81 14 82 15 85 19 86 16 87 18 88 17 89
REMARK H PARENT 3 5 77 23 45 34 8 76 20 83 20 84
REMARK Flexibility Score: inf
ROOT
ATOM      1  C   UNL     1       3.362   3.221  11.141  1.00  0.00     0.116 C 
ENDROOT
BRANCH   1   2
ATOM      2  N   UNL     1       3.713   4.548  11.622  1.00  0.00    -0.352 N 
ATOM      3  O   UNL     1       3.886   6.164  13.203  1.00  0.00    -0.269 OA
ATOM      4  C   UNL     1       3.606   5.014  12.921  1.00  0.00     0.251 C 
ATOM      5  H   UNL     1       4.064   5.181  10.955  1.00  0.00     0.163 HD
BRANCH   4   6
ATOM      6  C   UNL     1       3.089   4.075  13.943  1.00  0.00     0.039 A 
ATOM      7  C   UNL     1       3.681   2.818  14.095  1.00  0.00     0.014 A 
ATOM      8  C   UNL     1       1.935   4.410  14.654  1.00  0.00     0.014 A 
ATOM      9  C   UNL     1       3.032   1.842  14.838  1.00  0.00     0.010 A 
ATOM     10  C   UNL     1       1.333   3.451  15.472  1.00  0.00     0.010 A 
ATOM     11  C   UNL     1       1.856   2.149  15.543  1.00  0.00    -0.014 A 
BRANCH  11  12
ATOM     12  C   UNL     1       1.248   1.125  16.429  1.00  0.00     0.031 A 
ATOM     13  C   UNL     1      -0.133   0.584  16.183  1.00  0.00     0.074 A 
ATOM     14  C   UNL     1       1.963   0.709  17.492  1.00  0.00     0.049 A 
ATOM     15  N   UNL     1      -0.805  -0.291  16.887  1.00  0.00    -0.248 NA
ATOM     16  C   UNL     1      -0.861   1.088  15.006  1.00  0.00     0.031 C 
ATOM     17  C   UNL     1       3.294   1.207  17.853  1.00  0.00     0.029 A 
ATOM     18  N   UNL     1       1.674  -0.202  18.474  1.00  0.00    -0.354 N 
ATOM     19  C   UNL     1      -2.048  -0.406  16.275  1.00  0.00     0.074 A 
ATOM     20  C   UNL     1      -2.036   0.480  15.131  1.00  0.00     0.031 C 
ATOM     21  C   UNL     1       3.706   0.595  18.970  1.00  0.00     0.029 A 
ATOM     22  C   UNL     1       2.649  -0.291  19.439  1.00  0.00     0.049 A 
ATOM     23  H   UNL     1       0.849  -0.740  18.487  1.00  0.00     0.167 HD
ATOM     24  C   UNL     1      -3.095  -1.186  16.635  1.00  0.00     0.034 A 
ATOM     25  C   UNL     1       2.679  -0.977  20.596  1.00  0.00     0.034 A 
ATOM     26  C   UNL     1      -3.072  -2.106  17.743  1.00  0.00     0.049 A 
ATOM     27  C   UNL     1       1.510  -1.845  20.953  1.00  0.00     0.074 A 
ATOM     28  C   UNL     1      -4.034  -3.032  18.110  1.00  0.00     0.029 A 
ATOM     29  N   UNL     1      -2.050  -2.202  18.674  1.00  0.00    -0.354 N 
ATOM     30  N   UNL     1       0.415  -2.070  20.268  1.00  0.00    -0.248 NA
ATOM     31  C   UNL     1       1.583  -2.566  22.231  1.00  0.00     0.031 C 
ATOM     32  C   UNL     1      -3.604  -3.669  19.278  1.00  0.00     0.029 A 
ATOM     33  C   UNL     1      -2.371  -3.148  19.633  1.00  0.00     0.049 A 
ATOM     34  H   UNL     1      -1.219  -1.675  18.656  1.00  0.00     0.167 HD
ATOM     35  C   UNL     1      -0.329  -2.962  21.027  1.00  0.00     0.074 A 
ATOM     36  C   UNL     1       0.457  -3.266  22.206  1.00  0.00     0.031 C 
ATOM     37  C   UNL     1      -1.563  -3.465  20.782  1.00  0.00     0.034 A 
BRANCH  24  38
ATOM     38  C   UNL     1      -4.354  -1.128  15.811  1.00  0.00     0.023 A 
ATOM     39  C   UNL     1      -4.409  -1.804  14.576  1.00  0.00     0.012 A 
ATOM     40  C   UNL     1      -5.516  -0.511  16.315  1.00  0.00     0.148 A 
ATOM     41  C   UNL     1      -5.599  -1.859  13.851  1.00  0.00     0.002 A 
ATOM     42  C   UNL     1      -6.707  -0.597  15.602  1.00  0.00     0.091 A 
ATOM     43  F   UNL     1      -5.436   0.143  17.483  1.00  0.00    -0.205 F 
ATOM     44  C   UNL     1      -6.749  -1.267  14.368  1.00  0.00     0.022 A 
BRANCH  42  45
ATOM     45  S   UNL     1      -8.258   0.073  16.216  1.00  0.00     0.127 S 
ATOM     46  O   UNL     1      -8.463   1.209  15.318  1.00  0.00    -0.237 OA
ATOM     47  O   UNL     1      -9.181  -1.043  16.006  1.00  0.00    -0.237 OA
ATOM     48  O   UNL     1      -8.023   0.414  17.612  1.00  0.00    -0.744 OA
ENDBRANCH  42  45
ENDBRANCH  24  38
BRANCH  25  49
ATOM     49  C   UNL     1       3.870  -0.866  21.482  1.00  0.00     0.023 A 
ATOM     50  C   UNL     1       4.735  -1.966  21.626  1.00  0.00     0.012 A 
ATOM     51  C   UNL     1       4.188   0.347  22.123  1.00  0.00     0.148 A 
ATOM     52  C   UNL     1       5.887  -1.864  22.406  1.00  0.00     0.002 A 
ATOM     53  C   UNL     1       5.368   0.461  22.847  1.00  0.00     0.091 A 
ATOM     54  F   UNL     1       3.341   1.379  21.995  1.00  0.00    -0.205 F 
ATOM     55  C   UNL     1       6.212  -0.647  23.003  1.00  0.00     0.022 A 
BRANCH  53  56
ATOM     56  S   UNL     1       5.919   2.044  23.494  1.00  0.00     0.127 S 
ATOM     57  O   UNL     1       5.448   1.985  24.874  1.00  0.00    -0.237 OA
ATOM     58  O   UNL     1       7.372   1.960  23.334  1.00  0.00    -0.237 OA
ATOM     59  O   UNL     1       5.288   3.040  22.637  1.00  0.00    -0.744 OA
ENDBRANCH  53  56
ENDBRANCH  25  49
BRANCH  37  60
ATOM     60  C   UNL     1      -2.147  -4.389  21.814  1.00  0.00     0.023 A 
ATOM     61  C   UNL     1      -2.643  -3.849  23.017  1.00  0.00     0.012 A 
ATOM     62  C   UNL     1      -2.268  -5.770  21.570  1.00  0.00     0.148 A 
ATOM     63  C   UNL     1      -3.229  -4.674  23.975  1.00  0.00     0.002 A 
ATOM     64  C   UNL     1      -2.892  -6.580  22.511  1.00  0.00     0.091 A 
ATOM     65  F   UNL     1      -1.772  -6.263  20.426  1.00  0.00    -0.205 F 
ATOM     66  C   UNL     1      -3.364  -6.036  23.717  1.00  0.00     0.022 A 
BRANCH  64  67
ATOM     67  S   UNL     1      -3.184  -8.330  22.231  1.00  0.00     0.127 S 
ATOM     68  O   UNL     1      -2.223  -8.943  23.145  1.00  0.00    -0.237 OA
ATOM     69  O   UNL     1      -4.585  -8.479  22.628  1.00  0.00    -0.237 OA
ATOM     70  O   UNL     1      -2.931  -8.557  20.814  1.00  0.00    -0.744 OA
ENDBRANCH  64  67
ENDBRANCH  37  60
ENDBRANCH  11  12
ENDBRANCH   4   6
ENDBRANCH   1   2
BRANCH   1  71
ATOM     71  C   UNL     1       2.834   3.178   9.713  1.00  0.00     0.023 C 
BRANCH  71  72
ATOM     72  C   UNL     1       3.813   3.658   8.646  1.00  0.00     0.023 C 
BRANCH  72  73
ATOM     73  C   UNL     1       5.136   2.894   8.603  1.00  0.00     0.116 C 
BRANCH  73  74
ATOM     74  N   UNL     1       5.328   2.085   7.422  1.00  0.00    -0.351 N 
ATOM     75  C   UNL     1       6.062   2.287   6.294  1.00  0.00     0.279 C 
ATOM     76  H   UNL     1       4.839   1.230   7.436  1.00  0.00     0.163 HD
ATOM     77  O   UNL     1       6.253   1.284   5.592  1.00  0.00    -0.268 OA
BRANCH  75  78
ATOM     78  C   UNL     1       6.556   3.664   5.792  1.00  0.00     0.283 C 
ATOM     79  C   UNL     1       5.403   4.499   5.261  1.00  0.00     0.151 C 
ATOM     80  N   UNL     1       7.455   4.417   6.704  1.00  0.00    -0.322 N 
ATOM     81  S   UNL     1       5.174   5.787   6.487  1.00  0.00    -0.089 SA
ATOM     82  C   UNL     1       6.917   5.748   7.033  1.00  0.00     0.143 C 
ATOM     83  H   UNL     1       8.362   4.531   6.252  1.00  0.00     0.348 HD
ATOM     84  H   UNL     1       7.540   3.888   7.571  1.00  0.00     0.348 HD
ATOM     85  C   UNL     1       7.094   6.048   8.540  1.00  0.00     0.081 C 
ATOM     86  C   UNL     1       7.677   6.851   6.259  1.00  0.00     0.081 C 
ATOM     87  C   UNL     1       6.577   7.421   8.954  1.00  0.00     0.007 C 
ATOM     88  C   UNL     1       7.219   8.272   6.639  1.00  0.00     0.007 C 
ATOM     89  C   UNL     1       7.241   8.528   8.147  1.00  0.00     0.001 C 
ENDBRANCH  75  78
ENDBRANCH  73  74
ENDBRANCH  72  73
ENDBRANCH  71  72
ENDBRANCH   1  71
TORSDOF 14
