REMARK SMILES COc1ccc(CCNC(=O)c2cccnc2C(=O)NCCCCNC(=O)c2ccc(-c3c4nc(c(-c5cccc(S(=O)(=O)[O-])c5F)c5ccc([nH]5)c(-c5cccc(S(=O)(=O)[O-])c5F)c5nc(c(-c6cccc(S(=O)(=O)[O-])c6F)c6ccc3[nH]6)C=C5)C=C4)cc2)cc1OC
REMARK SMILES IDX 21 1 20 2 18 3 19 4 17 6 12 7 13 8 14 9 16 10 15 11 10 12
REMARK SMILES IDX 9 13 11 15 8 16 7 17 6 18 3 19 4 20 92 21 5 22 91 23 2 24
REMARK SMILES IDX 1 25 93 26 94 27 22 28 23 29 24 30 25 31 26 32 27 34 28 35
REMARK SMILES IDX 29 36 90 37 30 38 89 39 31 40 32 41 33 42 83 43 34 44 88 45
REMARK SMILES IDX 82 46 84 47 35 48 87 49 81 50 80 51 36 53 68 54 48 55 67 56
REMARK SMILES IDX 49 57 52 58 66 59 85 60 50 61 51 62 65 64 86 65 53 66 37 67
REMARK SMILES IDX 38 68 46 69 39 70 41 71 47 72 40 73 42 74 43 75 44 76 45 77
REMARK SMILES IDX 69 78 70 79 78 80 71 81 73 82 79 83 72 84 74 85 75 86 76 87
REMARK SMILES IDX 77 88 54 89 55 90 63 91 56 92 58 93 64 94 57 95 59 96 60 97
REMARK SMILES IDX 61 98 62 99
REMARK H PARENT 20 5 9 14 25 33 84 52 52 63
REMARK Flexibility Score: inf
ROOT
ATOM      1  C   UNL     1      -3.019  -8.121   0.061  1.00  0.00     0.116 C 
ENDROOT
BRANCH   1   2
ATOM      2  N   UNL     1      -2.881  -9.116  -0.967  1.00  0.00    -0.351 N 
ATOM      3  C   UNL     1      -1.992 -10.086  -1.323  1.00  0.00     0.270 C 
ATOM      4  O   UNL     1      -2.379 -10.710  -2.325  1.00  0.00    -0.267 OA
ATOM      5  H   UNL     1      -3.643  -9.090  -1.589  1.00  0.00     0.163 HD
BRANCH   3   6
ATOM      6  C   UNL     1      -0.665 -10.506  -0.711  1.00  0.00     0.140 A 
ATOM      7  C   UNL     1       0.166  -9.944   0.255  1.00  0.00     0.071 A 
ATOM      8  C   UNL     1       1.359 -10.626   0.600  1.00  0.00     0.018 A 
ATOM      9  C   UNL     1       1.730 -11.801  -0.041  1.00  0.00     0.021 A 
ATOM     10  N   UNL     1      -0.263 -11.670  -1.337  1.00  0.00    -0.250 NA
ATOM     11  C   UNL     1       0.886 -12.283  -1.007  1.00  0.00     0.112 A 
BRANCH   7  12
ATOM     12  C   UNL     1      -0.088  -8.786   1.113  1.00  0.00     0.253 C 
ATOM     13  N   UNL     1       0.638  -7.622   0.989  1.00  0.00    -0.352 N 
ATOM     14  H   UNL     1       0.330  -6.883   1.561  1.00  0.00     0.163 HD
ATOM     15  O   UNL     1      -0.842  -8.929   2.071  1.00  0.00    -0.269 OA
BRANCH  13  16
ATOM     16  C   UNL     1       1.788  -7.306   0.149  1.00  0.00     0.121 C 
BRANCH  16  17
ATOM     17  C   UNL     1       1.540  -6.189  -0.870  1.00  0.00     0.057 C 
BRANCH  17  18
ATOM     18  C   UNL     1       1.492  -4.777  -0.328  1.00  0.00    -0.042 A 
ATOM     19  C   UNL     1       1.355  -2.053   0.429  1.00  0.00     0.160 A 
ATOM     20  C   UNL     1       0.205  -2.846   0.403  1.00  0.00     0.051 A 
ATOM     21  C   UNL     1       2.596  -2.633   0.134  1.00  0.00     0.160 A 
ATOM     22  C   UNL     1       0.275  -4.183   0.009  1.00  0.00     0.008 A 
ATOM     23  C   UNL     1       2.652  -3.994  -0.226  1.00  0.00     0.054 A 
BRANCH  19  24
ATOM     24  O   UNL     1       1.264  -0.737   0.803  1.00  0.00    -0.493 OA
ATOM     25  C   UNL     1       0.297  -0.009   0.042  1.00  0.00     0.278 C 
ENDBRANCH  19  24
BRANCH  21  26
ATOM     26  O   UNL     1       3.827  -2.025   0.132  1.00  0.00    -0.493 OA
ATOM     27  C   UNL     1       3.854  -0.606   0.049  1.00  0.00     0.278 C 
ENDBRANCH  21  26
ENDBRANCH  17  18
ENDBRANCH  16  17
ENDBRANCH  13  16
ENDBRANCH   7  12
ENDBRANCH   3   6
ENDBRANCH   1   2
BRANCH   1  28
ATOM     28  C   UNL     1      -2.348  -6.820  -0.356  1.00  0.00     0.023 C 
BRANCH  28  29
ATOM     29  C   UNL     1      -3.326  -5.680  -0.637  1.00  0.00     0.023 C 
BRANCH  29  30
ATOM     30  C   UNL     1      -4.116  -5.220   0.582  1.00  0.00     0.116 C 
BRANCH  30  31
ATOM     31  N   UNL     1      -3.285  -4.740   1.680  1.00  0.00    -0.352 N 
ATOM     32  C   UNL     1      -3.546  -3.710   2.562  1.00  0.00     0.251 C 
ATOM     33  H   UNL     1      -2.430  -5.210   1.810  1.00  0.00     0.163 HD
ATOM     34  O   UNL     1      -2.714  -3.362   3.380  1.00  0.00    -0.269 OA
BRANCH  32  35
ATOM     35  C   UNL     1      -4.842  -3.004   2.451  1.00  0.00     0.039 A 
ATOM     36  C   UNL     1      -4.847  -1.612   2.342  1.00  0.00     0.014 A 
ATOM     37  C   UNL     1      -6.030  -3.729   2.347  1.00  0.00     0.014 A 
ATOM     38  C   UNL     1      -6.037  -0.955   2.021  1.00  0.00     0.010 A 
ATOM     39  C   UNL     1      -7.188  -3.085   1.933  1.00  0.00     0.010 A 
ATOM     40  C   UNL     1      -7.203  -1.693   1.756  1.00  0.00    -0.014 A 
BRANCH  40  41
ATOM     41  C   UNL     1      -8.441  -1.045   1.250  1.00  0.00     0.031 A 
ATOM     42  C   UNL     1      -9.726  -1.165   2.021  1.00  0.00     0.074 A 
ATOM     43  C   UNL     1      -8.437  -0.466   0.032  1.00  0.00     0.049 A 
ATOM     44  N   UNL     1     -10.925  -0.760   1.692  1.00  0.00    -0.248 NA
ATOM     45  C   UNL     1      -9.666  -1.873   3.311  1.00  0.00     0.031 C 
ATOM     46  C   UNL     1      -7.282  -0.387  -0.867  1.00  0.00     0.029 A 
ATOM     47  N   UNL     1      -9.447   0.135  -0.678  1.00  0.00    -0.354 N 
ATOM     48  C   UNL     1     -11.766  -1.209   2.703  1.00  0.00     0.074 A 
ATOM     49  C   UNL     1     -10.947  -1.949   3.637  1.00  0.00     0.031 C 
ATOM     50  C   UNL     1      -7.646   0.233  -2.000  1.00  0.00     0.029 A 
ATOM     51  C   UNL     1      -9.063   0.572  -1.925  1.00  0.00     0.049 A 
ATOM     52  H   UNL     1     -10.361   0.243  -0.327  1.00  0.00     0.167 HD
ATOM     53  C   UNL     1     -13.093  -0.994   2.861  1.00  0.00     0.034 A 
ATOM     54  C   UNL     1      -9.772   1.177  -2.898  1.00  0.00     0.034 A 
ATOM     55  C   UNL     1     -13.887  -0.192   1.970  1.00  0.00     0.049 A 
ATOM     56  C   UNL     1     -11.223   1.489  -2.658  1.00  0.00     0.074 A 
ATOM     57  C   UNL     1     -15.207   0.197   2.109  1.00  0.00     0.029 A 
ATOM     58  N   UNL     1     -13.434   0.345   0.776  1.00  0.00    -0.354 N 
ATOM     59  N   UNL     1     -11.960   1.221  -1.606  1.00  0.00    -0.248 NA
ATOM     60  C   UNL     1     -11.934   2.219  -3.718  1.00  0.00     0.031 C 
ATOM     61  C   UNL     1     -15.555   0.964   0.991  1.00  0.00     0.029 A 
ATOM     62  C   UNL     1     -14.448   1.059   0.162  1.00  0.00     0.049 A 
ATOM     63  H   UNL     1     -12.524   0.234   0.416  1.00  0.00     0.167 HD
ATOM     64  C   UNL     1     -13.209   1.772  -1.864  1.00  0.00     0.074 A 
ATOM     65  C   UNL     1     -13.123   2.410  -3.162  1.00  0.00     0.031 C 
ATOM     66  C   UNL     1     -14.331   1.736  -1.104  1.00  0.00     0.034 A 
BRANCH  53  67
ATOM     67  C   UNL     1     -13.749  -1.575   4.085  1.00  0.00     0.023 A 
ATOM     68  C   UNL     1     -13.465  -1.022   5.351  1.00  0.00     0.012 A 
ATOM     69  C   UNL     1     -14.666  -2.639   3.987  1.00  0.00     0.148 A 
ATOM     70  C   UNL     1     -14.048  -1.545   6.504  1.00  0.00     0.002 A 
ATOM     71  C   UNL     1     -15.277  -3.127   5.137  1.00  0.00     0.091 A 
ATOM     72  F   UNL     1     -14.906  -3.171   2.780  1.00  0.00    -0.205 F 
ATOM     73  C   UNL     1     -14.960  -2.591   6.396  1.00  0.00     0.022 A 
BRANCH  71  74
ATOM     74  S   UNL     1     -16.524  -4.420   5.088  1.00  0.00     0.127 S 
ATOM     75  O   UNL     1     -15.761  -5.584   5.535  1.00  0.00    -0.237 OA
ATOM     76  O   UNL     1     -17.514  -3.934   6.052  1.00  0.00    -0.237 OA
ATOM     77  O   UNL     1     -16.995  -4.463   3.711  1.00  0.00    -0.744 OA
ENDBRANCH  71  74
ENDBRANCH  53  67
BRANCH  54  78
ATOM     78  C   UNL     1      -9.088   1.607  -4.151  1.00  0.00     0.023 A 
ATOM     79  C   UNL     1      -8.846   2.979  -4.362  1.00  0.00     0.012 A 
ATOM     80  C   UNL     1      -8.627   0.674  -5.100  1.00  0.00     0.148 A 
ATOM     81  C   UNL     1      -8.180   3.416  -5.507  1.00  0.00     0.002 A 
ATOM     82  C   UNL     1      -7.918   1.113  -6.212  1.00  0.00     0.091 A 
ATOM     83  F   UNL     1      -8.876  -0.625  -4.885  1.00  0.00    -0.205 F 
ATOM     84  C   UNL     1      -7.706   2.484  -6.426  1.00  0.00     0.022 A 
BRANCH  82  85
ATOM     85  S   UNL     1      -7.151  -0.021  -7.376  1.00  0.00     0.127 S 
ATOM     86  O   UNL     1      -7.986   0.155  -8.560  1.00  0.00    -0.237 OA
ATOM     87  O   UNL     1      -5.799   0.528  -7.487  1.00  0.00    -0.237 OA
ATOM     88  O   UNL     1      -7.213  -1.332  -6.744  1.00  0.00    -0.744 OA
ENDBRANCH  82  85
ENDBRANCH  54  78
BRANCH  66  89
ATOM     89  C   UNL     1     -15.560   2.421  -1.639  1.00  0.00     0.023 A 
ATOM     90  C   UNL     1     -16.290   1.821  -2.684  1.00  0.00     0.012 A 
ATOM     91  C   UNL     1     -16.039   3.608  -1.052  1.00  0.00     0.148 A 
ATOM     92  C   UNL     1     -17.466   2.404  -3.152  1.00  0.00     0.002 A 
ATOM     93  C   UNL     1     -17.235   4.160  -1.494  1.00  0.00     0.091 A 
ATOM     94  F   UNL     1     -15.318   4.175  -0.073  1.00  0.00    -0.205 F 
ATOM     95  C   UNL     1     -17.945   3.565  -2.549  1.00  0.00     0.022 A 
BRANCH  93  96
ATOM     96  S   UNL     1     -17.972   5.601  -0.712  1.00  0.00     0.127 S 
ATOM     97  O   UNL     1     -17.674   6.652  -1.682  1.00  0.00    -0.237 OA
ATOM     98  O   UNL     1     -19.384   5.227  -0.632  1.00  0.00    -0.237 OA
ATOM     99  O   UNL     1     -17.312   5.732   0.581  1.00  0.00    -0.744 OA
ENDBRANCH  93  96
ENDBRANCH  66  89
ENDBRANCH  40  41
ENDBRANCH  32  35
ENDBRANCH  30  31
ENDBRANCH  29  30
ENDBRANCH  28  29
ENDBRANCH   1  28
TORSDOF 20
