REMARK SMILES C[C@@H]1CN([C@@H](CCS(C)(=O)=O)C(=O)NCCCCNC(=O)c2ccc(-c3c4nc(c(-c5cccc(S(=O)(=O)[O-])c5F)c5ccc([nH]5)c(-c5cccc(S(=O)(=O)[O-])c5F)c5nc(c(-c6cccc(S(=O)(=O)[O-])c6F)c6ccc3[nH]6)C=C5)C=C4)cc2)S(=O)(=O)C1
REMARK SMILES IDX 16 1 15 2 14 3 12 4 13 5 5 7 4 8 1 9 2 10 3 11 88 12 85 13
REMARK SMILES IDX 86 14 87 15 6 16 7 17 8 18 9 19 10 20 11 21 17 22 18 23
REMARK SMILES IDX 19 24 20 25 21 27 22 28 23 29 84 30 24 31 83 32 25 33 26 34
REMARK SMILES IDX 27 35 77 36 28 37 82 38 76 39 78 40 29 41 81 42 75 43 74 44
REMARK SMILES IDX 30 46 62 47 42 48 61 49 43 50 46 51 60 52 79 53 44 54 45 55
REMARK SMILES IDX 59 57 80 58 47 59 31 60 32 61 40 62 33 63 35 64 41 65 34 66
REMARK SMILES IDX 36 67 37 68 38 69 39 70 63 71 64 72 72 73 65 74 67 75 73 76
REMARK SMILES IDX 66 77 68 78 69 79 70 80 71 81 48 82 49 83 57 84 50 85 52 86
REMARK SMILES IDX 58 87 51 88 53 89 54 90 55 91 56 92
REMARK H PARENT 14 6 19 26 78 45 46 56
REMARK Flexibility Score: inf
ROOT
ATOM      1  C   UNL     1       2.749   0.633   6.009  1.00  0.00     0.023 C 
ENDROOT
BRANCH   1   2
ATOM      2  C   UNL     1       1.490   1.482   5.866  1.00  0.00     0.116 C 
BRANCH   2   3
ATOM      3  N   UNL     1       1.746   2.776   5.284  1.00  0.00    -0.355 N 
ATOM      4  C   UNL     1       1.139   3.435   4.274  1.00  0.00     0.238 C 
ATOM      5  O   UNL     1       1.372   4.652   4.195  1.00  0.00    -0.273 OA
ATOM      6  H   UNL     1       2.494   3.265   5.696  1.00  0.00     0.163 HD
BRANCH   4   7
ATOM      7  C   UNL     1       0.153   2.821   3.284  1.00  0.00     0.163 C 
BRANCH   7   8
ATOM      8  N   UNL     1       0.376   1.611   2.435  1.00  0.00    -0.189 NA
ATOM      9  C   UNL     1       0.623   0.387  -1.135  1.00  0.00     0.010 C 
ATOM     10  C   UNL     1       0.487   0.435   0.374  1.00  0.00     0.017 C 
ATOM     11  C   UNL     1       0.318   1.843   0.963  1.00  0.00     0.107 C 
ATOM     12  C   UNL     1       1.718  -0.134   1.066  1.00  0.00     0.159 C 
ATOM     13  S   UNL     1       1.641   0.509   2.723  1.00  0.00     0.215 S 
ATOM     14  O   UNL     1       2.865   1.242   2.949  1.00  0.00    -0.212 OA
ATOM     15  O   UNL     1       1.135  -0.529   3.583  1.00  0.00    -0.212 OA
ENDBRANCH   7   8
BRANCH   7  16
ATOM     16  C   UNL     1      -1.327   2.888   3.758  1.00  0.00     0.046 C 
BRANCH  16  17
ATOM     17  C   UNL     1      -1.857   1.773   4.654  1.00  0.00     0.139 C 
BRANCH  17  18
ATOM     18  S   UNL     1      -1.977   2.189   6.396  1.00  0.00     0.147 S 
ATOM     19  C   UNL     1      -3.398   3.237   6.539  1.00  0.00     0.158 C 
ATOM     20  O   UNL     1      -2.272   0.962   7.109  1.00  0.00    -0.229 OA
ATOM     21  O   UNL     1      -0.847   3.011   6.770  1.00  0.00    -0.229 OA
ENDBRANCH  17  18
ENDBRANCH  16  17
ENDBRANCH   7  16
ENDBRANCH   4   7
ENDBRANCH   2   3
ENDBRANCH   1   2
BRANCH   1  22
ATOM     22  C   UNL     1       3.083   0.340   7.463  1.00  0.00     0.023 C 
BRANCH  22  23
ATOM     23  C   UNL     1       1.947  -0.287   8.259  1.00  0.00     0.116 C 
BRANCH  23  24
ATOM     24  N   UNL     1       1.467  -1.558   7.729  1.00  0.00    -0.352 N 
ATOM     25  C   UNL     1       1.184  -2.699   8.447  1.00  0.00     0.251 C 
ATOM     26  H   UNL     1       1.332  -1.605   6.755  1.00  0.00     0.163 HD
ATOM     27  O   UNL     1       0.844  -3.741   7.900  1.00  0.00    -0.269 OA
BRANCH  25  28
ATOM     28  C   UNL     1       1.364  -2.639   9.912  1.00  0.00     0.039 A 
ATOM     29  C   UNL     1       2.293  -3.490  10.509  1.00  0.00     0.014 A 
ATOM     30  C   UNL     1       0.754  -1.615  10.642  1.00  0.00     0.014 A 
ATOM     31  C   UNL     1       2.667  -3.265  11.834  1.00  0.00     0.010 A 
ATOM     32  C   UNL     1       1.219  -1.324  11.918  1.00  0.00     0.010 A 
ATOM     33  C   UNL     1       2.169  -2.152  12.535  1.00  0.00    -0.014 A 
BRANCH  33  34
ATOM     34  C   UNL     1       2.624  -1.853  13.918  1.00  0.00     0.031 A 
ATOM     35  C   UNL     1       1.623  -1.808  15.042  1.00  0.00     0.074 A 
ATOM     36  C   UNL     1       3.921  -1.569  14.159  1.00  0.00     0.049 A 
ATOM     37  N   UNL     1       1.821  -1.569  16.313  1.00  0.00    -0.248 NA
ATOM     38  C   UNL     1       0.209  -2.030  14.692  1.00  0.00     0.031 C 
ATOM     39  C   UNL     1       4.976  -1.488  13.145  1.00  0.00     0.029 A 
ATOM     40  N   UNL     1       4.572  -1.281  15.333  1.00  0.00    -0.354 N 
ATOM     41  C   UNL     1       0.562  -1.578  16.900  1.00  0.00     0.074 A 
ATOM     42  C   UNL     1      -0.399  -1.792  15.843  1.00  0.00     0.031 C 
ATOM     43  C   UNL     1       6.143  -1.198  13.744  1.00  0.00     0.029 A 
ATOM     44  C   UNL     1       5.917  -1.037  15.177  1.00  0.00     0.049 A 
ATOM     45  H   UNL     1       4.118  -1.252  16.207  1.00  0.00     0.167 HD
ATOM     46  C   UNL     1       0.232  -1.457  18.207  1.00  0.00     0.034 A 
ATOM     47  C   UNL     1       6.862  -0.718  16.084  1.00  0.00     0.034 A 
ATOM     48  C   UNL     1       1.191  -1.282  19.262  1.00  0.00     0.049 A 
ATOM     49  C   UNL     1       6.475  -0.625  17.537  1.00  0.00     0.074 A 
ATOM     50  C   UNL     1       0.968  -1.237  20.626  1.00  0.00     0.029 A 
ATOM     51  N   UNL     1       2.553  -1.109  19.071  1.00  0.00    -0.354 N 
ATOM     52  N   UNL     1       5.300  -0.800  18.092  1.00  0.00    -0.248 NA
ATOM     53  C   UNL     1       7.551  -0.327  18.493  1.00  0.00     0.031 C 
ATOM     54  C   UNL     1       2.192  -0.996  21.258  1.00  0.00     0.029 A 
ATOM     55  C   UNL     1       3.183  -0.941  20.291  1.00  0.00     0.049 A 
ATOM     56  H   UNL     1       3.005  -1.107  18.196  1.00  0.00     0.167 HD
ATOM     57  C   UNL     1       5.503  -0.674  19.462  1.00  0.00     0.074 A 
ATOM     58  C   UNL     1       6.917  -0.429  19.653  1.00  0.00     0.031 C 
ATOM     59  C   UNL     1       4.598  -0.745  20.470  1.00  0.00     0.034 A 
BRANCH  46  60
ATOM     60  C   UNL     1      -1.228  -1.554  18.570  1.00  0.00     0.023 A 
ATOM     61  C   UNL     1      -1.903  -2.786  18.438  1.00  0.00     0.012 A 
ATOM     62  C   UNL     1      -1.919  -0.440  19.084  1.00  0.00     0.148 A 
ATOM     63  C   UNL     1      -3.252  -2.896  18.770  1.00  0.00     0.002 A 
ATOM     64  C   UNL     1      -3.249  -0.572  19.463  1.00  0.00     0.091 A 
ATOM     65  F   UNL     1      -1.267   0.727  19.183  1.00  0.00    -0.205 F 
ATOM     66  C   UNL     1      -3.921  -1.793  19.294  1.00  0.00     0.022 A 
BRANCH  64  67
ATOM     67  S   UNL     1      -4.176   0.763  20.228  1.00  0.00     0.127 S 
ATOM     68  O   UNL     1      -5.154   1.077  19.187  1.00  0.00    -0.237 OA
ATOM     69  O   UNL     1      -4.733   0.109  21.412  1.00  0.00    -0.237 OA
ATOM     70  O   UNL     1      -3.210   1.815  20.511  1.00  0.00    -0.744 OA
ENDBRANCH  64  67
ENDBRANCH  46  60
BRANCH  47  71
ATOM     71  C   UNL     1       8.278  -0.521  15.659  1.00  0.00     0.023 A 
ATOM     72  C   UNL     1       9.260  -1.454  16.049  1.00  0.00     0.012 A 
ATOM     73  C   UNL     1       8.656   0.579  14.866  1.00  0.00     0.148 A 
ATOM     74  C   UNL     1      10.597  -1.273  15.692  1.00  0.00     0.002 A 
ATOM     75  C   UNL     1       9.979   0.723  14.465  1.00  0.00     0.091 A 
ATOM     76  F   UNL     1       7.710   1.460  14.511  1.00  0.00    -0.205 F 
ATOM     77  C   UNL     1      10.955  -0.191  14.893  1.00  0.00     0.022 A 
BRANCH  75  78
ATOM     78  S   UNL     1      10.512   2.015  13.337  1.00  0.00     0.127 S 
ATOM     79  O   UNL     1      11.352   2.839  14.202  1.00  0.00    -0.237 OA
ATOM     80  O   UNL     1      11.237   1.247  12.324  1.00  0.00    -0.237 OA
ATOM     81  O   UNL     1       9.292   2.647  12.855  1.00  0.00    -0.744 OA
ENDBRANCH  75  78
ENDBRANCH  47  71
BRANCH  59  82
ATOM     82  C   UNL     1       5.110  -0.606  21.881  1.00  0.00     0.023 A 
ATOM     83  C   UNL     1       5.572   0.641  22.348  1.00  0.00     0.012 A 
ATOM     84  C   UNL     1       5.066  -1.702  22.765  1.00  0.00     0.148 A 
ATOM     85  C   UNL     1       6.021   0.783  23.660  1.00  0.00     0.002 A 
ATOM     86  C   UNL     1       5.461  -1.539  24.086  1.00  0.00     0.091 A 
ATOM     87  F   UNL     1       4.636  -2.884  22.298  1.00  0.00    -0.205 F 
ATOM     88  C   UNL     1       5.954  -0.302  24.531  1.00  0.00     0.022 A 
BRANCH  86  89
ATOM     89  S   UNL     1       5.313  -2.850  25.305  1.00  0.00     0.127 S 
ATOM     90  O   UNL     1       6.713  -3.202  25.535  1.00  0.00    -0.237 OA
ATOM     91  O   UNL     1       4.666  -2.161  26.422  1.00  0.00    -0.237 OA
ATOM     92  O   UNL     1       4.503  -3.889  24.684  1.00  0.00    -0.744 OA
ENDBRANCH  86  89
ENDBRANCH  59  82
ENDBRANCH  33  34
ENDBRANCH  25  28
ENDBRANCH  23  24
ENDBRANCH  22  23
ENDBRANCH   1  22
TORSDOF 18
