REMARK SMILES CC(C)[C@H](NC(=O)[C@H](Cc1ccccc1)n1c(=O)[nH]c2ccccc2c1=O)C(=O)NCCCCNC(=O)c1ccc(-c2c3nc(c(-c4cccc(S(=O)(=O)[O-])c4F)c4ccc([nH]4)c(-c4cccc(S(=O)(=O)[O-])c4F)c4nc(c(-c5cccc(S(=O)(=O)[O-])c5F)c5ccc2[nH]5)C=C4)C=C3)cc1
REMARK SMILES IDX 32 1 31 2 30 3 28 4 29 5 4 7 2 8 1 9 3 10 5 11 6 12 7 14
REMARK SMILES IDX 8 15 16 16 17 17 26 18 18 19 19 20 25 21 27 22 20 23 24 25
REMARK SMILES IDX 21 26 23 27 22 28 9 29 10 30 11 31 15 32 12 33 14 34 13 35
REMARK SMILES IDX 33 36 34 37 35 38 36 39 37 41 38 42 39 43 100 44 40 45 99 46
REMARK SMILES IDX 41 47 42 48 43 49 93 50 44 51 98 52 92 53 94 54 45 55 97 56
REMARK SMILES IDX 91 57 90 58 46 60 78 61 58 62 77 63 59 64 62 65 76 66 95 67
REMARK SMILES IDX 60 68 61 69 75 71 96 72 63 73 47 74 48 75 56 76 49 77 51 78
REMARK SMILES IDX 57 79 50 80 52 81 53 82 54 83 55 84 79 85 80 86 88 87 81 88
REMARK SMILES IDX 83 89 89 90 82 91 84 92 85 93 86 94 87 95 64 96 65 97 73 98
REMARK SMILES IDX 66 99 68 100 74 101 67 102 69 103 70 104 71 105 72 106
REMARK H PARENT 30 6 5 13 19 24 35 40 94 59 62 70
REMARK Flexibility Score: inf
ROOT
ATOM      1  C   UNL     1      -4.688  -6.037  -2.763  1.00  0.00     0.023 C 
ENDROOT
BRANCH   1   2
ATOM      2  C   UNL     1      -3.936  -4.825  -2.218  1.00  0.00     0.116 C 
BRANCH   2   3
ATOM      3  N   UNL     1      -4.588  -4.309  -1.044  1.00  0.00    -0.354 N 
ATOM      4  C   UNL     1      -4.298  -4.564   0.258  1.00  0.00     0.242 C 
ATOM      5  O   UNL     1      -5.029  -4.056   1.114  1.00  0.00    -0.273 OA
ATOM      6  H   UNL     1      -5.339  -3.694  -1.205  1.00  0.00     0.163 HD
BRANCH   4   7
ATOM      7  C   UNL     1      -3.016  -5.331   0.685  1.00  0.00     0.173 C 
BRANCH   7   8
ATOM      8  C   UNL     1      -1.745  -4.468   0.691  1.00  0.00     0.015 C 
ATOM      9  C   UNL     1      -1.955  -2.951   0.635  1.00  0.00     0.010 C 
ATOM     10  C   UNL     1      -0.870  -4.812   1.899  1.00  0.00     0.010 C 
ENDBRANCH   7   8
BRANCH   7  11
ATOM     11  N   UNL     1      -2.913  -6.726   0.168  1.00  0.00    -0.342 N 
ATOM     12  C   UNL     1      -2.310  -7.529  -0.743  1.00  0.00     0.244 C 
ATOM     13  H   UNL     1      -3.525  -7.285   0.699  1.00  0.00     0.164 HD
ATOM     14  O   UNL     1      -2.929  -8.598  -0.888  1.00  0.00    -0.273 OA
BRANCH  12  15
ATOM     15  C   UNL     1      -1.158  -7.196  -1.739  1.00  0.00     0.189 C 
BRANCH  15  16
ATOM     16  N   UNL     1      -0.034  -6.356  -1.304  1.00  0.00    -0.247 N 
ATOM     17  C   UNL     1       0.742  -6.787  -0.247  1.00  0.00     0.329 A 
ATOM     18  C   UNL     1       0.218  -5.169  -2.002  1.00  0.00     0.264 A 
ATOM     19  O   UNL     1       0.428  -7.687   0.526  1.00  0.00    -0.248 OA
ATOM     20  N   UNL     1       1.918  -6.125  -0.032  1.00  0.00    -0.307 N 
ATOM     21  C   UNL     1       1.318  -4.324  -1.496  1.00  0.00     0.064 A 
ATOM     22  O   UNL     1      -0.443  -4.773  -2.958  1.00  0.00    -0.268 OA
ATOM     23  C   UNL     1       2.207  -4.885  -0.589  1.00  0.00     0.055 A 
ATOM     24  H   UNL     1       2.593  -6.548   0.546  1.00  0.00     0.171 HD
ATOM     25  C   UNL     1       1.446  -2.983  -1.867  1.00  0.00     0.016 A 
ATOM     26  C   UNL     1       3.308  -4.160  -0.139  1.00  0.00     0.027 A 
ATOM     27  C   UNL     1       2.504  -2.228  -1.357  1.00  0.00     0.001 A 
ATOM     28  C   UNL     1       3.452  -2.825  -0.522  1.00  0.00     0.002 A 
ENDBRANCH  15  16
BRANCH  15  29
ATOM     29  C   UNL     1      -0.691  -8.414  -2.611  1.00  0.00     0.071 C 
BRANCH  29  30
ATOM     30  C   UNL     1      -0.168  -9.655  -1.919  1.00  0.00    -0.045 A 
ATOM     31  C   UNL     1      -0.986 -10.787  -1.791  1.00  0.00     0.004 A 
ATOM     32  C   UNL     1       1.118  -9.704  -1.370  1.00  0.00     0.004 A 
ATOM     33  C   UNL     1      -0.572 -11.888  -1.038  1.00  0.00     0.000 A 
ATOM     34  C   UNL     1       1.512 -10.780  -0.571  1.00  0.00     0.000 A 
ATOM     35  C   UNL     1       0.661 -11.867  -0.395  1.00  0.00     0.000 A 
ENDBRANCH  29  30
ENDBRANCH  15  29
ENDBRANCH  12  15
ENDBRANCH   7  11
ENDBRANCH   4   7
ENDBRANCH   2   3
ENDBRANCH   1   2
BRANCH   1  36
ATOM     36  C   UNL     1      -5.981  -5.672  -3.495  1.00  0.00     0.023 C 
BRANCH  36  37
ATOM     37  C   UNL     1      -5.780  -4.791  -4.721  1.00  0.00     0.116 C 
BRANCH  37  38
ATOM     38  N   UNL     1      -4.946  -5.414  -5.739  1.00  0.00    -0.352 N 
ATOM     39  C   UNL     1      -5.068  -5.303  -7.103  1.00  0.00     0.251 C 
ATOM     40  H   UNL     1      -4.209  -5.980  -5.413  1.00  0.00     0.163 HD
ATOM     41  O   UNL     1      -4.379  -5.984  -7.856  1.00  0.00    -0.269 OA
BRANCH  39  42
ATOM     42  C   UNL     1      -6.075  -4.368  -7.642  1.00  0.00     0.039 A 
ATOM     43  C   UNL     1      -7.027  -4.840  -8.545  1.00  0.00     0.014 A 
ATOM     44  C   UNL     1      -6.118  -3.049  -7.181  1.00  0.00     0.014 A 
ATOM     45  C   UNL     1      -8.065  -3.997  -8.947  1.00  0.00     0.010 A 
ATOM     46  C   UNL     1      -7.195  -2.241  -7.519  1.00  0.00     0.010 A 
ATOM     47  C   UNL     1      -8.175  -2.702  -8.413  1.00  0.00    -0.014 A 
BRANCH  47  48
ATOM     48  C   UNL     1      -9.301  -1.808  -8.780  1.00  0.00     0.031 A 
ATOM     49  C   UNL     1      -9.024  -0.506  -9.484  1.00  0.00     0.074 A 
ATOM     50  C   UNL     1     -10.557  -2.121  -8.405  1.00  0.00     0.049 A 
ATOM     51  N   UNL     1      -9.860   0.436  -9.834  1.00  0.00    -0.248 NA
ATOM     52  C   UNL     1      -7.618  -0.208  -9.808  1.00  0.00     0.031 C 
ATOM     53  C   UNL     1     -10.942  -3.312  -7.644  1.00  0.00     0.029 A 
ATOM     54  N   UNL     1     -11.740  -1.450  -8.591  1.00  0.00    -0.354 N 
ATOM     55  C   UNL     1      -9.083   1.449 -10.381  1.00  0.00     0.074 A 
ATOM     56  C   UNL     1      -7.704   1.026 -10.280  1.00  0.00     0.031 C 
ATOM     57  C   UNL     1     -12.269  -3.290  -7.434  1.00  0.00     0.029 A 
ATOM     58  C   UNL     1     -12.825  -2.074  -8.020  1.00  0.00     0.049 A 
ATOM     59  H   UNL     1     -11.805  -0.602  -9.087  1.00  0.00     0.167 HD
ATOM     60  C   UNL     1      -9.480   2.612 -10.949  1.00  0.00     0.034 A 
ATOM     61  C   UNL     1     -14.120  -1.705  -7.972  1.00  0.00     0.034 A 
ATOM     62  C   UNL     1     -10.855   3.003 -11.096  1.00  0.00     0.049 A 
ATOM     63  C   UNL     1     -14.542  -0.432  -8.657  1.00  0.00     0.074 A 
ATOM     64  C   UNL     1     -11.368   4.114 -11.740  1.00  0.00     0.029 A 
ATOM     65  N   UNL     1     -11.936   2.298 -10.590  1.00  0.00    -0.354 N 
ATOM     66  N   UNL     1     -13.809   0.433  -9.314  1.00  0.00    -0.248 NA
ATOM     67  C   UNL     1     -15.975  -0.104  -8.626  1.00  0.00     0.031 C 
ATOM     68  C   UNL     1     -12.760   4.092 -11.605  1.00  0.00     0.029 A 
ATOM     69  C   UNL     1     -13.115   2.953 -10.901  1.00  0.00     0.049 A 
ATOM     70  H   UNL     1     -11.874   1.456 -10.084  1.00  0.00     0.167 HD
ATOM     71  C   UNL     1     -14.694   1.386  -9.808  1.00  0.00     0.074 A 
ATOM     72  C   UNL     1     -16.020   0.979  -9.390  1.00  0.00     0.031 C 
ATOM     73  C   UNL     1     -14.432   2.504 -10.528  1.00  0.00     0.034 A 
BRANCH  60  74
ATOM     74  C   UNL     1      -8.415   3.517 -11.508  1.00  0.00     0.023 A 
ATOM     75  C   UNL     1      -7.720   3.134 -12.675  1.00  0.00     0.012 A 
ATOM     76  C   UNL     1      -8.136   4.764 -10.917  1.00  0.00     0.148 A 
ATOM     77  C   UNL     1      -6.740   3.960 -13.223  1.00  0.00     0.002 A 
ATOM     78  C   UNL     1      -7.190   5.603 -11.495  1.00  0.00     0.091 A 
ATOM     79  F   UNL     1      -8.790   5.102  -9.796  1.00  0.00    -0.205 F 
ATOM     80  C   UNL     1      -6.484   5.198 -12.640  1.00  0.00     0.022 A 
BRANCH  78  81
ATOM     81  S   UNL     1      -6.843   7.250 -10.869  1.00  0.00     0.127 S 
ATOM     82  O   UNL     1      -5.502   7.077 -10.312  1.00  0.00    -0.237 OA
ATOM     83  O   UNL     1      -6.897   8.060 -12.087  1.00  0.00    -0.237 OA
ATOM     84  O   UNL     1      -7.889   7.541  -9.899  1.00  0.00    -0.744 OA
ENDBRANCH  78  81
ENDBRANCH  60  74
BRANCH  61  85
ATOM     85  C   UNL     1     -15.125  -2.587  -7.313  1.00  0.00     0.023 A 
ATOM     86  C   UNL     1     -16.074  -3.264  -8.104  1.00  0.00     0.012 A 
ATOM     87  C   UNL     1     -15.137  -2.774  -5.917  1.00  0.00     0.148 A 
ATOM     88  C   UNL     1     -17.039  -4.082  -7.515  1.00  0.00     0.002 A 
ATOM     89  C   UNL     1     -16.066  -3.632  -5.342  1.00  0.00     0.091 A 
ATOM     90  F   UNL     1     -14.233  -2.113  -5.181  1.00  0.00    -0.205 F 
ATOM     91  C   UNL     1     -17.030  -4.273  -6.136  1.00  0.00     0.022 A 
BRANCH  89  92
ATOM     92  S   UNL     1     -16.048  -4.038  -3.592  1.00  0.00     0.127 S 
ATOM     93  O   UNL     1     -17.238  -3.341  -3.111  1.00  0.00    -0.237 OA
ATOM     94  O   UNL     1     -16.156  -5.497  -3.619  1.00  0.00    -0.237 OA
ATOM     95  O   UNL     1     -14.775  -3.541  -3.088  1.00  0.00    -0.744 OA
ENDBRANCH  89  92
ENDBRANCH  61  85
BRANCH  73  96
ATOM     96  C   UNL     1     -15.600   3.354 -10.953  1.00  0.00     0.023 A 
ATOM     97  C   UNL     1     -16.282   4.136 -10.000  1.00  0.00     0.012 A 
ATOM     98  C   UNL     1     -15.968   3.440 -12.310  1.00  0.00     0.148 A 
ATOM     99  C   UNL     1     -17.334   4.966 -10.387  1.00  0.00     0.002 A 
ATOM    100  C   UNL     1     -16.983   4.307 -12.696  1.00  0.00     0.091 A 
ATOM    101  F   UNL     1     -15.318   2.674 -13.199  1.00  0.00    -0.205 F 
ATOM    102  C   UNL     1     -17.675   5.061 -11.735  1.00  0.00     0.022 A 
BRANCH 100 103
ATOM    103  S   UNL     1     -17.422   4.569 -14.418  1.00  0.00     0.127 S 
ATOM    104  O   UNL     1     -18.710   3.884 -14.504  1.00  0.00    -0.237 OA
ATOM    105  O   UNL     1     -17.500   6.028 -14.500  1.00  0.00    -0.237 OA
ATOM    106  O   UNL     1     -16.345   3.978 -15.201  1.00  0.00    -0.744 OA
ENDBRANCH 100 103
ENDBRANCH  73  96
ENDBRANCH  47  48
ENDBRANCH  39  42
ENDBRANCH  37  38
ENDBRANCH  36  37
ENDBRANCH   1  36
TORSDOF 20
