REMARK SMILES C[C@@H](Oc1ccc(/C=C2\C(=O)[NH+]=C(NCCCCNC(=O)c3ccc(-c4c5nc(c(-c6cccc(S(=O)(=O)[O-])c6F)c6ccc([nH]6)c(-c6cccc(S(=O)(=O)[O-])c6F)c6nc(c(-c7cccc(S(=O)(=O)[O-])c7F)c7ccc4[nH]7)C=C6)C=C5)cc3)N(c3ccc4c(c3)OCO4)C2=O)cc1)C(=O)[O-]
REMARK SMILES IDX 16 1 15 2 14 3 8 4 9 5 10 6 95 7 11 8 12 9 85 10 96 11 13 12
REMARK SMILES IDX 7 15 4 16 5 17 98 18 6 19 97 20 3 21 2 22 1 23 99 24 100 25
REMARK SMILES IDX 101 26 86 27 87 28 91 29 88 30 90 31 89 32 92 33 94 34 93 35
REMARK SMILES IDX 17 36 18 37 19 38 20 39 21 41 22 42 23 43 84 44 24 45 83 46
REMARK SMILES IDX 25 47 26 48 27 49 77 50 28 51 82 52 76 53 78 54 29 55 81 56
REMARK SMILES IDX 75 57 74 58 30 60 62 61 42 62 61 63 43 64 46 65 60 66 79 67
REMARK SMILES IDX 44 68 45 69 59 71 80 72 47 73 31 74 32 75 40 76 33 77 35 78
REMARK SMILES IDX 41 79 34 80 36 81 37 82 38 83 39 84 63 85 64 86 72 87 65 88
REMARK SMILES IDX 67 89 73 90 66 91 68 92 69 93 70 94 71 95 48 96 49 97 57 98
REMARK SMILES IDX 50 99 52 100 58 101 51 102 53 103 54 104 55 105 56 106
REMARK H PARENT 12 13 14 14 19 40 78 59 46 70
REMARK Flexibility Score: inf
ROOT
ATOM      1  C   UNL     1       7.659  -3.654   9.629  1.00  0.00     0.039 C 
ENDROOT
BRANCH   1   2
ATOM      2  C   UNL     1       7.315  -2.197   9.335  1.00  0.00     0.197 C 
BRANCH   2   3
ATOM      3  N   UNL     1       8.174  -1.674   8.292  1.00  0.00    -0.277 N 
ATOM      4  C   UNL     1       6.208  -0.167   3.619  1.00  0.00     0.031 C 
ATOM      5  C   UNL     1       6.850  -0.928   4.526  1.00  0.00     0.138 C 
ATOM      6  C   UNL     1       6.283  -2.047   5.292  1.00  0.00     0.321 C 
ATOM      7  C   UNL     1       8.261  -0.599   4.803  1.00  0.00     0.328 C 
ATOM      8  O   UNL     1       5.498  -2.848   4.800  1.00  0.00    -0.250 OA
ATOM      9  N   UNL     1       6.676  -2.089   6.596  1.00  0.00    -0.210 N 
ATOM     10  N   UNL     1       8.690  -1.001   6.064  1.00  0.00    -0.162 N 
ATOM     11  O   UNL     1       8.942   0.007   3.976  1.00  0.00    -0.249 OA
ATOM     12  C   UNL     1       7.826  -1.614   6.966  1.00  0.00     0.366 C 
ATOM     13  H   UNL     1       6.077  -2.486   7.270  1.00  0.00     0.270 HD
ATOM     14  H   UNL     1       9.063  -1.339   8.551  1.00  0.00     0.260 HD
BRANCH   4  15
ATOM     15  C   UNL     1       4.799  -0.184   3.200  1.00  0.00    -0.024 A 
ATOM     16  C   UNL     1       2.136  -0.029   2.305  1.00  0.00     0.120 A 
ATOM     17  C   UNL     1       2.413  -0.451   3.601  1.00  0.00     0.047 A 
ATOM     18  C   UNL     1       3.177   0.365   1.471  1.00  0.00     0.047 A 
ATOM     19  C   UNL     1       3.737  -0.513   4.051  1.00  0.00     0.012 A 
ATOM     20  C   UNL     1       4.499   0.275   1.910  1.00  0.00     0.012 A 
BRANCH  16  21
ATOM     21  O   UNL     1       0.826   0.127   1.953  1.00  0.00    -0.485 OA
BRANCH  21  22
ATOM     22  C   UNL     1       0.399  -0.707   0.867  1.00  0.00     0.216 C 
ATOM     23  C   UNL     1       0.607  -0.032  -0.486  1.00  0.00     0.059 C 
BRANCH  22  24
ATOM     24  C   UNL     1      -1.096  -0.959   1.026  1.00  0.00     0.082 C 
ATOM     25  O   UNL     1      -1.675  -2.012   0.799  1.00  0.00    -0.546 OA
ATOM     26  O   UNL     1      -1.808   0.137   1.367  1.00  0.00    -0.546 OA
ENDBRANCH  22  24
ENDBRANCH  21  22
ENDBRANCH  16  21
ENDBRANCH   4  15
BRANCH  10  27
ATOM     27  C   UNL     1      10.012  -0.634   6.426  1.00  0.00     0.115 A 
ATOM     28  C   UNL     1      11.024  -1.618   6.482  1.00  0.00     0.048 A 
ATOM     29  C   UNL     1      10.323   0.724   6.562  1.00  0.00     0.094 A 
ATOM     30  C   UNL     1      12.365  -1.238   6.607  1.00  0.00     0.054 A 
ATOM     31  C   UNL     1      11.650   1.062   6.664  1.00  0.00     0.169 A 
ATOM     32  C   UNL     1      12.645   0.112   6.666  1.00  0.00     0.166 A 
ATOM     33  O   UNL     1      12.140   2.330   6.697  1.00  0.00    -0.453 OA
ATOM     34  O   UNL     1      13.883   0.674   6.676  1.00  0.00    -0.454 OA
ATOM     35  C   UNL     1      13.542   2.063   6.484  1.00  0.00     0.468 C 
ENDBRANCH  10  27
ENDBRANCH   2   3
ENDBRANCH   1   2
BRANCH   1  36
ATOM     36  C   UNL     1       9.073  -3.870  10.172  1.00  0.00     0.024 C 
BRANCH  36  37
ATOM     37  C   UNL     1       9.425  -3.056  11.412  1.00  0.00     0.116 C 
BRANCH  37  38
ATOM     38  N   UNL     1       8.538  -3.318  12.536  1.00  0.00    -0.352 N 
ATOM     39  C   UNL     1       8.857  -3.579  13.847  1.00  0.00     0.251 C 
ATOM     40  H   UNL     1       7.576  -3.308  12.327  1.00  0.00     0.163 HD
ATOM     41  O   UNL     1       7.979  -3.916  14.636  1.00  0.00    -0.269 OA
BRANCH  39  42
ATOM     42  C   UNL     1      10.263  -3.481  14.295  1.00  0.00     0.039 A 
ATOM     43  C   UNL     1      10.797  -4.511  15.074  1.00  0.00     0.014 A 
ATOM     44  C   UNL     1      11.058  -2.391  13.930  1.00  0.00     0.014 A 
ATOM     45  C   UNL     1      12.148  -4.479  15.430  1.00  0.00     0.010 A 
ATOM     46  C   UNL     1      12.420  -2.403  14.216  1.00  0.00     0.010 A 
ATOM     47  C   UNL     1      12.980  -3.444  14.972  1.00  0.00    -0.014 A 
BRANCH  47  48
ATOM     48  C   UNL     1      14.439  -3.443  15.257  1.00  0.00     0.031 A 
ATOM     49  C   UNL     1      15.058  -2.329  16.056  1.00  0.00     0.074 A 
ATOM     50  C   UNL     1      15.222  -4.401  14.722  1.00  0.00     0.049 A 
ATOM     51  N   UNL     1      16.313  -2.139  16.372  1.00  0.00    -0.248 NA
ATOM     52  C   UNL     1      14.154  -1.273  16.542  1.00  0.00     0.031 C 
ATOM     53  C   UNL     1      14.757  -5.497  13.870  1.00  0.00     0.029 A 
ATOM     54  N   UNL     1      16.579  -4.595  14.796  1.00  0.00    -0.354 N 
ATOM     55  C   UNL     1      16.357  -0.927  17.050  1.00  0.00     0.074 A 
ATOM     56  C   UNL     1      15.006  -0.410  17.076  1.00  0.00     0.031 C 
ATOM     57  C   UNL     1      15.805  -6.258  13.518  1.00  0.00     0.029 A 
ATOM     58  C   UNL     1      17.022  -5.686  14.085  1.00  0.00     0.049 A 
ATOM     59  H   UNL     1      17.180  -4.008  15.311  1.00  0.00     0.167 HD
ATOM     60  C   UNL     1      17.419  -0.309  17.621  1.00  0.00     0.034 A 
ATOM     61  C   UNL     1      18.267  -6.169  13.905  1.00  0.00     0.034 A 
ATOM     62  C   UNL     1      18.754  -0.845  17.627  1.00  0.00     0.049 A 
ATOM     63  C   UNL     1      19.426  -5.476  14.569  1.00  0.00     0.074 A 
ATOM     64  C   UNL     1      19.875  -0.350  18.268  1.00  0.00     0.029 A 
ATOM     65  N   UNL     1      19.154  -1.982  16.943  1.00  0.00    -0.354 N 
ATOM     66  N   UNL     1      19.421  -4.422  15.349  1.00  0.00    -0.248 NA
ATOM     67  C   UNL     1      20.758  -6.058  14.352  1.00  0.00     0.031 C 
ATOM     68  C   UNL     1      20.963  -1.163  17.935  1.00  0.00     0.029 A 
ATOM     69  C   UNL     1      20.511  -2.192  17.125  1.00  0.00     0.049 A 
ATOM     70  H   UNL     1      18.561  -2.558  16.408  1.00  0.00     0.167 HD
ATOM     71  C   UNL     1      20.740  -4.240  15.751  1.00  0.00     0.074 A 
ATOM     72  C   UNL     1      21.513  -5.302  15.139  1.00  0.00     0.031 C 
ATOM     73  C   UNL     1      21.264  -3.277  16.549  1.00  0.00     0.034 A 
BRANCH  60  74
ATOM     74  C   UNL     1      17.175   1.010  18.309  1.00  0.00     0.023 A 
ATOM     75  C   UNL     1      16.431   1.054  19.507  1.00  0.00     0.012 A 
ATOM     76  C   UNL     1      17.719   2.202  17.792  1.00  0.00     0.148 A 
ATOM     77  C   UNL     1      16.194   2.267  20.153  1.00  0.00     0.002 A 
ATOM     78  C   UNL     1      17.522   3.400  18.469  1.00  0.00     0.091 A 
ATOM     79  F   UNL     1      18.406   2.146  16.642  1.00  0.00    -0.205 F 
ATOM     80  C   UNL     1      16.747   3.437  19.640  1.00  0.00     0.022 A 
BRANCH  78  81
ATOM     81  S   UNL     1      18.264   4.945  17.934  1.00  0.00     0.127 S 
ATOM     82  O   UNL     1      17.100   5.672  17.431  1.00  0.00    -0.237 OA
ATOM     83  O   UNL     1      18.817   5.470  19.184  1.00  0.00    -0.237 OA
ATOM     84  O   UNL     1      19.260   4.587  16.934  1.00  0.00    -0.744 OA
ENDBRANCH  78  81
ENDBRANCH  60  74
BRANCH  61  85
ATOM     85  C   UNL     1      18.476  -7.419  13.120  1.00  0.00     0.023 A 
ATOM     86  C   UNL     1      18.876  -8.592  13.790  1.00  0.00     0.012 A 
ATOM     87  C   UNL     1      18.259  -7.462  11.730  1.00  0.00     0.148 A 
ATOM     88  C   UNL     1      19.089  -9.777  13.085  1.00  0.00     0.002 A 
ATOM     89  C   UNL     1      18.420  -8.659  11.042  1.00  0.00     0.091 A 
ATOM     90  F   UNL     1      17.885  -6.334  11.111  1.00  0.00    -0.205 F 
ATOM     91  C   UNL     1      18.853  -9.813  11.714  1.00  0.00     0.022 A 
BRANCH  89  92
ATOM     92  S   UNL     1      18.020  -8.835   9.300  1.00  0.00     0.127 S 
ATOM     93  O   UNL     1      19.334  -9.086   8.714  1.00  0.00    -0.237 OA
ATOM     94  O   UNL     1      17.120  -9.989   9.315  1.00  0.00    -0.237 OA
ATOM     95  O   UNL     1      17.387  -7.582   8.911  1.00  0.00    -0.744 OA
ENDBRANCH  89  92
ENDBRANCH  61  85
BRANCH  73  96
ATOM     96  C   UNL     1      22.739  -3.342  16.851  1.00  0.00     0.023 A 
ATOM     97  C   UNL     1      23.682  -3.047  15.847  1.00  0.00     0.012 A 
ATOM     98  C   UNL     1      23.188  -3.628  18.157  1.00  0.00     0.148 A 
ATOM     99  C   UNL     1      25.048  -3.071  16.127  1.00  0.00     0.002 A 
ATOM    100  C   UNL     1      24.547  -3.595  18.442  1.00  0.00     0.091 A 
ATOM    101  F   UNL     1      22.277  -3.924  19.095  1.00  0.00    -0.205 F 
ATOM    102  C   UNL     1      25.480  -3.332  17.426  1.00  0.00     0.022 A 
BRANCH 100 103
ATOM    103  S   UNL     1      25.189  -3.817  20.105  1.00  0.00     0.127 S 
ATOM    104  O   UNL     1      25.834  -5.125  20.003  1.00  0.00    -0.237 OA
ATOM    105  O   UNL     1      26.112  -2.690  20.233  1.00  0.00    -0.237 OA
ATOM    106  O   UNL     1      24.036  -3.759  20.993  1.00  0.00    -0.744 OA
ENDBRANCH 100 103
ENDBRANCH  73  96
ENDBRANCH  47  48
ENDBRANCH  39  42
ENDBRANCH  37  38
ENDBRANCH  36  37
ENDBRANCH   1  36
TORSDOF 18
