REMARK SMILES Cc1nc(=O)[nH]c(C)c1CC(=O)N1CC[C@H](C(=O)NCCCCNC(=O)c2ccc(-c3c4nc(c(-c5cccc(S(=O)(=O)[O-])c5F)c5ccc([nH]5)c(-c5cccc(S(=O)(=O)[O-])c5F)c5nc(c(-c6cccc(S(=O)(=O)[O-])c6F)c6ccc3[nH]6)C=C5)C=C4)cc2)[C@@H]1C
REMARK SMILES IDX 21 1 20 2 19 3 17 4 18 5 16 7 13 8 14 9 90 10 15 11 91 12
REMARK SMILES IDX 11 13 12 14 10 15 9 16 1 17 2 18 3 19 4 20 7 21 5 22 6 23
REMARK SMILES IDX 8 24 22 26 23 27 24 28 25 29 26 31 27 32 28 33 89 34 29 35
REMARK SMILES IDX 88 36 30 37 31 38 32 39 82 40 33 41 87 42 81 43 83 44 34 45
REMARK SMILES IDX 86 46 80 47 79 48 35 50 67 51 47 52 66 53 48 54 51 55 65 56
REMARK SMILES IDX 84 57 49 58 50 59 64 61 85 62 52 63 36 64 37 65 45 66 38 67
REMARK SMILES IDX 40 68 46 69 39 70 41 71 42 72 43 73 44 74 68 75 69 76 77 77
REMARK SMILES IDX 70 78 72 79 78 80 71 81 73 82 74 83 75 84 76 85 53 86 54 87
REMARK SMILES IDX 62 88 55 89 57 90 63 91 56 92 58 93 59 94 60 95 61 96
REMARK H PARENT 19 6 6 25 24 30 83 49 51 60
REMARK Flexibility Score: inf
ROOT
ATOM      1  C   UNL     1      -4.071   0.840   4.413  1.00  0.00     0.023 C 
ENDROOT
BRANCH   1   2
ATOM      2  C   UNL     1      -2.656   0.338   4.155  1.00  0.00     0.116 C 
BRANCH   2   3
ATOM      3  N   UNL     1      -1.966  -0.116   5.351  1.00  0.00    -0.356 N 
ATOM      4  C   UNL     1      -0.989  -1.032   5.570  1.00  0.00     0.225 C 
ATOM      5  O   UNL     1      -0.464  -1.001   6.691  1.00  0.00    -0.275 OA
ATOM      6  H   UNL     1      -2.269   0.335   6.171  1.00  0.00     0.163 HD
BRANCH   4   7
ATOM      7  C   UNL     1      -0.561  -2.157   4.614  1.00  0.00     0.102 C 
ATOM      8  N   UNL     1      -1.846  -2.422   2.631  1.00  0.00    -0.339 N 
ATOM      9  C   UNL     1      -2.550  -3.094   3.725  1.00  0.00     0.120 C 
ATOM     10  C   UNL     1      -0.512  -1.962   3.089  1.00  0.00     0.094 C 
ATOM     11  C   UNL     1      -1.494  -3.347   4.780  1.00  0.00     0.037 C 
ATOM     12  C   UNL     1      -0.019  -0.559   2.746  1.00  0.00     0.032 C 
BRANCH   8  13
ATOM     13  C   UNL     1      -2.486  -2.417   1.409  1.00  0.00     0.227 C 
ATOM     14  O   UNL     1      -3.711  -2.588   1.353  1.00  0.00    -0.275 OA
BRANCH  13  15
ATOM     15  C   UNL     1      -1.710  -2.395   0.097  1.00  0.00     0.139 C 
BRANCH  15  16
ATOM     16  C   UNL     1      -0.909  -1.175  -0.210  1.00  0.00     0.002 A 
ATOM     17  C   UNL     1       1.325  -2.563  -0.293  1.00  0.00     0.067 C 
ATOM     18  C   UNL     1       0.585  -1.238  -0.346  1.00  0.00     0.049 A 
ATOM     19  N   UNL     1       1.352  -0.204  -0.482  1.00  0.00    -0.198 NA
ATOM     20  C   UNL     1       0.795   1.040  -0.528  1.00  0.00     0.345 A 
ATOM     21  C   UNL     1      -1.422   0.062  -0.368  1.00  0.00     0.022 A 
ATOM     22  O   UNL     1       1.465   2.068  -0.574  1.00  0.00    -0.246 OA
ATOM     23  N   UNL     1      -0.570   1.126  -0.519  1.00  0.00    -0.310 N 
ATOM     24  C   UNL     1      -2.881   0.429  -0.315  1.00  0.00     0.065 C 
ATOM     25  H   UNL     1      -0.971   2.019  -0.629  1.00  0.00     0.171 HD
ENDBRANCH  15  16
ENDBRANCH  13  15
ENDBRANCH   8  13
ENDBRANCH   4   7
ENDBRANCH   2   3
ENDBRANCH   1   2
BRANCH   1  26
ATOM     26  C   UNL     1      -4.152   2.155   5.182  1.00  0.00     0.023 C 
BRANCH  26  27
ATOM     27  C   UNL     1      -3.330   3.302   4.603  1.00  0.00     0.116 C 
BRANCH  27  28
ATOM     28  N   UNL     1      -3.684   3.628   3.225  1.00  0.00    -0.352 N 
ATOM     29  C   UNL     1      -4.118   4.822   2.697  1.00  0.00     0.251 C 
ATOM     30  H   UNL     1      -3.600   2.888   2.582  1.00  0.00     0.163 HD
ATOM     31  O   UNL     1      -4.479   4.883   1.526  1.00  0.00    -0.269 OA
BRANCH  29  32
ATOM     32  C   UNL     1      -4.179   6.017   3.565  1.00  0.00     0.039 A 
ATOM     33  C   UNL     1      -5.360   6.760   3.620  1.00  0.00     0.014 A 
ATOM     34  C   UNL     1      -3.092   6.357   4.373  1.00  0.00     0.014 A 
ATOM     35  C   UNL     1      -5.480   7.792   4.553  1.00  0.00     0.010 A 
ATOM     36  C   UNL     1      -3.250   7.317   5.367  1.00  0.00     0.010 A 
ATOM     37  C   UNL     1      -4.444   8.047   5.469  1.00  0.00    -0.014 A 
BRANCH  37  38
ATOM     38  C   UNL     1      -4.598   9.056   6.550  1.00  0.00     0.031 A 
ATOM     39  C   UNL     1      -3.652  10.223   6.642  1.00  0.00     0.074 A 
ATOM     40  C   UNL     1      -5.527   8.872   7.509  1.00  0.00     0.049 A 
ATOM     41  N   UNL     1      -3.594  11.169   7.543  1.00  0.00    -0.248 NA
ATOM     42  C   UNL     1      -2.613  10.319   5.604  1.00  0.00     0.031 C 
ATOM     43  C   UNL     1      -6.441   7.731   7.594  1.00  0.00     0.029 A 
ATOM     44  N   UNL     1      -5.835   9.625   8.617  1.00  0.00    -0.354 N 
ATOM     45  C   UNL     1      -2.495  11.948   7.205  1.00  0.00     0.074 A 
ATOM     46  C   UNL     1      -1.887  11.335   6.044  1.00  0.00     0.031 C 
ATOM     47  C   UNL     1      -7.204   7.858   8.690  1.00  0.00     0.029 A 
ATOM     48  C   UNL     1      -6.813   9.068   9.407  1.00  0.00     0.049 A 
ATOM     49  H   UNL     1      -5.397  10.482   8.824  1.00  0.00     0.167 HD
ATOM     50  C   UNL     1      -2.046  13.087   7.785  1.00  0.00     0.034 A 
ATOM     51  C   UNL     1      -7.326   9.471  10.587  1.00  0.00     0.034 A 
ATOM     52  C   UNL     1      -2.666  13.705   8.925  1.00  0.00     0.049 A 
ATOM     53  C   UNL     1      -6.842  10.757  11.196  1.00  0.00     0.074 A 
ATOM     54  C   UNL     1      -2.348  14.908   9.531  1.00  0.00     0.029 A 
ATOM     55  N   UNL     1      -3.715  13.159   9.649  1.00  0.00    -0.354 N 
ATOM     56  N   UNL     1      -5.912  11.574  10.765  1.00  0.00    -0.248 NA
ATOM     57  C   UNL     1      -7.503  11.199  12.432  1.00  0.00     0.031 C 
ATOM     58  C   UNL     1      -3.177  15.067  10.646  1.00  0.00     0.029 A 
ATOM     59  C   UNL     1      -4.045  13.989  10.707  1.00  0.00     0.049 A 
ATOM     60  H   UNL     1      -4.161  12.306   9.441  1.00  0.00     0.167 HD
ATOM     61  C   UNL     1      -5.894  12.639  11.658  1.00  0.00     0.074 A 
ATOM     62  C   UNL     1      -6.923  12.373  12.642  1.00  0.00     0.031 C 
ATOM     63  C   UNL     1      -5.093  13.733  11.664  1.00  0.00     0.034 A 
BRANCH  50  64
ATOM     64  C   UNL     1      -0.838  13.748   7.168  1.00  0.00     0.023 A 
ATOM     65  C   UNL     1      -0.930  14.317   5.880  1.00  0.00     0.012 A 
ATOM     66  C   UNL     1       0.382  13.822   7.867  1.00  0.00     0.148 A 
ATOM     67  C   UNL     1       0.186  14.894   5.274  1.00  0.00     0.002 A 
ATOM     68  C   UNL     1       1.475  14.448   7.278  1.00  0.00     0.091 A 
ATOM     69  F   UNL     1       0.461  13.261   9.082  1.00  0.00    -0.205 F 
ATOM     70  C   UNL     1       1.385  14.967   5.976  1.00  0.00     0.022 A 
BRANCH  68  71
ATOM     71  S   UNL     1       3.038  14.672   8.135  1.00  0.00     0.127 S 
ATOM     72  O   UNL     1       3.897  13.717   7.436  1.00  0.00    -0.237 OA
ATOM     73  O   UNL     1       3.339  16.078   7.862  1.00  0.00    -0.237 OA
ATOM     74  O   UNL     1       2.774  14.370   9.535  1.00  0.00    -0.744 OA
ENDBRANCH  68  71
ENDBRANCH  50  64
BRANCH  51  75
ATOM     75  C   UNL     1      -8.387   8.655  11.242  1.00  0.00     0.023 A 
ATOM     76  C   UNL     1      -9.713   9.129  11.281  1.00  0.00     0.012 A 
ATOM     77  C   UNL     1      -8.094   7.385  11.775  1.00  0.00     0.148 A 
ATOM     78  C   UNL     1     -10.724   8.360  11.860  1.00  0.00     0.002 A 
ATOM     79  C   UNL     1      -9.115   6.601  12.296  1.00  0.00     0.091 A 
ATOM     80  F   UNL     1      -6.824   6.958  11.732  1.00  0.00    -0.205 F 
ATOM     81  C   UNL     1     -10.428   7.093  12.356  1.00  0.00     0.022 A 
BRANCH  79  82
ATOM     82  S   UNL     1      -8.854   4.905  12.827  1.00  0.00     0.127 S 
ATOM     83  O   UNL     1      -9.123   4.995  14.260  1.00  0.00    -0.237 OA
ATOM     84  O   UNL     1      -9.870   4.191  12.052  1.00  0.00    -0.237 OA
ATOM     85  O   UNL     1      -7.481   4.582  12.463  1.00  0.00    -0.744 OA
ENDBRANCH  79  82
ENDBRANCH  51  75
BRANCH  63  86
ATOM     86  C   UNL     1      -5.312  14.756  12.750  1.00  0.00     0.023 A 
ATOM     87  C   UNL     1      -4.954  14.465  14.081  1.00  0.00     0.012 A 
ATOM     88  C   UNL     1      -5.808  16.037  12.432  1.00  0.00     0.148 A 
ATOM     89  C   UNL     1      -5.119  15.420  15.084  1.00  0.00     0.002 A 
ATOM     90  C   UNL     1      -5.918  17.000  13.427  1.00  0.00     0.091 A 
ATOM     91  F   UNL     1      -6.160  16.289  11.163  1.00  0.00    -0.205 F 
ATOM     92  C   UNL     1      -5.588  16.690  14.756  1.00  0.00     0.022 A 
BRANCH  90  93
ATOM     93  S   UNL     1      -6.418  18.691  13.081  1.00  0.00     0.127 S 
ATOM     94  O   UNL     1      -7.736  18.746  13.711  1.00  0.00    -0.237 OA
ATOM     95  O   UNL     1      -5.382  19.465  13.765  1.00  0.00    -0.237 OA
ATOM     96  O   UNL     1      -6.415  18.824  11.630  1.00  0.00    -0.744 OA
ENDBRANCH  90  93
ENDBRANCH  63  86
ENDBRANCH  37  38
ENDBRANCH  29  32
ENDBRANCH  27  28
ENDBRANCH  26  27
ENDBRANCH   1  26
TORSDOF 17
