REMARK SMILES [NH3+]Cc1ccc(C(=O)N2[C@@H](C(=O)NCCCCNC(=O)c3ccc(-c4c5nc(c(-c6cccc(S(=O)(=O)[O-])c6F)c6ccc([nH]6)c(-c6cccc(S(=O)(=O)[O-])c6F)c6nc(c(-c7cccc(S(=O)(=O)[O-])c7F)c7ccc4[nH]7)C=C6)C=C5)cc3)C[C@H]3CCCC[C@@H]32)o1
REMARK SMILES IDX 15 1 14 2 13 3 11 4 12 5 10 7 9 8 90 9 84 10 85 11 89 12
REMARK SMILES IDX 86 13 88 14 87 15 7 16 8 17 6 18 3 19 4 20 91 21 5 22 2 23
REMARK SMILES IDX 1 24 16 28 17 29 18 30 19 31 20 33 21 34 22 35 83 36 23 37
REMARK SMILES IDX 82 38 24 39 25 40 26 41 76 42 27 43 81 44 75 45 77 46 28 47
REMARK SMILES IDX 80 48 74 49 73 50 29 52 61 53 41 54 60 55 42 56 45 57 59 58
REMARK SMILES IDX 78 59 43 60 44 61 58 63 79 64 46 65 30 66 31 67 39 68 32 69
REMARK SMILES IDX 34 70 40 71 33 72 35 73 36 74 37 75 38 76 62 77 63 78 71 79
REMARK SMILES IDX 64 80 66 81 72 82 65 83 67 84 68 85 69 86 70 87 47 88 48 89
REMARK SMILES IDX 56 90 49 91 51 92 57 93 50 94 52 95 53 96 54 97 55 98
REMARK H PARENT 13 6 1 25 1 26 1 27 18 32 77 51 45 62
REMARK Flexibility Score: inf
ROOT
ATOM      1  C   UNL     1       6.990  -1.243  -6.986  1.00  0.00     0.023 C 
ENDROOT
BRANCH   1   2
ATOM      2  C   UNL     1       5.691  -1.834  -7.522  1.00  0.00     0.116 C 
BRANCH   2   3
ATOM      3  N   UNL     1       5.178  -2.915  -6.702  1.00  0.00    -0.354 N 
ATOM      4  C   UNL     1       3.880  -3.167  -6.337  1.00  0.00     0.242 C 
ATOM      5  O   UNL     1       3.646  -4.176  -5.674  1.00  0.00    -0.273 OA
ATOM      6  H   UNL     1       5.850  -3.550  -6.363  1.00  0.00     0.163 HD
BRANCH   4   7
ATOM      7  C   UNL     1       2.780  -2.171  -6.776  1.00  0.00     0.175 C 
ATOM      8  N   UNL     1       1.438  -2.527  -6.262  1.00  0.00    -0.321 N 
ATOM      9  C   UNL     1       0.647  -3.125  -7.321  1.00  0.00     0.089 C 
ATOM     10  C   UNL     1       2.621  -2.240  -8.315  1.00  0.00     0.041 C 
ATOM     11  C   UNL     1       1.114  -2.275  -8.505  1.00  0.00     0.014 C 
ATOM     12  C   UNL     1      -0.878  -3.050  -7.239  1.00  0.00     0.025 C 
ATOM     13  C   UNL     1       0.586  -2.800  -9.825  1.00  0.00     0.006 C 
ATOM     14  C   UNL     1      -1.509  -3.506  -8.562  1.00  0.00     0.002 C 
ATOM     15  C   UNL     1      -0.945  -2.774  -9.785  1.00  0.00     0.000 C 
BRANCH   8  16
ATOM     16  C   UNL     1       0.988  -2.446  -4.955  1.00  0.00     0.290 C 
ATOM     17  O   UNL     1       0.232  -3.316  -4.503  1.00  0.00    -0.265 OA
BRANCH  16  18
ATOM     18  C   UNL     1       1.256  -1.220  -4.215  1.00  0.00     0.192 A 
ATOM     19  C   UNL     1       1.013   0.106  -2.453  1.00  0.00     0.159 A 
ATOM     20  C   UNL     1       1.569   0.882  -3.443  1.00  0.00     0.052 A 
ATOM     21  O   UNL     1       0.848  -1.170  -2.902  1.00  0.00    -0.450 OA
ATOM     22  C   UNL     1       1.699   0.043  -4.577  1.00  0.00     0.057 A 
BRANCH  19  23
ATOM     23  C   UNL     1       0.526   0.405  -1.081  1.00  0.00     0.335 C 
BRANCH  23  24
ATOM     24  N   UNL     1       1.139  -0.470  -0.088  1.00  0.00    -0.351 N 
ATOM     25  H   UNL     1       0.782  -0.235   0.838  1.00  0.00     0.344 HD
ATOM     26  H   UNL     1       2.151  -0.345  -0.103  1.00  0.00     0.344 HD
ATOM     27  H   UNL     1       0.913  -1.440  -0.304  1.00  0.00     0.344 HD
ENDBRANCH  23  24
ENDBRANCH  19  23
ENDBRANCH  16  18
ENDBRANCH   8  16
ENDBRANCH   4   7
ENDBRANCH   2   3
ENDBRANCH   1   2
BRANCH   1  28
ATOM     28  C   UNL     1       8.212  -2.159  -7.056  1.00  0.00     0.023 C 
BRANCH  28  29
ATOM     29  C   UNL     1       8.543  -2.729  -8.433  1.00  0.00     0.116 C 
BRANCH  29  30
ATOM     30  N   UNL     1       8.718  -1.705  -9.453  1.00  0.00    -0.352 N 
ATOM     31  C   UNL     1       9.730  -1.544 -10.369  1.00  0.00     0.251 C 
ATOM     32  H   UNL     1       8.005  -1.027  -9.492  1.00  0.00     0.163 HD
ATOM     33  O   UNL     1       9.746  -0.540 -11.078  1.00  0.00    -0.269 OA
BRANCH  31  34
ATOM     34  C   UNL     1      10.808  -2.552 -10.487  1.00  0.00     0.039 A 
ATOM     35  C   UNL     1      12.131  -2.114 -10.601  1.00  0.00     0.014 A 
ATOM     36  C   UNL     1      10.522  -3.919 -10.501  1.00  0.00     0.014 A 
ATOM     37  C   UNL     1      13.171  -3.047 -10.668  1.00  0.00     0.010 A 
ATOM     38  C   UNL     1      11.562  -4.846 -10.497  1.00  0.00     0.010 A 
ATOM     39  C   UNL     1      12.896  -4.421 -10.590  1.00  0.00    -0.014 A 
BRANCH  39  40
ATOM     40  C   UNL     1      13.982  -5.434 -10.625  1.00  0.00     0.031 A 
ATOM     41  C   UNL     1      14.059  -6.413 -11.767  1.00  0.00     0.074 A 
ATOM     42  C   UNL     1      14.838  -5.538  -9.589  1.00  0.00     0.049 A 
ATOM     43  N   UNL     1      14.876  -7.420 -11.936  1.00  0.00    -0.248 NA
ATOM     44  C   UNL     1      13.067  -6.261 -12.844  1.00  0.00     0.031 C 
ATOM     45  C   UNL     1      14.816  -4.707  -8.384  1.00  0.00     0.029 A 
ATOM     46  N   UNL     1      15.877  -6.409  -9.371  1.00  0.00    -0.354 N 
ATOM     47  C   UNL     1      14.467  -8.049 -13.106  1.00  0.00     0.074 A 
ATOM     48  C   UNL     1      13.314  -7.325 -13.594  1.00  0.00     0.031 C 
ATOM     49  C   UNL     1      15.793  -5.109  -7.554  1.00  0.00     0.029 A 
ATOM     50  C   UNL     1      16.501  -6.234  -8.157  1.00  0.00     0.049 A 
ATOM     51  H   UNL     1      16.149  -7.096 -10.022  1.00  0.00     0.167 HD
ATOM     52  C   UNL     1      15.020  -9.111 -13.738  1.00  0.00     0.034 A 
ATOM     53  C   UNL     1      17.530  -6.900  -7.598  1.00  0.00     0.034 A 
ATOM     54  C   UNL     1      16.213  -9.779 -13.296  1.00  0.00     0.049 A 
ATOM     55  C   UNL     1      18.190  -8.011  -8.373  1.00  0.00     0.074 A 
ATOM     56  C   UNL     1      16.905 -10.805 -13.915  1.00  0.00     0.029 A 
ATOM     57  N   UNL     1      16.901  -9.476 -12.132  1.00  0.00    -0.354 N 
ATOM     58  N   UNL     1      17.885  -8.484  -9.556  1.00  0.00    -0.248 NA
ATOM     59  C   UNL     1      19.363  -8.649  -7.756  1.00  0.00     0.031 C 
ATOM     60  C   UNL     1      18.018 -11.118 -13.127  1.00  0.00     0.029 A 
ATOM     61  C   UNL     1      18.018 -10.286 -12.020  1.00  0.00     0.049 A 
ATOM     62  H   UNL     1      16.635  -8.787 -11.481  1.00  0.00     0.167 HD
ATOM     63  C   UNL     1      18.849  -9.443  -9.843  1.00  0.00     0.074 A 
ATOM     64  C   UNL     1      19.760  -9.472  -8.717  1.00  0.00     0.031 C 
ATOM     65  C   UNL     1      18.960 -10.243 -10.932  1.00  0.00     0.034 A 
BRANCH  52  66
ATOM     66  C   UNL     1      14.385  -9.568 -15.023  1.00  0.00     0.023 A 
ATOM     67  C   UNL     1      14.566  -8.798 -16.190  1.00  0.00     0.012 A 
ATOM     68  C   UNL     1      13.665 -10.776 -15.095  1.00  0.00     0.148 A 
ATOM     69  C   UNL     1      14.016  -9.208 -17.404  1.00  0.00     0.002 A 
ATOM     70  C   UNL     1      13.152 -11.197 -16.317  1.00  0.00     0.091 A 
ATOM     71  F   UNL     1      13.483 -11.482 -13.970  1.00  0.00    -0.205 F 
ATOM     72  C   UNL     1      13.319 -10.411 -17.469  1.00  0.00     0.022 A 
BRANCH  70  73
ATOM     73  S   UNL     1      12.299 -12.766 -16.518  1.00  0.00     0.127 S 
ATOM     74  O   UNL     1      10.909 -12.331 -16.649  1.00  0.00    -0.237 OA
ATOM     75  O   UNL     1      12.893 -13.287 -17.750  1.00  0.00    -0.237 OA
ATOM     76  O   UNL     1      12.605 -13.541 -15.324  1.00  0.00    -0.744 OA
ENDBRANCH  70  73
ENDBRANCH  52  66
BRANCH  53  77
ATOM     77  C   UNL     1      18.069  -6.468  -6.278  1.00  0.00     0.023 A 
ATOM     78  C   UNL     1      19.316  -5.815  -6.228  1.00  0.00     0.012 A 
ATOM     79  C   UNL     1      17.353  -6.671  -5.083  1.00  0.00     0.148 A 
ATOM     80  C   UNL     1      19.856  -5.401  -5.010  1.00  0.00     0.002 A 
ATOM     81  C   UNL     1      17.874  -6.211  -3.877  1.00  0.00     0.091 A 
ATOM     82  F   UNL     1      16.176  -7.309  -5.144  1.00  0.00    -0.205 F 
ATOM     83  C   UNL     1      19.132  -5.589  -3.837  1.00  0.00     0.022 A 
BRANCH  81  84
ATOM     84  S   UNL     1      16.939  -6.301  -2.346  1.00  0.00     0.127 S 
ATOM     85  O   UNL     1      17.498  -7.496  -1.722  1.00  0.00    -0.237 OA
ATOM     86  O   UNL     1      17.291  -5.041  -1.690  1.00  0.00    -0.237 OA
ATOM     87  O   UNL     1      15.544  -6.384  -2.760  1.00  0.00    -0.744 OA
ENDBRANCH  81  84
ENDBRANCH  53  77
BRANCH  65  88
ATOM     88  C   UNL     1      20.127 -11.190 -10.991  1.00  0.00     0.023 A 
ATOM     89  C   UNL     1      20.113 -12.360 -10.207  1.00  0.00     0.012 A 
ATOM     90  C   UNL     1      21.192 -10.967 -11.885  1.00  0.00     0.148 A 
ATOM     91  C   UNL     1      21.155 -13.283 -10.295  1.00  0.00     0.002 A 
ATOM     92  C   UNL     1      22.206 -11.911 -11.997  1.00  0.00     0.091 A 
ATOM     93  F   UNL     1      21.200  -9.836 -12.606  1.00  0.00    -0.205 F 
ATOM     94  C   UNL     1      22.193 -13.065 -11.198  1.00  0.00     0.022 A 
BRANCH  92  95
ATOM     95  S   UNL     1      23.527 -11.741 -13.203  1.00  0.00     0.127 S 
ATOM     96  O   UNL     1      24.604 -11.178 -12.391  1.00  0.00    -0.237 OA
ATOM     97  O   UNL     1      23.747 -13.124 -13.632  1.00  0.00    -0.237 OA
ATOM     98  O   UNL     1      22.996 -10.871 -14.244  1.00  0.00    -0.744 OA
ENDBRANCH  92  95
ENDBRANCH  65  88
ENDBRANCH  39  40
ENDBRANCH  31  34
ENDBRANCH  29  30
ENDBRANCH  28  29
ENDBRANCH   1  28
TORSDOF 18
