REMARK SMILES O=C(CCCCCc1cc2c(cc1Br)OCCCO2)NCCCCNC(=O)c1ccc(-c2c3nc(c(-c4cccc(S(=O)(=O)[O-])c4F)c4ccc([nH]4)c(-c4cccc(S(=O)(=O)[O-])c4F)c4nc(c(-c5cccc(S(=O)(=O)[O-])c5F)c5ccc2[nH]5)C=C4)C=C3)cc1
REMARK SMILES IDX 1 1 2 2 20 3 3 5 4 6 5 7 6 8 7 9 8 10 9 11 13 12 10 13 12 14
REMARK SMILES IDX 14 15 11 16 19 17 18 18 17 19 15 21 16 22 21 24 22 25 23 26
REMARK SMILES IDX 24 27 25 28 26 29 27 31 28 32 29 33 90 34 30 35 89 36 31 37
REMARK SMILES IDX 32 38 33 39 83 40 34 41 88 42 82 43 84 44 35 45 87 46 81 47
REMARK SMILES IDX 80 48 36 50 68 51 48 52 67 53 49 54 52 55 66 56 85 57 50 58
REMARK SMILES IDX 51 59 65 61 86 62 53 63 37 64 38 65 46 66 39 67 41 68 47 69
REMARK SMILES IDX 40 70 42 71 43 72 44 73 45 74 69 75 70 76 78 77 71 78 73 79
REMARK SMILES IDX 79 80 72 81 74 82 75 83 76 84 77 85 54 86 55 87 63 88 56 89
REMARK SMILES IDX 58 90 64 91 57 92 59 93 60 94 61 95 62 96
REMARK H PARENT 20 4 25 30 84 49 52 60
REMARK Flexibility Score: 90.00
ROOT
ATOM      1  O   UNL     1       0.652   0.436  -0.081  1.00  0.00    -0.275 OA
ATOM      2  C   UNL     1       1.754  -0.092   0.019  1.00  0.00     0.219 C 
ATOM      3  N   UNL     1       2.347  -0.413   1.220  1.00  0.00    -0.356 N 
ATOM      4  H   UNL     1       3.209  -0.888   1.212  1.00  0.00     0.163 HD
ENDROOT
BRANCH   2   5
ATOM      5  C   UNL     1       2.614  -0.409  -1.189  1.00  0.00     0.100 C 
BRANCH   5   6
ATOM      6  C   UNL     1       3.475   0.782  -1.603  1.00  0.00     0.010 C 
BRANCH   6   7
ATOM      7  C   UNL     1       4.520   1.228  -0.576  1.00  0.00     0.001 C 
BRANCH   7   8
ATOM      8  C   UNL     1       5.653   0.228  -0.284  1.00  0.00     0.005 C 
BRANCH   8   9
ATOM      9  C   UNL     1       6.712   0.071  -1.392  1.00  0.00     0.037 C 
BRANCH   9  10
ATOM     10  C   UNL     1       7.584   1.266  -1.732  1.00  0.00    -0.030 A 
ATOM     11  C   UNL     1       7.517   2.455  -0.989  1.00  0.00     0.055 A 
ATOM     12  C   UNL     1       8.482   1.234  -2.820  1.00  0.00     0.025 A 
ATOM     13  C   UNL     1       8.168   3.608  -1.419  1.00  0.00     0.161 A 
ATOM     14  C   UNL     1       9.212   2.370  -3.194  1.00  0.00     0.066 A 
ATOM     15  Br  UNL     1       8.752  -0.338  -3.859  1.00  0.00    -0.050 Br
ATOM     16  C   UNL     1       9.012   3.571  -2.522  1.00  0.00     0.162 A 
BRANCH  13  17
ATOM     17  O   UNL     1       7.928   4.754  -0.710  1.00  0.00    -0.490 OA
BRANCH  17  18
ATOM     18  C   UNL     1       7.218   5.694  -1.519  1.00  0.00     0.233 C 
BRANCH  18  19
ATOM     19  C   UNL     1       8.168   6.513  -2.380  1.00  0.00     0.083 CG0
ATOM     20  G   UNL     1       8.823   5.670  -3.468  1.00  0.00     0.000 G0
ENDBRANCH  18  19
ENDBRANCH  17  18
ENDBRANCH  13  17
BRANCH  16  21
ATOM     21  O   UNL     1       9.704   4.671  -2.948  1.00  0.00    -0.490 OA
BRANCH  21  22
ATOM     22  C   UNL     1       8.823   5.670  -3.468  1.00  0.00     0.233 CG0
ATOM     23  G   UNL     1       8.168   6.513  -2.380  1.00  0.00     0.000 G0
ENDBRANCH  21  22
ENDBRANCH  16  21
ENDBRANCH   9  10
ENDBRANCH   8   9
ENDBRANCH   7   8
ENDBRANCH   6   7
ENDBRANCH   5   6
ENDBRANCH   2   5
BRANCH   3  24
ATOM     24  C   UNL     1       1.746  -0.076   2.493  1.00  0.00     0.116 C 
BRANCH  24  25
ATOM     25  C   UNL     1       2.159  -1.037   3.606  1.00  0.00     0.023 C 
BRANCH  25  26
ATOM     26  C   UNL     1       3.658  -1.075   3.919  1.00  0.00     0.023 C 
BRANCH  26  27
ATOM     27  C   UNL     1       4.265   0.248   4.377  1.00  0.00     0.116 C 
BRANCH  27  28
ATOM     28  N   UNL     1       3.769   0.679   5.674  1.00  0.00    -0.352 N 
ATOM     29  C   UNL     1       4.456   0.945   6.840  1.00  0.00     0.251 C 
ATOM     30  H   UNL     1       2.793   0.800   5.729  1.00  0.00     0.163 HD
ATOM     31  O   UNL     1       3.836   1.154   7.874  1.00  0.00    -0.269 OA
BRANCH  29  32
ATOM     32  C   UNL     1       5.939   0.938   6.847  1.00  0.00     0.039 A 
ATOM     33  C   UNL     1       6.667   1.564   5.834  1.00  0.00     0.014 A 
ATOM     34  C   UNL     1       6.611   0.275   7.879  1.00  0.00     0.014 A 
ATOM     35  C   UNL     1       8.043   1.371   5.751  1.00  0.00     0.010 A 
ATOM     36  C   UNL     1       8.005   0.153   7.838  1.00  0.00     0.010 A 
ATOM     37  C   UNL     1       8.728   0.647   6.741  1.00  0.00    -0.014 A 
BRANCH  37  38
ATOM     38  C   UNL     1      10.189   0.405   6.597  1.00  0.00     0.031 A 
ATOM     39  C   UNL     1      10.729  -0.993   6.428  1.00  0.00     0.074 A 
ATOM     40  C   UNL     1      11.037   1.452   6.576  1.00  0.00     0.049 A 
ATOM     41  N   UNL     1      11.967  -1.378   6.245  1.00  0.00    -0.248 NA
ATOM     42  C   UNL     1       9.763  -2.104   6.475  1.00  0.00     0.031 C 
ATOM     43  C   UNL     1      10.649   2.852   6.756  1.00  0.00     0.029 A 
ATOM     44  N   UNL     1      12.395   1.505   6.383  1.00  0.00    -0.354 N 
ATOM     45  C   UNL     1      11.935  -2.766   6.197  1.00  0.00     0.074 A 
ATOM     46  C   UNL     1      10.556  -3.163   6.373  1.00  0.00     0.031 C 
ATOM     47  C   UNL     1      11.736   3.629   6.630  1.00  0.00     0.029 A 
ATOM     48  C   UNL     1      12.903   2.782   6.402  1.00  0.00     0.049 A 
ATOM     49  H   UNL     1      12.951   0.705   6.244  1.00  0.00     0.167 HD
ATOM     50  C   UNL     1      12.957  -3.633   6.001  1.00  0.00     0.034 A 
ATOM     51  C   UNL     1      14.166   3.229   6.256  1.00  0.00     0.034 A 
ATOM     52  C   UNL     1      14.319  -3.244   5.757  1.00  0.00     0.049 A 
ATOM     53  C   UNL     1      15.275   2.249   6.009  1.00  0.00     0.074 A 
ATOM     54  C   UNL     1      15.403  -4.057   5.475  1.00  0.00     0.029 A 
ATOM     55  N   UNL     1      14.785  -1.940   5.763  1.00  0.00    -0.354 N 
ATOM     56  N   UNL     1      15.204   0.948   5.865  1.00  0.00    -0.248 NA
ATOM     57  C   UNL     1      16.636   2.794   5.889  1.00  0.00     0.031 C 
ATOM     58  C   UNL     1      16.529  -3.244   5.316  1.00  0.00     0.029 A 
ATOM     59  C   UNL     1      16.142  -1.925   5.495  1.00  0.00     0.049 A 
ATOM     60  H   UNL     1      14.233  -1.143   5.932  1.00  0.00     0.167 HD
ATOM     61  C   UNL     1      16.504   0.520   5.628  1.00  0.00     0.074 A 
ATOM     62  C   UNL     1      17.342   1.701   5.625  1.00  0.00     0.031 C 
ATOM     63  C   UNL     1      16.960  -0.742   5.449  1.00  0.00     0.034 A 
BRANCH  50  64
ATOM     64  C   UNL     1      12.645  -5.104   5.979  1.00  0.00     0.023 A 
ATOM     65  C   UNL     1      12.117  -5.676   4.805  1.00  0.00     0.012 A 
ATOM     66  C   UNL     1      12.979  -5.931   7.069  1.00  0.00     0.148 A 
ATOM     67  C   UNL     1      11.918  -7.053   4.718  1.00  0.00     0.002 A 
ATOM     68  C   UNL     1      12.803  -7.306   6.964  1.00  0.00     0.091 A 
ATOM     69  F   UNL     1      13.467  -5.359   8.178  1.00  0.00    -0.205 F 
ATOM     70  C   UNL     1      12.270  -7.868   5.791  1.00  0.00     0.022 A 
BRANCH  68  71
ATOM     71  S   UNL     1      13.275  -8.451   8.265  1.00  0.00     0.127 S 
ATOM     72  O   UNL     1      11.973  -8.967   8.688  1.00  0.00    -0.237 OA
ATOM     73  O   UNL     1      14.107  -9.412   7.542  1.00  0.00    -0.237 OA
ATOM     74  O   UNL     1      13.982  -7.660   9.263  1.00  0.00    -0.744 OA
ENDBRANCH  68  71
ENDBRANCH  50  64
BRANCH  51  75
ATOM     75  C   UNL     1      14.425   4.694   6.291  1.00  0.00     0.023 A 
ATOM     76  C   UNL     1      14.693   5.375   5.090  1.00  0.00     0.012 A 
ATOM     77  C   UNL     1      14.325   5.421   7.493  1.00  0.00     0.148 A 
ATOM     78  C   UNL     1      14.862   6.760   5.085  1.00  0.00     0.002 A 
ATOM     79  C   UNL     1      14.450   6.804   7.475  1.00  0.00     0.091 A 
ATOM     80  F   UNL     1      14.079   4.744   8.624  1.00  0.00    -0.205 F 
ATOM     81  C   UNL     1      14.729   7.475   6.273  1.00  0.00     0.022 A 
BRANCH  79  82
ATOM     82  S   UNL     1      14.177   7.819   8.931  1.00  0.00     0.127 S 
ATOM     83  O   UNL     1      15.513   8.355   9.176  1.00  0.00    -0.237 OA
ATOM     84  O   UNL     1      13.202   8.793   8.439  1.00  0.00    -0.237 OA
ATOM     85  O   UNL     1      13.664   6.916   9.952  1.00  0.00    -0.744 OA
ENDBRANCH  79  82
ENDBRANCH  51  75
BRANCH  63  86
ATOM     86  C   UNL     1      18.435  -0.938   5.236  1.00  0.00     0.023 A 
ATOM     87  C   UNL     1      19.295  -0.924   6.351  1.00  0.00     0.012 A 
ATOM     88  C   UNL     1      18.946  -1.261   3.965  1.00  0.00     0.148 A 
ATOM     89  C   UNL     1      20.648  -1.223   6.202  1.00  0.00     0.002 A 
ATOM     90  C   UNL     1      20.289  -1.589   3.829  1.00  0.00     0.091 A 
ATOM     91  F   UNL     1      18.105  -1.259   2.920  1.00  0.00    -0.205 F 
ATOM     92  C   UNL     1      21.142  -1.567   4.945  1.00  0.00     0.022 A 
BRANCH  90  93
ATOM     93  S   UNL     1      21.005  -2.118   2.268  1.00  0.00     0.127 S 
ATOM     94  O   UNL     1      21.903  -1.006   1.960  1.00  0.00    -0.237 OA
ATOM     95  O   UNL     1      21.679  -3.362   2.642  1.00  0.00    -0.237 OA
ATOM     96  O   UNL     1      19.889  -2.286   1.347  1.00  0.00    -0.744 OA
ENDBRANCH  90  93
ENDBRANCH  63  86
ENDBRANCH  37  38
ENDBRANCH  29  32
ENDBRANCH  27  28
ENDBRANCH  26  27
ENDBRANCH  25  26
ENDBRANCH  24  25
ENDBRANCH   3  24
TORSDOF 19
