REMARK SMILES Cc1ccc2c(c1)C=C(C(=O)NCCCCNC(=O)c1ccc(-c3c4nc(c(-c5cccc(S(=O)(=O)[O-])c5F)c5ccc([nH]5)c(-c5cccc(S(=O)(=O)[O-])c5F)c5nc(c(-c6cccc(S(=O)(=O)[O-])c6F)c6ccc3[nH]6)C=C5)C=C4)cc1)[C@@H](C(F)(F)F)O2
REMARK SMILES IDX 15 1 14 2 13 3 12 4 10 5 11 6 9 8 1 9 2 10 3 11 7 12 4 13
REMARK SMILES IDX 6 14 5 15 8 16 88 17 83 18 84 19 85 20 86 21 87 22 16 23
REMARK SMILES IDX 17 24 18 25 19 27 20 28 21 29 82 30 22 31 81 32 23 33 24 34
REMARK SMILES IDX 25 35 75 36 26 37 80 38 74 39 76 40 27 41 79 42 73 43 72 44
REMARK SMILES IDX 28 46 60 47 40 48 59 49 41 50 44 51 58 52 77 53 42 54 43 55
REMARK SMILES IDX 57 57 78 58 45 59 29 60 30 61 38 62 31 63 33 64 39 65 32 66
REMARK SMILES IDX 34 67 35 68 36 69 37 70 61 71 62 72 70 73 63 74 65 75 71 76
REMARK SMILES IDX 64 77 66 78 67 79 68 80 69 81 46 82 47 83 55 84 48 85 50 86
REMARK SMILES IDX 56 87 49 88 51 89 52 90 53 91 54 92
REMARK H PARENT 12 7 17 26 76 45 44 56
REMARK Flexibility Score: inf
ROOT
ATOM      1  C   UNL     1      -1.186  10.633  -2.179  1.00  0.00     0.023 C 
ENDROOT
BRANCH   1   2
ATOM      2  C   UNL     1      -1.125   9.154  -2.577  1.00  0.00     0.023 C 
BRANCH   2   3
ATOM      3  C   UNL     1       0.284   8.619  -2.823  1.00  0.00     0.116 C 
BRANCH   3   4
ATOM      4  N   UNL     1       0.939   8.208  -1.593  1.00  0.00    -0.352 N 
ATOM      5  C   UNL     1       1.178   7.046  -0.941  1.00  0.00     0.251 C 
ATOM      6  O   UNL     1       1.801   7.159   0.121  1.00  0.00    -0.270 OA
ATOM      7  H   UNL     1       1.306   8.979  -1.104  1.00  0.00     0.163 HD
BRANCH   5   8
ATOM      8  C   UNL     1       0.756   5.689  -1.400  1.00  0.00     0.067 C 
ATOM      9  C   UNL     1       1.121  -0.249   0.291  1.00  0.00     0.044 C 
ATOM     10  C   UNL     1       0.665   0.923  -0.527  1.00  0.00    -0.050 A 
ATOM     11  C   UNL     1      -0.146   0.741  -1.653  1.00  0.00     0.007 A 
ATOM     12  C   UNL     1       1.044   2.223  -0.157  1.00  0.00     0.015 A 
ATOM     13  C   UNL     1      -0.567   1.840  -2.404  1.00  0.00     0.047 A 
ATOM     14  C   UNL     1       0.630   3.325  -0.913  1.00  0.00     0.017 A 
ATOM     15  C   UNL     1      -0.167   3.122  -2.039  1.00  0.00     0.128 A 
ATOM     16  C   UNL     1       0.983   4.686  -0.529  1.00  0.00     0.025 C 
ATOM     17  O   UNL     1      -0.625   4.156  -2.806  1.00  0.00    -0.475 OA
ATOM     18  C   UNL     1       0.158   5.385  -2.746  1.00  0.00     0.314 C 
BRANCH  18  19
ATOM     19  C   UNL     1       1.211   5.369  -3.871  1.00  0.00     0.429 C 
ATOM     20  F   UNL     1       0.605   5.393  -5.085  1.00  0.00    -0.167 F 
ATOM     21  F   UNL     1       2.031   6.445  -3.831  1.00  0.00    -0.167 F 
ATOM     22  F   UNL     1       2.000   4.272  -3.836  1.00  0.00    -0.167 F 
ENDBRANCH  18  19
ENDBRANCH   5   8
ENDBRANCH   3   4
ENDBRANCH   2   3
ENDBRANCH   1   2
BRANCH   1  23
ATOM     23  C   UNL     1      -0.526  11.609  -3.152  1.00  0.00     0.116 C 
BRANCH  23  24
ATOM     24  N   UNL     1      -0.977  11.485  -4.532  1.00  0.00    -0.352 N 
ATOM     25  C   UNL     1      -0.890  12.430  -5.533  1.00  0.00     0.251 C 
ATOM     26  H   UNL     1      -1.392  10.627  -4.778  1.00  0.00     0.163 HD
ATOM     27  O   UNL     1      -1.374  12.213  -6.640  1.00  0.00    -0.269 OA
BRANCH  25  28
ATOM     28  C   UNL     1      -0.262  13.731  -5.222  1.00  0.00     0.039 A 
ATOM     29  C   UNL     1       1.007  13.775  -4.644  1.00  0.00     0.014 A 
ATOM     30  C   UNL     1      -1.006  14.901  -5.394  1.00  0.00     0.014 A 
ATOM     31  C   UNL     1       1.447  14.956  -4.058  1.00  0.00     0.010 A 
ATOM     32  C   UNL     1      -0.526  16.104  -4.868  1.00  0.00     0.010 A 
ATOM     33  C   UNL     1       0.666  16.123  -4.128  1.00  0.00    -0.014 A 
BRANCH  33  34
ATOM     34  C   UNL     1       1.089  17.319  -3.355  1.00  0.00     0.031 A 
ATOM     35  C   UNL     1       0.281  17.793  -2.173  1.00  0.00     0.074 A 
ATOM     36  C   UNL     1       2.254  17.924  -3.657  1.00  0.00     0.049 A 
ATOM     37  N   UNL     1       0.562  18.741  -1.316  1.00  0.00    -0.248 NA
ATOM     38  C   UNL     1      -1.005  17.122  -1.916  1.00  0.00     0.031 C 
ATOM     39  C   UNL     1       3.117  17.568  -4.784  1.00  0.00     0.029 A 
ATOM     40  N   UNL     1       2.927  18.939  -3.026  1.00  0.00    -0.354 N 
ATOM     41  C   UNL     1      -0.521  18.807  -0.449  1.00  0.00     0.074 A 
ATOM     42  C   UNL     1      -1.472  17.808  -0.881  1.00  0.00     0.031 C 
ATOM     43  C   UNL     1       4.234  18.310  -4.730  1.00  0.00     0.029 A 
ATOM     44  C   UNL     1       4.152  19.215  -3.587  1.00  0.00     0.049 A 
ATOM     45  H   UNL     1       2.569  19.423  -2.247  1.00  0.00     0.167 HD
ATOM     46  C   UNL     1      -0.698  19.607   0.628  1.00  0.00     0.034 A 
ATOM     47  C   UNL     1       5.110  20.086  -3.215  1.00  0.00     0.034 A 
ATOM     48  C   UNL     1       0.276  20.545   1.111  1.00  0.00     0.049 A 
ATOM     49  C   UNL     1       4.903  20.940  -1.998  1.00  0.00     0.074 A 
ATOM     50  C   UNL     1       0.208  21.346   2.238  1.00  0.00     0.029 A 
ATOM     51  N   UNL     1       1.494  20.802   0.506  1.00  0.00    -0.354 N 
ATOM     52  N   UNL     1       3.912  20.919  -1.141  1.00  0.00    -0.248 NA
ATOM     53  C   UNL     1       5.945  21.931  -1.692  1.00  0.00     0.031 C 
ATOM     54  C   UNL     1       1.392  22.086   2.316  1.00  0.00     0.029 A 
ATOM     55  C   UNL     1       2.188  21.752   1.232  1.00  0.00     0.049 A 
ATOM     56  H   UNL     1       1.818  20.372  -0.319  1.00  0.00     0.167 HD
ATOM     57  C   UNL     1       4.209  21.890  -0.193  1.00  0.00     0.074 A 
ATOM     58  C   UNL     1       5.486  22.465  -0.565  1.00  0.00     0.031 C 
ATOM     59  C   UNL     1       3.475  22.285   0.874  1.00  0.00     0.034 A 
BRANCH  46  60
ATOM     60  C   UNL     1      -1.970  19.460   1.415  1.00  0.00     0.023 A 
ATOM     61  C   UNL     1      -2.056  18.445   2.388  1.00  0.00     0.012 A 
ATOM     62  C   UNL     1      -3.028  20.376   1.266  1.00  0.00     0.148 A 
ATOM     63  C   UNL     1      -3.184  18.339   3.200  1.00  0.00     0.002 A 
ATOM     64  C   UNL     1      -4.140  20.277   2.094  1.00  0.00     0.091 A 
ATOM     65  F   UNL     1      -2.927  21.320   0.320  1.00  0.00    -0.205 F 
ATOM     66  C   UNL     1      -4.220  19.260   3.060  1.00  0.00     0.022 A 
BRANCH  64  67
ATOM     67  S   UNL     1      -5.509  21.438   2.025  1.00  0.00     0.127 S 
ATOM     68  O   UNL     1      -6.575  20.602   1.475  1.00  0.00    -0.237 OA
ATOM     69  O   UNL     1      -5.681  21.797   3.433  1.00  0.00    -0.237 OA
ATOM     70  O   UNL     1      -5.068  22.529   1.168  1.00  0.00    -0.744 OA
ENDBRANCH  64  67
ENDBRANCH  46  60
BRANCH  47  71
ATOM     71  C   UNL     1       6.387  20.123  -3.977  1.00  0.00     0.023 A 
ATOM     72  C   UNL     1       7.535  19.531  -3.416  1.00  0.00     0.012 A 
ATOM     73  C   UNL     1       6.447  20.650  -5.280  1.00  0.00     0.148 A 
ATOM     74  C   UNL     1       8.723  19.462  -4.143  1.00  0.00     0.002 A 
ATOM     75  C   UNL     1       7.621  20.539  -6.016  1.00  0.00     0.091 A 
ATOM     76  F   UNL     1       5.344  21.222  -5.784  1.00  0.00    -0.205 F 
ATOM     77  C   UNL     1       8.762  19.952  -5.446  1.00  0.00     0.022 A 
BRANCH  75  78
ATOM     78  S   UNL     1       7.726  21.029  -7.740  1.00  0.00     0.127 S 
ATOM     79  O   UNL     1       8.581  22.211  -7.662  1.00  0.00    -0.237 OA
ATOM     80  O   UNL     1       8.351  19.855  -8.351  1.00  0.00    -0.237 OA
ATOM     81  O   UNL     1       6.354  21.268  -8.165  1.00  0.00    -0.744 OA
ENDBRANCH  75  78
ENDBRANCH  47  71
BRANCH  59  82
ATOM     82  C   UNL     1       4.001  23.411   1.718  1.00  0.00     0.023 A 
ATOM     83  C   UNL     1       3.772  24.735   1.297  1.00  0.00     0.012 A 
ATOM     84  C   UNL     1       4.583  23.167   2.976  1.00  0.00     0.148 A 
ATOM     85  C   UNL     1       4.115  25.806   2.120  1.00  0.00     0.002 A 
ATOM     86  C   UNL     1       4.899  24.240   3.802  1.00  0.00     0.091 A 
ATOM     87  F   UNL     1       4.785  21.896   3.350  1.00  0.00    -0.205 F 
ATOM     88  C   UNL     1       4.668  25.558   3.374  1.00  0.00     0.022 A 
BRANCH  86  89
ATOM     89  S   UNL     1       5.555  24.031   5.461  1.00  0.00     0.127 S 
ATOM     90  O   UNL     1       6.848  24.706   5.358  1.00  0.00    -0.237 OA
ATOM     91  O   UNL     1       4.562  24.733   6.274  1.00  0.00    -0.237 OA
ATOM     92  O   UNL     1       5.631  22.594   5.689  1.00  0.00    -0.744 OA
ENDBRANCH  86  89
ENDBRANCH  59  82
ENDBRANCH  33  34
ENDBRANCH  25  28
ENDBRANCH  23  24
ENDBRANCH   1  23
TORSDOF 15
