REMARK SMILES COC[C@@H](C)CC(=O)Nc1cccc(/C=C/C(=O)NCCCCNC(=O)c2ccc(-c3c4nc(c(-c5cccc(S(=O)(=O)[O-])c5F)c5ccc([nH]5)c(-c5cccc(S(=O)(=O)[O-])c5F)c5nc(c(-c6cccc(S(=O)(=O)[O-])c6F)c6ccc3[nH]6)C=C5)C=C4)cc2)c1
REMARK SMILES IDX 20 1 19 2 17 3 18 4 16 6 15 7 14 8 10 9 11 10 90 11 12 12
REMARK SMILES IDX 13 13 9 14 7 15 8 16 6 18 4 19 5 20 3 21 2 22 1 23 21 24
REMARK SMILES IDX 22 25 23 26 24 27 25 28 26 30 27 31 28 32 89 33 29 34 88 35
REMARK SMILES IDX 30 36 31 37 32 38 82 39 33 40 87 41 81 42 83 43 34 44 86 45
REMARK SMILES IDX 80 46 79 47 35 49 67 50 47 51 66 52 48 53 51 54 65 55 84 56
REMARK SMILES IDX 49 57 50 58 64 60 85 61 52 62 36 63 37 64 45 65 38 66 40 67
REMARK SMILES IDX 46 68 39 69 41 70 42 71 43 72 44 73 68 74 69 75 77 76 70 77
REMARK SMILES IDX 72 78 78 79 71 80 73 81 74 82 75 83 76 84 53 85 54 86 62 87
REMARK SMILES IDX 55 88 57 89 63 90 56 91 58 92 59 93 60 94 61 95
REMARK H PARENT 19 5 9 17 24 29 83 48 51 59
REMARK Flexibility Score: inf
ROOT
ATOM      1  C   UNL     1      -0.155   1.858   0.204  1.00  0.00     0.116 C 
ENDROOT
BRANCH   1   2
ATOM      2  N   UNL     1       0.565   2.914   0.894  1.00  0.00    -0.353 N 
ATOM      3  C   UNL     1       1.710   2.827   1.629  1.00  0.00     0.243 C 
ATOM      4  O   UNL     1       2.346   3.835   1.925  1.00  0.00    -0.270 OA
ATOM      5  H   UNL     1       0.172   3.814   0.822  1.00  0.00     0.163 HD
BRANCH   3   6
ATOM      6  C   UNL     1       2.252   1.502   2.007  1.00  0.00     0.072 C 
ATOM      7  C   UNL     1       1.560   0.617   2.741  1.00  0.00     0.014 C 
BRANCH   7   8
ATOM      8  C   UNL     1       2.104  -0.698   3.103  1.00  0.00    -0.023 A 
ATOM      9  C   UNL     1       1.869  -3.120   3.051  1.00  0.00     0.041 A 
ATOM     10  C   UNL     1       3.070  -3.261   3.740  1.00  0.00     0.026 A 
ATOM     11  C   UNL     1       1.359  -1.845   2.800  1.00  0.00     0.034 A 
ATOM     12  C   UNL     1       3.813  -2.124   4.066  1.00  0.00     0.003 A 
ATOM     13  C   UNL     1       3.340  -0.849   3.737  1.00  0.00     0.008 A 
BRANCH   9  14
ATOM     14  N   UNL     1       1.141  -4.259   2.682  1.00  0.00    -0.326 N 
ATOM     15  C   UNL     1       0.536  -4.502   1.472  1.00  0.00     0.224 C 
ATOM     16  O   UNL     1      -0.447  -5.240   1.416  1.00  0.00    -0.275 OA
ATOM     17  H   UNL     1       1.054  -4.963   3.364  1.00  0.00     0.169 HD
BRANCH  15  18
ATOM     18  C   UNL     1       1.260  -4.045   0.206  1.00  0.00     0.106 C 
BRANCH  18  19
ATOM     19  C   UNL     1       0.465  -3.131  -0.743  1.00  0.00     0.021 C 
ATOM     20  C   UNL     1       0.854  -3.409  -2.199  1.00  0.00     0.010 C 
BRANCH  19  21
ATOM     21  C   UNL     1       0.664  -1.655  -0.357  1.00  0.00     0.163 C 
BRANCH  21  22
ATOM     22  O   UNL     1       0.774  -0.774  -1.472  1.00  0.00    -0.384 OA
ATOM     23  C   UNL     1       2.105  -0.284  -1.629  1.00  0.00     0.194 C 
ENDBRANCH  21  22
ENDBRANCH  19  21
ENDBRANCH  18  19
ENDBRANCH  15  18
ENDBRANCH   9  14
ENDBRANCH   7   8
ENDBRANCH   3   6
ENDBRANCH   1   2
BRANCH   1  24
ATOM     24  C   UNL     1      -1.658   2.101   0.115  1.00  0.00     0.023 C 
BRANCH  24  25
ATOM     25  C   UNL     1      -2.093   3.079  -0.978  1.00  0.00     0.023 C 
BRANCH  25  26
ATOM     26  C   UNL     1      -1.734   2.680  -2.411  1.00  0.00     0.116 C 
BRANCH  26  27
ATOM     27  N   UNL     1      -2.308   1.405  -2.827  1.00  0.00    -0.352 N 
ATOM     28  C   UNL     1      -3.239   1.125  -3.802  1.00  0.00     0.251 C 
ATOM     29  H   UNL     1      -1.977   0.621  -2.333  1.00  0.00     0.163 HD
ATOM     30  O   UNL     1      -3.686  -0.014  -3.919  1.00  0.00    -0.269 OA
BRANCH  28  31
ATOM     31  C   UNL     1      -3.735   2.199  -4.693  1.00  0.00     0.039 A 
ATOM     32  C   UNL     1      -5.113   2.349  -4.871  1.00  0.00     0.014 A 
ATOM     33  C   UNL     1      -2.850   3.072  -5.329  1.00  0.00     0.014 A 
ATOM     34  C   UNL     1      -5.605   3.450  -5.581  1.00  0.00     0.010 A 
ATOM     35  C   UNL     1      -3.341   4.205  -5.976  1.00  0.00     0.010 A 
ATOM     36  C   UNL     1      -4.723   4.423  -6.080  1.00  0.00    -0.014 A 
BRANCH  36  37
ATOM     37  C   UNL     1      -5.219   5.722  -6.610  1.00  0.00     0.031 A 
ATOM     38  C   UNL     1      -4.943   6.138  -8.028  1.00  0.00     0.074 A 
ATOM     39  C   UNL     1      -5.810   6.590  -5.761  1.00  0.00     0.049 A 
ATOM     40  N   UNL     1      -5.206   7.276  -8.618  1.00  0.00    -0.248 NA
ATOM     41  C   UNL     1      -4.262   5.159  -8.890  1.00  0.00     0.031 C 
ATOM     42  C   UNL     1      -6.060   6.344  -4.338  1.00  0.00     0.029 A 
ATOM     43  N   UNL     1      -6.274   7.868  -5.959  1.00  0.00    -0.354 N 
ATOM     44  C   UNL     1      -4.698   7.165  -9.906  1.00  0.00     0.074 A 
ATOM     45  C   UNL     1      -4.088   5.856 -10.006  1.00  0.00     0.031 C 
ATOM     46  C   UNL     1      -6.624   7.433  -3.793  1.00  0.00     0.029 A 
ATOM     47  C   UNL     1      -6.745   8.468  -4.814  1.00  0.00     0.049 A 
ATOM     48  H   UNL     1      -6.269   8.313  -6.838  1.00  0.00     0.167 HD
ATOM     49  C   UNL     1      -4.757   8.060 -10.921  1.00  0.00     0.034 A 
ATOM     50  C   UNL     1      -7.208   9.715  -4.599  1.00  0.00     0.034 A 
ATOM     51  C   UNL     1      -5.400   9.345 -10.836  1.00  0.00     0.049 A 
ATOM     52  C   UNL     1      -7.281  10.679  -5.752  1.00  0.00     0.074 A 
ATOM     53  C   UNL     1      -5.598  10.276 -11.841  1.00  0.00     0.029 A 
ATOM     54  N   UNL     1      -5.942   9.886  -9.681  1.00  0.00    -0.354 N 
ATOM     55  N   UNL     1      -6.954  10.490  -7.006  1.00  0.00    -0.248 NA
ATOM     56  C   UNL     1      -7.815  12.019  -5.465  1.00  0.00     0.031 C 
ATOM     57  C   UNL     1      -6.243  11.387 -11.290  1.00  0.00     0.029 A 
ATOM     58  C   UNL     1      -6.459  11.143  -9.943  1.00  0.00     0.049 A 
ATOM     59  H   UNL     1      -5.956   9.442  -8.802  1.00  0.00     0.167 HD
ATOM     60  C   UNL     1      -7.262  11.676  -7.663  1.00  0.00     0.074 A 
ATOM     61  C   UNL     1      -7.832  12.566  -6.673  1.00  0.00     0.031 C 
ATOM     62  C   UNL     1      -7.068  12.005  -8.963  1.00  0.00     0.034 A 
BRANCH  49  63
ATOM     63  C   UNL     1      -4.167   7.657 -12.247  1.00  0.00     0.023 A 
ATOM     64  C   UNL     1      -4.851   6.720 -13.047  1.00  0.00     0.012 A 
ATOM     65  C   UNL     1      -2.992   8.259 -12.738  1.00  0.00     0.148 A 
ATOM     66  C   UNL     1      -4.363   6.368 -14.304  1.00  0.00     0.002 A 
ATOM     67  C   UNL     1      -2.531   7.931 -14.009  1.00  0.00     0.091 A 
ATOM     68  F   UNL     1      -2.345   9.134 -11.955  1.00  0.00    -0.205 F 
ATOM     69  C   UNL     1      -3.211   6.980 -14.789  1.00  0.00     0.022 A 
BRANCH  67  70
ATOM     70  S   UNL     1      -1.097   8.714 -14.755  1.00  0.00     0.127 S 
ATOM     71  O   UNL     1      -0.123   7.623 -14.739  1.00  0.00    -0.237 OA
ATOM     72  O   UNL     1      -1.595   9.067 -16.085  1.00  0.00    -0.237 OA
ATOM     73  O   UNL     1      -0.773   9.852 -13.906  1.00  0.00    -0.744 OA
ENDBRANCH  67  70
ENDBRANCH  49  63
BRANCH  50  74
ATOM     74  C   UNL     1      -7.689  10.110  -3.245  1.00  0.00     0.023 A 
ATOM     75  C   UNL     1      -9.067  10.315  -3.038  1.00  0.00     0.012 A 
ATOM     76  C   UNL     1      -6.803  10.259  -2.161  1.00  0.00     0.148 A 
ATOM     77  C   UNL     1      -9.550  10.691  -1.785  1.00  0.00     0.002 A 
ATOM     78  C   UNL     1      -7.297  10.581  -0.902  1.00  0.00     0.091 A 
ATOM     79  F   UNL     1      -5.492  10.079  -2.380  1.00  0.00    -0.205 F 
ATOM     80  C   UNL     1      -8.668  10.814  -0.715  1.00  0.00     0.022 A 
BRANCH  78  81
ATOM     81  S   UNL     1      -6.245  10.622   0.554  1.00  0.00     0.127 S 
ATOM     82  O   UNL     1      -6.072  12.057   0.758  1.00  0.00    -0.237 OA
ATOM     83  O   UNL     1      -7.077   9.953   1.554  1.00  0.00    -0.237 OA
ATOM     84  O   UNL     1      -5.047   9.879   0.184  1.00  0.00    -0.744 OA
ENDBRANCH  78  81
ENDBRANCH  50  74
BRANCH  62  85
ATOM     85  C   UNL     1      -7.482  13.385  -9.401  1.00  0.00     0.023 A 
ATOM     86  C   UNL     1      -6.703  14.495  -9.019  1.00  0.00     0.012 A 
ATOM     87  C   UNL     1      -8.595  13.578 -10.243  1.00  0.00     0.148 A 
ATOM     88  C   UNL     1      -7.040  15.779  -9.444  1.00  0.00     0.002 A 
ATOM     89  C   UNL     1      -8.899  14.856 -10.699  1.00  0.00     0.091 A 
ATOM     90  F   UNL     1      -9.335  12.512 -10.580  1.00  0.00    -0.205 F 
ATOM     91  C   UNL     1      -8.130  15.958 -10.293  1.00  0.00     0.022 A 
BRANCH  89  92
ATOM     92  S   UNL     1     -10.231  15.172 -11.864  1.00  0.00     0.127 S 
ATOM     93  O   UNL     1     -11.228  15.815 -11.009  1.00  0.00    -0.237 OA
ATOM     94  O   UNL     1      -9.592  16.063 -12.833  1.00  0.00    -0.237 OA
ATOM     95  O   UNL     1     -10.611  13.872 -12.400  1.00  0.00    -0.744 OA
ENDBRANCH  89  92
ENDBRANCH  62  85
ENDBRANCH  36  37
ENDBRANCH  28  31
ENDBRANCH  26  27
ENDBRANCH  25  26
ENDBRANCH  24  25
ENDBRANCH   1  24
TORSDOF 20
