REMARK SMILES C#CC[N@@H+](CC(=O)NCCCCNC(=O)c1ccc(-c2c3nc(c(-c4cccc(S(=O)(=O)[O-])c4F)c4ccc([nH]4)c(-c4cccc(S(=O)(=O)[O-])c4F)c4nc(c(-c5cccc(S(=O)(=O)[O-])c5F)c5ccc2[nH]5)C=C4)C=C3)cc1)Cc1cccc2ccccc12
REMARK SMILES IDX 10 1 9 2 8 3 6 4 7 5 5 7 4 8 3 10 2 11 1 12 79 13 80 14
REMARK SMILES IDX 81 15 89 16 82 17 84 18 88 19 83 20 85 21 87 22 86 23 11 24
REMARK SMILES IDX 12 25 13 26 14 27 15 29 16 30 17 31 78 32 18 33 77 34 19 35
REMARK SMILES IDX 20 36 21 37 71 38 22 39 76 40 70 41 72 42 23 43 75 44 69 45
REMARK SMILES IDX 68 46 24 48 56 49 36 50 55 51 37 52 40 53 54 54 73 55 38 56
REMARK SMILES IDX 39 57 53 59 74 60 41 61 25 62 26 63 34 64 27 65 29 66 35 67
REMARK SMILES IDX 28 68 30 69 31 70 32 71 33 72 57 73 58 74 66 75 59 76 61 77
REMARK SMILES IDX 67 78 60 79 62 80 63 81 64 82 65 83 42 84 43 85 51 86 44 87
REMARK SMILES IDX 46 88 52 89 45 90 47 91 48 92 49 93 50 94
REMARK H PARENT 8 6 4 9 13 28 72 47 40 58
REMARK Flexibility Score: inf
ROOT
ATOM      1  C   UNL     1      -2.545  -0.016  -3.012  1.00  0.00     0.023 C 
ENDROOT
BRANCH   1   2
ATOM      2  C   UNL     1      -3.723   0.649  -2.242  1.00  0.00     0.116 C 
BRANCH   2   3
ATOM      3  N   UNL     1      -4.631  -0.219  -1.489  1.00  0.00    -0.351 N 
ATOM      4  C   UNL     1      -4.811  -0.610  -0.188  1.00  0.00     0.275 C 
ATOM      5  O   UNL     1      -5.878  -1.211   0.018  1.00  0.00    -0.269 OA
ATOM      6  H   UNL     1      -5.297  -0.637  -2.082  1.00  0.00     0.163 HD
BRANCH   4   7
ATOM      7  C   UNL     1      -3.890  -0.340   1.024  1.00  0.00     0.364 C 
BRANCH   7   8
ATOM      8  N   UNL     1      -2.458  -0.705   0.980  1.00  0.00    -0.313 N 
ATOM      9  H   UNL     1      -2.106  -0.444   1.901  1.00  0.00     0.349 HD
BRANCH   8  10
ATOM     10  C   UNL     1      -1.775   0.087  -0.006  1.00  0.00     0.354 C 
BRANCH  10  11
ATOM     11  C   UNL     1      -0.255   0.087  -0.006  1.00  0.00    -0.047 C 
ATOM     12  C   UNL     1       1.048   0.087  -0.006  1.00  0.00     0.010 C 
ENDBRANCH  10  11
ENDBRANCH   8  10
BRANCH   8  13
ATOM     13  C   UNL     1      -2.039  -2.120   1.135  1.00  0.00     0.300 C 
BRANCH  13  14
ATOM     14  C   UNL     1      -2.422  -3.272   0.197  1.00  0.00     0.014 A 
ATOM     15  C   UNL     1      -3.276  -3.105  -0.889  1.00  0.00     0.010 A 
ATOM     16  C   UNL     1      -1.963  -4.609   0.429  1.00  0.00    -0.010 A 
ATOM     17  C   UNL     1      -3.902  -4.160  -1.545  1.00  0.00     0.001 A 
ATOM     18  C   UNL     1      -2.579  -5.692  -0.269  1.00  0.00    -0.018 A 
ATOM     19  C   UNL     1      -0.880  -4.944   1.275  1.00  0.00     0.009 A 
ATOM     20  C   UNL     1      -3.592  -5.457  -1.196  1.00  0.00     0.009 A 
ATOM     21  C   UNL     1      -2.155  -7.013  -0.080  1.00  0.00     0.009 A 
ATOM     22  C   UNL     1      -0.420  -6.262   1.399  1.00  0.00     0.001 A 
ATOM     23  C   UNL     1      -1.066  -7.296   0.734  1.00  0.00     0.001 A 
ENDBRANCH  13  14
ENDBRANCH   8  13
ENDBRANCH   7   8
ENDBRANCH   4   7
ENDBRANCH   2   3
ENDBRANCH   1   2
BRANCH   1  24
ATOM     24  C   UNL     1      -2.895  -0.903  -4.175  1.00  0.00     0.023 C 
BRANCH  24  25
ATOM     25  C   UNL     1      -3.405  -0.130  -5.352  1.00  0.00     0.116 C 
BRANCH  25  26
ATOM     26  N   UNL     1      -2.505   0.954  -5.766  1.00  0.00    -0.352 N 
ATOM     27  C   UNL     1      -1.956   1.176  -7.006  1.00  0.00     0.251 C 
ATOM     28  H   UNL     1      -2.265   1.604  -5.067  1.00  0.00     0.163 HD
ATOM     29  O   UNL     1      -1.115   2.046  -7.193  1.00  0.00    -0.269 OA
BRANCH  27  30
ATOM     30  C   UNL     1      -2.409   0.296  -8.093  1.00  0.00     0.039 A 
ATOM     31  C   UNL     1      -1.483  -0.463  -8.808  1.00  0.00     0.014 A 
ATOM     32  C   UNL     1      -3.780   0.067  -8.203  1.00  0.00     0.014 A 
ATOM     33  C   UNL     1      -1.942  -1.533  -9.575  1.00  0.00     0.010 A 
ATOM     34  C   UNL     1      -4.202  -1.097  -8.806  1.00  0.00     0.010 A 
ATOM     35  C   UNL     1      -3.299  -1.888  -9.535  1.00  0.00    -0.014 A 
BRANCH  35  36
ATOM     36  C   UNL     1      -3.872  -3.017 -10.304  1.00  0.00     0.031 A 
ATOM     37  C   UNL     1      -5.036  -2.715 -11.213  1.00  0.00     0.074 A 
ATOM     38  C   UNL     1      -3.475  -4.285 -10.085  1.00  0.00     0.049 A 
ATOM     39  N   UNL     1      -5.903  -3.530 -11.747  1.00  0.00    -0.248 NA
ATOM     40  C   UNL     1      -5.318  -1.288 -11.475  1.00  0.00     0.031 C 
ATOM     41  C   UNL     1      -2.413  -4.711  -9.171  1.00  0.00     0.029 A 
ATOM     42  N   UNL     1      -3.953  -5.462 -10.603  1.00  0.00    -0.354 N 
ATOM     43  C   UNL     1      -6.873  -2.715 -12.316  1.00  0.00     0.074 A 
ATOM     44  C   UNL     1      -6.527  -1.348 -12.007  1.00  0.00     0.031 C 
ATOM     45  C   UNL     1      -2.305  -6.050  -9.211  1.00  0.00     0.029 A 
ATOM     46  C   UNL     1      -3.317  -6.581 -10.117  1.00  0.00     0.049 A 
ATOM     47  H   UNL     1      -4.684  -5.502 -11.262  1.00  0.00     0.167 HD
ATOM     48  C   UNL     1      -7.931  -3.067 -13.080  1.00  0.00     0.034 A 
ATOM     49  C   UNL     1      -3.537  -7.884 -10.381  1.00  0.00     0.034 A 
ATOM     50  C   UNL     1      -8.172  -4.415 -13.502  1.00  0.00     0.049 A 
ATOM     51  C   UNL     1      -4.637  -8.243 -11.348  1.00  0.00     0.074 A 
ATOM     52  C   UNL     1      -9.141  -4.888 -14.364  1.00  0.00     0.029 A 
ATOM     53  N   UNL     1      -7.397  -5.501 -13.123  1.00  0.00    -0.354 N 
ATOM     54  N   UNL     1      -5.485  -7.453 -11.963  1.00  0.00    -0.248 NA
ATOM     55  C   UNL     1      -4.791  -9.666 -11.685  1.00  0.00     0.031 C 
ATOM     56  C   UNL     1      -8.940  -6.263 -14.522  1.00  0.00     0.029 A 
ATOM     57  C   UNL     1      -7.844  -6.640 -13.760  1.00  0.00     0.049 A 
ATOM     58  H   UNL     1      -6.641  -5.464 -12.494  1.00  0.00     0.167 HD
ATOM     59  C   UNL     1      -6.237  -8.273 -12.796  1.00  0.00     0.074 A 
ATOM     60  C   UNL     1      -5.740  -9.622 -12.612  1.00  0.00     0.031 C 
ATOM     61  C   UNL     1      -7.258  -7.948 -13.625  1.00  0.00     0.034 A 
BRANCH  48  62
ATOM     62  C   UNL     1      -8.828  -1.968 -13.582  1.00  0.00     0.023 A 
ATOM     63  C   UNL     1      -8.340  -1.058 -14.543  1.00  0.00     0.012 A 
ATOM     64  C   UNL     1     -10.152  -1.841 -13.121  1.00  0.00     0.148 A 
ATOM     65  C   UNL     1      -9.136  -0.010 -15.001  1.00  0.00     0.002 A 
ATOM     66  C   UNL     1     -10.958  -0.825 -13.622  1.00  0.00     0.091 A 
ATOM     67  F   UNL     1     -10.592  -2.697 -12.188  1.00  0.00    -0.205 F 
ATOM     68  C   UNL     1     -10.447   0.100 -14.548  1.00  0.00     0.022 A 
BRANCH  66  69
ATOM     69  S   UNL     1     -12.686  -0.647 -13.167  1.00  0.00     0.127 S 
ATOM     70  O   UNL     1     -12.647   0.540 -12.314  1.00  0.00    -0.237 OA
ATOM     71  O   UNL     1     -13.327  -0.443 -14.467  1.00  0.00    -0.237 OA
ATOM     72  O   UNL     1     -13.053  -1.888 -12.499  1.00  0.00    -0.744 OA
ENDBRANCH  66  69
ENDBRANCH  48  62
BRANCH  49  73
ATOM     73  C   UNL     1      -2.640  -8.932  -9.815  1.00  0.00     0.023 A 
ATOM     74  C   UNL     1      -1.741  -9.593 -10.677  1.00  0.00     0.012 A 
ATOM     75  C   UNL     1      -2.648  -9.268  -8.448  1.00  0.00     0.148 A 
ATOM     76  C   UNL     1      -0.895 -10.594 -10.198  1.00  0.00     0.002 A 
ATOM     77  C   UNL     1      -1.768 -10.234  -7.967  1.00  0.00     0.091 A 
ATOM     78  F   UNL     1      -3.515  -8.638  -7.643  1.00  0.00    -0.205 F 
ATOM     79  C   UNL     1      -0.903 -10.909  -8.842  1.00  0.00     0.022 A 
BRANCH  77  80
ATOM     80  S   UNL     1      -1.629 -10.619  -6.217  1.00  0.00     0.127 S 
ATOM     81  O   UNL     1      -2.333 -11.896  -6.134  1.00  0.00    -0.237 OA
ATOM     82  O   UNL     1      -0.179 -10.703  -6.036  1.00  0.00    -0.237 OA
ATOM     83  O   UNL     1      -2.253  -9.500  -5.524  1.00  0.00    -0.744 OA
ENDBRANCH  77  80
ENDBRANCH  49  73
BRANCH  61  84
ATOM     84  C   UNL     1      -7.864  -9.041 -14.459  1.00  0.00     0.023 A 
ATOM     85  C   UNL     1      -8.763  -9.949 -13.872  1.00  0.00     0.012 A 
ATOM     86  C   UNL     1      -7.642  -9.073 -15.850  1.00  0.00     0.148 A 
ATOM     87  C   UNL     1      -9.427 -10.888 -14.659  1.00  0.00     0.002 A 
ATOM     88  C   UNL     1      -8.341  -9.982 -16.633  1.00  0.00     0.091 A 
ATOM     89  F   UNL     1      -6.768  -8.206 -16.379  1.00  0.00    -0.205 F 
ATOM     90  C   UNL     1      -9.228 -10.894 -16.039  1.00  0.00     0.022 A 
BRANCH  88  91
ATOM     91  S   UNL     1      -8.226  -9.993 -18.425  1.00  0.00     0.127 S 
ATOM     92  O   UNL     1      -7.463 -11.217 -18.666  1.00  0.00    -0.237 OA
ATOM     93  O   UNL     1      -9.631 -10.061 -18.826  1.00  0.00    -0.237 OA
ATOM     94  O   UNL     1      -7.552  -8.755 -18.793  1.00  0.00    -0.744 OA
ENDBRANCH  88  91
ENDBRANCH  61  84
ENDBRANCH  35  36
ENDBRANCH  27  30
ENDBRANCH  25  26
ENDBRANCH  24  25
ENDBRANCH   1  24
TORSDOF 19
