REMARK SMILES CC(C)C[C@@H]([NH2+][C@H]1CCOC2(CCOCC2)C1)C(=O)NCCCCNC(=O)c1ccc(-c2c3nc(c(-c4cccc(S(=O)(=O)[O-])c4F)c4ccc([nH]4)c(-c4cccc(S(=O)(=O)[O-])c4F)c4nc(c(-c5cccc(S(=O)(=O)[O-])c5F)c5ccc2[nH]5)C=C4)C=C3)cc1
REMARK SMILES IDX 23 1 22 2 21 3 20 4 18 5 19 6 5 8 4 9 2 10 1 11 3 12 6 13
REMARK SMILES IDX 7 16 8 17 17 18 9 19 11 20 10 21 12 22 16 23 13 24 15 25
REMARK SMILES IDX 14 26 24 27 25 28 26 29 27 31 28 32 29 33 90 34 30 35 89 36
REMARK SMILES IDX 31 37 32 38 33 39 83 40 34 41 88 42 82 43 84 44 35 45 87 46
REMARK SMILES IDX 81 47 80 48 36 50 68 51 48 52 67 53 49 54 52 55 66 56 85 57
REMARK SMILES IDX 50 58 51 59 65 61 86 62 53 63 37 64 38 65 46 66 39 67 41 68
REMARK SMILES IDX 47 69 40 70 42 71 43 72 44 73 45 74 69 75 70 76 78 77 71 78
REMARK SMILES IDX 73 79 79 80 72 81 74 82 75 83 76 84 77 85 54 86 55 87 63 88
REMARK SMILES IDX 56 89 58 90 64 91 57 92 59 93 60 94 61 95 62 96
REMARK H PARENT 20 7 6 14 6 15 25 30 84 49 52 60
REMARK Flexibility Score: inf
ROOT
ATOM      1  C   UNL     1       4.103  -1.802  -1.785  1.00  0.00     0.023 C 
ENDROOT
BRANCH   1   2
ATOM      2  C   UNL     1       3.444  -3.080  -1.262  1.00  0.00     0.023 C 
BRANCH   2   3
ATOM      3  C   UNL     1       2.009  -2.886  -0.770  1.00  0.00     0.116 C 
BRANCH   3   4
ATOM      4  N   UNL     1       1.138  -2.571  -1.884  1.00  0.00    -0.351 N 
ATOM      5  C   UNL     1       0.213  -3.354  -2.506  1.00  0.00     0.278 C 
ATOM      6  O   UNL     1      -0.240  -2.963  -3.587  1.00  0.00    -0.268 OA
ATOM      7  H   UNL     1       1.227  -1.659  -2.244  1.00  0.00     0.163 HD
BRANCH   5   8
ATOM      8  C   UNL     1      -0.265  -4.691  -1.900  1.00  0.00     0.273 C 
BRANCH   8   9
ATOM      9  C   UNL     1       0.845  -5.741  -2.139  1.00  0.00     0.078 C 
BRANCH   9  10
ATOM     10  C   UNL     1       0.615  -7.157  -1.583  1.00  0.00    -0.011 C 
ATOM     11  C   UNL     1      -0.637  -7.813  -2.159  1.00  0.00     0.007 C 
ATOM     12  C   UNL     1       1.845  -8.023  -1.884  1.00  0.00     0.007 C 
ENDBRANCH   9  10
ENDBRANCH   8   9
BRANCH   8  13
ATOM     13  N   UNL     1      -0.671  -4.576  -0.479  1.00  0.00    -0.333 N 
ATOM     14  H   UNL     1       0.168  -4.350   0.056  1.00  0.00     0.347 HD
ATOM     15  H   UNL     1      -1.110  -5.473  -0.273  1.00  0.00     0.347 HD
BRANCH  13  16
ATOM     16  C   UNL     1      -1.705  -3.576  -0.113  1.00  0.00     0.188 C 
ATOM     17  C   UNL     1      -2.511  -2.907  -1.235  1.00  0.00     0.093 C 
ATOM     18  C   UNL     1      -2.686  -4.222   0.891  1.00  0.00     0.100 C 
ATOM     19  C   UNL     1      -3.597  -1.998  -0.688  1.00  0.00     0.167 C 
ATOM     20  C   UNL     1      -3.803  -3.262   1.352  1.00  0.00     0.078 C 
ATOM     21  O   UNL     1      -4.452  -2.698   0.203  1.00  0.00    -0.374 OA
ATOM     22  C   UNL     1      -3.281  -2.171   2.310  1.00  0.00     0.064 C 
ATOM     23  C   UNL     1      -4.901  -4.052   2.092  1.00  0.00     0.064 C 
ATOM     24  C   UNL     1      -4.432  -1.323   2.840  1.00  0.00     0.163 C 
ATOM     25  C   UNL     1      -5.969  -3.106   2.634  1.00  0.00     0.163 C 
ATOM     26  O   UNL     1      -5.385  -2.145   3.514  1.00  0.00    -0.381 OA
ENDBRANCH  13  16
ENDBRANCH   8  13
ENDBRANCH   5   8
ENDBRANCH   3   4
ENDBRANCH   2   3
ENDBRANCH   1   2
BRANCH   1  27
ATOM     27  C   UNL     1       4.186  -0.667  -0.772  1.00  0.00     0.116 C 
BRANCH  27  28
ATOM     28  N   UNL     1       4.932  -1.040   0.422  1.00  0.00    -0.352 N 
ATOM     29  C   UNL     1       5.880  -0.312   1.098  1.00  0.00     0.251 C 
ATOM     30  H   UNL     1       4.731  -1.929   0.792  1.00  0.00     0.163 HD
ATOM     31  O   UNL     1       6.531  -0.830   2.001  1.00  0.00    -0.269 OA
BRANCH  29  32
ATOM     32  C   UNL     1       6.124   1.092   0.709  1.00  0.00     0.039 A 
ATOM     33  C   UNL     1       7.436   1.516   0.489  1.00  0.00     0.014 A 
ATOM     34  C   UNL     1       5.053   1.972   0.528  1.00  0.00     0.014 A 
ATOM     35  C   UNL     1       7.671   2.813   0.029  1.00  0.00     0.010 A 
ATOM     36  C   UNL     1       5.285   3.238   0.003  1.00  0.00     0.010 A 
ATOM     37  C   UNL     1       6.595   3.674  -0.247  1.00  0.00    -0.014 A 
BRANCH  37  38
ATOM     38  C   UNL     1       6.817   5.029  -0.809  1.00  0.00     0.031 A 
ATOM     39  C   UNL     1       6.414   6.248  -0.024  1.00  0.00     0.074 A 
ATOM     40  C   UNL     1       7.293   5.160  -2.063  1.00  0.00     0.049 A 
ATOM     41  N   UNL     1       6.472   7.507  -0.370  1.00  0.00    -0.248 NA
ATOM     42  C   UNL     1       5.843   6.020   1.314  1.00  0.00     0.031 C 
ATOM     43  C   UNL     1       7.641   4.052  -2.956  1.00  0.00     0.029 A 
ATOM     44  N   UNL     1       7.541   6.281  -2.814  1.00  0.00    -0.354 N 
ATOM     45  C   UNL     1       5.913   8.217   0.685  1.00  0.00     0.074 A 
ATOM     46  C   UNL     1       5.491   7.247   1.671  1.00  0.00     0.031 C 
ATOM     47  C   UNL     1       8.060   4.549  -4.131  1.00  0.00     0.029 A 
ATOM     48  C   UNL     1       7.987   6.006  -4.086  1.00  0.00     0.049 A 
ATOM     49  H   UNL     1       7.412   7.196  -2.475  1.00  0.00     0.167 HD
ATOM     50  C   UNL     1       5.792   9.558   0.836  1.00  0.00     0.034 A 
ATOM     51  C   UNL     1       8.298   6.834  -5.103  1.00  0.00     0.034 A 
ATOM     52  C   UNL     1       6.261  10.520  -0.124  1.00  0.00     0.049 A 
ATOM     53  C   UNL     1       8.202   8.321  -4.889  1.00  0.00     0.074 A 
ATOM     54  C   UNL     1       6.274  11.900  -0.021  1.00  0.00     0.029 A 
ATOM     55  N   UNL     1       6.797  10.206  -1.363  1.00  0.00    -0.354 N 
ATOM     56  N   UNL     1       7.829   8.978  -3.818  1.00  0.00    -0.248 NA
ATOM     57  C   UNL     1       8.605   9.181  -6.011  1.00  0.00     0.031 C 
ATOM     58  C   UNL     1       6.801  12.420  -1.208  1.00  0.00     0.029 A 
ATOM     59  C   UNL     1       7.136  11.364  -2.039  1.00  0.00     0.049 A 
ATOM     60  H   UNL     1       6.918   9.292  -1.710  1.00  0.00     0.167 HD
ATOM     61  C   UNL     1       7.987  10.325  -4.122  1.00  0.00     0.074 A 
ATOM     62  C   UNL     1       8.510  10.389  -5.472  1.00  0.00     0.031 C 
ATOM     63  C   UNL     1       7.710  11.411  -3.360  1.00  0.00     0.034 A 
BRANCH  50  64
ATOM     64  C   UNL     1       5.178  10.065   2.114  1.00  0.00     0.023 A 
ATOM     65  C   UNL     1       5.905   9.968   3.318  1.00  0.00     0.012 A 
ATOM     66  C   UNL     1       3.915  10.688   2.118  1.00  0.00     0.148 A 
ATOM     67  C   UNL     1       5.372  10.451   4.512  1.00  0.00     0.002 A 
ATOM     68  C   UNL     1       3.409  11.207   3.305  1.00  0.00     0.091 A 
ATOM     69  F   UNL     1       3.229  10.751   0.969  1.00  0.00    -0.205 F 
ATOM     70  C   UNL     1       4.130  11.079   4.503  1.00  0.00     0.022 A 
BRANCH  68  71
ATOM     71  S   UNL     1       1.854  12.103   3.384  1.00  0.00     0.127 S 
ATOM     72  O   UNL     1       0.995  11.142   4.075  1.00  0.00    -0.237 OA
ATOM     73  O   UNL     1       2.215  13.278   4.178  1.00  0.00    -0.237 OA
ATOM     74  O   UNL     1       1.487  12.392   2.005  1.00  0.00    -0.744 OA
ENDBRANCH  68  71
ENDBRANCH  50  64
BRANCH  51  75
ATOM     75  C   UNL     1       8.805   6.277  -6.389  1.00  0.00     0.023 A 
ATOM     76  C   UNL     1      10.159   6.460  -6.732  1.00  0.00     0.012 A 
ATOM     77  C   UNL     1       7.970   5.546  -7.255  1.00  0.00     0.148 A 
ATOM     78  C   UNL     1      10.665   5.953  -7.929  1.00  0.00     0.002 A 
ATOM     79  C   UNL     1       8.493   4.998  -8.421  1.00  0.00     0.091 A 
ATOM     80  F   UNL     1       6.682   5.393  -6.917  1.00  0.00    -0.205 F 
ATOM     81  C   UNL     1       9.836   5.215  -8.769  1.00  0.00     0.022 A 
BRANCH  79  82
ATOM     82  S   UNL     1       7.533   3.924  -9.494  1.00  0.00     0.127 S 
ATOM     83  O   UNL     1       7.308   4.783 -10.654  1.00  0.00    -0.237 OA
ATOM     84  O   UNL     1       8.459   2.814  -9.720  1.00  0.00    -0.237 OA
ATOM     85  O   UNL     1       6.346   3.567  -8.729  1.00  0.00    -0.744 OA
ENDBRANCH  79  82
ENDBRANCH  51  75
BRANCH  63  86
ATOM     86  C   UNL     1       7.996  12.769  -3.946  1.00  0.00     0.023 A 
ATOM     87  C   UNL     1       7.164  13.283  -4.959  1.00  0.00     0.012 A 
ATOM     88  C   UNL     1       9.041  13.565  -3.437  1.00  0.00     0.148 A 
ATOM     89  C   UNL     1       7.385  14.558  -5.477  1.00  0.00     0.002 A 
ATOM     90  C   UNL     1       9.225  14.853  -3.924  1.00  0.00     0.091 A 
ATOM     91  F   UNL     1       9.834  13.050  -2.486  1.00  0.00    -0.205 F 
ATOM     92  C   UNL     1       8.406  15.347  -4.952  1.00  0.00     0.022 A 
BRANCH  90  93
ATOM     93  S   UNL     1      10.452  15.973  -3.241  1.00  0.00     0.127 S 
ATOM     94  O   UNL     1      11.467  15.983  -4.293  1.00  0.00    -0.237 OA
ATOM     95  O   UNL     1       9.697  17.220  -3.110  1.00  0.00    -0.237 OA
ATOM     96  O   UNL     1      10.868  15.386  -1.974  1.00  0.00    -0.744 OA
ENDBRANCH  90  93
ENDBRANCH  63  86
ENDBRANCH  37  38
ENDBRANCH  29  32
ENDBRANCH  27  28
ENDBRANCH   1  27
TORSDOF 18
