REMARK SMILES CCCCCC(=O)N1CSC[C@H]1C(=O)NCCCCNC(=O)c1ccc(-c2c3nc(c(-c4cccc(S(=O)(=O)[O-])c4F)c4ccc([nH]4)c(-c4cccc(S(=O)(=O)[O-])c4F)c4nc(c(-c5cccc(S(=O)(=O)[O-])c5F)c5ccc2[nH]5)C=C4)C=C3)cc1
REMARK SMILES IDX 16 1 15 2 13 3 14 4 12 6 8 7 9 8 10 9 11 10 6 11 7 12 5 13
REMARK SMILES IDX 4 14 3 15 2 16 1 17 17 18 18 19 19 20 20 21 21 22 22 24
REMARK SMILES IDX 23 25 24 26 85 27 25 28 84 29 26 30 27 31 28 32 78 33 29 34
REMARK SMILES IDX 83 35 77 36 79 37 30 38 82 39 76 40 75 41 31 43 63 44 43 45
REMARK SMILES IDX 62 46 44 47 47 48 61 49 80 50 45 51 46 52 60 54 81 55 48 56
REMARK SMILES IDX 32 57 33 58 41 59 34 60 36 61 42 62 35 63 37 64 38 65 39 66
REMARK SMILES IDX 40 67 64 68 65 69 73 70 66 71 68 72 74 73 67 74 69 75 70 76
REMARK SMILES IDX 71 77 72 78 49 79 50 80 58 81 51 82 53 83 59 84 52 85 54 86
REMARK SMILES IDX 55 87 56 88 57 89
REMARK H PARENT 15 5 20 23 79 42 47 53
REMARK Flexibility Score: inf
ROOT
ATOM      1  C   UNL     1      -0.024  -7.080  -0.697  1.00  0.00     0.116 C 
ENDROOT
BRANCH   1   2
ATOM      2  N   UNL     1      -1.415  -7.271  -0.362  1.00  0.00    -0.354 N 
ATOM      3  C   UNL     1      -2.469  -6.417  -0.488  1.00  0.00     0.243 C 
ATOM      4  O   UNL     1      -3.600  -6.901  -0.366  1.00  0.00    -0.273 OA
ATOM      5  H   UNL     1      -1.636  -8.153   0.014  1.00  0.00     0.163 HD
BRANCH   3   6
ATOM      6  C   UNL     1      -2.308  -4.974  -1.005  1.00  0.00     0.185 C 
ATOM      7  N   UNL     1      -1.280  -4.110  -0.406  1.00  0.00    -0.321 N 
ATOM      8  C   UNL     1      -0.307  -3.578  -1.318  1.00  0.00     0.190 C 
ATOM      9  S   UNL     1      -0.776  -3.965  -3.001  1.00  0.00    -0.138 SA
ATOM     10  C   UNL     1      -2.166  -5.017  -2.529  1.00  0.00     0.106 C 
BRANCH   7  11
ATOM     11  C   UNL     1      -1.462  -3.696   0.900  1.00  0.00     0.223 C 
ATOM     12  O   UNL     1      -2.138  -4.365   1.684  1.00  0.00    -0.275 OA
BRANCH  11  13
ATOM     13  C   UNL     1      -0.971  -2.315   1.335  1.00  0.00     0.100 C 
BRANCH  13  14
ATOM     14  C   UNL     1       0.464  -2.156   1.835  1.00  0.00     0.010 C 
BRANCH  14  15
ATOM     15  C   UNL     1       1.548  -1.790   0.812  1.00  0.00     0.000 C 
BRANCH  15  16
ATOM     16  C   UNL     1       1.246  -0.627  -0.143  1.00  0.00    -0.003 C 
ATOM     17  C   UNL     1       1.448   0.749   0.462  1.00  0.00     0.004 C 
ENDBRANCH  15  16
ENDBRANCH  14  15
ENDBRANCH  13  14
ENDBRANCH  11  13
ENDBRANCH   7  11
ENDBRANCH   3   6
ENDBRANCH   1   2
BRANCH   1  18
ATOM     18  C   UNL     1       0.840  -6.833   0.533  1.00  0.00     0.023 C 
BRANCH  18  19
ATOM     19  C   UNL     1       1.121  -8.088   1.364  1.00  0.00     0.023 C 
BRANCH  19  20
ATOM     20  C   UNL     1       1.819  -9.220   0.616  1.00  0.00     0.116 C 
BRANCH  20  21
ATOM     21  N   UNL     1       3.096  -8.830   0.037  1.00  0.00    -0.352 N 
ATOM     22  C   UNL     1       4.204  -9.617  -0.187  1.00  0.00     0.251 C 
ATOM     23  H   UNL     1       3.178  -7.885  -0.228  1.00  0.00     0.163 HD
ATOM     24  O   UNL     1       5.247  -9.115  -0.579  1.00  0.00    -0.269 OA
BRANCH  22  25
ATOM     25  C   UNL     1       4.123 -11.068   0.090  1.00  0.00     0.039 A 
ATOM     26  C   UNL     1       5.121 -11.663   0.865  1.00  0.00     0.014 A 
ATOM     27  C   UNL     1       3.053 -11.829  -0.389  1.00  0.00     0.014 A 
ATOM     28  C   UNL     1       5.017 -13.014   1.204  1.00  0.00     0.010 A 
ATOM     29  C   UNL     1       2.913 -13.154   0.013  1.00  0.00     0.010 A 
ATOM     30  C   UNL     1       3.899 -13.764   0.803  1.00  0.00    -0.014 A 
BRANCH  30  31
ATOM     31  C   UNL     1       3.752 -15.190   1.193  1.00  0.00     0.031 A 
ATOM     32  C   UNL     1       3.731 -16.264   0.138  1.00  0.00     0.074 A 
ATOM     33  C   UNL     1       3.567 -15.513   2.489  1.00  0.00     0.049 A 
ATOM     34  N   UNL     1       3.586 -17.556   0.280  1.00  0.00    -0.248 NA
ATOM     35  C   UNL     1       3.863 -15.828  -1.263  1.00  0.00     0.031 C 
ATOM     36  C   UNL     1       3.475 -14.558   3.595  1.00  0.00     0.029 A 
ATOM     37  N   UNL     1       3.397 -16.735   3.092  1.00  0.00    -0.354 N 
ATOM     38  C   UNL     1       3.579 -18.082  -1.006  1.00  0.00     0.074 A 
ATOM     39  C   UNL     1       3.690 -16.966  -1.919  1.00  0.00     0.031 C 
ATOM     40  C   UNL     1       3.272 -15.229   4.741  1.00  0.00     0.029 A 
ATOM     41  C   UNL     1       3.197 -16.658   4.451  1.00  0.00     0.049 A 
ATOM     42  H   UNL     1       3.417 -17.586   2.598  1.00  0.00     0.167 HD
ATOM     43  C   UNL     1       3.524 -19.378  -1.394  1.00  0.00     0.034 A 
ATOM     44  C   UNL     1       2.978 -17.629   5.359  1.00  0.00     0.034 A 
ATOM     45  C   UNL     1       3.463 -20.488  -0.483  1.00  0.00     0.049 A 
ATOM     46  C   UNL     1       2.977 -19.065   4.906  1.00  0.00     0.074 A 
ATOM     47  C   UNL     1       3.490 -21.841  -0.773  1.00  0.00     0.029 A 
ATOM     48  N   UNL     1       3.362 -20.375   0.894  1.00  0.00    -0.354 N 
ATOM     49  N   UNL     1       3.142 -19.550   3.700  1.00  0.00    -0.248 NA
ATOM     50  C   UNL     1       2.801 -20.090   5.946  1.00  0.00     0.031 C 
ATOM     51  C   UNL     1       3.389 -22.547   0.430  1.00  0.00     0.029 A 
ATOM     52  C   UNL     1       3.322 -21.633   1.470  1.00  0.00     0.049 A 
ATOM     53  H   UNL     1       3.324 -19.526   1.390  1.00  0.00     0.167 HD
ATOM     54  C   UNL     1       3.124 -20.934   3.839  1.00  0.00     0.074 A 
ATOM     55  C   UNL     1       2.960 -21.208   5.251  1.00  0.00     0.031 C 
ATOM     56  C   UNL     1       3.215 -21.891   2.883  1.00  0.00     0.034 A 
BRANCH  43  57
ATOM     57  C   UNL     1       3.598 -19.670  -2.870  1.00  0.00     0.023 A 
ATOM     58  C   UNL     1       4.819 -19.481  -3.551  1.00  0.00     0.012 A 
ATOM     59  C   UNL     1       2.490 -20.187  -3.570  1.00  0.00     0.148 A 
ATOM     60  C   UNL     1       4.928 -19.769  -4.910  1.00  0.00     0.002 A 
ATOM     61  C   UNL     1       2.619 -20.514  -4.915  1.00  0.00     0.091 A 
ATOM     62  F   UNL     1       1.333 -20.342  -2.911  1.00  0.00    -0.205 F 
ATOM     63  C   UNL     1       3.833 -20.295  -5.589  1.00  0.00     0.022 A 
BRANCH  61  64
ATOM     64  S   UNL     1       1.294 -21.270  -5.863  1.00  0.00     0.127 S 
ATOM     65  O   UNL     1       0.938 -20.191  -6.784  1.00  0.00    -0.237 OA
ATOM     66  O   UNL     1       1.973 -22.405  -6.489  1.00  0.00    -0.237 OA
ATOM     67  O   UNL     1       0.265 -21.632  -4.899  1.00  0.00    -0.744 OA
ENDBRANCH  61  64
ENDBRANCH  43  57
BRANCH  44  68
ATOM     68  C   UNL     1       2.813 -17.283   6.800  1.00  0.00     0.023 A 
ATOM     69  C   UNL     1       3.823 -17.634   7.717  1.00  0.00     0.012 A 
ATOM     70  C   UNL     1       1.672 -16.601   7.263  1.00  0.00     0.148 A 
ATOM     71  C   UNL     1       3.682 -17.346   9.075  1.00  0.00     0.002 A 
ATOM     72  C   UNL     1       1.563 -16.268   8.609  1.00  0.00     0.091 A 
ATOM     73  F   UNL     1       0.715 -16.287   6.379  1.00  0.00    -0.205 F 
ATOM     74  C   UNL     1       2.558 -16.656   9.520  1.00  0.00     0.022 A 
BRANCH  72  75
ATOM     75  S   UNL     1       0.214 -15.267   9.244  1.00  0.00     0.127 S 
ATOM     76  O   UNL     1      -0.581 -16.257   9.963  1.00  0.00    -0.237 OA
ATOM     77  O   UNL     1       0.921 -14.308  10.094  1.00  0.00    -0.237 OA
ATOM     78  O   UNL     1      -0.415 -14.674   8.071  1.00  0.00    -0.744 OA
ENDBRANCH  72  75
ENDBRANCH  44  68
BRANCH  56  79
ATOM     79  C   UNL     1       3.174 -23.329   3.328  1.00  0.00     0.023 A 
ATOM     80  C   UNL     1       1.960 -23.888   3.776  1.00  0.00     0.012 A 
ATOM     81  C   UNL     1       4.318 -24.145   3.234  1.00  0.00     0.148 A 
ATOM     82  C   UNL     1       1.895 -25.228   4.156  1.00  0.00     0.002 A 
ATOM     83  C   UNL     1       4.233 -25.492   3.567  1.00  0.00     0.091 A 
ATOM     84  F   UNL     1       5.468 -23.591   2.823  1.00  0.00    -0.205 F 
ATOM     85  C   UNL     1       3.026 -26.031   4.040  1.00  0.00     0.022 A 
BRANCH  83  86
ATOM     86  S   UNL     1       5.613 -26.623   3.358  1.00  0.00     0.127 S 
ATOM     87  O   UNL     1       6.035 -26.838   4.741  1.00  0.00    -0.237 OA
ATOM     88  O   UNL     1       4.975 -27.779   2.728  1.00  0.00    -0.237 OA
ATOM     89  O   UNL     1       6.574 -25.929   2.510  1.00  0.00    -0.744 OA
ENDBRANCH  83  86
ENDBRANCH  56  79
ENDBRANCH  30  31
ENDBRANCH  22  25
ENDBRANCH  20  21
ENDBRANCH  19  20
ENDBRANCH  18  19
ENDBRANCH   1  18
TORSDOF 19
