REMARK SMILES C[C@H]1[C@H](C(=O)NCCCCNC(=O)c2ccc(-c3c4nc(c(-c5cccc(S(=O)(=O)[O-])c5F)c5ccc([nH]5)c(-c5cccc(S(=O)(=O)[O-])c5F)c5nc(c(-c6cccc(S(=O)(=O)[O-])c6F)c6ccc3[nH]6)C=C5)C=C4)cc2)CCN1S(=O)(=O)N(C)Cc1ccccc1
REMARK SMILES IDX 8 1 7 2 6 3 4 4 5 5 3 7 1 8 2 9 79 10 77 11 78 12 80 13
REMARK SMILES IDX 81 14 82 15 83 16 84 17 85 18 86 19 87 20 91 21 88 22 90 23
REMARK SMILES IDX 89 24 9 25 10 26 11 27 12 28 13 30 14 31 15 32 76 33 16 34
REMARK SMILES IDX 75 35 17 36 18 37 19 38 69 39 20 40 74 41 68 42 70 43 21 44
REMARK SMILES IDX 73 45 67 46 66 47 22 49 54 50 34 51 53 52 35 53 38 54 52 55
REMARK SMILES IDX 71 56 36 57 37 58 51 60 72 61 39 62 23 63 24 64 32 65 25 66
REMARK SMILES IDX 27 67 33 68 26 69 28 70 29 71 30 72 31 73 55 74 56 75 64 76
REMARK SMILES IDX 57 77 59 78 65 79 58 80 60 81 61 82 62 83 63 84 40 85 41 86
REMARK SMILES IDX 49 87 42 88 44 89 50 90 43 91 45 92 46 93 47 94 48 95
REMARK H PARENT 6 6 11 29 70 48 38 59
REMARK Flexibility Score: inf
ROOT
ATOM      1  C   UNL     1      -0.495   0.861   3.755  1.00  0.00     0.023 C 
ENDROOT
BRANCH   1   2
ATOM      2  C   UNL     1      -1.443   1.314   2.658  1.00  0.00     0.116 C 
BRANCH   2   3
ATOM      3  N   UNL     1      -0.897   2.434   1.918  1.00  0.00    -0.356 N 
ATOM      4  C   UNL     1      -0.300   2.470   0.700  1.00  0.00     0.224 C 
ATOM      5  O   UNL     1       0.180   3.544   0.326  1.00  0.00    -0.275 OA
ATOM      6  H   UNL     1      -0.970   3.306   2.370  1.00  0.00     0.163 HD
BRANCH   4   7
ATOM      7  C   UNL     1      -0.185   1.245  -0.195  1.00  0.00     0.098 C 
ATOM      8  C   UNL     1       1.992   0.059  -0.487  1.00  0.00     0.026 C 
ATOM      9  C   UNL     1       0.736   0.166   0.392  1.00  0.00     0.083 C 
ATOM     10  N   UNL     1       0.014  -1.116   0.279  1.00  0.00    -0.185 NA
ATOM     11  C   UNL     1      -1.486   0.559  -0.576  1.00  0.00     0.032 C 
ATOM     12  C   UNL     1      -1.151  -0.925  -0.622  1.00  0.00     0.105 C 
BRANCH  10  13
ATOM     13  S   UNL     1      -0.182  -2.252   1.492  1.00  0.00     0.282 S 
ATOM     14  O   UNL     1      -1.460  -1.999   2.117  1.00  0.00    -0.195 OA
ATOM     15  O   UNL     1       0.076  -3.545   0.889  1.00  0.00    -0.195 OA
BRANCH  13  16
ATOM     16  N   UNL     1       0.998  -2.000   2.676  1.00  0.00    -0.188 NA
ATOM     17  C   UNL     1       2.408  -1.946   2.246  1.00  0.00     0.126 C 
BRANCH  16  18
ATOM     18  C   UNL     1       0.825  -2.972   3.820  1.00  0.00     0.138 C 
BRANCH  18  19
ATOM     19  C   UNL     1       0.762  -2.354   5.201  1.00  0.00    -0.033 A 
ATOM     20  C   UNL     1       1.555  -1.264   5.583  1.00  0.00     0.005 A 
ATOM     21  C   UNL     1      -0.084  -2.928   6.166  1.00  0.00     0.005 A 
ATOM     22  C   UNL     1       1.463  -0.730   6.873  1.00  0.00     0.000 A 
ATOM     23  C   UNL     1      -0.166  -2.401   7.456  1.00  0.00     0.000 A 
ATOM     24  C   UNL     1       0.595  -1.291   7.805  1.00  0.00     0.000 A 
ENDBRANCH  18  19
ENDBRANCH  16  18
ENDBRANCH  13  16
ENDBRANCH  10  13
ENDBRANCH   4   7
ENDBRANCH   2   3
ENDBRANCH   1   2
BRANCH   1  25
ATOM     25  C   UNL     1      -0.617   1.667   5.034  1.00  0.00     0.023 C 
BRANCH  25  26
ATOM     26  C   UNL     1      -1.945   1.515   5.759  1.00  0.00     0.116 C 
BRANCH  26  27
ATOM     27  N   UNL     1      -2.412   0.146   5.962  1.00  0.00    -0.352 N 
ATOM     28  C   UNL     1      -2.968  -0.428   7.085  1.00  0.00     0.251 C 
ATOM     29  H   UNL     1      -2.316  -0.452   5.186  1.00  0.00     0.163 HD
ATOM     30  O   UNL     1      -3.342  -1.598   7.080  1.00  0.00    -0.269 OA
BRANCH  28  31
ATOM     31  C   UNL     1      -3.055   0.364   8.329  1.00  0.00     0.039 A 
ATOM     32  C   UNL     1      -2.583  -0.188   9.524  1.00  0.00     0.014 A 
ATOM     33  C   UNL     1      -3.510   1.680   8.292  1.00  0.00     0.014 A 
ATOM     34  C   UNL     1      -2.469   0.618  10.659  1.00  0.00     0.010 A 
ATOM     35  C   UNL     1      -3.284   2.507   9.380  1.00  0.00     0.010 A 
ATOM     36  C   UNL     1      -2.779   1.982  10.580  1.00  0.00    -0.014 A 
BRANCH  36  37
ATOM     37  C   UNL     1      -2.669   2.891  11.746  1.00  0.00     0.031 A 
ATOM     38  C   UNL     1      -3.913   3.579  12.238  1.00  0.00     0.074 A 
ATOM     39  C   UNL     1      -1.466   3.188  12.274  1.00  0.00     0.049 A 
ATOM     40  N   UNL     1      -4.035   4.536  13.117  1.00  0.00    -0.248 NA
ATOM     41  C   UNL     1      -5.186   3.166  11.619  1.00  0.00     0.031 C 
ATOM     42  C   UNL     1      -0.182   2.632  11.842  1.00  0.00     0.029 A 
ATOM     43  N   UNL     1      -1.127   4.069  13.271  1.00  0.00    -0.354 N 
ATOM     44  C   UNL     1      -5.382   4.876  13.114  1.00  0.00     0.074 A 
ATOM     45  C   UNL     1      -6.028   4.057  12.114  1.00  0.00     0.031 C 
ATOM     46  C   UNL     1       0.804   3.189  12.565  1.00  0.00     0.029 A 
ATOM     47  C   UNL     1       0.229   4.168  13.483  1.00  0.00     0.049 A 
ATOM     48  H   UNL     1      -1.791   4.582  13.786  1.00  0.00     0.167 HD
ATOM     49  C   UNL     1      -6.033   5.767  13.896  1.00  0.00     0.034 A 
ATOM     50  C   UNL     1       0.926   4.972  14.311  1.00  0.00     0.034 A 
ATOM     51  C   UNL     1      -5.395   6.536  14.926  1.00  0.00     0.049 A 
ATOM     52  C   UNL     1       0.174   5.932  15.197  1.00  0.00     0.074 A 
ATOM     53  C   UNL     1      -5.974   7.399  15.838  1.00  0.00     0.029 A 
ATOM     54  N   UNL     1      -4.032   6.538  15.178  1.00  0.00    -0.354 N 
ATOM     55  N   UNL     1      -1.118   6.141  15.281  1.00  0.00    -0.248 NA
ATOM     56  C   UNL     1       0.974   6.744  16.126  1.00  0.00     0.031 C 
ATOM     57  C   UNL     1      -4.955   7.948  16.622  1.00  0.00     0.029 A 
ATOM     58  C   UNL     1      -3.747   7.395  16.225  1.00  0.00     0.049 A 
ATOM     59  H   UNL     1      -3.365   6.007  14.685  1.00  0.00     0.167 HD
ATOM     60  C   UNL     1      -1.289   7.075  16.297  1.00  0.00     0.074 A 
ATOM     61  C   UNL     1       0.031   7.377  16.811  1.00  0.00     0.031 C 
ATOM     62  C   UNL     1      -2.432   7.641  16.758  1.00  0.00     0.034 A 
BRANCH  49  63
ATOM     63  C   UNL     1      -7.517   5.921  13.691  1.00  0.00     0.023 A 
ATOM     64  C   UNL     1      -8.387   4.868  14.042  1.00  0.00     0.012 A 
ATOM     65  C   UNL     1      -8.052   7.119  13.182  1.00  0.00     0.148 A 
ATOM     66  C   UNL     1      -9.762   4.988  13.850  1.00  0.00     0.002 A 
ATOM     67  C   UNL     1      -9.428   7.252  13.044  1.00  0.00     0.091 A 
ATOM     68  F   UNL     1      -7.208   8.099  12.831  1.00  0.00    -0.205 F 
ATOM     69  C   UNL     1     -10.283   6.183  13.362  1.00  0.00     0.022 A 
BRANCH  67  70
ATOM     70  S   UNL     1     -10.205   8.779  12.506  1.00  0.00     0.127 S 
ATOM     71  O   UNL     1     -10.732   8.396  11.197  1.00  0.00    -0.237 OA
ATOM     72  O   UNL     1     -11.222   8.983  13.538  1.00  0.00    -0.237 OA
ATOM     73  O   UNL     1      -9.150   9.782  12.483  1.00  0.00    -0.744 OA
ENDBRANCH  67  70
ENDBRANCH  49  63
BRANCH  50  74
ATOM     74  C   UNL     1       2.412   4.871  14.384  1.00  0.00     0.023 A 
ATOM     75  C   UNL     1       3.013   4.356  15.550  1.00  0.00     0.012 A 
ATOM     76  C   UNL     1       3.231   5.272  13.311  1.00  0.00     0.148 A 
ATOM     77  C   UNL     1       4.402   4.279  15.662  1.00  0.00     0.002 A 
ATOM     78  C   UNL     1       4.612   5.140  13.407  1.00  0.00     0.091 A 
ATOM     79  F   UNL     1       2.642   5.767  12.213  1.00  0.00    -0.205 F 
ATOM     80  C   UNL     1       5.201   4.663  14.588  1.00  0.00     0.022 A 
BRANCH  78  81
ATOM     81  S   UNL     1       5.714   5.489  12.032  1.00  0.00     0.127 S 
ATOM     82  O   UNL     1       6.427   6.671  12.511  1.00  0.00    -0.237 OA
ATOM     83  O   UNL     1       6.516   4.267  11.972  1.00  0.00    -0.237 OA
ATOM     84  O   UNL     1       4.851   5.698  10.877  1.00  0.00    -0.744 OA
ENDBRANCH  78  81
ENDBRANCH  50  74
BRANCH  62  85
ATOM     85  C   UNL     1      -2.323   8.606  17.910  1.00  0.00     0.023 A 
ATOM     86  C   UNL     1      -1.768   9.884  17.710  1.00  0.00     0.012 A 
ATOM     87  C   UNL     1      -2.853   8.269  19.172  1.00  0.00     0.148 A 
ATOM     88  C   UNL     1      -1.710  10.801  18.759  1.00  0.00     0.002 A 
ATOM     89  C   UNL     1      -2.841   9.207  20.196  1.00  0.00     0.091 A 
ATOM     90  F   UNL     1      -3.364   7.041  19.344  1.00  0.00    -0.205 F 
ATOM     91  C   UNL     1      -2.257  10.468  19.997  1.00  0.00     0.022 A 
BRANCH  89  92
ATOM     92  S   UNL     1      -3.615   8.904  21.788  1.00  0.00     0.127 S 
ATOM     93  O   UNL     1      -2.452   8.786  22.667  1.00  0.00    -0.237 OA
ATOM     94  O   UNL     1      -4.407  10.119  21.983  1.00  0.00    -0.237 OA
ATOM     95  O   UNL     1      -4.401   7.688  21.630  1.00  0.00    -0.744 OA
ENDBRANCH  89  92
ENDBRANCH  62  85
ENDBRANCH  36  37
ENDBRANCH  28  31
ENDBRANCH  26  27
ENDBRANCH  25  26
ENDBRANCH   1  25
TORSDOF 18
