REMARK SMILES CCC[NH2+][C@]1(C(=O)NCCCCNC(=O)c2ccc(-c3c4nc(c(-c5cccc(S(=O)(=O)[O-])c5F)c5ccc([nH]5)c(-c5cccc(S(=O)(=O)[O-])c5F)c5nc(c(-c6cccc(S(=O)(=O)[O-])c6F)c6ccc3[nH]6)C=C5)C=C4)cc2)CC[C@@H](Sc2nnc(C)n2C)C1
REMARK SMILES IDX 10 1 9 2 8 3 6 4 7 5 5 7 79 8 90 9 80 10 81 11 4 12 3 15
REMARK SMILES IDX 2 16 1 17 82 18 83 19 84 20 88 21 85 22 86 23 89 24 87 25
REMARK SMILES IDX 11 26 12 27 13 28 14 29 15 31 16 32 17 33 78 34 18 35 77 36
REMARK SMILES IDX 19 37 20 38 21 39 71 40 22 41 76 42 70 43 72 44 23 45 75 46
REMARK SMILES IDX 69 47 68 48 24 50 56 51 36 52 55 53 37 54 40 55 54 56 73 57
REMARK SMILES IDX 38 58 39 59 53 61 74 62 41 63 25 64 26 65 34 66 27 67 29 68
REMARK SMILES IDX 35 69 28 70 30 71 31 72 32 73 33 74 57 75 58 76 66 77 59 78
REMARK SMILES IDX 61 79 67 80 60 81 62 82 63 83 64 84 65 85 42 86 43 87 51 88
REMARK SMILES IDX 44 89 46 90 52 91 45 92 47 93 48 94 49 95 50 96
REMARK H PARENT 8 6 4 13 4 14 13 30 72 49 40 60
REMARK Flexibility Score: inf
ROOT
ATOM      1  C   UNL     1      -2.340   0.169  -3.007  1.00  0.00     0.023 C 
ENDROOT
BRANCH   1   2
ATOM      2  C   UNL     1      -0.872   0.589  -3.084  1.00  0.00     0.116 C 
BRANCH   2   3
ATOM      3  N   UNL     1      -0.061  -0.287  -2.269  1.00  0.00    -0.351 N 
ATOM      4  C   UNL     1       0.600  -1.443  -2.522  1.00  0.00     0.281 C 
ATOM      5  O   UNL     1       1.101  -1.988  -1.525  1.00  0.00    -0.268 OA
ATOM      6  H   UNL     1       0.031   0.019  -1.338  1.00  0.00     0.163 HD
BRANCH   4   7
ATOM      7  C   UNL     1       0.934  -2.034  -3.944  1.00  0.00     0.176 C 
ATOM      8  C   UNL     1       0.607  -3.546  -3.864  1.00  0.00     0.080 C 
ATOM      9  C   UNL     1       0.054  -1.629  -5.134  1.00  0.00     0.094 C 
ATOM     10  C   UNL     1       0.419  -4.045  -5.298  1.00  0.00     0.022 C 
ATOM     11  C   UNL     1       0.095  -2.800  -6.126  1.00  0.00     0.062 C 
BRANCH   7  12
ATOM     12  N   UNL     1       2.371  -1.682  -4.148  1.00  0.00    -0.334 N 
ATOM     13  H   UNL     1       2.395  -0.757  -4.577  1.00  0.00     0.347 HD
ATOM     14  H   UNL     1       2.780  -1.760  -3.217  1.00  0.00     0.347 HD
BRANCH  12  15
ATOM     15  C   UNL     1       3.198  -2.558  -4.971  1.00  0.00     0.261 C 
BRANCH  15  16
ATOM     16  C   UNL     1       4.687  -2.201  -4.864  1.00  0.00     0.058 C 
ATOM     17  C   UNL     1       5.285  -2.513  -3.497  1.00  0.00     0.010 C 
ENDBRANCH  15  16
ENDBRANCH  12  15
ENDBRANCH   7  12
BRANCH  11  18
ATOM     18  S   UNL     1      -1.376  -2.897  -7.214  1.00  0.00    -0.082 SA
BRANCH  18  19
ATOM     19  C   UNL     1      -2.600  -3.416  -6.115  1.00  0.00     0.191 A 
ATOM     20  N   UNL     1      -2.734  -4.625  -5.630  1.00  0.00    -0.123 NA
ATOM     21  N   UNL     1      -3.546  -2.594  -5.572  1.00  0.00    -0.309 N 
ATOM     22  N   UNL     1      -3.692  -4.573  -4.650  1.00  0.00    -0.135 NA
ATOM     23  C   UNL     1      -4.136  -3.334  -4.574  1.00  0.00     0.130 A 
ATOM     24  C   UNL     1      -3.842  -1.243  -5.966  1.00  0.00     0.154 C 
ATOM     25  C   UNL     1      -5.085  -2.821  -3.561  1.00  0.00     0.090 C 
ENDBRANCH  18  19
ENDBRANCH  11  18
ENDBRANCH   4   7
ENDBRANCH   2   3
ENDBRANCH   1   2
BRANCH   1  26
ATOM     26  C   UNL     1      -3.117   0.794  -1.850  1.00  0.00     0.023 C 
BRANCH  26  27
ATOM     27  C   UNL     1      -3.371   2.292  -1.993  1.00  0.00     0.116 C 
BRANCH  27  28
ATOM     28  N   UNL     1      -4.061   2.658  -3.231  1.00  0.00    -0.352 N 
ATOM     29  C   UNL     1      -5.079   3.563  -3.426  1.00  0.00     0.251 C 
ATOM     30  H   UNL     1      -3.752   2.189  -4.040  1.00  0.00     0.163 HD
ATOM     31  O   UNL     1      -5.605   3.668  -4.525  1.00  0.00    -0.269 OA
BRANCH  29  32
ATOM     32  C   UNL     1      -5.547   4.375  -2.282  1.00  0.00     0.039 A 
ATOM     33  C   UNL     1      -6.916   4.466  -2.019  1.00  0.00     0.014 A 
ATOM     34  C   UNL     1      -4.620   4.973  -1.428  1.00  0.00     0.014 A 
ATOM     35  C   UNL     1      -7.347   5.071  -0.837  1.00  0.00     0.010 A 
ATOM     36  C   UNL     1      -5.045   5.475  -0.207  1.00  0.00     0.010 A 
ATOM     37  C   UNL     1      -6.412   5.529   0.106  1.00  0.00    -0.014 A 
BRANCH  37  38
ATOM     38  C   UNL     1      -6.817   6.051   1.436  1.00  0.00     0.031 A 
ATOM     39  C   UNL     1      -6.402   7.438   1.852  1.00  0.00     0.074 A 
ATOM     40  C   UNL     1      -7.428   5.234   2.318  1.00  0.00     0.049 A 
ATOM     41  N   UNL     1      -6.520   8.021   3.015  1.00  0.00    -0.248 NA
ATOM     42  C   UNL     1      -5.714   8.257   0.839  1.00  0.00     0.031 C 
ATOM     43  C   UNL     1      -7.790   3.835   2.074  1.00  0.00     0.029 A 
ATOM     44  N   UNL     1      -7.827   5.455   3.613  1.00  0.00    -0.354 N 
ATOM     45  C   UNL     1      -5.864   9.240   2.894  1.00  0.00     0.074 A 
ATOM     46  C   UNL     1      -5.316   9.296   1.558  1.00  0.00     0.031 C 
ATOM     47  C   UNL     1      -8.377   3.332   3.172  1.00  0.00     0.029 A 
ATOM     48  C   UNL     1      -8.406   4.357   4.209  1.00  0.00     0.049 A 
ATOM     49  H   UNL     1      -7.710   6.317   4.073  1.00  0.00     0.167 HD
ATOM     50  C   UNL     1      -5.761  10.243   3.798  1.00  0.00     0.034 A 
ATOM     51  C   UNL     1      -8.908   4.200   5.449  1.00  0.00     0.034 A 
ATOM     52  C   UNL     1      -6.396  10.223   5.086  1.00  0.00     0.049 A 
ATOM     53  C   UNL     1      -8.878   5.368   6.398  1.00  0.00     0.074 A 
ATOM     54  C   UNL     1      -6.465  11.233   6.029  1.00  0.00     0.029 A 
ATOM     55  N   UNL     1      -7.089   9.140   5.605  1.00  0.00    -0.354 N 
ATOM     56  N   UNL     1      -8.395   6.572   6.207  1.00  0.00    -0.248 NA
ATOM     57  C   UNL     1      -9.493   5.169   7.718  1.00  0.00     0.031 C 
ATOM     58  C   UNL     1      -7.204  10.759   7.119  1.00  0.00     0.029 A 
ATOM     59  C   UNL     1      -7.597   9.457   6.852  1.00  0.00     0.049 A 
ATOM     60  H   UNL     1      -7.202   8.273   5.153  1.00  0.00     0.167 HD
ATOM     61  C   UNL     1      -8.681   7.285   7.366  1.00  0.00     0.074 A 
ATOM     62  C   UNL     1      -9.395   6.382   8.246  1.00  0.00     0.031 C 
ATOM     63  C   UNL     1      -8.364   8.565   7.682  1.00  0.00     0.034 A 
BRANCH  50  64
ATOM     64  C   UNL     1      -5.003  11.477   3.384  1.00  0.00     0.023 A 
ATOM     65  C   UNL     1      -5.559  12.339   2.416  1.00  0.00     0.012 A 
ATOM     66  C   UNL     1      -3.758  11.798   3.959  1.00  0.00     0.148 A 
ATOM     67  C   UNL     1      -4.871  13.473   1.992  1.00  0.00     0.002 A 
ATOM     68  C   UNL     1      -3.098  12.957   3.563  1.00  0.00     0.091 A 
ATOM     69  F   UNL     1      -3.229  10.957   4.859  1.00  0.00    -0.205 F 
ATOM     70  C   UNL     1      -3.645  13.787   2.572  1.00  0.00     0.022 A 
BRANCH  68  71
ATOM     71  S   UNL     1      -1.550  13.483   4.310  1.00  0.00     0.127 S 
ATOM     72  O   UNL     1      -0.582  13.095   3.286  1.00  0.00    -0.237 OA
ATOM     73  O   UNL     1      -1.745  14.927   4.447  1.00  0.00    -0.237 OA
ATOM     74  O   UNL     1      -1.457  12.765   5.573  1.00  0.00    -0.744 OA
ENDBRANCH  68  71
ENDBRANCH  50  64
BRANCH  51  75
ATOM     75  C   UNL     1      -9.585   2.926   5.824  1.00  0.00     0.023 A 
ATOM     76  C   UNL     1     -10.988   2.916   5.952  1.00  0.00     0.012 A 
ATOM     77  C   UNL     1      -8.871   1.728   6.016  1.00  0.00     0.148 A 
ATOM     78  C   UNL     1     -11.666   1.746   6.293  1.00  0.00     0.002 A 
ATOM     79  C   UNL     1      -9.557   0.553   6.307  1.00  0.00     0.091 A 
ATOM     80  F   UNL     1      -7.536   1.758   5.901  1.00  0.00    -0.205 F 
ATOM     81  C   UNL     1     -10.953   0.563   6.460  1.00  0.00     0.022 A 
BRANCH  79  82
ATOM     82  S   UNL     1      -8.733  -1.040   6.412  1.00  0.00     0.127 S 
ATOM     83  O   UNL     1      -8.732  -1.281   7.852  1.00  0.00    -0.237 OA
ATOM     84  O   UNL     1      -9.633  -1.901   5.643  1.00  0.00    -0.237 OA
ATOM     85  O   UNL     1      -7.427  -0.842   5.797  1.00  0.00    -0.744 OA
ENDBRANCH  79  82
ENDBRANCH  51  75
BRANCH  63  86
ATOM     86  C   UNL     1      -8.817   9.085   9.019  1.00  0.00     0.023 A 
ATOM     87  C   UNL     1      -8.142   8.681  10.187  1.00  0.00     0.012 A 
ATOM     88  C   UNL     1      -9.849  10.039   9.107  1.00  0.00     0.148 A 
ATOM     89  C   UNL     1      -8.503   9.202  11.428  1.00  0.00     0.002 A 
ATOM     90  C   UNL     1     -10.173  10.588  10.342  1.00  0.00     0.091 A 
ATOM     91  F   UNL     1     -10.493  10.393   7.986  1.00  0.00    -0.205 F 
ATOM     92  C   UNL     1      -9.508  10.164  11.504  1.00  0.00     0.022 A 
BRANCH  90  93
ATOM     93  S   UNL     1     -11.388  11.900  10.514  1.00  0.00     0.127 S 
ATOM     94  O   UNL     1     -12.543  11.172  11.037  1.00  0.00    -0.237 OA
ATOM     95  O   UNL     1     -10.746  12.798  11.476  1.00  0.00    -0.237 OA
ATOM     96  O   UNL     1     -11.551  12.467   9.182  1.00  0.00    -0.744 OA
ENDBRANCH  90  93
ENDBRANCH  63  86
ENDBRANCH  37  38
ENDBRANCH  29  32
ENDBRANCH  27  28
ENDBRANCH  26  27
ENDBRANCH   1  26
TORSDOF 19
