REMARK SMILES CC[C@@H]1CC[C@@](Cc2ccc(O)cc2)(C(=O)NCCCCNC(=O)c2ccc(-c3c4nc(c(-c5cccc(S(=O)(=O)[O-])c5F)c5ccc([nH]5)c(-c5cccc(S(=O)(=O)[O-])c5F)c5nc(c(-c6cccc(S(=O)(=O)[O-])c6F)c6ccc3[nH]6)C=C5)C=C4)cc2)C1
REMARK SMILES IDX 19 1 18 2 17 3 15 4 16 5 6 7 3 8 4 9 88 10 5 11 2 12 1 13
REMARK SMILES IDX 7 14 8 15 9 16 14 17 10 18 13 19 11 20 12 21 20 23 21 24
REMARK SMILES IDX 22 25 23 26 24 28 25 29 26 30 87 31 27 32 86 33 28 34 29 35
REMARK SMILES IDX 30 36 80 37 31 38 85 39 79 40 81 41 32 42 84 43 78 44 77 45
REMARK SMILES IDX 33 47 65 48 45 49 64 50 46 51 49 52 63 53 82 54 47 55 48 56
REMARK SMILES IDX 62 58 83 59 50 60 34 61 35 62 43 63 36 64 38 65 44 66 37 67
REMARK SMILES IDX 39 68 40 69 41 70 42 71 66 72 67 73 75 74 68 75 70 76 76 77
REMARK SMILES IDX 69 78 71 79 72 80 73 81 74 82 51 83 52 84 60 85 53 86 55 87
REMARK SMILES IDX 61 88 54 89 56 90 57 91 58 92 59 93
REMARK H PARENT 17 6 12 22 22 27 81 46 49 57
REMARK Flexibility Score: inf
ROOT
ATOM      1  C   UNL     1       2.158   7.481   3.211  1.00  0.00     0.023 C 
ENDROOT
BRANCH   1   2
ATOM      2  C   UNL     1       2.630   6.691   2.000  1.00  0.00     0.116 C 
BRANCH   2   3
ATOM      3  N   UNL     1       3.257   5.426   2.322  1.00  0.00    -0.356 N 
ATOM      4  C   UNL     1       3.232   4.228   1.673  1.00  0.00     0.226 C 
ATOM      5  O   UNL     1       4.073   3.402   2.043  1.00  0.00    -0.274 OA
ATOM      6  H   UNL     1       3.792   5.432   3.149  1.00  0.00     0.163 HD
BRANCH   4   7
ATOM      7  C   UNL     1       2.238   3.898   0.527  1.00  0.00     0.053 C 
ATOM      8  C   UNL     1       1.048   1.933   1.387  1.00  0.00    -0.010 C 
ATOM      9  C   UNL     1      -0.016   2.975   1.073  1.00  0.00     0.005 C 
ATOM     10  C   UNL     1       2.146   2.335   0.404  1.00  0.00     0.020 C 
ATOM     11  C   UNL     1       0.772   4.274   0.878  1.00  0.00     0.017 C 
BRANCH   8  12
ATOM     12  C   UNL     1       0.531   0.490   1.315  1.00  0.00     0.000 C 
ATOM     13  C   UNL     1       0.647  -0.197  -0.037  1.00  0.00     0.004 C 
ENDBRANCH   8  12
BRANCH   7  14
ATOM     14  C   UNL     1       2.763   4.411  -0.849  1.00  0.00     0.052 C 
BRANCH  14  15
ATOM     15  C   UNL     1       2.947   5.894  -1.076  1.00  0.00    -0.047 A 
ATOM     16  C   UNL     1       4.206   6.495  -0.902  1.00  0.00     0.007 A 
ATOM     17  C   UNL     1       1.864   6.700  -1.455  1.00  0.00     0.007 A 
ATOM     18  C   UNL     1       4.357   7.884  -1.012  1.00  0.00     0.046 A 
ATOM     19  C   UNL     1       2.016   8.083  -1.569  1.00  0.00     0.046 A 
ATOM     20  C   UNL     1       3.251   8.668  -1.315  1.00  0.00     0.115 A 
BRANCH  20  21
ATOM     21  O   UNL     1       3.320  10.027  -1.365  1.00  0.00    -0.508 OA
ATOM     22  H   UNL     1       4.134  10.460  -1.200  1.00  0.00     0.293 HD
ENDBRANCH  20  21
ENDBRANCH  14  15
ENDBRANCH   7  14
ENDBRANCH   4   7
ENDBRANCH   2   3
ENDBRANCH   1   2
BRANCH   1  23
ATOM     23  C   UNL     1       3.270   8.100   4.061  1.00  0.00     0.023 C 
BRANCH  23  24
ATOM     24  C   UNL     1       4.363   8.862   3.314  1.00  0.00     0.116 C 
BRANCH  24  25
ATOM     25  N   UNL     1       3.873   9.866   2.378  1.00  0.00    -0.352 N 
ATOM     26  C   UNL     1       4.416  11.098   2.086  1.00  0.00     0.251 C 
ATOM     27  H   UNL     1       3.049   9.634   1.892  1.00  0.00     0.163 HD
ATOM     28  O   UNL     1       3.933  11.798   1.207  1.00  0.00    -0.269 OA
BRANCH  26  29
ATOM     29  C   UNL     1       5.592  11.564   2.850  1.00  0.00     0.039 A 
ATOM     30  C   UNL     1       5.505  12.747   3.587  1.00  0.00     0.014 A 
ATOM     31  C   UNL     1       6.757  10.794   2.874  1.00  0.00     0.014 A 
ATOM     32  C   UNL     1       6.566  13.119   4.418  1.00  0.00     0.010 A 
ATOM     33  C   UNL     1       7.786  11.136   3.746  1.00  0.00     0.010 A 
ATOM     34  C   UNL     1       7.698  12.295   4.534  1.00  0.00    -0.014 A 
BRANCH  34  35
ATOM     35  C   UNL     1       8.779  12.595   5.509  1.00  0.00     0.031 A 
ATOM     36  C   UNL     1      10.172  12.899   5.030  1.00  0.00     0.074 A 
ATOM     37  C   UNL     1       8.531  12.480   6.829  1.00  0.00     0.049 A 
ATOM     38  N   UNL     1      11.256  13.112   5.731  1.00  0.00    -0.248 NA
ATOM     39  C   UNL     1      10.382  12.941   3.574  1.00  0.00     0.031 C 
ATOM     40  C   UNL     1       7.244  12.101   7.418  1.00  0.00     0.029 A 
ATOM     41  N   UNL     1       9.357  12.636   7.915  1.00  0.00    -0.354 N 
ATOM     42  C   UNL     1      12.280  13.278   4.807  1.00  0.00     0.074 A 
ATOM     43  C   UNL     1      11.694  13.113   3.494  1.00  0.00     0.031 C 
ATOM     44  C   UNL     1       7.368  12.052   8.754  1.00  0.00     0.029 A 
ATOM     45  C   UNL     1       8.745  12.371   9.118  1.00  0.00     0.049 A 
ATOM     46  H   UNL     1      10.300  12.911   7.839  1.00  0.00     0.167 HD
ATOM     47  C   UNL     1      13.584  13.571   5.029  1.00  0.00     0.034 A 
ATOM     48  C   UNL     1       9.237  12.382  10.373  1.00  0.00     0.034 A 
ATOM     49  C   UNL     1      14.153  13.781   6.332  1.00  0.00     0.049 A 
ATOM     50  C   UNL     1      10.675  12.768  10.592  1.00  0.00     0.074 A 
ATOM     51  C   UNL     1      15.440  14.174   6.656  1.00  0.00     0.029 A 
ATOM     52  N   UNL     1      13.474  13.613   7.529  1.00  0.00    -0.354 N 
ATOM     53  N   UNL     1      11.585  13.093   9.707  1.00  0.00    -0.248 NA
ATOM     54  C   UNL     1      11.143  12.829  11.985  1.00  0.00     0.031 C 
ATOM     55  C   UNL     1      15.543  14.231   8.050  1.00  0.00     0.029 A 
ATOM     56  C   UNL     1      14.315  13.890   8.594  1.00  0.00     0.049 A 
ATOM     57  H   UNL     1      12.533  13.337   7.610  1.00  0.00     0.167 HD
ATOM     58  C   UNL     1      12.721  13.431  10.434  1.00  0.00     0.074 A 
ATOM     59  C   UNL     1      12.377  13.292  11.834  1.00  0.00     0.031 C 
ATOM     60  C   UNL     1      13.943  13.807   9.982  1.00  0.00     0.034 A 
BRANCH  47  61
ATOM     61  C   UNL     1      14.475  13.748   3.827  1.00  0.00     0.023 A 
ATOM     62  C   UNL     1      14.335  14.901   3.028  1.00  0.00     0.012 A 
ATOM     63  C   UNL     1      15.485  12.814   3.523  1.00  0.00     0.148 A 
ATOM     64  C   UNL     1      15.164  15.108   1.927  1.00  0.00     0.002 A 
ATOM     65  C   UNL     1      16.335  13.048   2.448  1.00  0.00     0.091 A 
ATOM     66  F   UNL     1      15.588  11.713   4.281  1.00  0.00    -0.205 F 
ATOM     67  C   UNL     1      16.169  14.188   1.643  1.00  0.00     0.022 A 
BRANCH  65  68
ATOM     68  S   UNL     1      17.708  11.961   2.045  1.00  0.00     0.127 S 
ATOM     69  O   UNL     1      17.223  11.313   0.828  1.00  0.00    -0.237 OA
ATOM     70  O   UNL     1      18.802  12.911   1.836  1.00  0.00    -0.237 OA
ATOM     71  O   UNL     1      17.877  11.086   3.197  1.00  0.00    -0.744 OA
ENDBRANCH  65  68
ENDBRANCH  47  61
BRANCH  48  72
ATOM     72  C   UNL     1       8.338  12.094  11.527  1.00  0.00     0.023 A 
ATOM     73  C   UNL     1       7.970  13.145  12.390  1.00  0.00     0.012 A 
ATOM     74  C   UNL     1       7.825  10.804  11.759  1.00  0.00     0.148 A 
ATOM     75  C   UNL     1       7.133  12.910  13.481  1.00  0.00     0.002 A 
ATOM     76  C   UNL     1       6.947  10.588  12.816  1.00  0.00     0.091 A 
ATOM     77  F   UNL     1       8.197   9.813  10.936  1.00  0.00    -0.205 F 
ATOM     78  C   UNL     1       6.613  11.635  13.688  1.00  0.00     0.022 A 
BRANCH  76  79
ATOM     79  S   UNL     1       6.128   9.010  13.075  1.00  0.00     0.127 S 
ATOM     80  O   UNL     1       6.851   8.482  14.228  1.00  0.00    -0.237 OA
ATOM     81  O   UNL     1       4.750   9.422  13.346  1.00  0.00    -0.237 OA
ATOM     82  O   UNL     1       6.295   8.277  11.826  1.00  0.00    -0.744 OA
ENDBRANCH  76  79
ENDBRANCH  48  72
BRANCH  60  83
ATOM     83  C   UNL     1      14.998  14.130  11.007  1.00  0.00     0.023 A 
ATOM     84  C   UNL     1      15.608  13.089  11.734  1.00  0.00     0.012 A 
ATOM     85  C   UNL     1      15.439  15.455  11.193  1.00  0.00     0.148 A 
ATOM     86  C   UNL     1      16.621  13.364  12.651  1.00  0.00     0.002 A 
ATOM     87  C   UNL     1      16.481  15.717  12.075  1.00  0.00     0.091 A 
ATOM     88  F   UNL     1      14.831  16.435  10.508  1.00  0.00    -0.205 F 
ATOM     89  C   UNL     1      17.065  14.675  12.813  1.00  0.00     0.022 A 
BRANCH  87  90
ATOM     90  S   UNL     1      17.178  17.361  12.274  1.00  0.00     0.127 S 
ATOM     91  O   UNL     1      16.618  17.768  13.562  1.00  0.00    -0.237 OA
ATOM     92  O   UNL     1      18.616  17.091  12.293  1.00  0.00    -0.237 OA
ATOM     93  O   UNL     1      16.725  18.127  11.121  1.00  0.00    -0.744 OA
ENDBRANCH  87  90
ENDBRANCH  60  83
ENDBRANCH  34  35
ENDBRANCH  26  29
ENDBRANCH  24  25
ENDBRANCH  23  24
ENDBRANCH   1  23
TORSDOF 18
