REMARK SMILES NS(=O)(=O)c1ccc(-n2nc(C(F)(F)F)cc2-c2ccc(C(=O)NCCCCNC(=O)c3ccc(-c4c5nc(c(-c6cccc(S(=O)(=O)[O-])c6F)c6ccc([nH]6)c(-c6cccc(S(=O)(=O)[O-])c6F)c6nc(c(-c7cccc(S(=O)(=O)[O-])c7F)c7ccc4[nH]7)C=C6)C=C5)cc3)cc2)cc1
REMARK SMILES IDX 26 1 25 2 24 3 22 4 23 5 21 7 18 8 19 9 96 10 20 11 95 12
REMARK SMILES IDX 17 13 9 14 10 15 11 16 16 17 8 18 5 19 6 20 98 21 7 22 97 23
REMARK SMILES IDX 2 24 3 25 4 26 1 27 12 30 13 31 14 32 15 33 27 34 28 35
REMARK SMILES IDX 29 36 30 37 31 39 32 40 33 41 94 42 34 43 93 44 35 45 36 46
REMARK SMILES IDX 37 47 87 48 38 49 92 50 86 51 88 52 39 53 91 54 85 55 84 56
REMARK SMILES IDX 40 58 72 59 52 60 71 61 53 62 56 63 70 64 89 65 54 66 55 67
REMARK SMILES IDX 69 69 90 70 57 71 41 72 42 73 50 74 43 75 45 76 51 77 44 78
REMARK SMILES IDX 46 79 47 80 48 81 49 82 73 83 74 84 82 85 75 86 77 87 83 88
REMARK SMILES IDX 76 89 78 90 79 91 80 92 81 93 58 94 59 95 67 96 60 97 62 98
REMARK SMILES IDX 68 99 61 100 63 101 64 102 65 103 66 104
REMARK H PARENT 24 6 1 28 1 29 29 38 88 57 56 68
REMARK Flexibility Score: inf
ROOT
ATOM      1  C   UNL     1      -5.381  -8.295  -2.266  1.00  0.00     0.023 C 
ENDROOT
BRANCH   1   2
ATOM      2  C   UNL     1      -5.236  -7.712  -3.682  1.00  0.00     0.116 C 
BRANCH   2   3
ATOM      3  N   UNL     1      -5.230  -6.264  -3.645  1.00  0.00    -0.352 N 
ATOM      4  C   UNL     1      -4.211  -5.351  -3.550  1.00  0.00     0.251 C 
ATOM      5  O   UNL     1      -4.501  -4.161  -3.433  1.00  0.00    -0.269 OA
ATOM      6  H   UNL     1      -6.126  -5.859  -3.699  1.00  0.00     0.163 HD
BRANCH   4   7
ATOM      7  C   UNL     1      -2.774  -5.732  -3.611  1.00  0.00     0.039 A 
ATOM      8  C   UNL     1      -0.037  -6.324  -3.822  1.00  0.00     0.000 A 
ATOM      9  C   UNL     1      -0.518  -5.075  -4.233  1.00  0.00     0.011 A 
ATOM     10  C   UNL     1      -0.919  -7.266  -3.301  1.00  0.00     0.011 A 
ATOM     11  C   UNL     1      -1.880  -4.785  -4.131  1.00  0.00     0.014 A 
ATOM     12  C   UNL     1      -2.266  -6.951  -3.157  1.00  0.00     0.014 A 
BRANCH   8  13
ATOM     13  C   UNL     1       1.384  -6.625  -3.813  1.00  0.00     0.075 A 
ATOM     14  N   UNL     1       2.312  -5.968  -3.024  1.00  0.00    -0.233 N 
ATOM     15  N   UNL     1       3.584  -6.354  -3.303  1.00  0.00    -0.163 NA
ATOM     16  C   UNL     1       3.444  -7.399  -4.147  1.00  0.00     0.167 A 
ATOM     17  C   UNL     1       2.090  -7.565  -4.528  1.00  0.00     0.064 A 
BRANCH  14  18
ATOM     18  C   UNL     1       2.034  -4.984  -2.042  1.00  0.00     0.065 A 
ATOM     19  C   UNL     1       1.244  -2.916  -0.362  1.00  0.00     0.082 A 
ATOM     20  C   UNL     1       0.603  -4.153  -0.272  1.00  0.00     0.024 A 
ATOM     21  C   UNL     1       2.290  -2.714  -1.272  1.00  0.00     0.024 A 
ATOM     22  C   UNL     1       0.999  -5.189  -1.115  1.00  0.00     0.030 A 
ATOM     23  C   UNL     1       2.707  -3.761  -2.099  1.00  0.00     0.030 A 
BRANCH  19  24
ATOM     24  S   UNL     1       0.686  -1.617   0.698  1.00  0.00     0.238 S 
ATOM     25  O   UNL     1       1.385  -1.726   1.950  1.00  0.00    -0.207 OA
ATOM     26  O   UNL     1      -0.758  -1.532   0.614  1.00  0.00    -0.207 OA
BRANCH  24  27
ATOM     27  N   UNL     1       1.250  -0.208  -0.024  1.00  0.00    -0.225 NA
ATOM     28  H   UNL     1       0.966   0.597   0.534  1.00  0.00     0.137 HD
ATOM     29  H   UNL     1       0.858  -0.127  -0.963  1.00  0.00     0.137 HD
ENDBRANCH  24  27
ENDBRANCH  19  24
ENDBRANCH  14  18
BRANCH  16  30
ATOM     30  C   UNL     1       4.589  -8.264  -4.600  1.00  0.00     0.435 C 
ATOM     31  F   UNL     1       5.644  -7.552  -5.074  1.00  0.00    -0.164 F 
ATOM     32  F   UNL     1       5.059  -9.053  -3.595  1.00  0.00    -0.164 F 
ATOM     33  F   UNL     1       4.217  -9.113  -5.600  1.00  0.00    -0.164 F 
ENDBRANCH  16  30
ENDBRANCH   8  13
ENDBRANCH   4   7
ENDBRANCH   2   3
ENDBRANCH   1   2
BRANCH   1  34
ATOM     34  C   UNL     1      -6.788  -8.213  -1.660  1.00  0.00     0.023 C 
BRANCH  34  35
ATOM     35  C   UNL     1      -7.823  -9.089  -2.349  1.00  0.00     0.116 C 
BRANCH  35  36
ATOM     36  N   UNL     1      -7.506 -10.525  -2.282  1.00  0.00    -0.352 N 
ATOM     37  C   UNL     1      -8.084 -11.561  -3.006  1.00  0.00     0.251 C 
ATOM     38  H   UNL     1      -6.800 -10.783  -1.647  1.00  0.00     0.163 HD
ATOM     39  O   UNL     1      -8.043 -12.720  -2.611  1.00  0.00    -0.269 OA
BRANCH  37  40
ATOM     40  C   UNL     1      -8.704 -11.221  -4.295  1.00  0.00     0.039 A 
ATOM     41  C   UNL     1      -9.931 -11.721  -4.736  1.00  0.00     0.014 A 
ATOM     42  C   UNL     1      -8.021 -10.258  -5.023  1.00  0.00     0.014 A 
ATOM     43  C   UNL     1     -10.477 -11.180  -5.900  1.00  0.00     0.010 A 
ATOM     44  C   UNL     1      -8.706  -9.524  -5.937  1.00  0.00     0.010 A 
ATOM     45  C   UNL     1      -9.850 -10.068  -6.485  1.00  0.00    -0.014 A 
BRANCH  45  46
ATOM     46  C   UNL     1     -10.350  -9.379  -7.658  1.00  0.00     0.031 A 
ATOM     47  C   UNL     1     -11.741  -8.900  -7.542  1.00  0.00     0.074 A 
ATOM     48  C   UNL     1      -9.544  -9.030  -8.688  1.00  0.00     0.049 A 
ATOM     49  N   UNL     1     -12.783  -9.477  -8.032  1.00  0.00    -0.248 NA
ATOM     50  C   UNL     1     -12.042  -7.775  -6.648  1.00  0.00     0.031 C 
ATOM     51  C   UNL     1      -8.084  -9.172  -8.829  1.00  0.00     0.029 A 
ATOM     52  N   UNL     1      -9.876  -8.354  -9.814  1.00  0.00    -0.354 N 
ATOM     53  C   UNL     1     -13.848  -8.636  -7.739  1.00  0.00     0.074 A 
ATOM     54  C   UNL     1     -13.377  -7.747  -6.709  1.00  0.00     0.031 C 
ATOM     55  C   UNL     1      -7.645  -8.404  -9.852  1.00  0.00     0.029 A 
ATOM     56  C   UNL     1      -8.799  -7.876 -10.551  1.00  0.00     0.049 A 
ATOM     57  H   UNL     1     -10.810  -8.212 -10.091  1.00  0.00     0.167 HD
ATOM     58  C   UNL     1     -14.933  -8.584  -8.560  1.00  0.00     0.034 A 
ATOM     59  C   UNL     1      -8.870  -7.098 -11.658  1.00  0.00     0.034 A 
ATOM     60  C   UNL     1     -14.886  -9.637  -9.550  1.00  0.00     0.049 A 
ATOM     61  C   UNL     1     -10.205  -7.348 -12.253  1.00  0.00     0.074 A 
ATOM     62  C   UNL     1     -14.856 -11.017  -9.511  1.00  0.00     0.029 A 
ATOM     63  N   UNL     1     -14.415  -9.286 -10.796  1.00  0.00    -0.354 N 
ATOM     64  N   UNL     1     -10.557  -8.510 -12.731  1.00  0.00    -0.248 NA
ATOM     65  C   UNL     1     -11.299  -6.470 -11.869  1.00  0.00     0.031 C 
ATOM     66  C   UNL     1     -13.922 -11.390 -10.525  1.00  0.00     0.029 A 
ATOM     67  C   UNL     1     -13.496 -10.230 -11.175  1.00  0.00     0.049 A 
ATOM     68  H   UNL     1     -14.689  -8.498 -11.319  1.00  0.00     0.167 HD
ATOM     69  C   UNL     1     -11.853  -8.695 -12.267  1.00  0.00     0.074 A 
ATOM     70  C   UNL     1     -12.291  -7.366 -11.833  1.00  0.00     0.031 C 
ATOM     71  C   UNL     1     -12.341  -9.944 -12.002  1.00  0.00     0.034 A 
BRANCH  58  72
ATOM     72  C   UNL     1     -15.842  -7.396  -8.748  1.00  0.00     0.023 A 
ATOM     73  C   UNL     1     -17.026  -7.612  -9.488  1.00  0.00     0.012 A 
ATOM     74  C   UNL     1     -15.477  -6.057  -8.491  1.00  0.00     0.148 A 
ATOM     75  C   UNL     1     -17.772  -6.549 -10.005  1.00  0.00     0.002 A 
ATOM     76  C   UNL     1     -16.258  -5.003  -8.950  1.00  0.00     0.091 A 
ATOM     77  F   UNL     1     -14.304  -5.782  -7.916  1.00  0.00    -0.205 F 
ATOM     78  C   UNL     1     -17.389  -5.242  -9.734  1.00  0.00     0.022 A 
BRANCH  76  79
ATOM     79  S   UNL     1     -15.831  -3.290  -8.612  1.00  0.00     0.127 S 
ATOM     80  O   UNL     1     -15.401  -2.833  -9.930  1.00  0.00    -0.237 OA
ATOM     81  O   UNL     1     -17.111  -2.750  -8.153  1.00  0.00    -0.237 OA
ATOM     82  O   UNL     1     -14.800  -3.339  -7.583  1.00  0.00    -0.744 OA
ENDBRANCH  76  79
ENDBRANCH  58  72
BRANCH  59  83
ATOM     83  C   UNL     1      -8.012  -5.963 -12.066  1.00  0.00     0.023 A 
ATOM     84  C   UNL     1      -8.018  -5.516 -13.402  1.00  0.00     0.012 A 
ATOM     85  C   UNL     1      -7.425  -5.130 -11.087  1.00  0.00     0.148 A 
ATOM     86  C   UNL     1      -7.492  -4.263 -13.746  1.00  0.00     0.002 A 
ATOM     87  C   UNL     1      -6.906  -3.885 -11.433  1.00  0.00     0.091 A 
ATOM     88  F   UNL     1      -7.460  -5.522  -9.806  1.00  0.00    -0.205 F 
ATOM     89  C   UNL     1      -6.948  -3.443 -12.761  1.00  0.00     0.022 A 
BRANCH  87  90
ATOM     90  S   UNL     1      -6.227  -2.753 -10.211  1.00  0.00     0.127 S 
ATOM     91  O   UNL     1      -4.925  -2.429 -10.794  1.00  0.00    -0.237 OA
ATOM     92  O   UNL     1      -7.199  -1.663 -10.238  1.00  0.00    -0.237 OA
ATOM     93  O   UNL     1      -6.158  -3.508  -8.967  1.00  0.00    -0.744 OA
ENDBRANCH  87  90
ENDBRANCH  59  83
BRANCH  71  94
ATOM     94  C   UNL     1     -11.488 -11.130 -12.396  1.00  0.00     0.023 A 
ATOM     95  C   UNL     1     -10.239 -11.396 -11.793  1.00  0.00     0.012 A 
ATOM     96  C   UNL     1     -12.027 -12.086 -13.271  1.00  0.00     0.148 A 
ATOM     97  C   UNL     1      -9.535 -12.572 -12.072  1.00  0.00     0.002 A 
ATOM     98  C   UNL     1     -11.344 -13.271 -13.518  1.00  0.00     0.091 A 
ATOM     99  F   UNL     1     -13.222 -11.830 -13.824  1.00  0.00    -0.205 F 
ATOM    100  C   UNL     1     -10.092 -13.515 -12.929  1.00  0.00     0.022 A 
BRANCH  98 101
ATOM    101  S   UNL     1     -12.053 -14.578 -14.521  1.00  0.00     0.127 S 
ATOM    102  O   UNL     1     -11.217 -14.531 -15.719  1.00  0.00    -0.237 OA
ATOM    103  O   UNL     1     -11.850 -15.760 -13.681  1.00  0.00    -0.237 OA
ATOM    104  O   UNL     1     -13.452 -14.221 -14.720  1.00  0.00    -0.744 OA
ENDBRANCH  98 101
ENDBRANCH  71  94
ENDBRANCH  45  46
ENDBRANCH  37  40
ENDBRANCH  35  36
ENDBRANCH  34  35
ENDBRANCH   1  34
TORSDOF 19
