REMARK SMILES Cc1ccc(C)c(N2C(=O)S[C@H](CC(=O)Nc3ccc(C(=O)NCCCCNC(=O)c4ccc(-c5c6nc(c(-c7cccc(S(=O)(=O)[O-])c7F)c7ccc([nH]7)c(-c7cccc(S(=O)(=O)[O-])c7F)c7nc(c(-c8cccc(S(=O)(=O)[O-])c8F)c8ccc5[nH]8)C=C7)C=C6)cc4)c(O)c3)C2=O)c1
REMARK SMILES IDX 25 1 24 2 23 3 21 4 22 5 20 7 17 8 18 9 96 10 19 11 94 12
REMARK SMILES IDX 16 13 14 14 15 15 13 17 12 18 8 19 9 20 97 21 10 22 11 23
REMARK SMILES IDX 98 24 7 25 1 26 2 27 3 28 99 29 4 30 5 31 6 32 95 33 26 35
REMARK SMILES IDX 27 36 28 37 29 38 30 40 31 41 32 42 93 43 33 44 92 45 34 46
REMARK SMILES IDX 35 47 36 48 86 49 37 50 91 51 85 52 87 53 38 54 90 55 84 56
REMARK SMILES IDX 83 57 39 59 71 60 51 61 70 62 52 63 55 64 69 65 88 66 53 67
REMARK SMILES IDX 54 68 68 70 89 71 56 72 40 73 41 74 49 75 42 76 44 77 50 78
REMARK SMILES IDX 43 79 45 80 46 81 47 82 48 83 72 84 73 85 81 86 74 87 76 88
REMARK SMILES IDX 82 89 75 90 77 91 78 92 79 93 80 94 57 95 58 96 66 97 59 98
REMARK SMILES IDX 61 99 67 100 60 101 62 102 63 103 64 104 65 105
REMARK H PARENT 23 6 16 16 95 34 28 39 87 58 55 69
REMARK Flexibility Score: inf
ROOT
ATOM      1  C   UNL     1       4.305   7.261  -2.142  1.00  0.00     0.023 C 
ENDROOT
BRANCH   1   2
ATOM      2  C   UNL     1       2.871   7.443  -2.636  1.00  0.00     0.116 C 
BRANCH   2   3
ATOM      3  N   UNL     1       2.236   6.335  -3.313  1.00  0.00    -0.352 N 
ATOM      4  C   UNL     1       0.903   5.982  -3.395  1.00  0.00     0.255 C 
ATOM      5  O   UNL     1       0.624   5.056  -4.154  1.00  0.00    -0.269 OA
ATOM      6  H   UNL     1       2.853   5.736  -3.793  1.00  0.00     0.163 HD
BRANCH   4   7
ATOM      7  C   UNL     1      -0.187   6.564  -2.548  1.00  0.00     0.081 A 
ATOM      8  C   UNL     1      -2.029   7.122  -0.487  1.00  0.00     0.044 A 
ATOM      9  C   UNL     1      -2.230   6.066  -1.359  1.00  0.00     0.027 A 
ATOM     10  C   UNL     1      -1.093   8.078  -0.848  1.00  0.00     0.073 A 
ATOM     11  C   UNL     1      -1.290   5.737  -2.331  1.00  0.00     0.020 A 
ATOM     12  C   UNL     1      -0.231   7.818  -1.929  1.00  0.00     0.130 A 
BRANCH   8  13
ATOM     13  N   UNL     1      -2.821   7.243   0.667  1.00  0.00    -0.326 N 
ATOM     14  C   UNL     1      -3.319   6.211   1.444  1.00  0.00     0.226 C 
ATOM     15  O   UNL     1      -4.284   6.404   2.185  1.00  0.00    -0.275 OA
ATOM     16  H   UNL     1      -3.046   8.158   0.953  1.00  0.00     0.169 HD
BRANCH  14  17
ATOM     17  C   UNL     1      -2.503   4.922   1.550  1.00  0.00     0.125 C 
BRANCH  17  18
ATOM     18  C   UNL     1      -3.251   3.604   1.350  1.00  0.00     0.156 C 
ATOM     19  N   UNL     1      -1.688   2.021   0.451  1.00  0.00    -0.240 N 
ATOM     20  C   UNL     1      -2.237   2.482  -0.711  1.00  0.00     0.293 C 
ATOM     21  C   UNL     1      -2.289   2.450   1.625  1.00  0.00     0.248 C 
ATOM     22  O   UNL     1      -1.808   2.383  -1.856  1.00  0.00    -0.261 OA
ATOM     23  S   UNL     1      -3.764   3.274  -0.356  1.00  0.00    -0.050 SA
ATOM     24  O   UNL     1      -2.095   2.011   2.754  1.00  0.00    -0.273 OA
BRANCH  19  25
ATOM     25  C   UNL     1      -0.849   0.882   0.405  1.00  0.00     0.056 A 
ATOM     26  C   UNL     1       2.870   0.044   0.066  1.00  0.00     0.044 C 
ATOM     27  C   UNL     1       1.379  -0.083   0.187  1.00  0.00    -0.049 A 
ATOM     28  C   UNL     1       0.802  -1.354   0.096  1.00  0.00     0.004 A 
ATOM     29  C   UNL     1       0.547   1.037   0.354  1.00  0.00     0.030 A 
ATOM     30  C   UNL     1      -0.582  -1.508   0.138  1.00  0.00     0.006 A 
ATOM     31  C   UNL     1      -1.425  -0.397   0.273  1.00  0.00    -0.027 A 
ATOM     32  C   UNL     1      -2.908  -0.643   0.220  1.00  0.00     0.046 C 
ENDBRANCH  19  25
ENDBRANCH  17  18
ENDBRANCH  14  17
ENDBRANCH   8  13
BRANCH  12  33
ATOM     33  O   UNL     1       0.468   8.899  -2.394  1.00  0.00    -0.507 OA
ATOM     34  H   UNL     1       1.060   8.799  -3.113  1.00  0.00     0.293 HD
ENDBRANCH  12  33
ENDBRANCH   4   7
ENDBRANCH   2   3
ENDBRANCH   1   2
BRANCH   1  35
ATOM     35  C   UNL     1       5.453   6.999  -3.120  1.00  0.00     0.023 C 
BRANCH  35  36
ATOM     36  C   UNL     1       5.460   7.764  -4.433  1.00  0.00     0.116 C 
BRANCH  36  37
ATOM     37  N   UNL     1       5.397   9.230  -4.317  1.00  0.00    -0.352 N 
ATOM     38  C   UNL     1       5.083  10.190  -5.281  1.00  0.00     0.251 C 
ATOM     39  H   UNL     1       5.609   9.588  -3.425  1.00  0.00     0.163 HD
ATOM     40  O   UNL     1       5.474  11.346  -5.140  1.00  0.00    -0.269 OA
BRANCH  38  41
ATOM     41  C   UNL     1       4.268   9.823  -6.465  1.00  0.00     0.039 A 
ATOM     42  C   UNL     1       4.195  10.548  -7.655  1.00  0.00     0.014 A 
ATOM     43  C   UNL     1       3.504   8.683  -6.363  1.00  0.00     0.014 A 
ATOM     44  C   UNL     1       3.346  10.069  -8.662  1.00  0.00     0.010 A 
ATOM     45  C   UNL     1       3.198   7.997  -7.487  1.00  0.00     0.010 A 
ATOM     46  C   UNL     1       2.820   8.772  -8.543  1.00  0.00    -0.014 A 
BRANCH  46  47
ATOM     47  C   UNL     1       2.025   8.095  -9.552  1.00  0.00     0.031 A 
ATOM     48  C   UNL     1       2.760   8.008 -10.818  1.00  0.00     0.074 A 
ATOM     49  C   UNL     1       0.876   7.413  -9.322  1.00  0.00     0.049 A 
ATOM     50  N   UNL     1       2.691   8.854 -11.788  1.00  0.00    -0.248 NA
ATOM     51  C   UNL     1       3.893   7.074 -10.907  1.00  0.00     0.031 C 
ATOM     52  C   UNL     1       0.228   7.107  -8.036  1.00  0.00     0.029 A 
ATOM     53  N   UNL     1       0.082   6.748 -10.211  1.00  0.00    -0.354 N 
ATOM     54  C   UNL     1       3.537   8.334 -12.753  1.00  0.00     0.074 A 
ATOM     55  C   UNL     1       4.452   7.474 -12.052  1.00  0.00     0.031 C 
ATOM     56  C   UNL     1      -0.727   6.162  -8.215  1.00  0.00     0.029 A 
ATOM     57  C   UNL     1      -0.874   5.911  -9.635  1.00  0.00     0.049 A 
ATOM     58  H   UNL     1       0.177   6.851 -11.186  1.00  0.00     0.167 HD
ATOM     59  C   UNL     1       3.155   8.350 -14.057  1.00  0.00     0.034 A 
ATOM     60  C   UNL     1      -1.707   5.065 -10.295  1.00  0.00     0.034 A 
ATOM     61  C   UNL     1       1.976   9.173 -14.231  1.00  0.00     0.049 A 
ATOM     62  C   UNL     1      -1.811   5.573 -11.680  1.00  0.00     0.074 A 
ATOM     63  C   UNL     1       1.647  10.496 -14.024  1.00  0.00     0.029 A 
ATOM     64  N   UNL     1       0.797   8.468 -14.270  1.00  0.00    -0.354 N 
ATOM     65  N   UNL     1      -2.388   6.700 -11.988  1.00  0.00    -0.248 NA
ATOM     66  C   UNL     1      -0.950   5.009 -12.707  1.00  0.00     0.031 C 
ATOM     67  C   UNL     1       0.276  10.493 -13.628  1.00  0.00     0.029 A 
ATOM     68  C   UNL     1      -0.203   9.182 -13.670  1.00  0.00     0.049 A 
ATOM     69  H   UNL     1       0.688   7.576 -14.671  1.00  0.00     0.167 HD
ATOM     70  C   UNL     1      -1.592   7.215 -12.999  1.00  0.00     0.074 A 
ATOM     71  C   UNL     1      -0.855   6.067 -13.517  1.00  0.00     0.031 C 
ATOM     72  C   UNL     1      -1.379   8.560 -13.092  1.00  0.00     0.034 A 
BRANCH  59  73
ATOM     73  C   UNL     1       3.498   7.283 -15.076  1.00  0.00     0.023 A 
ATOM     74  C   UNL     1       3.098   7.538 -16.407  1.00  0.00     0.012 A 
ATOM     75  C   UNL     1       3.917   5.965 -14.780  1.00  0.00     0.148 A 
ATOM     76  C   UNL     1       3.062   6.527 -17.372  1.00  0.00     0.002 A 
ATOM     77  C   UNL     1       3.957   4.982 -15.761  1.00  0.00     0.091 A 
ATOM     78  F   UNL     1       4.151   5.593 -13.522  1.00  0.00    -0.205 F 
ATOM     79  C   UNL     1       3.498   5.248 -17.051  1.00  0.00     0.022 A 
BRANCH  77  80
ATOM     80  S   UNL     1       4.552   3.322 -15.408  1.00  0.00     0.127 S 
ATOM     81  O   UNL     1       3.314   2.551 -15.467  1.00  0.00    -0.237 OA
ATOM     82  O   UNL     1       5.479   3.099 -16.518  1.00  0.00    -0.237 OA
ATOM     83  O   UNL     1       5.195   3.403 -14.102  1.00  0.00    -0.744 OA
ENDBRANCH  77  80
ENDBRANCH  59  73
BRANCH  60  84
ATOM     84  C   UNL     1      -2.304   3.758  -9.923  1.00  0.00     0.023 A 
ATOM     85  C   UNL     1      -3.417   3.271 -10.645  1.00  0.00     0.012 A 
ATOM     86  C   UNL     1      -1.586   2.850  -9.116  1.00  0.00     0.148 A 
ATOM     87  C   UNL     1      -3.762   1.915 -10.618  1.00  0.00     0.002 A 
ATOM     88  C   UNL     1      -1.928   1.500  -9.100  1.00  0.00     0.091 A 
ATOM     89  F   UNL     1      -0.513   3.296  -8.451  1.00  0.00    -0.205 F 
ATOM     90  C   UNL     1      -3.007   1.026  -9.860  1.00  0.00     0.022 A 
BRANCH  88  91
ATOM     91  S   UNL     1      -0.963   0.266  -8.214  1.00  0.00     0.127 S 
ATOM     92  O   UNL     1      -1.991  -0.406  -7.419  1.00  0.00    -0.237 OA
ATOM     93  O   UNL     1      -0.422  -0.534  -9.311  1.00  0.00    -0.237 OA
ATOM     94  O   UNL     1       0.021   1.008  -7.439  1.00  0.00    -0.744 OA
ENDBRANCH  88  91
ENDBRANCH  60  84
BRANCH  72  95
ATOM     95  C   UNL     1      -2.348   9.464 -12.370  1.00  0.00     0.023 A 
ATOM     96  C   UNL     1      -2.490   9.485 -10.967  1.00  0.00     0.012 A 
ATOM     97  C   UNL     1      -3.061  10.400 -13.138  1.00  0.00     0.148 A 
ATOM     98  C   UNL     1      -3.347  10.401 -10.349  1.00  0.00     0.002 A 
ATOM     99  C   UNL     1      -3.872  11.340 -12.518  1.00  0.00     0.091 A 
ATOM    100  F   UNL     1      -2.920  10.363 -14.472  1.00  0.00    -0.205 F 
ATOM    101  C   UNL     1      -4.028  11.337 -11.123  1.00  0.00     0.022 A 
BRANCH  99 102
ATOM    102  S   UNL     1      -4.678  12.641 -13.453  1.00  0.00     0.127 S 
ATOM    103  O   UNL     1      -6.069  12.194 -13.463  1.00  0.00    -0.237 OA
ATOM    104  O   UNL     1      -4.421  13.824 -12.630  1.00  0.00    -0.237 OA
ATOM    105  O   UNL     1      -4.017  12.668 -14.752  1.00  0.00    -0.744 OA
ENDBRANCH  99 102
ENDBRANCH  72  95
ENDBRANCH  46  47
ENDBRANCH  38  41
ENDBRANCH  36  37
ENDBRANCH  35  36
ENDBRANCH   1  35
TORSDOF 19
