REMARK SMILES O=C(CCCN1C(=O)C(=O)/C(=C(/[O-])c2ccc(Cl)cc2)[C@@H]1c1ccccc1[N+](=O)[O-])NCCCCNC(=O)c1ccc(-c2c3nc(c(-c4cccc(S(=O)(=O)[O-])c4F)c4ccc([nH]4)c(-c4cccc(S(=O)(=O)[O-])c4F)c4nc(c(-c5cccc(S(=O)(=O)[O-])c5F)c5ccc2[nH]5)C=C4)C=C3)cc1
REMARK SMILES IDX 32 1 31 2 1 3 2 4 3 6 4 7 5 8 6 9 7 10 21 11 8 12 9 13 11 14
REMARK SMILES IDX 10 15 12 16 13 17 22 18 23 19 27 20 24 21 26 22 25 23 28 24
REMARK SMILES IDX 29 25 30 26 14 27 15 28 20 29 16 30 19 31 17 32 18 33 33 34
REMARK SMILES IDX 34 35 35 36 36 37 37 38 38 40 39 41 40 42 101 43 41 44
REMARK SMILES IDX 100 45 42 46 43 47 44 48 94 49 45 50 99 51 93 52 95 53 46 54
REMARK SMILES IDX 98 55 92 56 91 57 47 59 79 60 59 61 78 62 60 63 63 64 77 65
REMARK SMILES IDX 96 66 61 67 62 68 76 70 97 71 64 72 48 73 49 74 57 75 50 76
REMARK SMILES IDX 52 77 58 78 51 79 53 80 54 81 55 82 56 83 80 84 81 85 89 86
REMARK SMILES IDX 82 87 84 88 90 89 83 90 85 91 86 92 87 93 88 94 65 95 66 96
REMARK SMILES IDX 74 97 67 98 69 99 75 100 68 101 70 102 71 103 72 104 73 105
REMARK H PARENT 31 5 36 39 95 58 63 69
REMARK Flexibility Score: inf
ROOT
ATOM      1  C   UNL     1       1.828   0.621   2.928  1.00  0.00     0.116 C 
ENDROOT
BRANCH   1   2
ATOM      2  N   UNL     1       2.355   0.404   1.601  1.00  0.00    -0.356 N 
ATOM      3  O   UNL     1       0.735   1.598   0.502  1.00  0.00    -0.275 OA
ATOM      4  C   UNL     1       1.776   0.954   0.484  1.00  0.00     0.220 C 
ATOM      5  H   UNL     1       3.157  -0.158   1.494  1.00  0.00     0.163 HD
BRANCH   4   6
ATOM      6  C   UNL     1       2.528   0.651  -0.793  1.00  0.00     0.102 C 
BRANCH   6   7
ATOM      7  C   UNL     1       3.825   1.442  -0.954  1.00  0.00     0.031 C 
BRANCH   7   8
ATOM      8  C   UNL     1       5.062   0.966  -0.181  1.00  0.00     0.121 C 
BRANCH   8   9
ATOM      9  N   UNL     1       5.810  -0.169  -0.732  1.00  0.00    -0.324 N 
ATOM     10  C   UNL     1       7.136   0.009  -1.139  1.00  0.00     0.295 C 
ATOM     11  C   UNL     1       5.505  -1.575  -0.475  1.00  0.00     0.157 C 
ATOM     12  O   UNL     1       7.734   1.051  -1.280  1.00  0.00    -0.265 OA
ATOM     13  C   UNL     1       7.771  -1.383  -1.260  1.00  0.00     0.248 C 
ATOM     14  C   UNL     1       6.803  -2.325  -0.645  1.00  0.00     0.025 C 
ATOM     15  O   UNL     1       8.855  -1.616  -1.735  1.00  0.00    -0.283 OA
ATOM     16  C   UNL     1       7.077  -3.578  -0.250  1.00  0.00    -0.092 C 
ATOM     17  O   UNL     1       6.158  -4.309   0.483  1.00  0.00    -0.872 OA
BRANCH  11  18
ATOM     18  C   UNL     1       4.372  -2.171  -1.310  1.00  0.00     0.057 A 
ATOM     19  C   UNL     1       3.545  -3.124  -0.669  1.00  0.00     0.013 A 
ATOM     20  C   UNL     1       4.052  -1.884  -2.655  1.00  0.00     0.275 A 
ATOM     21  C   UNL     1       2.454  -3.719  -1.312  1.00  0.00     0.001 A 
ATOM     22  C   UNL     1       2.935  -2.455  -3.295  1.00  0.00     0.086 A 
ATOM     23  C   UNL     1       2.137  -3.371  -2.619  1.00  0.00     0.007 A 
BRANCH  20  24
ATOM     24  N   UNL     1       4.836  -0.975  -3.475  1.00  0.00     0.063 N 
ATOM     25  O   UNL     1       4.223  -0.062  -4.045  1.00  0.00    -0.258 OA
ATOM     26  O   UNL     1       6.038  -1.225  -3.599  1.00  0.00    -0.258 OA
ENDBRANCH  20  24
ENDBRANCH  11  18
BRANCH  16  27
ATOM     27  C   UNL     1       8.285  -4.327  -0.616  1.00  0.00    -0.033 A 
ATOM     28  C   UNL     1       9.510  -4.150   0.034  1.00  0.00     0.009 A 
ATOM     29  C   UNL     1       8.184  -5.257  -1.662  1.00  0.00     0.009 A 
ATOM     30  C   UNL     1      10.635  -4.866  -0.391  1.00  0.00     0.021 A 
ATOM     31  C   UNL     1       9.305  -5.971  -2.084  1.00  0.00     0.021 A 
ATOM     32  C   UNL     1      10.531  -5.762  -1.455  1.00  0.00     0.041 A 
ATOM     33  Cl  UNL     1      11.918  -6.613  -2.014  1.00  0.00    -0.084 Cl
ENDBRANCH  16  27
ENDBRANCH   8   9
ENDBRANCH   7   8
ENDBRANCH   6   7
ENDBRANCH   4   6
ENDBRANCH   1   2
BRANCH   1  34
ATOM     34  C   UNL     1       2.423  -0.356   3.937  1.00  0.00     0.023 C 
BRANCH  34  35
ATOM     35  C   UNL     1       3.949  -0.303   4.084  1.00  0.00     0.023 C 
BRANCH  35  36
ATOM     36  C   UNL     1       4.542   1.081   4.330  1.00  0.00     0.116 C 
BRANCH  36  37
ATOM     37  N   UNL     1       3.986   1.722   5.509  1.00  0.00    -0.352 N 
ATOM     38  C   UNL     1       4.617   2.220   6.622  1.00  0.00     0.251 C 
ATOM     39  H   UNL     1       3.006   1.813   5.510  1.00  0.00     0.163 HD
ATOM     40  O   UNL     1       3.945   2.573   7.588  1.00  0.00    -0.269 OA
BRANCH  38  41
ATOM     41  C   UNL     1       6.093   2.311   6.675  1.00  0.00     0.039 A 
ATOM     42  C   UNL     1       6.746   1.920   7.846  1.00  0.00     0.014 A 
ATOM     43  C   UNL     1       6.832   2.796   5.592  1.00  0.00     0.014 A 
ATOM     44  C   UNL     1       8.142   1.956   7.910  1.00  0.00     0.010 A 
ATOM     45  C   UNL     1       8.225   2.764   5.631  1.00  0.00     0.010 A 
ATOM     46  C   UNL     1       8.895   2.348   6.792  1.00  0.00    -0.014 A 
BRANCH  46  47
ATOM     47  C   UNL     1      10.381   2.307   6.813  1.00  0.00     0.031 A 
ATOM     48  C   UNL     1      11.183   3.570   6.651  1.00  0.00     0.074 A 
ATOM     49  C   UNL     1      11.011   1.118   6.896  1.00  0.00     0.049 A 
ATOM     50  N   UNL     1      12.482   3.720   6.593  1.00  0.00    -0.248 NA
ATOM     51  C   UNL     1      10.430   4.827   6.512  1.00  0.00     0.031 C 
ATOM     52  C   UNL     1      10.348  -0.185   6.981  1.00  0.00     0.029 A 
ATOM     53  N   UNL     1      12.349   0.809   6.893  1.00  0.00    -0.354 N 
ATOM     54  C   UNL     1      12.700   5.075   6.376  1.00  0.00     0.074 A 
ATOM     55  C   UNL     1      11.399   5.701   6.282  1.00  0.00     0.031 C 
ATOM     56  C   UNL     1      11.280  -1.151   7.021  1.00  0.00     0.029 A 
ATOM     57  C   UNL     1      12.603  -0.542   6.933  1.00  0.00     0.049 A 
ATOM     58  H   UNL     1      13.059   1.490   6.865  1.00  0.00     0.167 HD
ATOM     59  C   UNL     1      13.875   5.745   6.293  1.00  0.00     0.034 A 
ATOM     60  C   UNL     1      13.769  -1.218   6.891  1.00  0.00     0.034 A 
ATOM     61  C   UNL     1      15.167   5.126   6.424  1.00  0.00     0.049 A 
ATOM     62  C   UNL     1      15.060  -0.449   6.833  1.00  0.00     0.074 A 
ATOM     63  C   UNL     1      16.412   5.731   6.441  1.00  0.00     0.029 A 
ATOM     64  N   UNL     1      15.384   3.763   6.550  1.00  0.00    -0.354 N 
ATOM     65  N   UNL     1      15.246   0.848   6.795  1.00  0.00    -0.248 NA
ATOM     66  C   UNL     1      16.304  -1.232   6.851  1.00  0.00     0.031 C 
ATOM     67  C   UNL     1      17.383   4.731   6.553  1.00  0.00     0.029 A 
ATOM     68  C   UNL     1      16.742   3.505   6.636  1.00  0.00     0.049 A 
ATOM     69  H   UNL     1      14.677   3.079   6.575  1.00  0.00     0.167 HD
ATOM     70  C   UNL     1      16.624   1.038   6.821  1.00  0.00     0.074 A 
ATOM     71  C   UNL     1      17.224  -0.278   6.900  1.00  0.00     0.031 C 
ATOM     72  C   UNL     1      17.327   2.196   6.769  1.00  0.00     0.034 A 
BRANCH  59  73
ATOM     73  C   UNL     1      13.818   7.239   6.100  1.00  0.00     0.023 A 
ATOM     74  C   UNL     1      13.381   8.059   7.161  1.00  0.00     0.012 A 
ATOM     75  C   UNL     1      14.252   7.836   4.900  1.00  0.00     0.148 A 
ATOM     76  C   UNL     1      13.340   9.445   7.019  1.00  0.00     0.002 A 
ATOM     77  C   UNL     1      14.253   9.221   4.782  1.00  0.00     0.091 A 
ATOM     78  F   UNL     1      14.648   7.041   3.896  1.00  0.00    -0.205 F 
ATOM     79  C   UNL     1      13.785  10.026   5.835  1.00  0.00     0.022 A 
BRANCH  77  80
ATOM     80  S   UNL     1      14.884  10.072   3.331  1.00  0.00     0.127 S 
ATOM     81  O   UNL     1      13.653  10.593   2.737  1.00  0.00    -0.237 OA
ATOM     82  O   UNL     1      15.752  11.090   3.925  1.00  0.00    -0.237 OA
ATOM     83  O   UNL     1      15.580   9.063   2.546  1.00  0.00    -0.744 OA
ENDBRANCH  77  80
ENDBRANCH  59  73
BRANCH  60  84
ATOM     84  C   UNL     1      13.766  -2.707   6.965  1.00  0.00     0.023 A 
ATOM     85  C   UNL     1      14.253  -3.345   8.122  1.00  0.00     0.012 A 
ATOM     86  C   UNL     1      13.252  -3.491   5.913  1.00  0.00     0.148 A 
ATOM     87  C   UNL     1      14.261  -4.737   8.217  1.00  0.00     0.002 A 
ATOM     88  C   UNL     1      13.206  -4.875   6.039  1.00  0.00     0.091 A 
ATOM     89  F   UNL     1      12.800  -2.867   4.816  1.00  0.00    -0.205 F 
ATOM     90  C   UNL     1      13.729  -5.501   7.182  1.00  0.00     0.022 A 
BRANCH  88  91
ATOM     91  S   UNL     1      12.406  -5.924   4.820  1.00  0.00     0.127 S 
ATOM     92  O   UNL     1      13.546  -6.604   4.214  1.00  0.00    -0.237 OA
ATOM     93  O   UNL     1      11.557  -6.771   5.660  1.00  0.00    -0.237 OA
ATOM     94  O   UNL     1      11.666  -5.024   3.944  1.00  0.00    -0.744 OA
ENDBRANCH  88  91
ENDBRANCH  60  84
BRANCH  72  95
ATOM     95  C   UNL     1      18.830   2.106   6.836  1.00  0.00     0.023 A 
ATOM     96  C   UNL     1      19.555   1.616   5.731  1.00  0.00     0.012 A 
ATOM     97  C   UNL     1      19.527   2.577   7.966  1.00  0.00     0.148 A 
ATOM     98  C   UNL     1      20.948   1.567   5.764  1.00  0.00     0.002 A 
ATOM     99  C   UNL     1      20.917   2.571   7.972  1.00  0.00     0.091 A 
ATOM    100  F   UNL     1      18.820   3.021   9.015  1.00  0.00    -0.205 F 
ATOM    101  C   UNL     1      21.629   2.055   6.877  1.00  0.00     0.022 A 
BRANCH  99 102
ATOM    102  S   UNL     1      21.878   3.267   9.320  1.00  0.00     0.127 S 
ATOM    103  O   UNL     1      22.415   2.065   9.955  1.00  0.00    -0.237 OA
ATOM    104  O   UNL     1      22.869   4.076   8.610  1.00  0.00    -0.237 OA
ATOM    105  O   UNL     1      20.940   4.034  10.128  1.00  0.00    -0.744 OA
ENDBRANCH  99 102
ENDBRANCH  72  95
ENDBRANCH  46  47
ENDBRANCH  38  41
ENDBRANCH  36  37
ENDBRANCH  35  36
ENDBRANCH  34  35
ENDBRANCH   1  34
TORSDOF 20
