REMARK SMILES CC1CC[NH+]([C@H](c2ccc(F)cc2)c2ccc([C@@H](C)C(=O)NCCCCNC(=O)c3ccc(-c4c5nc(c(-c6cccc(S(=O)(=O)[O-])c6F)c6ccc([nH]6)c(-c6cccc(S(=O)(=O)[O-])c6F)c6nc(c(-c7cccc(S(=O)(=O)[O-])c7F)c7ccc4[nH]7)C=C6)C=C5)cc3)cc2-c2ccc(C(F)(F)F)cc2)CC1
REMARK SMILES IDX 24 1 23 2 22 3 20 4 21 5 18 7 19 8 17 9 14 10 15 11 94 12
REMARK SMILES IDX 16 13 93 14 6 15 5 16 1 17 2 18 3 19 106 20 4 21 105 22 7 24
REMARK SMILES IDX 8 25 13 26 9 27 12 28 10 29 11 30 95 31 96 32 104 33 97 34
REMARK SMILES IDX 103 35 98 36 99 37 100 38 101 39 102 40 25 41 26 42 27 43
REMARK SMILES IDX 28 44 29 46 30 47 31 48 92 49 32 50 91 51 33 52 34 53 35 54
REMARK SMILES IDX 85 55 36 56 90 57 84 58 86 59 37 60 89 61 83 62 82 63 38 65
REMARK SMILES IDX 70 66 50 67 69 68 51 69 54 70 68 71 87 72 52 73 53 74 67 76
REMARK SMILES IDX 88 77 55 78 39 79 40 80 48 81 41 82 43 83 49 84 42 85 44 86
REMARK SMILES IDX 45 87 46 88 47 89 71 90 72 91 80 92 73 93 75 94 81 95 74 96
REMARK SMILES IDX 76 97 77 98 78 99 79 100 56 101 57 102 65 103 58 104 60 105
REMARK SMILES IDX 66 106 59 107 61 108 62 109 63 110 64 111
REMARK H PARENT 22 6 5 23 27 45 86 64 54 75
REMARK Flexibility Score: inf
ROOT
ATOM      1  C   UNL     1       1.063   5.193  -3.759  1.00  0.00     0.023 C 
ENDROOT
BRANCH   1   2
ATOM      2  C   UNL     1       2.209   5.956  -4.433  1.00  0.00     0.116 C 
BRANCH   2   3
ATOM      3  N   UNL     1       3.274   6.284  -3.503  1.00  0.00    -0.356 N 
ATOM      4  C   UNL     1       4.446   5.669  -3.181  1.00  0.00     0.227 C 
ATOM      5  O   UNL     1       5.120   6.211  -2.294  1.00  0.00    -0.274 OA
ATOM      6  H   UNL     1       3.118   7.119  -3.005  1.00  0.00     0.163 HD
BRANCH   4   7
ATOM      7  C   UNL     1       4.977   4.383  -3.846  1.00  0.00     0.105 C 
ATOM      8  C   UNL     1       5.229   4.515  -5.346  1.00  0.00     0.023 C 
BRANCH   7   9
ATOM      9  C   UNL     1       4.229   3.133  -3.418  1.00  0.00    -0.035 A 
ATOM     10  C   UNL     1       2.611   1.052  -2.287  1.00  0.00     0.022 A 
ATOM     11  C   UNL     1       2.204   1.821  -3.389  1.00  0.00     0.011 A 
ATOM     12  C   UNL     1       3.960   1.226  -1.868  1.00  0.00    -0.009 A 
ATOM     13  C   UNL     1       3.026   2.768  -3.995  1.00  0.00     0.005 A 
ATOM     14  C   UNL     1       4.706   2.320  -2.382  1.00  0.00     0.013 A 
BRANCH  10  15
ATOM     15  C   UNL     1       1.643   0.026  -1.623  1.00  0.00     0.247 C 
BRANCH  15  16
ATOM     16  N   UNL     1       0.204   0.024  -2.054  1.00  0.00    -0.325 N 
ATOM     17  C   UNL     1      -3.322   1.347  -4.336  1.00  0.00     0.008 C 
ATOM     18  C   UNL     1      -1.939   1.130  -3.728  1.00  0.00    -0.003 C 
ATOM     19  C   UNL     1      -1.399  -0.268  -4.027  1.00  0.00     0.065 C 
ATOM     20  C   UNL     1      -1.979   1.283  -2.214  1.00  0.00     0.065 C 
ATOM     21  C   UNL     1      -0.022  -0.522  -3.395  1.00  0.00     0.263 C 
ATOM     22  C   UNL     1      -0.567   1.200  -1.643  1.00  0.00     0.263 C 
ATOM     23  H   UNL     1      -0.252  -0.686  -1.482  1.00  0.00     0.348 HD
ENDBRANCH  15  16
BRANCH  15  24
ATOM     24  C   UNL     1       1.722   0.001  -0.081  1.00  0.00     0.014 A 
ATOM     25  C   UNL     1       1.629   1.177   0.692  1.00  0.00     0.013 A 
ATOM     26  C   UNL     1       1.891  -1.226   0.588  1.00  0.00     0.013 A 
ATOM     27  C   UNL     1       1.698   1.125   2.086  1.00  0.00     0.040 A 
ATOM     28  C   UNL     1       1.990  -1.272   1.980  1.00  0.00     0.040 A 
ATOM     29  C   UNL     1       1.887  -0.098   2.715  1.00  0.00     0.123 A 
ATOM     30  F   UNL     1       1.975  -0.148   4.051  1.00  0.00    -0.207 F 
ENDBRANCH  15  24
ENDBRANCH  10  15
BRANCH  12  31
ATOM     31  C   UNL     1       4.669   0.284  -0.979  1.00  0.00    -0.018 A 
ATOM     32  C   UNL     1       5.223   0.693   0.243  1.00  0.00     0.009 A 
ATOM     33  C   UNL     1       4.860  -1.050  -1.378  1.00  0.00     0.009 A 
ATOM     34  C   UNL     1       5.920  -0.211   1.054  1.00  0.00     0.014 A 
ATOM     35  C   UNL     1       5.548  -1.957  -0.568  1.00  0.00     0.014 A 
ATOM     36  C   UNL     1       6.080  -1.548   0.662  1.00  0.00     0.056 A 
BRANCH  36  37
ATOM     37  C   UNL     1       6.838  -2.514   1.536  1.00  0.00     0.416 C 
ATOM     38  F   UNL     1       8.181  -2.285   1.524  1.00  0.00    -0.166 F 
ATOM     39  F   UNL     1       6.461  -2.458   2.844  1.00  0.00    -0.166 F 
ATOM     40  F   UNL     1       6.684  -3.817   1.165  1.00  0.00    -0.166 F 
ENDBRANCH  36  37
ENDBRANCH  12  31
ENDBRANCH   7   9
ENDBRANCH   4   7
ENDBRANCH   2   3
ENDBRANCH   1   2
BRANCH   1  41
ATOM     41  C   UNL     1      -0.101   6.040  -3.259  1.00  0.00     0.023 C 
BRANCH  41  42
ATOM     42  C   UNL     1      -0.858   6.806  -4.336  1.00  0.00     0.116 C 
BRANCH  42  43
ATOM     43  N   UNL     1      -1.402   5.970  -5.397  1.00  0.00    -0.352 N 
ATOM     44  C   UNL     1      -2.533   6.187  -6.157  1.00  0.00     0.251 C 
ATOM     45  H   UNL     1      -0.900   5.147  -5.598  1.00  0.00     0.163 HD
ATOM     46  O   UNL     1      -2.900   5.353  -6.971  1.00  0.00    -0.269 OA
BRANCH  44  47
ATOM     47  C   UNL     1      -3.320   7.422  -5.933  1.00  0.00     0.039 A 
ATOM     48  C   UNL     1      -4.698   7.314  -5.733  1.00  0.00     0.014 A 
ATOM     49  C   UNL     1      -2.689   8.665  -5.845  1.00  0.00     0.014 A 
ATOM     50  C   UNL     1      -5.428   8.444  -5.358  1.00  0.00     0.010 A 
ATOM     51  C   UNL     1      -3.401   9.768  -5.386  1.00  0.00     0.010 A 
ATOM     52  C   UNL     1      -4.776   9.669  -5.135  1.00  0.00    -0.014 A 
BRANCH  52  53
ATOM     53  C   UNL     1      -5.508  10.845  -4.602  1.00  0.00     0.031 A 
ATOM     54  C   UNL     1      -5.611  12.109  -5.407  1.00  0.00     0.074 A 
ATOM     55  C   UNL     1      -6.005  10.802  -3.349  1.00  0.00     0.049 A 
ATOM     56  N   UNL     1      -6.195  13.237  -5.095  1.00  0.00    -0.248 NA
ATOM     57  C   UNL     1      -4.947  12.122  -6.721  1.00  0.00     0.031 C 
ATOM     58  C   UNL     1      -5.882   9.668  -2.432  1.00  0.00     0.029 A 
ATOM     59  N   UNL     1      -6.699  11.740  -2.626  1.00  0.00    -0.354 N 
ATOM     60  C   UNL     1      -5.947  14.098  -6.156  1.00  0.00     0.074 A 
ATOM     61  C   UNL     1      -5.119  13.381  -7.099  1.00  0.00     0.031 C 
ATOM     62  C   UNL     1      -6.502   9.964  -1.280  1.00  0.00     0.029 A 
ATOM     63  C   UNL     1      -7.046  11.316  -1.364  1.00  0.00     0.049 A 
ATOM     64  H   UNL     1      -6.926  12.631  -2.976  1.00  0.00     0.167 HD
ATOM     65  C   UNL     1      -6.401  15.359  -6.348  1.00  0.00     0.034 A 
ATOM     66  C   UNL     1      -7.738  11.939  -0.388  1.00  0.00     0.034 A 
ATOM     67  C   UNL     1      -7.266  16.047  -5.429  1.00  0.00     0.049 A 
ATOM     68  C   UNL     1      -8.285  13.316  -0.644  1.00  0.00     0.074 A 
ATOM     69  C   UNL     1      -7.855  17.290  -5.574  1.00  0.00     0.029 A 
ATOM     70  N   UNL     1      -7.666  15.554  -4.197  1.00  0.00    -0.354 N 
ATOM     71  N   UNL     1      -8.173  14.056  -1.720  1.00  0.00    -0.248 NA
ATOM     72  C   UNL     1      -9.083  13.930   0.427  1.00  0.00     0.031 C 
ATOM     73  C   UNL     1      -8.601  17.555  -4.421  1.00  0.00     0.029 A 
ATOM     74  C   UNL     1      -8.492  16.468  -3.568  1.00  0.00     0.049 A 
ATOM     75  H   UNL     1      -7.401  14.682  -3.825  1.00  0.00     0.167 HD
ATOM     76  C   UNL     1      -8.911  15.207  -1.472  1.00  0.00     0.074 A 
ATOM     77  C   UNL     1      -9.475  15.062  -0.145  1.00  0.00     0.031 C 
ATOM     78  C   UNL     1      -9.092  16.289  -2.269  1.00  0.00     0.034 A 
BRANCH  65  79
ATOM     79  C   UNL     1      -6.035  16.045  -7.638  1.00  0.00     0.023 A 
ATOM     80  C   UNL     1      -6.619  15.601  -8.843  1.00  0.00     0.012 A 
ATOM     81  C   UNL     1      -5.171  17.155  -7.658  1.00  0.00     0.148 A 
ATOM     82  C   UNL     1      -6.320  16.227 -10.051  1.00  0.00     0.002 A 
ATOM     83  C   UNL     1      -4.913  17.804  -8.861  1.00  0.00     0.091 A 
ATOM     84  F   UNL     1      -4.605  17.549  -6.508  1.00  0.00    -0.205 F 
ATOM     85  C   UNL     1      -5.478  17.335 -10.059  1.00  0.00     0.022 A 
BRANCH  83  86
ATOM     86  S   UNL     1      -3.907  19.289  -8.958  1.00  0.00     0.127 S 
ATOM     87  O   UNL     1      -2.661  18.765  -9.515  1.00  0.00    -0.237 OA
ATOM     88  O   UNL     1      -4.678  20.129  -9.875  1.00  0.00    -0.237 OA
ATOM     89  O   UNL     1      -3.823  19.801  -7.597  1.00  0.00    -0.744 OA
ENDBRANCH  83  86
ENDBRANCH  65  79
BRANCH  66  90
ATOM     90  C   UNL     1      -8.042  11.197   0.868  1.00  0.00     0.023 A 
ATOM     91  C   UNL     1      -9.347  10.712   1.075  1.00  0.00     0.012 A 
ATOM     92  C   UNL     1      -7.031  10.873   1.795  1.00  0.00     0.148 A 
ATOM     93  C   UNL     1      -9.644   9.921   2.186  1.00  0.00     0.002 A 
ATOM     94  C   UNL     1      -7.322  10.041   2.870  1.00  0.00     0.091 A 
ATOM     95  F   UNL     1      -5.797  11.348   1.577  1.00  0.00    -0.205 F 
ATOM     96  C   UNL     1      -8.630   9.575   3.074  1.00  0.00     0.022 A 
BRANCH  94  97
ATOM     97  S   UNL     1      -6.057   9.420   3.985  1.00  0.00     0.127 S 
ATOM     98  O   UNL     1      -6.466  10.008   5.258  1.00  0.00    -0.237 OA
ATOM     99  O   UNL     1      -6.254   7.974   3.881  1.00  0.00    -0.237 OA
ATOM    100  O   UNL     1      -4.789   9.897   3.452  1.00  0.00    -0.744 OA
ENDBRANCH  94  97
ENDBRANCH  66  90
BRANCH  78 101
ATOM    101  C   UNL     1      -9.953  17.414  -1.759  1.00  0.00     0.023 A 
ATOM    102  C   UNL     1      -9.437  18.299  -0.793  1.00  0.00     0.012 A 
ATOM    103  C   UNL     1     -11.208  17.677  -2.342  1.00  0.00     0.148 A 
ATOM    104  C   UNL     1     -10.163  19.426  -0.408  1.00  0.00     0.002 A 
ATOM    105  C   UNL     1     -11.905  18.825  -1.987  1.00  0.00     0.091 A 
ATOM    106  F   UNL     1     -11.685  16.811  -3.248  1.00  0.00    -0.205 F 
ATOM    107  C   UNL     1     -11.387  19.697  -1.016  1.00  0.00     0.022 A 
BRANCH 105 108
ATOM    108  S   UNL     1     -13.438  19.312  -2.790  1.00  0.00     0.127 S 
ATOM    109  O   UNL     1     -14.412  19.105  -1.720  1.00  0.00    -0.237 OA
ATOM    110  O   UNL     1     -13.182  20.714  -3.121  1.00  0.00    -0.237 OA
ATOM    111  O   UNL     1     -13.585  18.434  -3.943  1.00  0.00    -0.744 OA
ENDBRANCH 105 108
ENDBRANCH  78 101
ENDBRANCH  52  53
ENDBRANCH  44  47
ENDBRANCH  42  43
ENDBRANCH  41  42
ENDBRANCH   1  41
TORSDOF 20
