REMARK SMILES [NH3+][C@H](CS[C@@H]1CC(=O)N(c2ccc3ccccc3c2)C1=O)C(=O)NCCCCNC(=O)c1ccc(-c2c3nc(c(-c4cccc(S(=O)(=O)[O-])c4F)c4ccc([nH]4)c(-c4cccc(S(=O)(=O)[O-])c4F)c4nc(c(-c5cccc(S(=O)(=O)[O-])c5F)c5ccc2[nH]5)C=C4)C=C3)cc1
REMARK SMILES IDX 26 1 25 2 24 3 22 4 23 5 2 7 1 8 3 12 4 13 5 14 6 15 20 16
REMARK SMILES IDX 7 17 9 18 21 19 8 20 10 21 11 22 19 23 12 24 18 25 13 26
REMARK SMILES IDX 17 27 14 28 16 29 15 30 27 31 28 32 29 33 30 34 31 36 32 37
REMARK SMILES IDX 33 38 94 39 34 40 93 41 35 42 36 43 37 44 87 45 38 46 92 47
REMARK SMILES IDX 86 48 88 49 39 50 91 51 85 52 84 53 40 55 72 56 52 57 71 58
REMARK SMILES IDX 53 59 56 60 70 61 89 62 54 63 55 64 69 66 90 67 57 68 41 69
REMARK SMILES IDX 42 70 50 71 43 72 45 73 51 74 44 75 46 76 47 77 48 78 49 79
REMARK SMILES IDX 73 80 74 81 82 82 75 83 77 84 83 85 76 86 78 87 79 88 80 89
REMARK SMILES IDX 81 90 58 91 59 92 67 93 60 94 62 95 68 96 61 97 63 98 64 99
REMARK SMILES IDX 65 100 66 101
REMARK H PARENT 24 6 1 9 1 10 1 11 29 35 88 54 56 65
REMARK Flexibility Score: inf
ROOT
ATOM      1  C   UNL     1      -1.500  -2.271  -1.472  1.00  0.00     0.023 C 
ENDROOT
BRANCH   1   2
ATOM      2  C   UNL     1      -1.164  -0.877  -1.981  1.00  0.00     0.116 C 
BRANCH   2   3
ATOM      3  N   UNL     1      -1.761   0.153  -1.153  1.00  0.00    -0.351 N 
ATOM      4  C   UNL     1      -1.209   1.232  -0.531  1.00  0.00     0.279 C 
ATOM      5  O   UNL     1      -1.945   1.950   0.149  1.00  0.00    -0.268 OA
ATOM      6  H   UNL     1      -2.731   0.055  -1.016  1.00  0.00     0.163 HD
BRANCH   4   7
ATOM      7  C   UNL     1       0.282   1.568  -0.702  1.00  0.00     0.280 C 
BRANCH   7   8
ATOM      8  N   UNL     1       0.570   1.806  -2.140  1.00  0.00    -0.347 N 
ATOM      9  H   UNL     1      -0.062   2.521  -2.500  1.00  0.00     0.345 HD
ATOM     10  H   UNL     1       0.436   0.939  -2.662  1.00  0.00     0.345 HD
ATOM     11  H   UNL     1       1.535   2.120  -2.246  1.00  0.00     0.345 HD
ENDBRANCH   7   8
BRANCH   7  12
ATOM     12  C   UNL     1       1.149   0.510   0.010  1.00  0.00     0.145 C 
BRANCH  12  13
ATOM     13  S   UNL     1       2.855   1.013   0.427  1.00  0.00    -0.141 SA
BRANCH  13  14
ATOM     14  C   UNL     1       3.515   1.401  -1.223  1.00  0.00     0.146 C 
ATOM     15  C   UNL     1       4.021   0.200  -1.988  1.00  0.00     0.125 C 
ATOM     16  C   UNL     1       4.700   2.313  -1.108  1.00  0.00     0.247 C 
ATOM     17  C   UNL     1       5.319   0.678  -2.573  1.00  0.00     0.235 C 
ATOM     18  N   UNL     1       5.687   1.848  -1.952  1.00  0.00    -0.250 N 
ATOM     19  O   UNL     1       4.678   3.359  -0.469  1.00  0.00    -0.273 OA
ATOM     20  O   UNL     1       5.930   0.032  -3.417  1.00  0.00    -0.274 OA
BRANCH  18  21
ATOM     21  C   UNL     1       6.881   2.575  -2.198  1.00  0.00     0.052 A 
ATOM     22  C   UNL     1       7.546   2.514  -3.426  1.00  0.00     0.027 A 
ATOM     23  C   UNL     1       7.393   3.430  -1.210  1.00  0.00     0.035 A 
ATOM     24  C   UNL     1       8.647   3.342  -3.681  1.00  0.00     0.011 A 
ATOM     25  C   UNL     1       8.496   4.256  -1.443  1.00  0.00    -0.016 A 
ATOM     26  C   UNL     1       9.125   4.229  -2.703  1.00  0.00    -0.018 A 
ATOM     27  C   UNL     1       8.963   5.120  -0.442  1.00  0.00     0.009 A 
ATOM     28  C   UNL     1      10.205   5.095  -2.937  1.00  0.00     0.009 A 
ATOM     29  C   UNL     1      10.039   5.968  -0.688  1.00  0.00     0.001 A 
ATOM     30  C   UNL     1      10.656   5.959  -1.936  1.00  0.00     0.001 A 
ENDBRANCH  18  21
ENDBRANCH  13  14
ENDBRANCH  12  13
ENDBRANCH   7  12
ENDBRANCH   4   7
ENDBRANCH   2   3
ENDBRANCH   1   2
BRANCH   1  31
ATOM     31  C   UNL     1      -2.977  -2.637  -1.597  1.00  0.00     0.023 C 
BRANCH  31  32
ATOM     32  C   UNL     1      -3.558  -2.468  -2.995  1.00  0.00     0.116 C 
BRANCH  32  33
ATOM     33  N   UNL     1      -2.845  -3.249  -3.998  1.00  0.00    -0.352 N 
ATOM     34  C   UNL     1      -3.367  -4.084  -4.956  1.00  0.00     0.251 C 
ATOM     35  H   UNL     1      -1.864  -3.169  -3.987  1.00  0.00     0.163 HD
ATOM     36  O   UNL     1      -2.627  -4.793  -5.630  1.00  0.00    -0.269 OA
BRANCH  34  37
ATOM     37  C   UNL     1      -4.831  -4.134  -5.138  1.00  0.00     0.039 A 
ATOM     38  C   UNL     1      -5.473  -5.373  -5.134  1.00  0.00     0.014 A 
ATOM     39  C   UNL     1      -5.567  -2.950  -5.245  1.00  0.00     0.014 A 
ATOM     40  C   UNL     1      -6.867  -5.421  -5.173  1.00  0.00     0.010 A 
ATOM     41  C   UNL     1      -6.955  -3.000  -5.200  1.00  0.00     0.010 A 
ATOM     42  C   UNL     1      -7.620  -4.235  -5.169  1.00  0.00    -0.014 A 
BRANCH  42  43
ATOM     43  C   UNL     1      -9.104  -4.263  -5.120  1.00  0.00     0.031 A 
ATOM     44  C   UNL     1      -9.907  -3.673  -6.248  1.00  0.00     0.074 A 
ATOM     45  C   UNL     1      -9.727  -4.737  -4.023  1.00  0.00     0.049 A 
ATOM     46  N   UNL     1     -11.203  -3.549  -6.359  1.00  0.00    -0.248 NA
ATOM     47  C   UNL     1      -9.153  -3.124  -7.389  1.00  0.00     0.031 C 
ATOM     48  C   UNL     1      -9.058  -5.255  -2.827  1.00  0.00     0.029 A 
ATOM     49  N   UNL     1     -11.062  -4.833  -3.723  1.00  0.00    -0.354 N 
ATOM     50  C   UNL     1     -11.420  -2.882  -7.558  1.00  0.00     0.074 A 
ATOM     51  C   UNL     1     -10.120  -2.590  -8.120  1.00  0.00     0.031 C 
ATOM     52  C   UNL     1      -9.986  -5.616  -1.926  1.00  0.00     0.029 A 
ATOM     53  C   UNL     1     -11.311  -5.328  -2.464  1.00  0.00     0.049 A 
ATOM     54  H   UNL     1     -11.775  -4.572  -4.349  1.00  0.00     0.167 HD
ATOM     55  C   UNL     1     -12.594  -2.570  -8.156  1.00  0.00     0.034 A 
ATOM     56  C   UNL     1     -12.475  -5.519  -1.812  1.00  0.00     0.034 A 
ATOM     57  C   UNL     1     -13.884  -2.897  -7.614  1.00  0.00     0.049 A 
ATOM     58  C   UNL     1     -13.767  -5.199  -2.514  1.00  0.00     0.074 A 
ATOM     59  C   UNL     1     -15.130  -2.699  -8.181  1.00  0.00     0.029 A 
ATOM     60  N   UNL     1     -14.097  -3.483  -6.376  1.00  0.00    -0.354 N 
ATOM     61  N   UNL     1     -13.953  -4.715  -3.718  1.00  0.00    -0.248 NA
ATOM     62  C   UNL     1     -15.010  -5.488  -1.785  1.00  0.00     0.031 C 
ATOM     63  C   UNL     1     -16.098  -3.144  -7.275  1.00  0.00     0.029 A 
ATOM     64  C   UNL     1     -15.453  -3.648  -6.157  1.00  0.00     0.049 A 
ATOM     65  H   UNL     1     -13.387  -3.744  -5.745  1.00  0.00     0.167 HD
ATOM     66  C   UNL     1     -15.330  -4.674  -3.905  1.00  0.00     0.074 A 
ATOM     67  C   UNL     1     -15.930  -5.205  -2.697  1.00  0.00     0.031 C 
ATOM     68  C   UNL     1     -16.035  -4.226  -4.972  1.00  0.00     0.034 A 
BRANCH  55  69
ATOM     69  C   UNL     1     -12.534  -1.885  -9.497  1.00  0.00     0.023 A 
ATOM     70  C   UNL     1     -12.095  -2.607 -10.627  1.00  0.00     0.012 A 
ATOM     71  C   UNL     1     -12.963  -0.553  -9.653  1.00  0.00     0.148 A 
ATOM     72  C   UNL     1     -12.047  -2.003 -11.882  1.00  0.00     0.002 A 
ATOM     73  C   UNL     1     -12.957   0.027 -10.916  1.00  0.00     0.091 A 
ATOM     74  F   UNL     1     -13.357   0.124  -8.565  1.00  0.00    -0.205 F 
ATOM     75  C   UNL     1     -12.488  -0.692 -12.029  1.00  0.00     0.022 A 
BRANCH  73  76
ATOM     76  S   UNL     1     -13.579   1.683 -11.226  1.00  0.00     0.127 S 
ATOM     77  O   UNL     1     -12.346   2.409 -11.529  1.00  0.00    -0.237 OA
ATOM     78  O   UNL     1     -14.460   1.471 -12.375  1.00  0.00    -0.237 OA
ATOM     79  O   UNL     1     -14.259   2.092 -10.005  1.00  0.00    -0.744 OA
ENDBRANCH  73  76
ENDBRANCH  55  69
BRANCH  56  80
ATOM     80  C   UNL     1     -12.473  -6.094  -0.436  1.00  0.00     0.023 A 
ATOM     81  C   UNL     1     -12.961  -7.399  -0.229  1.00  0.00     0.012 A 
ATOM     82  C   UNL     1     -11.970  -5.367   0.660  1.00  0.00     0.148 A 
ATOM     83  C   UNL     1     -12.980  -7.957   1.050  1.00  0.00     0.002 A 
ATOM     84  C   UNL     1     -11.939  -5.950   1.921  1.00  0.00     0.091 A 
ATOM     85  F   UNL     1     -11.521  -4.123   0.444  1.00  0.00    -0.205 F 
ATOM     86  C   UNL     1     -12.461  -7.237   2.122  1.00  0.00     0.022 A 
BRANCH  84  87
ATOM     87  S   UNL     1     -11.165  -5.150   3.331  1.00  0.00     0.127 S 
ATOM     88  O   UNL     1     -12.322  -4.812   4.155  1.00  0.00    -0.237 OA
ATOM     89  O   UNL     1     -10.323  -6.223   3.861  1.00  0.00    -0.237 OA
ATOM     90  O   UNL     1     -10.424  -4.022   2.784  1.00  0.00    -0.744 OA
ENDBRANCH  84  87
ENDBRANCH  56  80
BRANCH  68  91
ATOM     91  C   UNL     1     -17.537  -4.323  -4.910  1.00  0.00     0.023 A 
ATOM     92  C   UNL     1     -18.263  -3.459  -4.066  1.00  0.00     0.012 A 
ATOM     93  C   UNL     1     -18.232  -5.219  -5.747  1.00  0.00     0.148 A 
ATOM     94  C   UNL     1     -19.656  -3.510  -4.031  1.00  0.00     0.002 A 
ATOM     95  C   UNL     1     -19.621  -5.228  -5.744  1.00  0.00     0.091 A 
ATOM     96  F   UNL     1     -17.521  -6.045  -6.529  1.00  0.00    -0.205 F 
ATOM     97  C   UNL     1     -20.334  -4.384  -4.878  1.00  0.00     0.022 A 
BRANCH  95  98
ATOM     98  S   UNL     1     -20.579  -6.249  -6.869  1.00  0.00     0.127 S 
ATOM     99  O   UNL     1     -21.126  -7.258  -5.963  1.00  0.00    -0.237 OA
ATOM    100  O   UNL     1     -21.563  -5.298  -7.388  1.00  0.00    -0.237 OA
ATOM    101  O   UNL     1     -19.637  -6.747  -7.862  1.00  0.00    -0.744 OA
ENDBRANCH  95  98
ENDBRANCH  68  91
ENDBRANCH  42  43
ENDBRANCH  34  37
ENDBRANCH  32  33
ENDBRANCH  31  32
ENDBRANCH   1  31
TORSDOF 19
