REMARK SMILES Cc1ccc(N2C(=O)C[C@H](Sc3ccccc3C(=O)NCCCCNC(=O)c3ccc(-c4c5nc(c(-c6cccc(S(=O)(=O)[O-])c6F)c6ccc([nH]6)c(-c6cccc(S(=O)(=O)[O-])c6F)c6nc(c(-c7cccc(S(=O)(=O)[O-])c7F)c7ccc4[nH]7)C=C6)C=C5)cc3)C2=O)cc1
REMARK SMILES IDX 22 1 21 2 20 3 18 4 19 5 17 7 12 8 13 9 14 10 16 11 15 12
REMARK SMILES IDX 11 13 10 14 6 15 7 16 91 17 8 18 9 19 92 20 5 21 1 22 2 23
REMARK SMILES IDX 3 24 94 25 4 26 93 27 23 28 24 29 25 30 26 31 27 33 28 34
REMARK SMILES IDX 29 35 90 36 30 37 89 38 31 39 32 40 33 41 83 42 34 43 88 44
REMARK SMILES IDX 82 45 84 46 35 47 87 48 81 49 80 50 36 52 68 53 48 54 67 55
REMARK SMILES IDX 49 56 52 57 66 58 85 59 50 60 51 61 65 63 86 64 53 65 37 66
REMARK SMILES IDX 38 67 46 68 39 69 41 70 47 71 40 72 42 73 43 74 44 75 45 76
REMARK SMILES IDX 69 77 70 78 78 79 71 80 73 81 79 82 72 83 74 84 75 85 76 86
REMARK SMILES IDX 77 87 54 88 55 89 63 90 56 91 58 92 64 93 57 94 59 95 60 96
REMARK SMILES IDX 61 97 62 98
REMARK H PARENT 20 6 25 32 84 51 52 62
REMARK Flexibility Score: inf
ROOT
ATOM      1  C   UNL     1      -3.873   4.861  -1.602  1.00  0.00     0.023 C 
ENDROOT
BRANCH   1   2
ATOM      2  C   UNL     1      -5.169   5.155  -0.846  1.00  0.00     0.116 C 
BRANCH   2   3
ATOM      3  N   UNL     1      -6.163   4.086  -0.846  1.00  0.00    -0.352 N 
ATOM      4  C   UNL     1      -6.659   3.248   0.131  1.00  0.00     0.252 C 
ATOM      5  O   UNL     1      -7.636   2.556  -0.144  1.00  0.00    -0.269 OA
ATOM      6  H   UNL     1      -6.565   3.930  -1.731  1.00  0.00     0.163 HD
BRANCH   4   7
ATOM      7  C   UNL     1      -6.011   3.115   1.463  1.00  0.00     0.053 A 
ATOM      8  C   UNL     1      -5.773   1.861   2.076  1.00  0.00     0.021 A 
ATOM      9  C   UNL     1      -5.107   1.837   3.318  1.00  0.00     0.016 A 
ATOM     10  C   UNL     1      -4.721   3.016   3.959  1.00  0.00     0.001 A 
ATOM     11  C   UNL     1      -5.714   4.288   2.176  1.00  0.00     0.015 A 
ATOM     12  C   UNL     1      -5.049   4.243   3.401  1.00  0.00     0.001 A 
BRANCH   8  13
ATOM     13  S   UNL     1      -6.543   0.296   1.624  1.00  0.00    -0.111 SA
BRANCH  13  14
ATOM     14  C   UNL     1      -5.441  -0.487   0.407  1.00  0.00     0.151 C 
ATOM     15  N   UNL     1      -3.208   0.062   0.029  1.00  0.00    -0.250 N 
ATOM     16  C   UNL     1      -3.915   0.687  -0.972  1.00  0.00     0.235 C 
ATOM     17  C   UNL     1      -4.022  -0.651   0.879  1.00  0.00     0.247 C 
ATOM     18  O   UNL     1      -3.488   1.409  -1.862  1.00  0.00    -0.274 OA
ATOM     19  C   UNL     1      -5.330   0.204  -0.931  1.00  0.00     0.126 C 
ATOM     20  O   UNL     1      -3.693  -1.301   1.864  1.00  0.00    -0.273 OA
BRANCH  15  21
ATOM     21  C   UNL     1      -1.794   0.072   0.098  1.00  0.00     0.052 A 
ATOM     22  C   UNL     1       2.525   0.002   0.011  1.00  0.00     0.044 C 
ATOM     23  C   UNL     1       1.027   0.039   0.074  1.00  0.00    -0.051 A 
ATOM     24  C   UNL     1       0.306  -1.127   0.349  1.00  0.00     0.005 A 
ATOM     25  C   UNL     1       0.329   1.221  -0.190  1.00  0.00     0.005 A 
ATOM     26  C   UNL     1      -1.091  -1.104   0.388  1.00  0.00     0.027 A 
ATOM     27  C   UNL     1      -1.069   1.232  -0.196  1.00  0.00     0.027 A 
ENDBRANCH  15  21
ENDBRANCH  13  14
ENDBRANCH   8  13
ENDBRANCH   4   7
ENDBRANCH   2   3
ENDBRANCH   1   2
BRANCH   1  28
ATOM     28  C   UNL     1      -3.999   4.492  -3.076  1.00  0.00     0.023 C 
BRANCH  28  29
ATOM     29  C   UNL     1      -4.794   5.458  -3.941  1.00  0.00     0.116 C 
BRANCH  29  30
ATOM     30  N   UNL     1      -4.088   6.660  -4.345  1.00  0.00    -0.352 N 
ATOM     31  C   UNL     1      -4.507   7.692  -5.170  1.00  0.00     0.251 C 
ATOM     32  H   UNL     1      -3.179   6.756  -3.979  1.00  0.00     0.163 HD
ATOM     33  O   UNL     1      -3.663   8.507  -5.543  1.00  0.00    -0.269 OA
BRANCH  31  34
ATOM     34  C   UNL     1      -5.950   7.899  -5.480  1.00  0.00     0.039 A 
ATOM     35  C   UNL     1      -6.423   9.219  -5.558  1.00  0.00     0.014 A 
ATOM     36  C   UNL     1      -6.866   6.853  -5.467  1.00  0.00     0.014 A 
ATOM     37  C   UNL     1      -7.769   9.492  -5.311  1.00  0.00     0.010 A 
ATOM     38  C   UNL     1      -8.175   7.114  -5.140  1.00  0.00     0.010 A 
ATOM     39  C   UNL     1      -8.595   8.433  -4.965  1.00  0.00    -0.014 A 
BRANCH  39  40
ATOM     40  C   UNL     1      -9.878   8.549  -4.296  1.00  0.00     0.031 A 
ATOM     41  C   UNL     1     -11.127   8.506  -5.069  1.00  0.00     0.074 A 
ATOM     42  C   UNL     1      -9.867   8.355  -2.958  1.00  0.00     0.049 A 
ATOM     43  N   UNL     1     -12.294   8.710  -4.567  1.00  0.00    -0.248 NA
ATOM     44  C   UNL     1     -11.146   8.255  -6.505  1.00  0.00     0.031 C 
ATOM     45  C   UNL     1     -10.960   7.904  -2.109  1.00  0.00     0.029 A 
ATOM     46  N   UNL     1      -8.859   8.706  -2.050  1.00  0.00    -0.354 N 
ATOM     47  C   UNL     1     -13.215   8.293  -5.505  1.00  0.00     0.074 A 
ATOM     48  C   UNL     1     -12.461   8.182  -6.729  1.00  0.00     0.031 C 
ATOM     49  C   UNL     1     -10.692   8.254  -0.840  1.00  0.00     0.029 A 
ATOM     50  C   UNL     1      -9.531   9.126  -0.889  1.00  0.00     0.049 A 
ATOM     51  H   UNL     1      -7.886   8.668  -2.196  1.00  0.00     0.167 HD
ATOM     52  C   UNL     1     -14.457   7.929  -5.076  1.00  0.00     0.034 A 
ATOM     53  C   UNL     1      -9.499  10.418  -0.440  1.00  0.00     0.034 A 
ATOM     54  C   UNL     1     -14.645   8.319  -3.665  1.00  0.00     0.049 A 
ATOM     55  C   UNL     1     -10.881  11.054  -0.365  1.00  0.00     0.074 A 
ATOM     56  C   UNL     1     -14.634   7.615  -2.473  1.00  0.00     0.029 A 
ATOM     57  N   UNL     1     -14.594   9.668  -3.320  1.00  0.00    -0.354 N 
ATOM     58  N   UNL     1     -11.969  10.509  -0.837  1.00  0.00    -0.248 NA
ATOM     59  C   UNL     1     -11.142  12.362   0.231  1.00  0.00     0.031 C 
ATOM     60  C   UNL     1     -14.442   8.550  -1.415  1.00  0.00     0.029 A 
ATOM     61  C   UNL     1     -14.386   9.824  -1.957  1.00  0.00     0.049 A 
ATOM     62  H   UNL     1     -14.691  10.411  -3.958  1.00  0.00     0.167 HD
ATOM     63  C   UNL     1     -13.012  11.393  -0.761  1.00  0.00     0.074 A 
ATOM     64  C   UNL     1     -12.460  12.503   0.001  1.00  0.00     0.031 C 
ATOM     65  C   UNL     1     -14.209  11.162  -1.389  1.00  0.00     0.034 A 
BRANCH  52  66
ATOM     66  C   UNL     1     -15.435   7.012  -5.811  1.00  0.00     0.023 A 
ATOM     67  C   UNL     1     -16.593   6.610  -5.103  1.00  0.00     0.012 A 
ATOM     68  C   UNL     1     -15.277   6.425  -7.093  1.00  0.00     0.148 A 
ATOM     69  C   UNL     1     -17.500   5.663  -5.603  1.00  0.00     0.002 A 
ATOM     70  C   UNL     1     -16.193   5.498  -7.606  1.00  0.00     0.091 A 
ATOM     71  F   UNL     1     -14.218   6.715  -7.842  1.00  0.00    -0.205 F 
ATOM     72  C   UNL     1     -17.300   5.104  -6.856  1.00  0.00     0.022 A 
BRANCH  70  73
ATOM     73  S   UNL     1     -16.001   4.739  -9.234  1.00  0.00     0.127 S 
ATOM     74  O   UNL     1     -15.861   3.322  -8.896  1.00  0.00    -0.237 OA
ATOM     75  O   UNL     1     -17.260   5.086  -9.891  1.00  0.00    -0.237 OA
ATOM     76  O   UNL     1     -14.816   5.338  -9.837  1.00  0.00    -0.744 OA
ENDBRANCH  70  73
ENDBRANCH  52  66
BRANCH  53  77
ATOM     77  C   UNL     1      -8.230  11.132  -0.784  1.00  0.00     0.023 A 
ATOM     78  C   UNL     1      -7.034  10.595  -0.246  1.00  0.00     0.012 A 
ATOM     79  C   UNL     1      -8.144  11.988  -1.897  1.00  0.00     0.148 A 
ATOM     80  C   UNL     1      -5.813  10.763  -0.901  1.00  0.00     0.002 A 
ATOM     81  C   UNL     1      -6.916  12.162  -2.538  1.00  0.00     0.091 A 
ATOM     82  F   UNL     1      -9.265  12.553  -2.361  1.00  0.00    -0.205 F 
ATOM     83  C   UNL     1      -5.762  11.512  -2.071  1.00  0.00     0.022 A 
BRANCH  81  84
ATOM     84  S   UNL     1      -6.779  13.121  -4.054  1.00  0.00     0.127 S 
ATOM     85  O   UNL     1      -6.435  14.441  -3.535  1.00  0.00    -0.237 OA
ATOM     86  O   UNL     1      -5.699  12.441  -4.768  1.00  0.00    -0.237 OA
ATOM     87  O   UNL     1      -8.083  12.993  -4.689  1.00  0.00    -0.744 OA
ENDBRANCH  81  84
ENDBRANCH  53  77
BRANCH  65  88
ATOM     88  C   UNL     1     -15.321  12.187  -1.562  1.00  0.00     0.023 A 
ATOM     89  C   UNL     1     -15.093  13.574  -1.475  1.00  0.00     0.012 A 
ATOM     90  C   UNL     1     -16.621  11.787  -1.971  1.00  0.00     0.148 A 
ATOM     91  C   UNL     1     -16.106  14.512  -1.711  1.00  0.00     0.002 A 
ATOM     92  C   UNL     1     -17.590  12.726  -2.322  1.00  0.00     0.091 A 
ATOM     93  F   UNL     1     -16.941  10.485  -2.007  1.00  0.00    -0.205 F 
ATOM     94  C   UNL     1     -17.348  14.090  -2.158  1.00  0.00     0.022 A 
BRANCH  92  95
ATOM     95  S   UNL     1     -19.105  12.223  -3.152  1.00  0.00     0.127 S 
ATOM     96  O   UNL     1     -20.027  12.056  -2.032  1.00  0.00    -0.237 OA
ATOM     97  O   UNL     1     -19.393  13.375  -4.010  1.00  0.00    -0.237 OA
ATOM     98  O   UNL     1     -18.748  11.015  -3.884  1.00  0.00    -0.744 OA
ENDBRANCH  92  95
ENDBRANCH  65  88
ENDBRANCH  39  40
ENDBRANCH  31  34
ENDBRANCH  29  30
ENDBRANCH  28  29
ENDBRANCH   1  28
TORSDOF 17
