REMARK SMILES NC(=O)CC[C@H](NC(=O)CC1CC1)C(=O)NCCCCNC(=O)c1ccc(-c2c3nc(c(-c4cccc(S(=O)(=O)[O-])c4F)c4ccc([nH]4)c(-c4cccc(S(=O)(=O)[O-])c4F)c4nc(c(-c5cccc(S(=O)(=O)[O-])c5F)c5ccc2[nH]5)C=C4)C=C3)cc1
REMARK SMILES IDX 18 1 17 2 16 3 14 4 15 5 6 7 5 8 4 9 2 10 1 11 3 14 7 15
REMARK SMILES IDX 8 16 9 18 10 19 11 20 12 21 13 22 19 23 20 24 21 25 22 26
REMARK SMILES IDX 23 28 24 29 25 30 86 31 26 32 85 33 27 34 28 35 29 36 79 37
REMARK SMILES IDX 30 38 84 39 78 40 80 41 31 42 83 43 77 44 76 45 32 47 64 48
REMARK SMILES IDX 44 49 63 50 45 51 48 52 62 53 81 54 46 55 47 56 61 58 82 59
REMARK SMILES IDX 49 60 33 61 34 62 42 63 35 64 37 65 43 66 36 67 38 68 39 69
REMARK SMILES IDX 40 70 41 71 65 72 66 73 74 74 67 75 69 76 75 77 68 78 70 79
REMARK SMILES IDX 71 80 72 81 73 82 50 83 51 84 59 85 52 86 54 87 60 88 53 89
REMARK SMILES IDX 55 90 56 91 57 92 58 93
REMARK H PARENT 16 6 1 12 1 13 7 17 21 27 80 46 48 57
REMARK Flexibility Score: inf
ROOT
ATOM      1  C   UNL     1       3.768  -0.048   6.646  1.00  0.00     0.023 C 
ENDROOT
BRANCH   1   2
ATOM      2  C   UNL     1       3.675   0.193   5.145  1.00  0.00     0.116 C 
BRANCH   2   3
ATOM      3  N   UNL     1       3.703  -0.974   4.283  1.00  0.00    -0.354 N 
ATOM      4  C   UNL     1       3.398  -1.083   2.949  1.00  0.00     0.242 C 
ATOM      5  O   UNL     1       3.758  -2.124   2.386  1.00  0.00    -0.273 OA
ATOM      6  H   UNL     1       3.981  -1.811   4.719  1.00  0.00     0.163 HD
BRANCH   4   7
ATOM      7  C   UNL     1       2.535  -0.036   2.148  1.00  0.00     0.171 C 
BRANCH   7   8
ATOM      8  C   UNL     1       3.045   0.162   0.704  1.00  0.00     0.045 C 
BRANCH   8   9
ATOM      9  C   UNL     1       2.123   0.837  -0.322  1.00  0.00     0.102 C 
BRANCH   9  10
ATOM     10  C   UNL     1       1.269   1.990   0.154  1.00  0.00     0.217 C 
ATOM     11  N   UNL     1       0.086   1.641   0.730  1.00  0.00    -0.370 N 
ATOM     12  H   UNL     1      -0.523   2.339   1.064  1.00  0.00     0.159 HD
ATOM     13  H   UNL     1      -0.161   0.692   0.813  1.00  0.00     0.159 HD
ATOM     14  O   UNL     1       1.592   3.166   0.033  1.00  0.00    -0.275 OA
ENDBRANCH   9  10
ENDBRANCH   8   9
ENDBRANCH   7   8
BRANCH   7  15
ATOM     15  N   UNL     1       2.141   1.173   2.859  1.00  0.00    -0.344 N 
ATOM     16  C   UNL     1       2.732   2.375   3.089  1.00  0.00     0.220 C 
ATOM     17  H   UNL     1       1.246   1.104   3.263  1.00  0.00     0.164 HD
ATOM     18  O   UNL     1       2.230   3.070   3.978  1.00  0.00    -0.275 OA
BRANCH  16  19
ATOM     19  C   UNL     1       3.921   2.862   2.300  1.00  0.00     0.103 C 
BRANCH  19  20
ATOM     20  C   UNL     1       5.280   2.478   2.807  1.00  0.00    -0.002 C 
ATOM     21  C   UNL     1       6.000   1.164   2.589  1.00  0.00     0.004 C 
ATOM     22  C   UNL     1       6.372   2.358   1.768  1.00  0.00     0.004 C 
ENDBRANCH  19  20
ENDBRANCH  16  19
ENDBRANCH   7  15
ENDBRANCH   4   7
ENDBRANCH   2   3
ENDBRANCH   1   2
BRANCH   1  23
ATOM     23  C   UNL     1       5.072  -0.608   7.199  1.00  0.00     0.023 C 
BRANCH  23  24
ATOM     24  C   UNL     1       6.365   0.048   6.727  1.00  0.00     0.116 C 
BRANCH  24  25
ATOM     25  N   UNL     1       6.456   1.476   7.001  1.00  0.00    -0.352 N 
ATOM     26  C   UNL     1       7.323   2.181   7.807  1.00  0.00     0.251 C 
ATOM     27  H   UNL     1       5.788   2.028   6.534  1.00  0.00     0.163 HD
ATOM     28  O   UNL     1       7.180   3.397   7.933  1.00  0.00    -0.269 OA
BRANCH  26  29
ATOM     29  C   UNL     1       8.393   1.489   8.560  1.00  0.00     0.039 A 
ATOM     30  C   UNL     1       8.565   1.793   9.914  1.00  0.00     0.014 A 
ATOM     31  C   UNL     1       9.210   0.533   7.956  1.00  0.00     0.014 A 
ATOM     32  C   UNL     1       9.477   1.062  10.680  1.00  0.00     0.010 A 
ATOM     33  C   UNL     1      10.049  -0.259   8.739  1.00  0.00     0.010 A 
ATOM     34  C   UNL     1      10.186  -0.012  10.113  1.00  0.00    -0.014 A 
BRANCH  34  35
ATOM     35  C   UNL     1      11.020  -0.908  10.961  1.00  0.00     0.031 A 
ATOM     36  C   UNL     1      12.497  -1.062  10.713  1.00  0.00     0.074 A 
ATOM     37  C   UNL     1      10.425  -1.651  11.918  1.00  0.00     0.049 A 
ATOM     38  N   UNL     1      13.368  -1.792  11.361  1.00  0.00    -0.248 NA
ATOM     39  C   UNL     1      13.068  -0.323   9.575  1.00  0.00     0.031 C 
ATOM     40  C   UNL     1       8.986  -1.680  12.194  1.00  0.00     0.029 A 
ATOM     41  N   UNL     1      10.950  -2.540  12.824  1.00  0.00    -0.354 N 
ATOM     42  C   UNL     1      14.578  -1.626  10.697  1.00  0.00     0.074 A 
ATOM     43  C   UNL     1      14.320  -0.756   9.570  1.00  0.00     0.031 C 
ATOM     44  C   UNL     1       8.747  -2.524  13.210  1.00  0.00     0.029 A 
ATOM     45  C   UNL     1      10.007  -3.120  13.641  1.00  0.00     0.049 A 
ATOM     46  H   UNL     1      11.912  -2.743  12.883  1.00  0.00     0.167 HD
ATOM     47  C   UNL     1      15.798  -2.124  11.011  1.00  0.00     0.034 A 
ATOM     48  C   UNL     1      10.138  -4.028  14.629  1.00  0.00     0.034 A 
ATOM     49  C   UNL     1      16.061  -2.959  12.153  1.00  0.00     0.049 A 
ATOM     50  C   UNL     1      11.512  -4.519  14.993  1.00  0.00     0.074 A 
ATOM     51  C   UNL     1      17.278  -3.433  12.610  1.00  0.00     0.029 A 
ATOM     52  N   UNL     1      15.093  -3.458  13.011  1.00  0.00    -0.354 N 
ATOM     53  N   UNL     1      12.669  -4.203  14.464  1.00  0.00    -0.248 NA
ATOM     54  C   UNL     1      11.603  -5.460  16.119  1.00  0.00     0.031 C 
ATOM     55  C   UNL     1      17.043  -4.243  13.727  1.00  0.00     0.029 A 
ATOM     56  C   UNL     1      15.683  -4.245  13.986  1.00  0.00     0.049 A 
ATOM     57  H   UNL     1      14.128  -3.279  12.938  1.00  0.00     0.167 HD
ATOM     58  C   UNL     1      13.627  -4.882  15.210  1.00  0.00     0.074 A 
ATOM     59  C   UNL     1      12.915  -5.598  16.249  1.00  0.00     0.031 C 
ATOM     60  C   UNL     1      14.971  -4.923  15.039  1.00  0.00     0.034 A 
BRANCH  47  61
ATOM     61  C   UNL     1      16.962  -1.733  10.136  1.00  0.00     0.023 A 
ATOM     62  C   UNL     1      17.445  -0.408  10.172  1.00  0.00     0.012 A 
ATOM     63  C   UNL     1      17.619  -2.685   9.332  1.00  0.00     0.148 A 
ATOM     64  C   UNL     1      18.541  -0.029   9.397  1.00  0.00     0.002 A 
ATOM     65  C   UNL     1      18.739  -2.311   8.599  1.00  0.00     0.091 A 
ATOM     66  F   UNL     1      17.134  -3.935   9.295  1.00  0.00    -0.205 F 
ATOM     67  C   UNL     1      19.194  -0.982   8.621  1.00  0.00     0.022 A 
BRANCH  65  68
ATOM     68  S   UNL     1      19.702  -3.479   7.631  1.00  0.00     0.127 S 
ATOM     69  O   UNL     1      19.407  -3.045   6.266  1.00  0.00    -0.237 OA
ATOM     70  O   UNL     1      21.066  -3.198   8.079  1.00  0.00    -0.237 OA
ATOM     71  O   UNL     1      19.205  -4.801   7.986  1.00  0.00    -0.744 OA
ENDBRANCH  65  68
ENDBRANCH  47  61
BRANCH  48  72
ATOM     72  C   UNL     1       8.939  -4.482  15.390  1.00  0.00     0.023 A 
ATOM     73  C   UNL     1       8.785  -4.099  16.737  1.00  0.00     0.012 A 
ATOM     74  C   UNL     1       7.944  -5.273  14.784  1.00  0.00     0.148 A 
ATOM     75  C   UNL     1       7.683  -4.528  17.478  1.00  0.00     0.002 A 
ATOM     76  C   UNL     1       6.819  -5.647  15.510  1.00  0.00     0.091 A 
ATOM     77  F   UNL     1       8.114  -5.637  13.505  1.00  0.00    -0.205 F 
ATOM     78  C   UNL     1       6.696  -5.293  16.862  1.00  0.00     0.022 A 
BRANCH  76  79
ATOM     79  S   UNL     1       5.436  -6.514  14.760  1.00  0.00     0.127 S 
ATOM     80  O   UNL     1       5.556  -7.842  15.356  1.00  0.00    -0.237 OA
ATOM     81  O   UNL     1       4.296  -5.727  15.229  1.00  0.00    -0.237 OA
ATOM     82  O   UNL     1       5.661  -6.442  13.322  1.00  0.00    -0.744 OA
ENDBRANCH  76  79
ENDBRANCH  48  72
BRANCH  60  83
ATOM     83  C   UNL     1      15.768  -5.754  16.014  1.00  0.00     0.023 A 
ATOM     84  C   UNL     1      15.673  -7.160  15.980  1.00  0.00     0.012 A 
ATOM     85  C   UNL     1      16.642  -5.144  16.936  1.00  0.00     0.148 A 
ATOM     86  C   UNL     1      16.396  -7.942  16.880  1.00  0.00     0.002 A 
ATOM     87  C   UNL     1      17.399  -5.933  17.794  1.00  0.00     0.091 A 
ATOM     88  F   UNL     1      16.707  -3.805  16.968  1.00  0.00    -0.205 F 
ATOM     89  C   UNL     1      17.266  -7.330  17.779  1.00  0.00     0.022 A 
BRANCH  87  90
ATOM     90  S   UNL     1      18.616  -5.235  18.916  1.00  0.00     0.127 S 
ATOM     91  O   UNL     1      17.934  -5.353  20.204  1.00  0.00    -0.237 OA
ATOM     92  O   UNL     1      19.754  -6.138  18.744  1.00  0.00    -0.237 OA
ATOM     93  O   UNL     1      18.852  -3.874  18.453  1.00  0.00    -0.744 OA
ENDBRANCH  87  90
ENDBRANCH  60  83
ENDBRANCH  34  35
ENDBRANCH  26  29
ENDBRANCH  24  25
ENDBRANCH  23  24
ENDBRANCH   1  23
TORSDOF 20
