REMARK SMILES O=C(NCCCCNC(=O)[C@H]1Cc2ccc(Cl)cc2C[N@@H+]1Cc1ccc(Cl)cc1)c1ccc(-c2c3nc(c(-c4cccc(S(=O)(=O)[O-])c4F)c4ccc([nH]4)c(-c4cccc(S(=O)(=O)[O-])c4F)c4nc(c(-c5cccc(S(=O)(=O)[O-])c5F)c5ccc2[nH]5)C=C4)C=C3)cc1
REMARK SMILES IDX 5 1 4 2 3 3 1 4 2 5 30 7 31 8 92 9 32 10 91 11 33 12 34 13
REMARK SMILES IDX 35 14 85 15 36 16 90 17 84 18 86 19 37 20 89 21 83 22 82 23
REMARK SMILES IDX 38 25 70 26 50 27 69 28 51 29 54 30 68 31 87 32 52 33 53 34
REMARK SMILES IDX 67 36 88 37 55 38 39 39 40 40 48 41 41 42 43 43 49 44 42 45
REMARK SMILES IDX 44 46 45 47 46 48 47 49 71 50 72 51 80 52 73 53 75 54 81 55
REMARK SMILES IDX 74 56 76 57 77 58 78 59 79 60 56 61 57 62 65 63 58 64 60 65
REMARK SMILES IDX 66 66 59 67 61 68 62 69 63 70 64 71 6 72 7 73 8 74 9 75
REMARK SMILES IDX 10 77 11 78 12 79 21 80 13 81 20 82 14 84 19 85 15 86 18 87
REMARK SMILES IDX 16 88 17 89 22 90 23 91 24 92 29 93 25 94 28 95 26 96 27 97
REMARK H PARENT 3 6 86 24 54 35 8 76 21 83
REMARK Flexibility Score: inf
ROOT
ATOM      1  C   UNL     1       5.188  -0.390   1.861  1.00  0.00     0.023 C 
ENDROOT
BRANCH   1   2
ATOM      2  C   UNL     1       4.615  -0.892   0.549  1.00  0.00     0.116 C 
BRANCH   2   3
ATOM      3  N   UNL     1       3.158  -0.854   0.539  1.00  0.00    -0.352 N 
ATOM      4  O   UNL     1       1.114   0.006   0.164  1.00  0.00    -0.269 OA
ATOM      5  C   UNL     1       2.303  -0.030  -0.148  1.00  0.00     0.251 C 
ATOM      6  H   UNL     1       2.720  -1.522   1.115  1.00  0.00     0.163 HD
BRANCH   5   7
ATOM      7  C   UNL     1       2.804   0.803  -1.261  1.00  0.00     0.039 A 
ATOM      8  C   UNL     1       2.261   2.075  -1.470  1.00  0.00     0.014 A 
ATOM      9  C   UNL     1       3.774   0.306  -2.132  1.00  0.00     0.014 A 
ATOM     10  C   UNL     1       2.713   2.852  -2.540  1.00  0.00     0.010 A 
ATOM     11  C   UNL     1       4.308   1.121  -3.115  1.00  0.00     0.010 A 
ATOM     12  C   UNL     1       3.745   2.380  -3.364  1.00  0.00    -0.014 A 
BRANCH  12  13
ATOM     13  C   UNL     1       4.181   3.093  -4.585  1.00  0.00     0.031 A 
ATOM     14  C   UNL     1       4.011   2.408  -5.915  1.00  0.00     0.074 A 
ATOM     15  C   UNL     1       4.801   4.283  -4.503  1.00  0.00     0.049 A 
ATOM     16  N   UNL     1       4.507   2.728  -7.080  1.00  0.00    -0.248 NA
ATOM     17  C   UNL     1       3.212   1.168  -5.923  1.00  0.00     0.031 C 
ATOM     18  C   UNL     1       5.052   5.028  -3.269  1.00  0.00     0.029 A 
ATOM     19  N   UNL     1       5.355   5.062  -5.485  1.00  0.00    -0.354 N 
ATOM     20  C   UNL     1       4.129   1.704  -7.940  1.00  0.00     0.074 A 
ATOM     21  C   UNL     1       3.401   0.732  -7.158  1.00  0.00     0.031 C 
ATOM     22  C   UNL     1       5.698   6.166  -3.571  1.00  0.00     0.029 A 
ATOM     23  C   UNL     1       5.941   6.209  -5.010  1.00  0.00     0.049 A 
ATOM     24  H   UNL     1       5.335   4.821  -6.440  1.00  0.00     0.167 HD
ATOM     25  C   UNL     1       4.331   1.601  -9.274  1.00  0.00     0.034 A 
ATOM     26  C   UNL     1       6.604   7.181  -5.665  1.00  0.00     0.034 A 
ATOM     27  C   UNL     1       4.978   2.611 -10.061  1.00  0.00     0.049 A 
ATOM     28  C   UNL     1       6.782   7.073  -7.152  1.00  0.00     0.074 A 
ATOM     29  C   UNL     1       5.188   2.634 -11.427  1.00  0.00     0.029 A 
ATOM     30  N   UNL     1       5.496   3.792  -9.551  1.00  0.00    -0.354 N 
ATOM     31  N   UNL     1       6.383   6.119  -7.960  1.00  0.00    -0.248 NA
ATOM     32  C   UNL     1       7.482   8.177  -7.822  1.00  0.00     0.031 C 
ATOM     33  C   UNL     1       5.825   3.839 -11.745  1.00  0.00     0.029 A 
ATOM     34  C   UNL     1       6.009   4.563 -10.577  1.00  0.00     0.049 A 
ATOM     35  H   UNL     1       5.498   4.044  -8.599  1.00  0.00     0.167 HD
ATOM     36  C   UNL     1       6.769   6.512  -9.235  1.00  0.00     0.074 A 
ATOM     37  C   UNL     1       7.419   7.801  -9.094  1.00  0.00     0.031 C 
ATOM     38  C   UNL     1       6.616   5.859 -10.413  1.00  0.00     0.034 A 
BRANCH  25  39
ATOM     39  C   UNL     1       3.764   0.393  -9.966  1.00  0.00     0.023 A 
ATOM     40  C   UNL     1       2.371   0.313 -10.172  1.00  0.00     0.012 A 
ATOM     41  C   UNL     1       4.594  -0.645 -10.428  1.00  0.00     0.148 A 
ATOM     42  C   UNL     1       1.808  -0.795 -10.801  1.00  0.00     0.002 A 
ATOM     43  C   UNL     1       4.029  -1.732 -11.087  1.00  0.00     0.091 A 
ATOM     44  F   UNL     1       5.912  -0.560 -10.200  1.00  0.00    -0.205 F 
ATOM     45  C   UNL     1       2.637  -1.812 -11.266  1.00  0.00     0.022 A 
BRANCH  43  46
ATOM     46  S   UNL     1       5.008  -3.074 -11.770  1.00  0.00     0.127 S 
ATOM     47  O   UNL     1       4.619  -4.190 -10.907  1.00  0.00    -0.237 OA
ATOM     48  O   UNL     1       4.501  -3.157 -13.139  1.00  0.00    -0.237 OA
ATOM     49  O   UNL     1       6.398  -2.657 -11.657  1.00  0.00    -0.744 OA
ENDBRANCH  43  46
ENDBRANCH  25  39
BRANCH  26  50
ATOM     50  C   UNL     1       7.061   8.375  -4.905  1.00  0.00     0.023 A 
ATOM     51  C   UNL     1       6.295   9.554  -4.974  1.00  0.00     0.012 A 
ATOM     52  C   UNL     1       8.165   8.316  -4.033  1.00  0.00     0.148 A 
ATOM     53  C   UNL     1       6.619  10.657  -4.184  1.00  0.00     0.002 A 
ATOM     54  C   UNL     1       8.460   9.406  -3.222  1.00  0.00     0.091 A 
ATOM     55  F   UNL     1       8.869   7.177  -3.981  1.00  0.00    -0.205 F 
ATOM     56  C   UNL     1       7.693  10.580  -3.302  1.00  0.00     0.022 A 
BRANCH  54  57
ATOM     57  S   UNL     1       9.756   9.370  -1.978  1.00  0.00     0.127 S 
ATOM     58  O   UNL     1      10.594  10.498  -2.386  1.00  0.00    -0.237 OA
ATOM     59  O   UNL     1       8.989   9.587  -0.750  1.00  0.00    -0.237 OA
ATOM     60  O   UNL     1      10.380   8.063  -2.089  1.00  0.00    -0.744 OA
ENDBRANCH  54  57
ENDBRANCH  26  50
BRANCH  38  61
ATOM     61  C   UNL     1       7.155   6.517 -11.652  1.00  0.00     0.023 A 
ATOM     62  C   UNL     1       8.536   6.450 -11.920  1.00  0.00     0.012 A 
ATOM     63  C   UNL     1       6.287   7.095 -12.598  1.00  0.00     0.148 A 
ATOM     64  C   UNL     1       9.049   6.962 -13.110  1.00  0.00     0.002 A 
ATOM     65  C   UNL     1       6.801   7.572 -13.797  1.00  0.00     0.091 A 
ATOM     66  F   UNL     1       4.979   7.154 -12.313  1.00  0.00    -0.205 F 
ATOM     67  C   UNL     1       8.182   7.512 -14.053  1.00  0.00     0.022 A 
BRANCH  65  68
ATOM     68  S   UNL     1       5.757   8.229 -15.102  1.00  0.00     0.127 S 
ATOM     69  O   UNL     1       6.087   9.653 -15.059  1.00  0.00    -0.237 OA
ATOM     70  O   UNL     1       6.254   7.522 -16.283  1.00  0.00    -0.237 OA
ATOM     71  O   UNL     1       4.389   7.896 -14.729  1.00  0.00    -0.744 OA
ENDBRANCH  65  68
ENDBRANCH  38  61
ENDBRANCH  12  13
ENDBRANCH   5   7
ENDBRANCH   2   3
ENDBRANCH   1   2
BRANCH   1  72
ATOM     72  C   UNL     1       4.726  -1.181   3.074  1.00  0.00     0.023 C 
BRANCH  72  73
ATOM     73  C   UNL     1       5.149  -2.645   3.119  1.00  0.00     0.116 C 
BRANCH  73  74
ATOM     74  N   UNL     1       6.549  -2.741   3.477  1.00  0.00    -0.351 N 
ATOM     75  C   UNL     1       7.137  -3.234   4.604  1.00  0.00     0.278 C 
ATOM     76  H   UNL     1       7.175  -2.396   2.800  1.00  0.00     0.163 HD
ATOM     77  O   UNL     1       8.331  -2.967   4.770  1.00  0.00    -0.268 OA
BRANCH  75  78
ATOM     78  C   UNL     1       6.357  -4.158   5.566  1.00  0.00     0.279 C 
ATOM     79  C   UNL     1       7.063  -5.538   5.401  1.00  0.00     0.111 C 
ATOM     80  N   UNL     1       6.410  -3.671   6.968  1.00  0.00    -0.317 N 
ATOM     81  C   UNL     1       6.744  -6.538   6.480  1.00  0.00    -0.033 A 
ATOM     82  C   UNL     1       5.880  -4.649   7.913  1.00  0.00     0.300 C 
ATOM     83  H   UNL     1       7.410  -3.564   7.138  1.00  0.00     0.349 HD
ATOM     84  C   UNL     1       6.948  -7.910   6.281  1.00  0.00     0.006 A 
ATOM     85  C   UNL     1       6.286  -6.083   7.719  1.00  0.00     0.011 A 
ATOM     86  C   UNL     1       6.652  -8.824   7.297  1.00  0.00     0.021 A 
ATOM     87  C   UNL     1       6.000  -7.005   8.739  1.00  0.00     0.030 A 
ATOM     88  C   UNL     1       6.178  -8.366   8.522  1.00  0.00     0.041 A 
ATOM     89  Cl  UNL     1       5.769  -9.484   9.765  1.00  0.00    -0.084 Cl
BRANCH  80  90
ATOM     90  C   UNL     1       5.876  -2.308   7.217  1.00  0.00     0.299 C 
BRANCH  90  91
ATOM     91  C   UNL     1       4.392  -2.019   6.984  1.00  0.00     0.006 A 
ATOM     92  C   UNL     1       3.343  -2.746   7.563  1.00  0.00     0.011 A 
ATOM     93  C   UNL     1       4.020  -0.909   6.215  1.00  0.00     0.011 A 
ATOM     94  C   UNL     1       2.012  -2.554   7.176  1.00  0.00     0.021 A 
ATOM     95  C   UNL     1       2.688  -0.688   5.835  1.00  0.00     0.021 A 
ATOM     96  C   UNL     1       1.695  -1.550   6.275  1.00  0.00     0.041 A 
ATOM     97  Cl  UNL     1       0.075  -1.363   5.735  1.00  0.00    -0.084 Cl
ENDBRANCH  90  91
ENDBRANCH  80  90
ENDBRANCH  75  78
ENDBRANCH  73  74
ENDBRANCH  72  73
ENDBRANCH   1  72
TORSDOF 16
