REMARK SMILES CC[C@@H]1CCc2c(sc(NC(=O)COCC(=O)NCCCCNC(=O)c3ccc(-c4c5nc(c(-c6cccc(S(=O)(=O)[O-])c6F)c6ccc([nH]6)c(-c6cccc(S(=O)(=O)[O-])c6F)c6nc(c(-c7cccc(S(=O)(=O)[O-])c7F)c7ccc4[nH]7)C=C6)C=C5)cc3)c2C(N)=O)C1
REMARK SMILES IDX 19 1 18 2 16 3 17 4 15 6 14 7 13 8 11 9 10 10 12 12 9 13
REMARK SMILES IDX 3 14 4 15 93 16 5 17 7 18 6 19 8 20 89 21 2 22 1 23 90 24
REMARK SMILES IDX 91 25 92 26 20 29 21 30 22 31 23 32 24 33 25 35 26 36 27 37
REMARK SMILES IDX 88 38 28 39 87 40 29 41 30 42 31 43 81 44 32 45 86 46 80 47
REMARK SMILES IDX 82 48 33 49 85 50 79 51 78 52 34 54 66 55 46 56 65 57 47 58
REMARK SMILES IDX 50 59 64 60 83 61 48 62 49 63 63 65 84 66 51 67 35 68 36 69
REMARK SMILES IDX 44 70 37 71 39 72 45 73 38 74 40 75 41 76 42 77 43 78 67 79
REMARK SMILES IDX 68 80 76 81 69 82 71 83 77 84 70 85 72 86 73 87 74 88 75 89
REMARK SMILES IDX 52 90 53 91 61 92 54 93 56 94 62 95 55 96 57 97 58 98 59 99
REMARK SMILES IDX 60 100
REMARK H PARENT 18 5 10 11 91 27 91 28 23 34 82 53 50 64
REMARK Flexibility Score: inf
ROOT
ATOM      1  C   UNL     1      -7.055   1.158   2.282  1.00  0.00     0.116 C 
ENDROOT
BRANCH   1   2
ATOM      2  N   UNL     1      -7.847   2.275   1.797  1.00  0.00    -0.354 N 
ATOM      3  C   UNL     1      -7.442   3.342   1.047  1.00  0.00     0.246 C 
ATOM      4  O   UNL     1      -8.270   4.188   0.707  1.00  0.00    -0.272 OA
ATOM      5  H   UNL     1      -8.801   2.260   2.041  1.00  0.00     0.163 HD
BRANCH   3   6
ATOM      6  C   UNL     1      -5.972   3.461   0.639  1.00  0.00     0.260 C 
BRANCH   6   7
ATOM      7  O   UNL     1      -5.089   3.629   1.737  1.00  0.00    -0.362 OA
BRANCH   7   8
ATOM      8  C   UNL     1      -5.102   4.941   2.266  1.00  0.00     0.261 C 
BRANCH   8   9
ATOM      9  C   UNL     1      -3.879   5.758   1.889  1.00  0.00     0.251 C 
ATOM     10  N   UNL     1      -2.606   5.292   1.918  1.00  0.00    -0.315 N 
ATOM     11  H   UNL     1      -1.961   5.958   1.587  1.00  0.00     0.170 HD
ATOM     12  O   UNL     1      -4.021   6.934   1.524  1.00  0.00    -0.272 OA
BRANCH  10  13
ATOM     13  C   UNL     1      -1.992   4.121   2.295  1.00  0.00     0.108 A 
ATOM     14  C   UNL     1       1.217   0.438   2.255  1.00  0.00    -0.006 C 
ATOM     15  C   UNL     1       0.458   0.164   3.577  1.00  0.00     0.009 C 
ATOM     16  C   UNL     1       1.290   1.962   2.007  1.00  0.00     0.050 C 
ATOM     17  C   UNL     1      -0.986   0.697   3.569  1.00  0.00     0.038 C 
ATOM     18  C   UNL     1      -0.042   2.607   2.225  1.00  0.00     0.011 A 
ATOM     19  C   UNL     1      -1.086   2.064   2.939  1.00  0.00    -0.019 A 
ATOM     20  S   UNL     1      -0.388   4.161   1.667  1.00  0.00    -0.122 S 
ATOM     21  C   UNL     1      -2.236   2.955   3.004  1.00  0.00     0.077 A 
BRANCH  14  22
ATOM     22  C   UNL     1       0.597  -0.372   1.094  1.00  0.00     0.000 C 
ATOM     23  C   UNL     1       1.241  -0.118  -0.261  1.00  0.00     0.004 C 
ENDBRANCH  14  22
BRANCH  21  24
ATOM     24  C   UNL     1      -3.409   2.578   3.775  1.00  0.00     0.251 C 
ATOM     25  N   UNL     1      -3.789   3.473   4.733  1.00  0.00    -0.365 N 
ATOM     26  O   UNL     1      -3.934   1.476   3.697  1.00  0.00    -0.269 OA
ATOM     27  H   UNL     1      -3.356   4.356   4.781  1.00  0.00     0.159 HD
ATOM     28  H   UNL     1      -4.496   3.236   5.376  1.00  0.00     0.159 HD
ENDBRANCH  21  24
ENDBRANCH  10  13
ENDBRANCH   8   9
ENDBRANCH   7   8
ENDBRANCH   6   7
ENDBRANCH   3   6
ENDBRANCH   1   2
BRANCH   1  29
ATOM     29  C   UNL     1      -6.978   1.111   3.807  1.00  0.00     0.023 C 
BRANCH  29  30
ATOM     30  C   UNL     1      -8.314   1.014   4.542  1.00  0.00     0.023 C 
BRANCH  30  31
ATOM     31  C   UNL     1      -9.243  -0.106   4.091  1.00  0.00     0.116 C 
BRANCH  31  32
ATOM     32  N   UNL     1      -8.692  -1.436   4.297  1.00  0.00    -0.352 N 
ATOM     33  C   UNL     1      -9.301  -2.554   4.822  1.00  0.00     0.251 C 
ATOM     34  H   UNL     1      -7.753  -1.554   4.023  1.00  0.00     0.163 HD
ATOM     35  O   UNL     1      -8.647  -3.576   5.011  1.00  0.00    -0.269 OA
BRANCH  33  36
ATOM     36  C   UNL     1     -10.735  -2.514   5.195  1.00  0.00     0.039 A 
ATOM     37  C   UNL     1     -11.124  -3.034   6.434  1.00  0.00     0.014 A 
ATOM     38  C   UNL     1     -11.690  -1.950   4.346  1.00  0.00     0.014 A 
ATOM     39  C   UNL     1     -12.454  -2.919   6.851  1.00  0.00     0.010 A 
ATOM     40  C   UNL     1     -12.998  -1.772   4.793  1.00  0.00     0.010 A 
ATOM     41  C   UNL     1     -13.395  -2.252   6.051  1.00  0.00    -0.014 A 
BRANCH  41  42
ATOM     42  C   UNL     1     -14.790  -2.023   6.515  1.00  0.00     0.031 A 
ATOM     43  C   UNL     1     -15.950  -2.616   5.759  1.00  0.00     0.074 A 
ATOM     44  C   UNL     1     -15.021  -1.188   7.549  1.00  0.00     0.049 A 
ATOM     45  N   UNL     1     -17.233  -2.457   5.961  1.00  0.00    -0.248 NA
ATOM     46  C   UNL     1     -15.630  -3.475   4.606  1.00  0.00     0.031 C 
ATOM     47  C   UNL     1     -13.992  -0.471   8.307  1.00  0.00     0.029 A 
ATOM     48  N   UNL     1     -16.199  -0.769   8.118  1.00  0.00    -0.354 N 
ATOM     49  C   UNL     1     -17.869  -3.147   4.936  1.00  0.00     0.074 A 
ATOM     50  C   UNL     1     -16.833  -3.716   4.103  1.00  0.00     0.031 C 
ATOM     51  C   UNL     1     -14.583   0.303   9.232  1.00  0.00     0.029 A 
ATOM     52  C   UNL     1     -16.031   0.156   9.124  1.00  0.00     0.049 A 
ATOM     53  H   UNL     1     -17.082  -1.100   7.834  1.00  0.00     0.167 HD
ATOM     54  C   UNL     1     -19.195  -3.317   4.724  1.00  0.00     0.034 A 
ATOM     55  C   UNL     1     -16.939   0.817   9.870  1.00  0.00     0.034 A 
ATOM     56  C   UNL     1     -20.223  -2.823   5.599  1.00  0.00     0.049 A 
ATOM     57  C   UNL     1     -18.403   0.534   9.666  1.00  0.00     0.074 A 
ATOM     58  C   UNL     1     -21.586  -3.059   5.540  1.00  0.00     0.029 A 
ATOM     59  N   UNL     1     -20.006  -1.997   6.689  1.00  0.00    -0.354 N 
ATOM     60  N   UNL     1     -18.974  -0.283   8.815  1.00  0.00    -0.248 NA
ATOM     61  C   UNL     1     -19.348   1.232  10.552  1.00  0.00     0.031 C 
ATOM     62  C   UNL     1     -22.195  -2.367   6.592  1.00  0.00     0.029 A 
ATOM     63  C   UNL     1     -21.210  -1.708   7.308  1.00  0.00     0.049 A 
ATOM     64  H   UNL     1     -19.126  -1.665   6.980  1.00  0.00     0.167 HD
ATOM     65  C   UNL     1     -20.337  -0.225   9.086  1.00  0.00     0.074 A 
ATOM     66  C   UNL     1     -20.505   0.689  10.196  1.00  0.00     0.031 C 
ATOM     67  C   UNL     1     -21.358  -0.856   8.458  1.00  0.00     0.034 A 
BRANCH  54  68
ATOM     68  C   UNL     1     -19.624  -4.134   3.536  1.00  0.00     0.023 A 
ATOM     69  C   UNL     1     -19.494  -5.537   3.579  1.00  0.00     0.012 A 
ATOM     70  C   UNL     1     -20.247  -3.529   2.426  1.00  0.00     0.148 A 
ATOM     71  C   UNL     1     -19.958  -6.325   2.528  1.00  0.00     0.002 A 
ATOM     72  C   UNL     1     -20.741  -4.324   1.399  1.00  0.00     0.091 A 
ATOM     73  F   UNL     1     -20.344  -2.192   2.398  1.00  0.00    -0.205 F 
ATOM     74  C   UNL     1     -20.591  -5.721   1.445  1.00  0.00     0.022 A 
BRANCH  72  75
ATOM     75  S   UNL     1     -21.639  -3.653  -0.005  1.00  0.00     0.127 S 
ATOM     76  O   UNL     1     -20.697  -3.890  -1.098  1.00  0.00    -0.237 OA
ATOM     77  O   UNL     1     -22.834  -4.497  -0.037  1.00  0.00    -0.237 OA
ATOM     78  O   UNL     1     -21.890  -2.253   0.309  1.00  0.00    -0.744 OA
ENDBRANCH  72  75
ENDBRANCH  54  68
BRANCH  55  79
ATOM     79  C   UNL     1     -16.490   1.760  10.934  1.00  0.00     0.023 A 
ATOM     80  C   UNL     1     -16.663   1.403  12.286  1.00  0.00     0.012 A 
ATOM     81  C   UNL     1     -15.890   2.994  10.624  1.00  0.00     0.148 A 
ATOM     82  C   UNL     1     -16.281   2.274  13.308  1.00  0.00     0.002 A 
ATOM     83  C   UNL     1     -15.463   3.834  11.648  1.00  0.00     0.091 A 
ATOM     84  F   UNL     1     -15.750   3.331   9.334  1.00  0.00    -0.205 F 
ATOM     85  C   UNL     1     -15.673   3.485  12.989  1.00  0.00     0.022 A 
BRANCH  83  86
ATOM     86  S   UNL     1     -14.550   5.344  11.306  1.00  0.00     0.127 S 
ATOM     87  O   UNL     1     -15.606   6.350  11.340  1.00  0.00    -0.237 OA
ATOM     88  O   UNL     1     -13.608   5.402  12.425  1.00  0.00    -0.237 OA
ATOM     89  O   UNL     1     -13.917   5.115  10.013  1.00  0.00    -0.744 OA
ENDBRANCH  83  86
ENDBRANCH  55  79
BRANCH  67  90
ATOM     90  C   UNL     1     -22.753  -0.615   8.969  1.00  0.00     0.023 A 
ATOM     91  C   UNL     1     -23.391   0.611   8.694  1.00  0.00     0.012 A 
ATOM     92  C   UNL     1     -23.462  -1.630   9.641  1.00  0.00     0.148 A 
ATOM     93  C   UNL     1     -24.705   0.832   9.104  1.00  0.00     0.002 A 
ATOM     94  C   UNL     1     -24.786  -1.418  10.008  1.00  0.00     0.091 A 
ATOM     95  F   UNL     1     -22.830  -2.782   9.911  1.00  0.00    -0.205 F 
ATOM     96  C   UNL     1     -25.406  -0.185   9.748  1.00  0.00     0.022 A 
BRANCH  94  97
ATOM     97  S   UNL     1     -25.787  -2.709  10.756  1.00  0.00     0.127 S 
ATOM     98  O   UNL     1     -25.781  -2.314  12.163  1.00  0.00    -0.237 OA
ATOM     99  O   UNL     1     -27.075  -2.541  10.082  1.00  0.00    -0.237 OA
ATOM    100  O   UNL     1     -25.109  -3.962  10.450  1.00  0.00    -0.744 OA
ENDBRANCH  94  97
ENDBRANCH  67  90
ENDBRANCH  41  42
ENDBRANCH  33  36
ENDBRANCH  31  32
ENDBRANCH  30  31
ENDBRANCH  29  30
ENDBRANCH   1  29
TORSDOF 20
