REMARK SMILES CC1(C)[C@H](O)CC[C@@]2(C)[C@@H]1CC[C@@]1(C)Oc3oc(C(=O)NCCCCNC(=O)c4ccc(-c5c6nc(c(-c7cccc(S(=O)(=O)[O-])c7F)c7ccc([nH]7)c(-c7cccc(S(=O)(=O)[O-])c7F)c7nc(c(-c8cccc(S(=O)(=O)[O-])c8F)c8ccc5[nH]8)C=C7)C=C6)cc4)cc(=O)c3C[C@@H]21
REMARK SMILES IDX 24 1 23 2 22 3 21 4 19 5 20 6 18 8 1 9 2 10 4 11 10 12 3 13
REMARK SMILES IDX 6 14 8 15 11 16 7 17 97 18 9 19 12 20 13 21 96 22 15 23
REMARK SMILES IDX 14 24 95 25 16 26 93 27 17 28 92 29 94 30 5 31 25 33 26 34
REMARK SMILES IDX 27 35 28 37 29 38 30 39 91 40 31 41 90 42 32 43 33 44 34 45
REMARK SMILES IDX 84 46 35 47 89 48 83 49 85 50 36 51 88 52 82 53 81 54 37 56
REMARK SMILES IDX 69 57 49 58 68 59 50 60 53 61 67 62 86 63 51 64 52 65 66 67
REMARK SMILES IDX 87 68 54 69 38 70 39 71 47 72 40 73 42 74 48 75 41 76 43 77
REMARK SMILES IDX 44 78 45 79 46 80 70 81 71 82 79 83 72 84 74 85 80 86 73 87
REMARK SMILES IDX 75 88 76 89 77 90 78 91 55 92 56 93 64 94 57 95 59 96 65 97
REMARK SMILES IDX 58 98 60 99 61 100 62 101 63 102
REMARK H PARENT 21 7 5 32 26 36 85 55 53 66
REMARK Flexibility Score: inf
ROOT
ATOM      1  C   UNL     1     -10.406  -1.910  -1.412  1.00  0.00     0.023 C 
ENDROOT
BRANCH   1   2
ATOM      2  C   UNL     1      -8.887  -1.899  -1.589  1.00  0.00     0.023 C 
BRANCH   2   3
ATOM      3  C   UNL     1      -8.241  -3.246  -1.919  1.00  0.00     0.116 C 
BRANCH   3   4
ATOM      4  N   UNL     1      -8.612  -3.800  -3.229  1.00  0.00    -0.349 N 
ATOM      5  C   UNL     1      -7.864  -4.479  -4.179  1.00  0.00     0.287 C 
ATOM      6  O   UNL     1      -8.374  -4.809  -5.243  1.00  0.00    -0.266 OA
ATOM      7  H   UNL     1      -9.556  -3.666  -3.474  1.00  0.00     0.163 HD
BRANCH   5   8
ATOM      8  C   UNL     1      -6.438  -4.811  -3.884  1.00  0.00     0.199 A 
ATOM      9  C   UNL     1       1.880  -0.367  -1.417  1.00  0.00     0.014 C 
ATOM     10  C   UNL     1       1.285  -1.796  -1.252  1.00  0.00    -0.006 C 
ATOM     11  C   UNL     1       0.097  -1.590  -0.157  1.00  0.00     0.120 C 
ATOM     12  C   UNL     1       0.742  -2.500  -2.900  1.00  0.00     0.004 C 
ATOM     13  C   UNL     1       2.424  -2.609  -0.547  1.00  0.00     0.014 C 
ATOM     14  C   UNL     1      -0.629  -2.877   0.085  1.00  0.00     0.033 C 
ATOM     15  C   UNL     1      -0.724  -2.687  -2.489  1.00  0.00    -0.022 C 
ATOM     16  C   UNL     1       0.843  -3.890  -3.834  1.00  0.00     0.009 C 
ATOM     17  C   UNL     1      -0.512  -3.603  -1.197  1.00  0.00     0.010 C 
ATOM     18  C   UNL     1      -1.938  -3.274  -3.282  1.00  0.00     0.044 C 
ATOM     19  C   UNL     1      -1.132  -1.163  -2.678  1.00  0.00     0.012 C 
ATOM     20  C   UNL     1      -0.414  -4.600  -4.561  1.00  0.00     0.049 C 
ATOM     21  C   UNL     1      -1.703  -3.749  -4.697  1.00  0.00     0.113 C 
ATOM     22  C   UNL     1      -2.627  -4.379  -2.473  1.00  0.00     0.055 C 
ATOM     23  O   UNL     1      -2.958  -4.373  -5.224  1.00  0.00    -0.458 OA
ATOM     24  C   UNL     1      -1.404  -2.663  -5.748  1.00  0.00     0.057 C 
ATOM     25  C   UNL     1      -3.875  -4.776  -3.072  1.00  0.00     0.081 A 
ATOM     26  C   UNL     1      -4.072  -4.612  -4.372  1.00  0.00     0.292 A 
ATOM     27  C   UNL     1      -4.901  -5.248  -2.139  1.00  0.00     0.192 A 
ATOM     28  O   UNL     1      -5.407  -4.620  -4.843  1.00  0.00    -0.420 OA
ATOM     29  C   UNL     1      -6.243  -5.329  -2.667  1.00  0.00     0.105 A 
ATOM     30  O   UNL     1      -4.676  -5.479  -0.960  1.00  0.00    -0.289 OA
BRANCH  11  31
ATOM     31  O   UNL     1       0.497  -1.071   1.105  1.00  0.00    -0.393 OA
ATOM     32  H   UNL     1       1.071  -1.713   1.551  1.00  0.00     0.210 HD
ENDBRANCH  11  31
ENDBRANCH   5   8
ENDBRANCH   3   4
ENDBRANCH   2   3
ENDBRANCH   1   2
BRANCH   1  33
ATOM     33  C   UNL     1     -10.932  -2.749  -0.248  1.00  0.00     0.116 C 
BRANCH  33  34
ATOM     34  N   UNL     1     -10.598  -2.190   1.056  1.00  0.00    -0.352 N 
ATOM     35  C   UNL     1     -11.435  -1.719   2.043  1.00  0.00     0.251 C 
ATOM     36  H   UNL     1      -9.636  -2.143   1.261  1.00  0.00     0.163 HD
ATOM     37  O   UNL     1     -10.971  -1.154   3.028  1.00  0.00    -0.269 OA
BRANCH  35  38
ATOM     38  C   UNL     1     -12.899  -1.872   1.900  1.00  0.00     0.039 A 
ATOM     39  C   UNL     1     -13.719  -0.750   2.057  1.00  0.00     0.014 A 
ATOM     40  C   UNL     1     -13.459  -3.117   1.599  1.00  0.00     0.014 A 
ATOM     41  C   UNL     1     -15.094  -0.862   1.837  1.00  0.00     0.010 A 
ATOM     42  C   UNL     1     -14.821  -3.215   1.325  1.00  0.00     0.010 A 
ATOM     43  C   UNL     1     -15.651  -2.089   1.441  1.00  0.00    -0.014 A 
BRANCH  43  44
ATOM     44  C   UNL     1     -17.102  -2.220   1.160  1.00  0.00     0.031 A 
ATOM     45  C   UNL     1     -17.969  -3.046   2.068  1.00  0.00     0.074 A 
ATOM     46  C   UNL     1     -17.628  -1.653   0.057  1.00  0.00     0.049 A 
ATOM     47  N   UNL     1     -19.244  -3.315   1.966  1.00  0.00    -0.248 NA
ATOM     48  C   UNL     1     -17.317  -3.664   3.236  1.00  0.00     0.031 C 
ATOM     49  C   UNL     1     -16.882  -0.873  -0.932  1.00  0.00     0.029 A 
ATOM     50  N   UNL     1     -18.912  -1.665  -0.429  1.00  0.00    -0.354 N 
ATOM     51  C   UNL     1     -19.542  -4.146   3.037  1.00  0.00     0.074 A 
ATOM     52  C   UNL     1     -18.312  -4.363   3.764  1.00  0.00     0.031 C 
ATOM     53  C   UNL     1     -17.721  -0.478  -1.904  1.00  0.00     0.029 A 
ATOM     54  C   UNL     1     -19.059  -0.993  -1.620  1.00  0.00     0.049 A 
ATOM     55  H   UNL     1     -19.658  -2.113   0.031  1.00  0.00     0.167 HD
ATOM     56  C   UNL     1     -20.740  -4.658   3.401  1.00  0.00     0.034 A 
ATOM     57  C   UNL     1     -20.146  -0.810  -2.396  1.00  0.00     0.034 A 
ATOM     58  C   UNL     1     -21.972  -4.409   2.706  1.00  0.00     0.049 A 
ATOM     59  C   UNL     1     -21.469  -1.378  -1.962  1.00  0.00     0.074 A 
ATOM     60  C   UNL     1     -23.245  -4.828   3.047  1.00  0.00     0.029 A 
ATOM     61  N   UNL     1     -22.086  -3.681   1.534  1.00  0.00    -0.354 N 
ATOM     62  N   UNL     1     -21.753  -2.061  -0.880  1.00  0.00    -0.248 NA
ATOM     63  C   UNL     1     -22.625  -1.130  -2.837  1.00  0.00     0.031 C 
ATOM     64  C   UNL     1     -24.131  -4.362   2.072  1.00  0.00     0.029 A 
ATOM     65  C   UNL     1     -23.409  -3.642   1.134  1.00  0.00     0.049 A 
ATOM     66  H   UNL     1     -21.338  -3.255   1.057  1.00  0.00     0.167 HD
ATOM     67  C   UNL     1     -23.121  -2.301  -0.929  1.00  0.00     0.074 A 
ATOM     68  C   UNL     1     -23.613  -1.684  -2.143  1.00  0.00     0.031 C 
ATOM     69  C   UNL     1     -23.894  -2.983  -0.050  1.00  0.00     0.034 A 
BRANCH  56  70
ATOM     70  C   UNL     1     -20.799  -5.488   4.652  1.00  0.00     0.023 A 
ATOM     71  C   UNL     1     -20.782  -4.841   5.903  1.00  0.00     0.012 A 
ATOM     72  C   UNL     1     -20.970  -6.883   4.590  1.00  0.00     0.148 A 
ATOM     73  C   UNL     1     -20.926  -5.573   7.079  1.00  0.00     0.002 A 
ATOM     74  C   UNL     1     -21.143  -7.603   5.766  1.00  0.00     0.091 A 
ATOM     75  F   UNL     1     -20.967  -7.474   3.387  1.00  0.00    -0.205 F 
ATOM     76  C   UNL     1     -21.117  -6.950   7.010  1.00  0.00     0.022 A 
BRANCH  74  77
ATOM     77  S   UNL     1     -21.448  -9.373   5.788  1.00  0.00     0.127 S 
ATOM     78  O   UNL     1     -20.260  -9.867   6.484  1.00  0.00    -0.237 OA
ATOM     79  O   UNL     1     -22.687  -9.459   6.560  1.00  0.00    -0.237 OA
ATOM     80  O   UNL     1     -21.561  -9.782   4.396  1.00  0.00    -0.744 OA
ENDBRANCH  74  77
ENDBRANCH  56  70
BRANCH  57  81
ATOM     81  C   UNL     1     -20.033   0.014  -3.631  1.00  0.00     0.023 A 
ATOM     82  C   UNL     1     -20.538   1.328  -3.625  1.00  0.00     0.012 A 
ATOM     83  C   UNL     1     -19.380  -0.471  -4.779  1.00  0.00     0.148 A 
ATOM     84  C   UNL     1     -20.402   2.145  -4.747  1.00  0.00     0.002 A 
ATOM     85  C   UNL     1     -19.215   0.360  -5.881  1.00  0.00     0.091 A 
ATOM     86  F   UNL     1     -18.910  -1.726  -4.757  1.00  0.00    -0.205 F 
ATOM     87  C   UNL     1     -19.734   1.665  -5.871  1.00  0.00     0.022 A 
BRANCH  85  88
ATOM     88  S   UNL     1     -18.289  -0.130  -7.340  1.00  0.00     0.127 S 
ATOM     89  O   UNL     1     -19.314  -0.067  -8.380  1.00  0.00    -0.237 OA
ATOM     90  O   UNL     1     -17.272   0.919  -7.412  1.00  0.00    -0.237 OA
ATOM     91  O   UNL     1     -17.772  -1.461  -7.053  1.00  0.00    -0.744 OA
ENDBRANCH  85  88
ENDBRANCH  57  81
BRANCH  69  92
ATOM     92  C   UNL     1     -25.366  -3.100  -0.335  1.00  0.00     0.023 A 
ATOM     93  C   UNL     1     -25.814  -4.051  -1.271  1.00  0.00     0.012 A 
ATOM     94  C   UNL     1     -26.303  -2.378   0.430  1.00  0.00     0.148 A 
ATOM     95  C   UNL     1     -27.178  -4.281  -1.444  1.00  0.00     0.002 A 
ATOM     96  C   UNL     1     -27.660  -2.637   0.276  1.00  0.00     0.091 A 
ATOM     97  F   UNL     1     -25.848  -1.475   1.310  1.00  0.00    -0.205 F 
ATOM     98  C   UNL     1     -28.099  -3.585  -0.663  1.00  0.00     0.022 A 
BRANCH  96  99
ATOM     99  S   UNL     1     -28.918  -1.851   1.289  1.00  0.00     0.127 S 
ATOM    100  O   UNL     1     -29.640  -1.052   0.300  1.00  0.00    -0.237 OA
ATOM    101  O   UNL     1     -29.661  -3.000   1.806  1.00  0.00    -0.237 OA
ATOM    102  O   UNL     1     -28.203  -1.083   2.300  1.00  0.00    -0.744 OA
ENDBRANCH  96  99
ENDBRANCH  69  92
ENDBRANCH  43  44
ENDBRANCH  35  38
ENDBRANCH  33  34
ENDBRANCH   1  33
TORSDOF 15
