REMARK SMILES Cc1cccc(N2C(=O)/C(=C/c3ccc(C(=O)NCCCCNC(=O)c4ccc(-c5c6nc(c(-c7cccc(S(=O)(=O)[O-])c7F)c7ccc([nH]7)c(-c7cccc(S(=O)(=O)[O-])c7F)c7nc(c(-c8cccc(S(=O)(=O)[O-])c8F)c8ccc5[nH]8)C=C7)C=C6)cc4)cc3)c3ccccc3C2=O)c1
REMARK SMILES IDX 21 1 20 2 19 3 18 4 16 5 17 6 15 8 12 9 13 10 90 11 14 12
REMARK SMILES IDX 89 13 11 14 7 15 8 16 97 17 9 18 10 19 96 20 98 21 91 22
REMARK SMILES IDX 95 23 92 24 94 25 93 26 6 27 1 28 2 29 3 30 99 31 4 32 5 33
REMARK SMILES IDX 22 34 23 35 24 36 25 38 26 39 27 40 88 41 28 42 87 43 29 44
REMARK SMILES IDX 30 45 31 46 81 47 32 48 86 49 80 50 82 51 33 52 85 53 79 54
REMARK SMILES IDX 78 55 34 57 66 58 46 59 65 60 47 61 50 62 64 63 83 64 48 65
REMARK SMILES IDX 49 66 63 68 84 69 51 70 35 71 36 72 44 73 37 74 39 75 45 76
REMARK SMILES IDX 38 77 40 78 41 79 42 80 43 81 67 82 68 83 76 84 69 85 71 86
REMARK SMILES IDX 77 87 70 88 72 89 73 90 74 91 75 92 52 93 53 94 61 95 54 96
REMARK SMILES IDX 56 97 62 98 55 99 57 100 58 101 59 102 60 103
REMARK H PARENT 18 7 23 37 82 56 50 67
REMARK Flexibility Score: inf
ROOT
ATOM      1  C   UNL     1      -5.684  12.087   2.916  1.00  0.00     0.023 C 
ENDROOT
BRANCH   1   2
ATOM      2  C   UNL     1      -5.225  10.702   2.463  1.00  0.00     0.023 C 
BRANCH   2   3
ATOM      3  C   UNL     1      -5.533  10.329   1.008  1.00  0.00     0.116 C 
BRANCH   3   4
ATOM      4  N   UNL     1      -5.001  11.274   0.033  1.00  0.00    -0.352 N 
ATOM      5  C   UNL     1      -4.066  11.108  -0.962  1.00  0.00     0.251 C 
ATOM      6  O   UNL     1      -3.671  12.075  -1.607  1.00  0.00    -0.269 OA
ATOM      7  H   UNL     1      -5.374  12.183   0.097  1.00  0.00     0.163 HD
BRANCH   5   8
ATOM      8  C   UNL     1      -3.461   9.781  -1.205  1.00  0.00     0.039 A 
ATOM      9  C   UNL     1      -2.227   7.282  -1.210  1.00  0.00    -0.025 A 
ATOM     10  C   UNL     1      -1.450   8.445  -1.270  1.00  0.00     0.009 A 
ATOM     11  C   UNL     1      -3.619   7.378  -1.331  1.00  0.00     0.009 A 
ATOM     12  C   UNL     1      -2.067   9.696  -1.267  1.00  0.00     0.014 A 
ATOM     13  C   UNL     1      -4.238   8.628  -1.333  1.00  0.00     0.014 A 
BRANCH   9  14
ATOM     14  C   UNL     1      -1.557   5.998  -0.973  1.00  0.00     0.022 C 
ATOM     15  N   UNL     1      -1.718   2.661   0.333  1.00  0.00    -0.242 N 
ATOM     16  C   UNL     1      -1.030   3.826  -0.067  1.00  0.00     0.265 C 
ATOM     17  C   UNL     1      -3.054   2.721   0.793  1.00  0.00     0.265 C 
ATOM     18  O   UNL     1       0.114   3.892  -0.518  1.00  0.00    -0.268 OA
ATOM     19  C   UNL     1      -1.829   5.099   0.002  1.00  0.00     0.049 C 
ATOM     20  C   UNL     1      -3.529   4.011   1.350  1.00  0.00     0.048 A 
ATOM     21  O   UNL     1      -3.874   1.806   0.823  1.00  0.00    -0.268 OA
ATOM     22  C   UNL     1      -2.874   5.193   1.024  1.00  0.00    -0.000 A 
ATOM     23  C   UNL     1      -4.626   4.022   2.228  1.00  0.00     0.014 A 
ATOM     24  C   UNL     1      -3.254   6.375   1.680  1.00  0.00     0.010 A 
ATOM     25  C   UNL     1      -5.040   5.214   2.819  1.00  0.00     0.001 A 
ATOM     26  C   UNL     1      -4.341   6.387   2.559  1.00  0.00     0.001 A 
BRANCH  15  27
ATOM     27  C   UNL     1      -1.059   1.358   0.191  1.00  0.00     0.053 A 
ATOM     28  C   UNL     1       2.498  -0.089  -0.004  1.00  0.00     0.044 C 
ATOM     29  C   UNL     1       1.000  -0.008   0.035  1.00  0.00    -0.049 A 
ATOM     30  C   UNL     1       0.241  -1.171  -0.059  1.00  0.00     0.003 A 
ATOM     31  C   UNL     1       0.347   1.232   0.179  1.00  0.00     0.030 A 
ATOM     32  C   UNL     1      -1.143  -1.090  -0.029  1.00  0.00     0.002 A 
ATOM     33  C   UNL     1      -1.777   0.154   0.086  1.00  0.00     0.027 A 
ENDBRANCH  15  27
ENDBRANCH   9  14
ENDBRANCH   5   8
ENDBRANCH   3   4
ENDBRANCH   2   3
ENDBRANCH   1   2
BRANCH   1  34
ATOM     34  C   UNL     1      -7.173  12.342   2.755  1.00  0.00     0.116 C 
BRANCH  34  35
ATOM     35  N   UNL     1      -7.993  11.817   3.825  1.00  0.00    -0.352 N 
ATOM     36  C   UNL     1      -9.351  11.960   4.047  1.00  0.00     0.251 C 
ATOM     37  H   UNL     1      -7.513  11.278   4.495  1.00  0.00     0.163 HD
ATOM     38  O   UNL     1      -9.772  11.650   5.164  1.00  0.00    -0.269 OA
BRANCH  36  39
ATOM     39  C   UNL     1     -10.295  12.323   2.951  1.00  0.00     0.039 A 
ATOM     40  C   UNL     1     -11.605  11.820   3.028  1.00  0.00     0.014 A 
ATOM     41  C   UNL     1      -9.874  12.921   1.769  1.00  0.00     0.014 A 
ATOM     42  C   UNL     1     -12.353  11.637   1.866  1.00  0.00     0.010 A 
ATOM     43  C   UNL     1     -10.568  12.677   0.610  1.00  0.00     0.010 A 
ATOM     44  C   UNL     1     -11.752  11.943   0.656  1.00  0.00    -0.014 A 
BRANCH  44  45
ATOM     45  C   UNL     1     -12.188  11.491  -0.649  1.00  0.00     0.031 A 
ATOM     46  C   UNL     1     -13.062  12.348  -1.464  1.00  0.00     0.074 A 
ATOM     47  C   UNL     1     -11.454  10.490  -1.187  1.00  0.00     0.049 A 
ATOM     48  N   UNL     1     -13.552  11.996  -2.600  1.00  0.00    -0.248 NA
ATOM     49  C   UNL     1     -13.471  13.685  -1.043  1.00  0.00     0.031 C 
ATOM     50  C   UNL     1     -11.241  10.192  -2.595  1.00  0.00     0.029 A 
ATOM     51  N   UNL     1     -10.831   9.422  -0.526  1.00  0.00    -0.354 N 
ATOM     52  C   UNL     1     -14.018  13.143  -3.202  1.00  0.00     0.074 A 
ATOM     53  C   UNL     1     -14.110  14.109  -2.138  1.00  0.00     0.031 C 
ATOM     54  C   UNL     1     -10.804   8.925  -2.706  1.00  0.00     0.029 A 
ATOM     55  C   UNL     1     -10.950   8.322  -1.393  1.00  0.00     0.049 A 
ATOM     56  H   UNL     1     -10.400   9.439   0.360  1.00  0.00     0.167 HD
ATOM     57  C   UNL     1     -14.090  13.174  -4.562  1.00  0.00     0.034 A 
ATOM     58  C   UNL     1     -11.741   7.241  -1.110  1.00  0.00     0.034 A 
ATOM     59  C   UNL     1     -13.877  11.825  -5.116  1.00  0.00     0.049 A 
ATOM     60  C   UNL     1     -12.854   7.042  -2.133  1.00  0.00     0.074 A 
ATOM     61  C   UNL     1     -12.811  11.216  -5.756  1.00  0.00     0.029 A 
ATOM     62  N   UNL     1     -14.756  10.801  -4.766  1.00  0.00    -0.354 N 
ATOM     63  N   UNL     1     -13.139   7.894  -3.080  1.00  0.00    -0.248 NA
ATOM     64  C   UNL     1     -13.740   5.881  -2.165  1.00  0.00     0.031 C 
ATOM     65  C   UNL     1     -12.993   9.805  -5.657  1.00  0.00     0.029 A 
ATOM     66  C   UNL     1     -14.193   9.557  -5.010  1.00  0.00     0.049 A 
ATOM     67  H   UNL     1     -15.657  10.942  -4.394  1.00  0.00     0.167 HD
ATOM     68  C   UNL     1     -14.275   7.512  -3.740  1.00  0.00     0.074 A 
ATOM     69  C   UNL     1     -14.560   6.197  -3.186  1.00  0.00     0.031 C 
ATOM     70  C   UNL     1     -14.912   8.338  -4.631  1.00  0.00     0.034 A 
BRANCH  57  71
ATOM     71  C   UNL     1     -14.139  14.423  -5.438  1.00  0.00     0.023 A 
ATOM     72  C   UNL     1     -14.169  14.222  -6.838  1.00  0.00     0.012 A 
ATOM     73  C   UNL     1     -14.056  15.777  -5.018  1.00  0.00     0.148 A 
ATOM     74  C   UNL     1     -14.104  15.279  -7.757  1.00  0.00     0.002 A 
ATOM     75  C   UNL     1     -14.053  16.837  -5.934  1.00  0.00     0.091 A 
ATOM     76  F   UNL     1     -13.895  16.076  -3.730  1.00  0.00    -0.205 F 
ATOM     77  C   UNL     1     -14.059  16.589  -7.306  1.00  0.00     0.022 A 
BRANCH  75  78
ATOM     78  S   UNL     1     -14.038  18.567  -5.417  1.00  0.00     0.127 S 
ATOM     79  O   UNL     1     -12.723  19.014  -5.874  1.00  0.00    -0.237 OA
ATOM     80  O   UNL     1     -15.164  19.127  -6.165  1.00  0.00    -0.237 OA
ATOM     81  O   UNL     1     -14.220  18.567  -3.970  1.00  0.00    -0.744 OA
ENDBRANCH  75  78
ENDBRANCH  57  71
BRANCH  58  82
ATOM     82  C   UNL     1     -11.837   6.953   0.356  1.00  0.00     0.023 A 
ATOM     83  C   UNL     1     -10.624   6.625   1.012  1.00  0.00     0.012 A 
ATOM     84  C   UNL     1     -12.915   7.423   1.128  1.00  0.00     0.148 A 
ATOM     85  C   UNL     1     -10.430   6.940   2.359  1.00  0.00     0.002 A 
ATOM     86  C   UNL     1     -12.717   7.721   2.478  1.00  0.00     0.091 A 
ATOM     87  F   UNL     1     -14.088   7.648   0.523  1.00  0.00    -0.205 F 
ATOM     88  C   UNL     1     -11.461   7.533   3.078  1.00  0.00     0.022 A 
BRANCH  86  89
ATOM     89  S   UNL     1     -14.016   8.471   3.471  1.00  0.00     0.127 S 
ATOM     90  O   UNL     1     -14.654   7.295   4.054  1.00  0.00    -0.237 OA
ATOM     91  O   UNL     1     -13.265   9.293   4.418  1.00  0.00    -0.237 OA
ATOM     92  O   UNL     1     -14.811   9.236   2.521  1.00  0.00    -0.744 OA
ENDBRANCH  86  89
ENDBRANCH  58  82
BRANCH  70  93
ATOM     93  C   UNL     1     -16.296   8.095  -5.214  1.00  0.00     0.023 A 
ATOM     94  C   UNL     1     -17.237   7.244  -4.603  1.00  0.00     0.012 A 
ATOM     95  C   UNL     1     -16.755   8.844  -6.331  1.00  0.00     0.148 A 
ATOM     96  C   UNL     1     -18.534   7.085  -5.106  1.00  0.00     0.002 A 
ATOM     97  C   UNL     1     -18.081   8.777  -6.750  1.00  0.00     0.091 A 
ATOM     98  F   UNL     1     -15.900   9.618  -7.014  1.00  0.00    -0.205 F 
ATOM     99  C   UNL     1     -18.965   7.870  -6.165  1.00  0.00     0.022 A 
BRANCH  97 100
ATOM    100  S   UNL     1     -18.740   9.966  -7.928  1.00  0.00     0.127 S 
ATOM    101  O   UNL     1     -18.596   9.253  -9.194  1.00  0.00    -0.237 OA
ATOM    102  O   UNL     1     -20.123  10.128  -7.474  1.00  0.00    -0.237 OA
ATOM    103  O   UNL     1     -17.918  11.158  -7.761  1.00  0.00    -0.744 OA
ENDBRANCH  97 100
ENDBRANCH  70  93
ENDBRANCH  44  45
ENDBRANCH  36  39
ENDBRANCH  34  35
ENDBRANCH   1  34
TORSDOF 16
