REMARK SMILES CC(C)Cc1ccc(S(=O)(=O)Nc2cnc(N3CCCC3)c(C(=O)NCCCCNC(=O)c3ccc(-c4c5nc(c(-c6cccc(S(=O)(=O)[O-])c6F)c6ccc([nH]6)c(-c6cccc(S(=O)(=O)[O-])c6F)c6nc(c(-c7cccc(S(=O)(=O)[O-])c7F)c7ccc4[nH]7)C=C6)C=C5)cc3)c2)cc1
REMARK SMILES IDX 26 1 25 2 23 3 24 4 22 6 13 7 14 8 96 9 15 10 16 11 12 12
REMARK SMILES IDX 9 14 10 15 11 16 8 17 5 18 6 19 98 20 7 21 97 22 4 23 2 24
REMARK SMILES IDX 1 25 3 26 17 27 18 28 21 29 19 30 20 31 27 32 28 33 29 34
REMARK SMILES IDX 30 35 31 36 32 38 33 39 34 40 95 41 35 42 94 43 36 44 37 45
REMARK SMILES IDX 38 46 88 47 39 48 93 49 87 50 89 51 40 52 92 53 86 54 85 55
REMARK SMILES IDX 41 57 73 58 53 59 72 60 54 61 57 62 71 63 90 64 55 65 56 66
REMARK SMILES IDX 70 68 91 69 58 70 42 71 43 72 51 73 44 74 46 75 52 76 45 77
REMARK SMILES IDX 47 78 48 79 49 80 50 81 74 82 75 83 83 84 76 85 78 86 84 87
REMARK SMILES IDX 77 88 79 89 80 90 81 91 82 92 59 93 60 94 68 95 61 96 63 97
REMARK SMILES IDX 69 98 62 99 64 100 65 101 66 102 67 103
REMARK H PARENT 25 5 12 13 30 37 89 56 57 67
REMARK Flexibility Score: inf
ROOT
ATOM      1  C   UNL     1      -5.051   0.336  -1.692  1.00  0.00     0.116 C 
ENDROOT
BRANCH   1   2
ATOM      2  N   UNL     1      -5.509  -1.022  -1.876  1.00  0.00    -0.352 N 
ATOM      3  C   UNL     1      -5.612  -1.891  -2.932  1.00  0.00     0.255 C 
ATOM      4  O   UNL     1      -6.053  -2.989  -2.593  1.00  0.00    -0.269 OA
ATOM      5  H   UNL     1      -5.826  -1.422  -1.034  1.00  0.00     0.163 HD
BRANCH   3   6
ATOM      6  C   UNL     1      -5.162  -1.599  -4.344  1.00  0.00     0.084 A 
ATOM      7  C   UNL     1      -3.982  -0.103  -5.833  1.00  0.00     0.068 A 
ATOM      8  C   UNL     1      -3.740  -1.186  -6.655  1.00  0.00     0.140 A 
ATOM      9  C   UNL     1      -4.824  -0.296  -4.748  1.00  0.00     0.046 A 
ATOM     10  N   UNL     1      -4.187  -2.427  -6.398  1.00  0.00    -0.236 NA
ATOM     11  C   UNL     1      -4.887  -2.651  -5.251  1.00  0.00     0.141 A 
BRANCH   7  12
ATOM     12  N   UNL     1      -3.376   1.145  -6.186  1.00  0.00    -0.278 N 
ATOM     13  H   UNL     1      -3.372   1.433  -7.128  1.00  0.00     0.180 HD
BRANCH  12  14
ATOM     14  S   UNL     1      -2.662   2.141  -5.001  1.00  0.00     0.261 S 
ATOM     15  O   UNL     1      -3.792   2.846  -4.411  1.00  0.00    -0.201 OA
ATOM     16  O   UNL     1      -1.603   2.867  -5.651  1.00  0.00    -0.201 OA
BRANCH  14  17
ATOM     17  C   UNL     1      -1.935   1.181  -3.692  1.00  0.00     0.087 A 
ATOM     18  C   UNL     1      -1.129  -0.287  -1.436  1.00  0.00    -0.048 A 
ATOM     19  C   UNL     1      -1.416   1.078  -1.322  1.00  0.00     0.005 A 
ATOM     20  C   UNL     1      -1.192  -0.892  -2.700  1.00  0.00     0.005 A 
ATOM     21  C   UNL     1      -1.823   1.807  -2.440  1.00  0.00     0.022 A 
ATOM     22  C   UNL     1      -1.569  -0.157  -3.832  1.00  0.00     0.022 A 
BRANCH  18  23
ATOM     23  C   UNL     1      -0.754  -1.094  -0.212  1.00  0.00     0.038 C 
BRANCH  23  24
ATOM     24  C   UNL     1       0.757  -1.362  -0.084  1.00  0.00    -0.013 C 
ATOM     25  C   UNL     1       1.544  -0.078   0.194  1.00  0.00     0.008 C 
ATOM     26  C   UNL     1       1.015  -2.373   1.037  1.00  0.00     0.008 C 
ENDBRANCH  23  24
ENDBRANCH  18  23
ENDBRANCH  14  17
ENDBRANCH  12  14
ENDBRANCH   7  12
BRANCH  11  27
ATOM     27  N   UNL     1      -5.254  -3.950  -5.078  1.00  0.00    -0.356 N 
ATOM     28  C   UNL     1      -6.618  -4.421  -4.915  1.00  0.00     0.118 C 
ATOM     29  C   UNL     1      -4.336  -5.046  -5.335  1.00  0.00     0.118 C 
ATOM     30  C   UNL     1      -6.388  -5.796  -4.297  1.00  0.00     0.023 C 
ATOM     31  C   UNL     1      -5.175  -6.302  -5.071  1.00  0.00     0.023 C 
ENDBRANCH  11  27
ENDBRANCH   3   6
ENDBRANCH   1   2
BRANCH   1  32
ATOM     32  C   UNL     1      -6.226   1.308  -1.709  1.00  0.00     0.023 C 
BRANCH  32  33
ATOM     33  C   UNL     1      -7.066   1.276  -0.427  1.00  0.00     0.023 C 
BRANCH  33  34
ATOM     34  C   UNL     1      -6.290   1.543   0.860  1.00  0.00     0.116 C 
BRANCH  34  35
ATOM     35  N   UNL     1      -5.512   2.772   0.812  1.00  0.00    -0.352 N 
ATOM     36  C   UNL     1      -5.164   3.603   1.847  1.00  0.00     0.251 C 
ATOM     37  H   UNL     1      -5.194   3.043  -0.079  1.00  0.00     0.163 HD
ATOM     38  O   UNL     1      -4.587   4.662   1.618  1.00  0.00    -0.269 OA
BRANCH  36  39
ATOM     39  C   UNL     1      -5.519   3.230   3.231  1.00  0.00     0.039 A 
ATOM     40  C   UNL     1      -6.159   4.175   4.036  1.00  0.00     0.014 A 
ATOM     41  C   UNL     1      -5.229   1.956   3.727  1.00  0.00     0.014 A 
ATOM     42  C   UNL     1      -6.550   3.826   5.330  1.00  0.00     0.010 A 
ATOM     43  C   UNL     1      -5.671   1.592   4.995  1.00  0.00     0.010 A 
ATOM     44  C   UNL     1      -6.326   2.526   5.811  1.00  0.00    -0.014 A 
BRANCH  44  45
ATOM     45  C   UNL     1      -6.767   2.132   7.171  1.00  0.00     0.031 A 
ATOM     46  C   UNL     1      -5.751   1.794   8.227  1.00  0.00     0.074 A 
ATOM     47  C   UNL     1      -8.082   2.006   7.432  1.00  0.00     0.049 A 
ATOM     48  N   UNL     1      -5.944   1.419   9.464  1.00  0.00    -0.248 NA
ATOM     49  C   UNL     1      -4.333   1.859   7.835  1.00  0.00     0.031 C 
ATOM     50  C   UNL     1      -9.160   2.214   6.462  1.00  0.00     0.029 A 
ATOM     51  N   UNL     1      -8.736   1.651   8.584  1.00  0.00    -0.354 N 
ATOM     52  C   UNL     1      -4.681   1.170   9.987  1.00  0.00     0.074 A 
ATOM     53  C   UNL     1      -3.729   1.405   8.923  1.00  0.00     0.031 C 
ATOM     54  C   UNL     1     -10.340   1.988   7.062  1.00  0.00     0.029 A 
ATOM     55  C   UNL     1     -10.104   1.611   8.453  1.00  0.00     0.049 A 
ATOM     56  H   UNL     1      -8.269   1.444   9.426  1.00  0.00     0.167 HD
ATOM     57  C   UNL     1      -4.340   0.815  11.248  1.00  0.00     0.034 A 
ATOM     58  C   UNL     1     -11.059   1.318   9.357  1.00  0.00     0.034 A 
ATOM     59  C   UNL     1      -5.285   0.645  12.319  1.00  0.00     0.049 A 
ATOM     60  C   UNL     1     -10.654   1.015  10.774  1.00  0.00     0.074 A 
ATOM     61  C   UNL     1      -5.036   0.379  13.653  1.00  0.00     0.029 A 
ATOM     62  N   UNL     1      -6.661   0.731  12.177  1.00  0.00    -0.354 N 
ATOM     63  N   UNL     1      -9.451   0.959  11.293  1.00  0.00    -0.248 NA
ATOM     64  C   UNL     1     -11.737   0.781  11.740  1.00  0.00     0.031 C 
ATOM     65  C   UNL     1      -6.264   0.305  14.320  1.00  0.00     0.029 A 
ATOM     66  C   UNL     1      -7.276   0.528  13.399  1.00  0.00     0.049 A 
ATOM     67  H   UNL     1      -7.131   0.910  11.331  1.00  0.00     0.167 HD
ATOM     68  C   UNL     1      -9.632   0.718  12.650  1.00  0.00     0.074 A 
ATOM     69  C   UNL     1     -11.062   0.662  12.876  1.00  0.00     0.031 C 
ATOM     70  C   UNL     1      -8.700   0.540  13.618  1.00  0.00     0.034 A 
BRANCH  57  71
ATOM     71  C   UNL     1      -2.874   0.666  11.556  1.00  0.00     0.023 A 
ATOM     72  C   UNL     1      -2.073   1.822  11.661  1.00  0.00     0.012 A 
ATOM     73  C   UNL     1      -2.298  -0.598  11.786  1.00  0.00     0.148 A 
ATOM     74  C   UNL     1      -0.715   1.721  11.958  1.00  0.00     0.002 A 
ATOM     75  C   UNL     1      -0.950  -0.687  12.120  1.00  0.00     0.091 A 
ATOM     76  F   UNL     1      -3.068  -1.688  11.656  1.00  0.00    -0.205 F 
ATOM     77  C   UNL     1      -0.157   0.469  12.196  1.00  0.00     0.022 A 
BRANCH  75  78
ATOM     78  S   UNL     1      -0.158  -2.251  12.512  1.00  0.00     0.127 S 
ATOM     79  O   UNL     1       0.594  -2.517  11.287  1.00  0.00    -0.237 OA
ATOM     80  O   UNL     1       0.667  -1.902  13.669  1.00  0.00    -0.237 OA
ATOM     81  O   UNL     1      -1.240  -3.182  12.803  1.00  0.00    -0.744 OA
ENDBRANCH  75  78
ENDBRANCH  57  71
BRANCH  58  82
ATOM     82  C   UNL     1     -12.495   1.408   8.971  1.00  0.00     0.023 A 
ATOM     83  C   UNL     1     -13.269   2.480   9.456  1.00  0.00     0.012 A 
ATOM     84  C   UNL     1     -13.087   0.472   8.102  1.00  0.00     0.148 A 
ATOM     85  C   UNL     1     -14.613   2.604   9.105  1.00  0.00     0.002 A 
ATOM     86  C   UNL     1     -14.414   0.629   7.716  1.00  0.00     0.091 A 
ATOM     87  F   UNL     1     -12.340  -0.551   7.662  1.00  0.00    -0.205 F 
ATOM     88  C   UNL     1     -15.183   1.686   8.228  1.00  0.00     0.022 A 
BRANCH  86  89
ATOM     89  S   UNL     1     -15.184  -0.435   6.490  1.00  0.00     0.127 S 
ATOM     90  O   UNL     1     -15.991  -1.320   7.324  1.00  0.00    -0.237 OA
ATOM     91  O   UNL     1     -15.948   0.522   5.688  1.00  0.00    -0.237 OA
ATOM     92  O   UNL     1     -14.078  -1.059   5.775  1.00  0.00    -0.744 OA
ENDBRANCH  86  89
ENDBRANCH  58  82
BRANCH  70  93
ATOM     93  C   UNL     1      -9.189   0.291  15.019  1.00  0.00     0.023 A 
ATOM     94  C   UNL     1      -9.723  -0.968  15.354  1.00  0.00     0.012 A 
ATOM     95  C   UNL     1      -9.051   1.273  16.020  1.00  0.00     0.148 A 
ATOM     96  C   UNL     1     -10.137  -1.239  16.657  1.00  0.00     0.002 A 
ATOM     97  C   UNL     1      -9.427   0.982  17.326  1.00  0.00     0.091 A 
ATOM     98  F   UNL     1      -8.563   2.474  15.678  1.00  0.00    -0.205 F 
ATOM     99  C   UNL     1      -9.979  -0.270  17.645  1.00  0.00     0.022 A 
BRANCH  97 100
ATOM    100  S   UNL     1      -9.169   2.148  18.669  1.00  0.00     0.127 S 
ATOM    101  O   UNL     1     -10.490   2.758  18.794  1.00  0.00    -0.237 OA
ATOM    102  O   UNL     1      -8.793   1.274  19.781  1.00  0.00    -0.237 OA
ATOM    103  O   UNL     1      -8.102   3.032  18.218  1.00  0.00    -0.744 OA
ENDBRANCH  97 100
ENDBRANCH  70  93
ENDBRANCH  44  45
ENDBRANCH  36  39
ENDBRANCH  34  35
ENDBRANCH  33  34
ENDBRANCH  32  33
ENDBRANCH   1  32
TORSDOF 20
