REMARK SMILES Cn1cc(C[C@H](C(=O)NCCCCNC(=O)c2ccc(-c3c4nc(c(-c5cccc(S(=O)(=O)[O-])c5F)c5ccc([nH]5)c(-c5cccc(S(=O)(=O)[O-])c5F)c5nc(c(-c6cccc(S(=O)(=O)[O-])c6F)c6ccc3[nH]6)C=C5)C=C4)cc2)c2ccc(F)cc2)cn1
REMARK SMILES IDX 12 1 11 2 10 3 9 4 7 5 8 6 6 8 5 9 4 10 1 11 2 12 3 13 88 14
REMARK SMILES IDX 87 15 80 16 81 17 86 18 82 19 85 20 83 21 84 22 13 23 14 24
REMARK SMILES IDX 15 25 16 27 17 28 18 29 79 30 19 31 78 32 20 33 21 34 22 35
REMARK SMILES IDX 72 36 23 37 77 38 71 39 73 40 24 41 76 42 70 43 69 44 25 46
REMARK SMILES IDX 57 47 37 48 56 49 38 50 41 51 55 52 74 53 39 54 40 55 54 57
REMARK SMILES IDX 75 58 42 59 26 60 27 61 35 62 28 63 30 64 36 65 29 66 31 67
REMARK SMILES IDX 32 68 33 69 34 70 58 71 59 72 67 73 60 74 62 75 68 76 61 77
REMARK SMILES IDX 63 78 64 79 65 80 66 81 43 82 44 83 52 84 45 85 47 86 53 87
REMARK SMILES IDX 46 88 48 89 49 90 50 91 51 92
REMARK H PARENT 9 7 14 26 73 45 41 56
REMARK Flexibility Score: inf
ROOT
ATOM      1  C   UNL     1       3.920  -5.205   1.732  1.00  0.00     0.023 C 
ENDROOT
BRANCH   1   2
ATOM      2  C   UNL     1       4.054  -4.548   0.357  1.00  0.00     0.023 C 
BRANCH   2   3
ATOM      3  C   UNL     1       2.786  -3.848  -0.136  1.00  0.00     0.116 C 
BRANCH   3   4
ATOM      4  N   UNL     1       2.643  -2.551   0.489  1.00  0.00    -0.356 N 
ATOM      5  C   UNL     1       3.119  -1.338   0.088  1.00  0.00     0.227 C 
ATOM      6  O   UNL     1       3.040  -0.414   0.903  1.00  0.00    -0.274 OA
ATOM      7  H   UNL     1       2.125  -2.543   1.326  1.00  0.00     0.163 HD
BRANCH   5   8
ATOM      8  C   UNL     1       3.679  -1.123  -1.337  1.00  0.00     0.113 C 
BRANCH   8   9
ATOM      9  C   UNL     1       3.701   0.406  -1.569  1.00  0.00     0.057 C 
BRANCH   9  10
ATOM     10  C   UNL     1       3.969   0.923  -2.944  1.00  0.00    -0.009 A 
ATOM     11  C   UNL     1       4.357   3.514  -5.423  1.00  0.00     0.173 C 
ATOM     12  N   UNL     1       4.256   2.321  -4.619  1.00  0.00    -0.276 N 
ATOM     13  C   UNL     1       4.045   2.263  -3.277  1.00  0.00     0.112 A 
ATOM     14  N   UNL     1       4.340   1.110  -5.196  1.00  0.00    -0.182 NA
ATOM     15  C   UNL     1       4.169   0.263  -4.176  1.00  0.00     0.138 A 
ENDBRANCH   9  10
ENDBRANCH   8   9
BRANCH   8  16
ATOM     16  C   UNL     1       5.039  -1.790  -1.533  1.00  0.00    -0.035 A 
ATOM     17  C   UNL     1       5.161  -2.908  -2.383  1.00  0.00     0.007 A 
ATOM     18  C   UNL     1       6.178  -1.357  -0.834  1.00  0.00     0.007 A 
ATOM     19  C   UNL     1       6.368  -3.604  -2.484  1.00  0.00     0.039 A 
ATOM     20  C   UNL     1       7.392  -2.038  -0.958  1.00  0.00     0.039 A 
ATOM     21  C   UNL     1       7.472  -3.163  -1.768  1.00  0.00     0.123 A 
ATOM     22  F   UNL     1       8.626  -3.837  -1.855  1.00  0.00    -0.207 F 
ENDBRANCH   8  16
ENDBRANCH   5   8
ENDBRANCH   3   4
ENDBRANCH   2   3
ENDBRANCH   1   2
BRANCH   1  23
ATOM     23  C   UNL     1       2.970  -6.395   1.778  1.00  0.00     0.116 C 
BRANCH  23  24
ATOM     24  N   UNL     1       3.345  -7.467   0.865  1.00  0.00    -0.352 N 
ATOM     25  C   UNL     1       3.147  -8.820   1.014  1.00  0.00     0.251 C 
ATOM     26  H   UNL     1       3.798  -7.187   0.037  1.00  0.00     0.163 HD
ATOM     27  O   UNL     1       3.602  -9.608   0.195  1.00  0.00    -0.269 OA
BRANCH  25  28
ATOM     28  C   UNL     1       2.416  -9.308   2.201  1.00  0.00     0.039 A 
ATOM     29  C   UNL     1       3.002 -10.302   2.989  1.00  0.00     0.014 A 
ATOM     30  C   UNL     1       1.192  -8.742   2.565  1.00  0.00     0.014 A 
ATOM     31  C   UNL     1       2.390 -10.678   4.186  1.00  0.00     0.010 A 
ATOM     32  C   UNL     1       0.622  -9.068   3.791  1.00  0.00     0.010 A 
ATOM     33  C   UNL     1       1.216 -10.037   4.614  1.00  0.00    -0.014 A 
BRANCH  33  34
ATOM     34  C   UNL     1       0.601 -10.348   5.928  1.00  0.00     0.031 A 
ATOM     35  C   UNL     1      -0.778 -10.944   5.993  1.00  0.00     0.074 A 
ATOM     36  C   UNL     1       1.242  -9.997   7.060  1.00  0.00     0.049 A 
ATOM     37  N   UNL     1      -1.506 -11.222   7.043  1.00  0.00    -0.248 NA
ATOM     38  C   UNL     1      -1.439 -11.238   4.710  1.00  0.00     0.031 C 
ATOM     39  C   UNL     1       2.543  -9.327   7.124  1.00  0.00     0.029 A 
ATOM     40  N   UNL     1       0.873 -10.128   8.375  1.00  0.00    -0.354 N 
ATOM     41  C   UNL     1      -2.720 -11.684   6.550  1.00  0.00     0.074 A 
ATOM     42  C   UNL     1      -2.644 -11.619   5.107  1.00  0.00     0.031 C 
ATOM     43  C   UNL     1       2.863  -9.108   8.410  1.00  0.00     0.029 A 
ATOM     44  C   UNL     1       1.785  -9.602   9.261  1.00  0.00     0.049 A 
ATOM     45  H   UNL     1       0.034 -10.558   8.659  1.00  0.00     0.167 HD
ATOM     46  C   UNL     1      -3.788 -12.155   7.236  1.00  0.00     0.034 A 
ATOM     47  C   UNL     1       1.754  -9.527  10.606  1.00  0.00     0.034 A 
ATOM     48  C   UNL     1      -3.834 -12.277   8.667  1.00  0.00     0.049 A 
ATOM     49  C   UNL     1       0.584 -10.118  11.343  1.00  0.00     0.074 A 
ATOM     50  C   UNL     1      -4.827 -12.838   9.451  1.00  0.00     0.029 A 
ATOM     51  N   UNL     1      -2.845 -11.832   9.530  1.00  0.00    -0.354 N 
ATOM     52  N   UNL     1      -0.480 -10.713  10.860  1.00  0.00    -0.248 NA
ATOM     53  C   UNL     1       0.625 -10.062  12.812  1.00  0.00     0.031 C 
ATOM     54  C   UNL     1      -4.440 -12.725  10.791  1.00  0.00     0.029 A 
ATOM     55  C   UNL     1      -3.204 -12.101  10.839  1.00  0.00     0.049 A 
ATOM     56  H   UNL     1      -2.011 -11.389   9.253  1.00  0.00     0.167 HD
ATOM     57  C   UNL     1      -1.218 -11.130  11.961  1.00  0.00     0.074 A 
ATOM     58  C   UNL     1      -0.468 -10.740  13.138  1.00  0.00     0.031 C 
ATOM     59  C   UNL     1      -2.418 -11.759  11.997  1.00  0.00     0.034 A 
BRANCH  46  60
ATOM     60  C   UNL     1      -4.968 -12.644   6.439  1.00  0.00     0.023 A 
ATOM     61  C   UNL     1      -4.866 -13.861   5.735  1.00  0.00     0.012 A 
ATOM     62  C   UNL     1      -6.185 -11.937   6.426  1.00  0.00     0.148 A 
ATOM     63  C   UNL     1      -5.947 -14.352   5.004  1.00  0.00     0.002 A 
ATOM     64  C   UNL     1      -7.271 -12.453   5.727  1.00  0.00     0.091 A 
ATOM     65  F   UNL     1      -6.255 -10.769   7.080  1.00  0.00    -0.205 F 
ATOM     66  C   UNL     1      -7.151 -13.654   5.009  1.00  0.00     0.022 A 
BRANCH  64  67
ATOM     67  S   UNL     1      -8.886 -11.665   5.730  1.00  0.00     0.127 S 
ATOM     68  O   UNL     1      -8.943 -11.106   4.380  1.00  0.00    -0.237 OA
ATOM     69  O   UNL     1      -9.783 -12.798   5.959  1.00  0.00    -0.237 OA
ATOM     70  O   UNL     1      -8.853 -10.691   6.812  1.00  0.00    -0.744 OA
ENDBRANCH  64  67
ENDBRANCH  46  60
BRANCH  47  71
ATOM     71  C   UNL     1       2.909  -8.943  11.344  1.00  0.00     0.023 A 
ATOM     72  C   UNL     1       3.756  -9.796  12.079  1.00  0.00     0.012 A 
ATOM     73  C   UNL     1       3.194  -7.565  11.300  1.00  0.00     0.148 A 
ATOM     74  C   UNL     1       4.848  -9.284  12.781  1.00  0.00     0.002 A 
ATOM     75  C   UNL     1       4.314  -7.068  11.960  1.00  0.00     0.091 A 
ATOM     76  F   UNL     1       2.369  -6.766  10.609  1.00  0.00    -0.205 F 
ATOM     77  C   UNL     1       5.133  -7.923  12.713  1.00  0.00     0.022 A 
BRANCH  75  78
ATOM     78  S   UNL     1       4.825  -5.352  11.816  1.00  0.00     0.127 S 
ATOM     79  O   UNL     1       4.411  -4.807  13.106  1.00  0.00    -0.237 OA
ATOM     80  O   UNL     1       6.272  -5.477  11.636  1.00  0.00    -0.237 OA
ATOM     81  O   UNL     1       4.122  -4.835  10.649  1.00  0.00    -0.744 OA
ENDBRANCH  75  78
ENDBRANCH  47  71
BRANCH  59  82
ATOM     82  C   UNL     1      -2.993 -12.090  13.348  1.00  0.00     0.023 A 
ATOM     83  C   UNL     1      -3.543 -11.062  14.138  1.00  0.00     0.012 A 
ATOM     84  C   UNL     1      -3.064 -13.423  13.797  1.00  0.00     0.148 A 
ATOM     85  C   UNL     1      -4.133 -11.352  15.367  1.00  0.00     0.002 A 
ATOM     86  C   UNL     1      -3.693 -13.710  15.003  1.00  0.00     0.091 A 
ATOM     87  F   UNL     1      -2.516 -14.385  13.040  1.00  0.00    -0.205 F 
ATOM     88  C   UNL     1      -4.219 -12.675  15.793  1.00  0.00     0.022 A 
BRANCH  86  89
ATOM     89  S   UNL     1      -3.930 -15.394  15.583  1.00  0.00     0.127 S 
ATOM     90  O   UNL     1      -2.917 -15.494  16.631  1.00  0.00    -0.237 OA
ATOM     91  O   UNL     1      -5.310 -15.366  16.070  1.00  0.00    -0.237 OA
ATOM     92  O   UNL     1      -3.720 -16.248  14.421  1.00  0.00    -0.744 OA
ENDBRANCH  86  89
ENDBRANCH  59  82
ENDBRANCH  33  34
ENDBRANCH  25  28
ENDBRANCH  23  24
ENDBRANCH   1  23
TORSDOF 17
