REMARK SMILES CC1=C2C(=O)N(C[C@H]3CCCO3)C(=O)N=C2S[C@@H]1C(=O)NCCCCNC(=O)c1ccc(-c2c3nc(c(-c4cccc(S(=O)(=O)[O-])c4F)c4ccc([nH]4)c(-c4cccc(S(=O)(=O)[O-])c4F)c4nc(c(-c5cccc(S(=O)(=O)[O-])c5F)c5ccc2[nH]5)C=C4)C=C3)cc1
REMARK SMILES IDX 24 1 23 2 22 3 21 4 19 5 20 6 18 8 1 9 2 10 3 11 4 12 16 13
REMARK SMILES IDX 17 14 5 15 6 16 15 17 13 18 14 19 7 20 8 21 9 22 12 23 10 24
REMARK SMILES IDX 11 25 25 26 26 27 27 28 28 30 29 31 30 32 91 33 31 34 90 35
REMARK SMILES IDX 32 36 33 37 34 38 84 39 35 40 89 41 83 42 85 43 36 44 88 45
REMARK SMILES IDX 82 46 81 47 37 49 69 50 49 51 68 52 50 53 53 54 67 55 86 56
REMARK SMILES IDX 51 57 52 58 66 60 87 61 54 62 38 63 39 64 47 65 40 66 42 67
REMARK SMILES IDX 48 68 41 69 43 70 44 71 45 72 46 73 70 74 71 75 79 76 72 77
REMARK SMILES IDX 74 78 80 79 73 80 75 81 76 82 77 83 78 84 55 85 56 86 64 87
REMARK SMILES IDX 57 88 59 89 65 90 58 91 60 92 61 93 62 94 63 95
REMARK H PARENT 21 7 26 29 85 48 53 59
REMARK Flexibility Score: inf
ROOT
ATOM      1  C   UNL     1       6.872   1.404   7.873  1.00  0.00     0.023 C 
ENDROOT
BRANCH   1   2
ATOM      2  C   UNL     1       7.339   0.651   6.628  1.00  0.00     0.023 C 
BRANCH   2   3
ATOM      3  C   UNL     1       7.011   1.351   5.314  1.00  0.00     0.116 C 
BRANCH   3   4
ATOM      4  N   UNL     1       7.879   2.488   5.071  1.00  0.00    -0.355 N 
ATOM      5  C   UNL     1       8.865   2.684   4.150  1.00  0.00     0.237 C 
ATOM      6  O   UNL     1       9.437   3.779   4.155  1.00  0.00    -0.273 OA
ATOM      7  H   UNL     1       7.729   3.250   5.676  1.00  0.00     0.163 HD
BRANCH   5   8
ATOM      8  C   UNL     1       9.236   1.643   3.085  1.00  0.00     0.169 C 
ATOM      9  C   UNL     1       7.345   2.263   1.449  1.00  0.00     0.042 C 
ATOM     10  C   UNL     1       8.094   1.212   2.206  1.00  0.00    -0.035 C 
ATOM     11  C   UNL     1       7.870  -0.109   2.163  1.00  0.00     0.073 C 
ATOM     12  C   UNL     1       6.822  -0.865   1.484  1.00  0.00     0.264 C 
ATOM     13  C   UNL     1       8.826  -0.893   2.921  1.00  0.00     0.116 C 
ATOM     14  S   UNL     1       9.913   0.116   3.825  1.00  0.00    -0.087 SA
ATOM     15  O   UNL     1       5.718  -0.380   1.283  1.00  0.00    -0.268 OA
ATOM     16  N   UNL     1       7.214  -2.151   1.201  1.00  0.00    -0.256 N 
ATOM     17  N   UNL     1       8.884  -2.172   2.927  1.00  0.00    -0.186 NA
ATOM     18  C   UNL     1       8.061  -2.862   2.066  1.00  0.00     0.351 C 
ATOM     19  O   UNL     1       8.097  -4.090   2.042  1.00  0.00    -0.246 OA
BRANCH  16  20
ATOM     20  C   UNL     1       6.780  -2.821  -0.025  1.00  0.00     0.163 C 
BRANCH  20  21
ATOM     21  C   UNL     1       5.408  -2.521  -0.661  1.00  0.00     0.138 C 
ATOM     22  C   UNL     1       5.245  -1.193  -1.392  1.00  0.00     0.036 C 
ATOM     23  O   UNL     1       5.227  -3.512  -1.712  1.00  0.00    -0.376 OA
ATOM     24  C   UNL     1       5.829  -1.460  -2.752  1.00  0.00     0.031 C 
ATOM     25  C   UNL     1       5.428  -2.894  -2.994  1.00  0.00     0.160 C 
ENDBRANCH  20  21
ENDBRANCH  16  20
ENDBRANCH   5   8
ENDBRANCH   3   4
ENDBRANCH   2   3
ENDBRANCH   1   2
BRANCH   1  26
ATOM     26  C   UNL     1       5.380   1.723   7.921  1.00  0.00     0.116 C 
BRANCH  26  27
ATOM     27  N   UNL     1       4.532   0.548   7.772  1.00  0.00    -0.352 N 
ATOM     28  C   UNL     1       3.351   0.262   8.416  1.00  0.00     0.251 C 
ATOM     29  H   UNL     1       4.843  -0.128   7.128  1.00  0.00     0.163 HD
ATOM     30  O   UNL     1       2.800  -0.822   8.252  1.00  0.00    -0.269 OA
BRANCH  28  31
ATOM     31  C   UNL     1       2.775   1.262   9.338  1.00  0.00     0.039 A 
ATOM     32  C   UNL     1       2.461   0.873  10.643  1.00  0.00     0.014 A 
ATOM     33  C   UNL     1       2.608   2.588   8.931  1.00  0.00     0.014 A 
ATOM     34  C   UNL     1       2.053   1.837  11.567  1.00  0.00     0.010 A 
ATOM     35  C   UNL     1       2.260   3.554   9.869  1.00  0.00     0.010 A 
ATOM     36  C   UNL     1       1.989   3.190  11.197  1.00  0.00    -0.014 A 
BRANCH  36  37
ATOM     37  C   UNL     1       1.688   4.250  12.192  1.00  0.00     0.031 A 
ATOM     38  C   UNL     1       0.449   5.090  12.055  1.00  0.00     0.074 A 
ATOM     39  C   UNL     1       2.597   4.537  13.146  1.00  0.00     0.049 A 
ATOM     40  N   UNL     1       0.066   6.112  12.774  1.00  0.00    -0.248 NA
ATOM     41  C   UNL     1      -0.463   4.759  10.947  1.00  0.00     0.031 C 
ATOM     42  C   UNL     1       3.886   3.861  13.318  1.00  0.00     0.029 A 
ATOM     43  N   UNL     1       2.596   5.499  14.125  1.00  0.00    -0.354 N 
ATOM     44  C   UNL     1      -1.103   6.574  12.183  1.00  0.00     0.074 A 
ATOM     45  C   UNL     1      -1.358   5.733  11.034  1.00  0.00     0.031 C 
ATOM     46  C   UNL     1       4.553   4.437  14.330  1.00  0.00     0.029 A 
ATOM     47  C   UNL     1       3.753   5.532  14.868  1.00  0.00     0.049 A 
ATOM     48  H   UNL     1       1.838   6.107  14.281  1.00  0.00     0.167 HD
ATOM     49  C   UNL     1      -1.906   7.589  12.578  1.00  0.00     0.034 A 
ATOM     50  C   UNL     1       4.131   6.357  15.865  1.00  0.00     0.034 A 
ATOM     51  C   UNL     1      -1.689   8.375  13.762  1.00  0.00     0.049 A 
ATOM     52  C   UNL     1       3.178   7.421  16.335  1.00  0.00     0.074 A 
ATOM     53  C   UNL     1      -2.517   9.334  14.319  1.00  0.00     0.029 A 
ATOM     54  N   UNL     1      -0.565   8.297  14.568  1.00  0.00    -0.354 N 
ATOM     55  N   UNL     1       1.981   7.711  15.886  1.00  0.00    -0.248 NA
ATOM     56  C   UNL     1       3.608   8.248  17.473  1.00  0.00     0.031 C 
ATOM     57  C   UNL     1      -1.887   9.843  15.460  1.00  0.00     0.029 A 
ATOM     58  C   UNL     1      -0.671   9.197  15.614  1.00  0.00     0.049 A 
ATOM     59  H   UNL     1       0.196   7.692  14.418  1.00  0.00     0.167 HD
ATOM     60  C   UNL     1       1.504   8.731  16.701  1.00  0.00     0.074 A 
ATOM     61  C   UNL     1       2.532   8.992  17.688  1.00  0.00     0.031 C 
ATOM     62  C   UNL     1       0.331   9.405  16.626  1.00  0.00     0.034 A 
BRANCH  49  63
ATOM     63  C   UNL     1      -3.142   7.865  11.767  1.00  0.00     0.023 A 
ATOM     64  C   UNL     1      -4.246   6.997  11.876  1.00  0.00     0.012 A 
ATOM     65  C   UNL     1      -3.243   9.019  10.965  1.00  0.00     0.148 A 
ATOM     66  C   UNL     1      -5.427   7.259  11.183  1.00  0.00     0.002 A 
ATOM     67  C   UNL     1      -4.436   9.293  10.305  1.00  0.00     0.091 A 
ATOM     68  F   UNL     1      -2.173   9.819  10.856  1.00  0.00    -0.205 F 
ATOM     69  C   UNL     1      -5.525   8.412  10.408  1.00  0.00     0.022 A 
BRANCH  67  70
ATOM     70  S   UNL     1      -4.686  10.786   9.337  1.00  0.00     0.127 S 
ATOM     71  O   UNL     1      -4.683  10.256   7.974  1.00  0.00    -0.237 OA
ATOM     72  O   UNL     1      -5.992  11.245   9.809  1.00  0.00    -0.237 OA
ATOM     73  O   UNL     1      -3.576  11.668   9.668  1.00  0.00    -0.744 OA
ENDBRANCH  67  70
ENDBRANCH  49  63
BRANCH  50  74
ATOM     74  C   UNL     1       5.447   6.159  16.533  1.00  0.00     0.023 A 
ATOM     75  C   UNL     1       5.484   5.643  17.843  1.00  0.00     0.012 A 
ATOM     76  C   UNL     1       6.658   6.445  15.875  1.00  0.00     0.148 A 
ATOM     77  C   UNL     1       6.701   5.443  18.495  1.00  0.00     0.002 A 
ATOM     78  C   UNL     1       7.869   6.195  16.512  1.00  0.00     0.091 A 
ATOM     79  F   UNL     1       6.606   6.954  14.635  1.00  0.00    -0.205 F 
ATOM     80  C   UNL     1       7.893   5.708  17.827  1.00  0.00     0.022 A 
BRANCH  78  81
ATOM     81  S   UNL     1       9.439   6.384  15.659  1.00  0.00     0.127 S 
ATOM     82  O   UNL     1       9.868   7.705  16.107  1.00  0.00    -0.237 OA
ATOM     83  O   UNL     1      10.222   5.268  16.193  1.00  0.00    -0.237 OA
ATOM     84  O   UNL     1       9.118   6.257  14.243  1.00  0.00    -0.744 OA
ENDBRANCH  78  81
ENDBRANCH  50  74
BRANCH  62  85
ATOM     85  C   UNL     1       0.077  10.484  17.643  1.00  0.00     0.023 A 
ATOM     86  C   UNL     1       0.743  11.719  17.521  1.00  0.00     0.012 A 
ATOM     87  C   UNL     1      -0.879  10.309  18.662  1.00  0.00     0.148 A 
ATOM     88  C   UNL     1       0.476  12.758  18.412  1.00  0.00     0.002 A 
ATOM     89  C   UNL     1      -1.170  11.363  19.520  1.00  0.00     0.091 A 
ATOM     90  F   UNL     1      -1.486   9.118  18.774  1.00  0.00    -0.205 F 
ATOM     91  C   UNL     1      -0.488  12.585  19.402  1.00  0.00     0.022 A 
BRANCH  89  92
ATOM     92  S   UNL     1      -2.462  11.253  20.764  1.00  0.00     0.127 S 
ATOM     93  O   UNL     1      -1.686  11.043  21.984  1.00  0.00    -0.237 OA
ATOM     94  O   UNL     1      -3.105  12.564  20.668  1.00  0.00    -0.237 OA
ATOM     95  O   UNL     1      -3.309  10.139  20.357  1.00  0.00    -0.744 OA
ENDBRANCH  89  92
ENDBRANCH  62  85
ENDBRANCH  36  37
ENDBRANCH  28  31
ENDBRANCH  26  27
ENDBRANCH   1  26
TORSDOF 16
