REMARK SMILES O=C(NCCCCNC(=O)c1ccc(COc2cccc(Cl)c2Cl)o1)c1ccc(-c2c3nc(c(-c4cccc(S(=O)(=O)[O-])c4F)c4ccc([nH]4)c(-c4cccc(S(=O)(=O)[O-])c4F)c4nc(c(-c5cccc(S(=O)(=O)[O-])c5F)c5ccc2[nH]5)C=C4)C=C3)cc1
REMARK SMILES IDX 5 1 4 2 3 3 1 4 2 5 26 7 27 8 88 9 28 10 87 11 29 12 30 13
REMARK SMILES IDX 31 14 81 15 32 16 86 17 80 18 82 19 33 20 85 21 79 22 78 23
REMARK SMILES IDX 34 25 66 26 46 27 65 28 47 29 50 30 64 31 83 32 48 33 49 34
REMARK SMILES IDX 63 36 84 37 51 38 35 39 36 40 44 41 37 42 39 43 45 44 38 45
REMARK SMILES IDX 40 46 41 47 42 48 43 49 67 50 68 51 76 52 69 53 71 54 77 55
REMARK SMILES IDX 70 56 72 57 73 58 74 59 75 60 52 61 53 62 61 63 54 64 56 65
REMARK SMILES IDX 62 66 55 67 57 68 58 69 59 70 60 71 6 72 7 73 8 74 9 75
REMARK SMILES IDX 10 77 11 78 12 79 25 80 13 81 14 82 15 83 16 84 17 85 18 86
REMARK SMILES IDX 23 87 19 88 21 89 24 90 20 91 22 92
REMARK H PARENT 3 6 82 24 50 35 8 76
REMARK Flexibility Score: inf
ROOT
ATOM      1  C   UNL     1       4.883  -2.437   0.852  1.00  0.00     0.023 C 
ENDROOT
BRANCH   1   2
ATOM      2  C   UNL     1       4.540  -1.278  -0.072  1.00  0.00     0.116 C 
BRANCH   2   3
ATOM      3  N   UNL     1       3.108  -1.130  -0.296  1.00  0.00    -0.352 N 
ATOM      4  O   UNL     1       1.096  -0.113  -0.222  1.00  0.00    -0.269 OA
ATOM      5  C   UNL     1       2.315  -0.020  -0.118  1.00  0.00     0.251 C 
ATOM      6  H   UNL     1       2.644  -1.936  -0.618  1.00  0.00     0.163 HD
BRANCH   5   7
ATOM      7  C   UNL     1       2.950   1.266   0.235  1.00  0.00     0.039 A 
ATOM      8  C   UNL     1       4.084   1.700  -0.455  1.00  0.00     0.014 A 
ATOM      9  C   UNL     1       2.443   2.010   1.301  1.00  0.00     0.014 A 
ATOM     10  C   UNL     1       4.814   2.773   0.035  1.00  0.00     0.010 A 
ATOM     11  C   UNL     1       3.124   3.153   1.727  1.00  0.00     0.010 A 
ATOM     12  C   UNL     1       4.340   3.517   1.129  1.00  0.00    -0.014 A 
BRANCH  12  13
ATOM     13  C   UNL     1       5.113   4.698   1.592  1.00  0.00     0.031 A 
ATOM     14  C   UNL     1       5.696   4.760   2.977  1.00  0.00     0.074 A 
ATOM     15  C   UNL     1       5.292   5.723   0.737  1.00  0.00     0.049 A 
ATOM     16  N   UNL     1       6.419   5.705   3.521  1.00  0.00    -0.248 NA
ATOM     17  C   UNL     1       5.428   3.624   3.873  1.00  0.00     0.031 C 
ATOM     18  C   UNL     1       4.743   5.790  -0.621  1.00  0.00     0.029 A 
ATOM     19  N   UNL     1       5.983   6.898   0.873  1.00  0.00    -0.354 N 
ATOM     20  C   UNL     1       6.651   5.306   4.832  1.00  0.00     0.074 A 
ATOM     21  C   UNL     1       5.986   4.032   5.005  1.00  0.00     0.031 C 
ATOM     22  C   UNL     1       5.148   6.926  -1.204  1.00  0.00     0.029 A 
ATOM     23  C   UNL     1       5.933   7.696  -0.245  1.00  0.00     0.049 A 
ATOM     24  H   UNL     1       6.469   7.147   1.693  1.00  0.00     0.167 HD
ATOM     25  C   UNL     1       7.362   5.936   5.799  1.00  0.00     0.034 A 
ATOM     26  C   UNL     1       6.447   8.918  -0.474  1.00  0.00     0.034 A 
ATOM     27  C   UNL     1       8.050   7.187   5.608  1.00  0.00     0.049 A 
ATOM     28  C   UNL     1       7.246   9.583   0.607  1.00  0.00     0.074 A 
ATOM     29  C   UNL     1       8.856   7.871   6.501  1.00  0.00     0.029 A 
ATOM     30  N   UNL     1       8.003   7.950   4.450  1.00  0.00    -0.354 N 
ATOM     31  N   UNL     1       7.559   9.131   1.797  1.00  0.00    -0.248 NA
ATOM     32  C   UNL     1       7.786  10.915   0.305  1.00  0.00     0.031 C 
ATOM     33  C   UNL     1       9.272   9.061   5.893  1.00  0.00     0.029 A 
ATOM     34  C   UNL     1       8.754   9.103   4.609  1.00  0.00     0.049 A 
ATOM     35  H   UNL     1       7.509   7.707   3.634  1.00  0.00     0.167 HD
ATOM     36  C   UNL     1       8.361  10.107   2.375  1.00  0.00     0.074 A 
ATOM     37  C   UNL     1       8.500  11.165   1.395  1.00  0.00     0.031 C 
ATOM     38  C   UNL     1       8.922  10.128   3.609  1.00  0.00     0.034 A 
BRANCH  25  39
ATOM     39  C   UNL     1       7.451   5.273   7.151  1.00  0.00     0.023 A 
ATOM     40  C   UNL     1       8.227   4.107   7.312  1.00  0.00     0.012 A 
ATOM     41  C   UNL     1       6.805   5.830   8.273  1.00  0.00     0.148 A 
ATOM     42  C   UNL     1       8.326   3.483   8.556  1.00  0.00     0.002 A 
ATOM     43  C   UNL     1       6.945   5.228   9.519  1.00  0.00     0.091 A 
ATOM     44  F   UNL     1       6.054   6.926   8.101  1.00  0.00    -0.205 F 
ATOM     45  C   UNL     1       7.693   4.048   9.660  1.00  0.00     0.022 A 
BRANCH  43  46
ATOM     46  S   UNL     1       6.233   5.929  11.013  1.00  0.00     0.127 S 
ATOM     47  O   UNL     1       5.090   5.045  11.238  1.00  0.00    -0.237 OA
ATOM     48  O   UNL     1       7.321   5.774  11.979  1.00  0.00    -0.237 OA
ATOM     49  O   UNL     1       5.907   7.310  10.687  1.00  0.00    -0.744 OA
ENDBRANCH  43  46
ENDBRANCH  25  39
BRANCH  26  50
ATOM     50  C   UNL     1       6.265   9.552  -1.809  1.00  0.00     0.023 A 
ATOM     51  C   UNL     1       7.373   9.682  -2.668  1.00  0.00     0.012 A 
ATOM     52  C   UNL     1       4.994   9.964  -2.255  1.00  0.00     0.148 A 
ATOM     53  C   UNL     1       7.222  10.230  -3.941  1.00  0.00     0.002 A 
ATOM     54  C   UNL     1       4.841  10.454  -3.546  1.00  0.00     0.091 A 
ATOM     55  F   UNL     1       3.955   9.836  -1.417  1.00  0.00    -0.205 F 
ATOM     56  C   UNL     1       5.956  10.604  -4.385  1.00  0.00     0.022 A 
BRANCH  54  57
ATOM     57  S   UNL     1       3.232  10.828  -4.251  1.00  0.00     0.127 S 
ATOM     58  O   UNL     1       3.297  12.280  -4.389  1.00  0.00    -0.237 OA
ATOM     59  O   UNL     1       3.278  10.085  -5.511  1.00  0.00    -0.237 OA
ATOM     60  O   UNL     1       2.255  10.328  -3.294  1.00  0.00    -0.744 OA
ENDBRANCH  54  57
ENDBRANCH  26  50
BRANCH  38  61
ATOM     61  C   UNL     1       9.778  11.317   3.960  1.00  0.00     0.023 A 
ATOM     62  C   UNL     1       9.178  12.568   4.206  1.00  0.00     0.012 A 
ATOM     63  C   UNL     1      11.172  11.178   4.104  1.00  0.00     0.148 A 
ATOM     64  C   UNL     1       9.958  13.671   4.554  1.00  0.00     0.002 A 
ATOM     65  C   UNL     1      11.936  12.268   4.501  1.00  0.00     0.091 A 
ATOM     66  F   UNL     1      11.727   9.985   3.843  1.00  0.00    -0.205 F 
ATOM     67  C   UNL     1      11.333  13.518   4.713  1.00  0.00     0.022 A 
BRANCH  65  68
ATOM     68  S   UNL     1      13.698  12.138   4.824  1.00  0.00     0.127 S 
ATOM     69  O   UNL     1      14.266  12.810   3.657  1.00  0.00    -0.237 OA
ATOM     70  O   UNL     1      13.840  12.873   6.081  1.00  0.00    -0.237 OA
ATOM     71  O   UNL     1      13.981  10.712   4.926  1.00  0.00    -0.744 OA
ENDBRANCH  65  68
ENDBRANCH  38  61
ENDBRANCH  12  13
ENDBRANCH   5   7
ENDBRANCH   2   3
ENDBRANCH   1   2
BRANCH   1  72
ATOM     72  C   UNL     1       4.371  -3.797   0.389  1.00  0.00     0.023 C 
BRANCH  72  73
ATOM     73  C   UNL     1       4.741  -4.156  -1.045  1.00  0.00     0.116 C 
BRANCH  73  74
ATOM     74  N   UNL     1       6.171  -4.344  -1.206  1.00  0.00    -0.349 N 
ATOM     75  C   UNL     1       6.834  -5.494  -1.548  1.00  0.00     0.286 C 
ATOM     76  H   UNL     1       6.733  -3.550  -1.052  1.00  0.00     0.163 HD
ATOM     77  O   UNL     1       8.069  -5.510  -1.428  1.00  0.00    -0.266 OA
BRANCH  75  78
ATOM     78  C   UNL     1       6.069  -6.613  -2.038  1.00  0.00     0.191 A 
ATOM     79  C   UNL     1       5.041  -6.707  -2.963  1.00  0.00     0.057 A 
ATOM     80  O   UNL     1       6.373  -7.861  -1.576  1.00  0.00    -0.452 OA
ATOM     81  C   UNL     1       4.672  -8.070  -3.031  1.00  0.00     0.050 A 
ATOM     82  C   UNL     1       5.543  -8.743  -2.201  1.00  0.00     0.142 A 
BRANCH  82  83
ATOM     83  C   UNL     1       5.814 -10.184  -1.964  1.00  0.00     0.304 C 
BRANCH  83  84
ATOM     84  O   UNL     1       7.193 -10.468  -2.275  1.00  0.00    -0.484 OA
BRANCH  84  85
ATOM     85  C   UNL     1       7.426 -10.591  -3.623  1.00  0.00     0.140 A 
ATOM     86  C   UNL     1       7.641  -9.432  -4.379  1.00  0.00     0.048 A 
ATOM     87  C   UNL     1       7.562 -11.852  -4.216  1.00  0.00     0.101 A 
ATOM     88  C   UNL     1       7.901  -9.515  -5.743  1.00  0.00     0.005 A 
ATOM     89  C   UNL     1       7.861 -11.931  -5.584  1.00  0.00     0.063 A 
ATOM     90  Cl  UNL     1       7.363 -13.276  -3.249  1.00  0.00    -0.079 Cl
ATOM     91  C   UNL     1       8.011 -10.765  -6.346  1.00  0.00     0.022 A 
ATOM     92  Cl  UNL     1       8.072 -13.441  -6.402  1.00  0.00    -0.083 Cl
ENDBRANCH  84  85
ENDBRANCH  83  84
ENDBRANCH  82  83
ENDBRANCH  75  78
ENDBRANCH  73  74
ENDBRANCH  72  73
ENDBRANCH   1  72
TORSDOF 17
