REMARK SMILES Cn1cc(NC(=O)N2Cc3nc[nH]c3C[C@@H]2C(=O)NCCCCNC(=O)c2ccc(-c3c4nc(c(-c5cccc(S(=O)(=O)[O-])c5F)c5ccc([nH]5)c(-c5cccc(S(=O)(=O)[O-])c5F)c5nc(c(-c6cccc(S(=O)(=O)[O-])c6F)c6ccc3[nH]6)C=C5)C=C4)cc2)cn1
REMARK SMILES IDX 22 1 21 2 20 3 19 4 17 5 18 6 16 8 8 9 9 10 10 11 15 12
REMARK SMILES IDX 11 13 14 14 12 15 13 16 6 18 5 19 7 21 4 22 1 23 2 24 3 25
REMARK SMILES IDX 91 26 90 27 23 28 24 29 25 30 26 32 27 33 28 34 89 35 29 36
REMARK SMILES IDX 88 37 30 38 31 39 32 40 82 41 33 42 87 43 81 44 83 45 34 46
REMARK SMILES IDX 86 47 80 48 79 49 35 51 67 52 47 53 66 54 48 55 51 56 65 57
REMARK SMILES IDX 84 58 49 59 50 60 64 62 85 63 52 64 36 65 37 66 45 67 38 68
REMARK SMILES IDX 40 69 46 70 39 71 41 72 42 73 43 74 44 75 68 76 69 77 77 78
REMARK SMILES IDX 70 79 72 80 78 81 71 82 73 83 74 84 75 85 76 86 53 87 54 88
REMARK SMILES IDX 62 89 55 90 57 91 63 92 56 93 58 94 59 95 60 96 61 97
REMARK H PARENT 19 7 13 17 5 20 24 31 83 50 51 61
REMARK Flexibility Score: inf
ROOT
ATOM      1  C   UNL     1       2.798   2.728   6.099  1.00  0.00     0.023 C 
ENDROOT
BRANCH   1   2
ATOM      2  C   UNL     1       3.071   3.208   4.666  1.00  0.00     0.023 C 
BRANCH   2   3
ATOM      3  C   UNL     1       4.189   2.468   3.934  1.00  0.00     0.116 C 
BRANCH   3   4
ATOM      4  N   UNL     1       3.779   1.189   3.388  1.00  0.00    -0.354 N 
ATOM      5  C   UNL     1       3.515   0.671   2.157  1.00  0.00     0.243 C 
ATOM      6  O   UNL     1       3.262  -0.540   2.202  1.00  0.00    -0.273 OA
ATOM      7  H   UNL     1       3.659   0.516   4.096  1.00  0.00     0.163 HD
BRANCH   5   8
ATOM      8  C   UNL     1       3.330   1.487   0.822  1.00  0.00     0.182 C 
ATOM      9  N   UNL     1       3.738   0.712  -0.437  1.00  0.00    -0.306 N 
ATOM     10  C   UNL     1       4.292   1.355  -1.647  1.00  0.00     0.180 C 
ATOM     11  C   UNL     1       4.233   2.831  -1.577  1.00  0.00     0.081 A 
ATOM     12  C   UNL     1       3.995   2.879   0.910  1.00  0.00     0.091 C 
ATOM     13  N   UNL     1       4.344   3.704  -2.628  1.00  0.00    -0.240 NA
ATOM     14  C   UNL     1       4.094   3.518  -0.406  1.00  0.00     0.042 A 
ATOM     15  C   UNL     1       4.322   4.902  -2.079  1.00  0.00     0.197 A 
ATOM     16  N   UNL     1       4.169   4.838  -0.720  1.00  0.00    -0.348 N 
ATOM     17  H   UNL     1       4.123   5.597  -0.094  1.00  0.00     0.167 HD
BRANCH   9  18
ATOM     18  C   UNL     1       3.489  -0.627  -0.649  1.00  0.00     0.322 C 
ATOM     19  N   UNL     1       2.298  -1.156  -0.274  1.00  0.00    -0.305 N 
ATOM     20  H   UNL     1       2.321  -2.055   0.127  1.00  0.00     0.171 HD
ATOM     21  O   UNL     1       4.290  -1.341  -1.255  1.00  0.00    -0.248 OA
BRANCH  19  22
ATOM     22  C   UNL     1       1.059  -0.569  -0.397  1.00  0.00     0.081 A 
ATOM     23  C   UNL     1      -2.500  -0.410   0.028  1.00  0.00     0.173 C 
ATOM     24  N   UNL     1      -1.099  -0.267  -0.271  1.00  0.00    -0.274 N 
ATOM     25  C   UNL     1      -0.112  -1.165   0.002  1.00  0.00     0.134 A 
ATOM     26  N   UNL     1      -0.664   0.859  -0.867  1.00  0.00    -0.180 NA
ATOM     27  C   UNL     1       0.653   0.654  -0.974  1.00  0.00     0.161 A 
ENDBRANCH  19  22
ENDBRANCH   9  18
ENDBRANCH   5   8
ENDBRANCH   3   4
ENDBRANCH   2   3
ENDBRANCH   1   2
BRANCH   1  28
ATOM     28  C   UNL     1       4.000   2.763   7.044  1.00  0.00     0.116 C 
BRANCH  28  29
ATOM     29  N   UNL     1       4.614   4.087   7.141  1.00  0.00    -0.352 N 
ATOM     30  C   UNL     1       5.844   4.418   7.686  1.00  0.00     0.251 C 
ATOM     31  H   UNL     1       4.089   4.835   6.775  1.00  0.00     0.163 HD
ATOM     32  O   UNL     1       6.084   5.558   8.045  1.00  0.00    -0.269 OA
BRANCH  30  33
ATOM     33  C   UNL     1       6.868   3.364   7.802  1.00  0.00     0.039 A 
ATOM     34  C   UNL     1       7.590   3.176   8.982  1.00  0.00     0.014 A 
ATOM     35  C   UNL     1       7.070   2.537   6.701  1.00  0.00     0.014 A 
ATOM     36  C   UNL     1       8.452   2.086   9.072  1.00  0.00     0.010 A 
ATOM     37  C   UNL     1       7.822   1.395   6.829  1.00  0.00     0.010 A 
ATOM     38  C   UNL     1       8.545   1.185   7.999  1.00  0.00    -0.014 A 
BRANCH  38  39
ATOM     39  C   UNL     1       9.278  -0.069   8.142  1.00  0.00     0.031 A 
ATOM     40  C   UNL     1       8.780  -0.942   9.242  1.00  0.00     0.074 A 
ATOM     41  C   UNL     1      10.151  -0.510   7.211  1.00  0.00     0.049 A 
ATOM     42  N   UNL     1       9.391  -1.270  10.333  1.00  0.00    -0.248 NA
ATOM     43  C   UNL     1       7.372  -1.373   9.202  1.00  0.00     0.031 C 
ATOM     44  C   UNL     1      10.458   0.105   5.912  1.00  0.00     0.029 A 
ATOM     45  N   UNL     1      10.834  -1.687   7.152  1.00  0.00    -0.354 N 
ATOM     46  C   UNL     1       8.537  -2.156  10.991  1.00  0.00     0.074 A 
ATOM     47  C   UNL     1       7.247  -1.991  10.378  1.00  0.00     0.031 C 
ATOM     48  C   UNL     1      11.037  -0.810   5.106  1.00  0.00     0.029 A 
ATOM     49  C   UNL     1      11.298  -2.009   5.878  1.00  0.00     0.049 A 
ATOM     50  H   UNL     1      10.986  -2.259   7.938  1.00  0.00     0.167 HD
ATOM     51  C   UNL     1       9.027  -3.147  11.789  1.00  0.00     0.034 A 
ATOM     52  C   UNL     1      11.815  -3.193   5.469  1.00  0.00     0.034 A 
ATOM     53  C   UNL     1      10.418  -2.914  12.095  1.00  0.00     0.049 A 
ATOM     54  C   UNL     1      12.229  -3.934   6.678  1.00  0.00     0.074 A 
ATOM     55  C   UNL     1      11.138  -1.910  12.710  1.00  0.00     0.029 A 
ATOM     56  N   UNL     1      11.327  -3.657  11.382  1.00  0.00    -0.354 N 
ATOM     57  N   UNL     1      13.205  -3.553   7.453  1.00  0.00    -0.248 NA
ATOM     58  C   UNL     1      11.283  -4.865   7.269  1.00  0.00     0.031 C 
ATOM     59  C   UNL     1      12.356  -1.829  11.973  1.00  0.00     0.029 A 
ATOM     60  C   UNL     1      12.347  -2.831  11.000  1.00  0.00     0.049 A 
ATOM     61  H   UNL     1      11.256  -4.618  11.181  1.00  0.00     0.167 HD
ATOM     62  C   UNL     1      12.736  -3.804   8.735  1.00  0.00     0.074 A 
ATOM     63  C   UNL     1      11.618  -4.728   8.555  1.00  0.00     0.031 C 
ATOM     64  C   UNL     1      13.105  -3.006   9.780  1.00  0.00     0.034 A 
BRANCH  51  65
ATOM     65  C   UNL     1       8.422  -4.531  11.966  1.00  0.00     0.023 A 
ATOM     66  C   UNL     1       9.082  -5.402  12.867  1.00  0.00     0.012 A 
ATOM     67  C   UNL     1       7.458  -5.117  11.116  1.00  0.00     0.148 A 
ATOM     68  C   UNL     1       8.865  -6.785  12.856  1.00  0.00     0.002 A 
ATOM     69  C   UNL     1       7.191  -6.483  11.159  1.00  0.00     0.091 A 
ATOM     70  F   UNL     1       6.867  -4.395  10.164  1.00  0.00    -0.205 F 
ATOM     71  C   UNL     1       7.918  -7.327  11.999  1.00  0.00     0.022 A 
BRANCH  69  72
ATOM     72  S   UNL     1       5.939  -7.234  10.108  1.00  0.00     0.127 S 
ATOM     73  O   UNL     1       6.763  -7.966   9.151  1.00  0.00    -0.237 OA
ATOM     74  O   UNL     1       5.209  -8.067  11.064  1.00  0.00    -0.237 OA
ATOM     75  O   UNL     1       5.161  -6.126   9.568  1.00  0.00    -0.744 OA
ENDBRANCH  69  72
ENDBRANCH  51  65
BRANCH  52  76
ATOM     76  C   UNL     1      11.785  -3.832   4.135  1.00  0.00     0.023 A 
ATOM     77  C   UNL     1      12.760  -4.785   3.784  1.00  0.00     0.012 A 
ATOM     78  C   UNL     1      10.646  -3.705   3.311  1.00  0.00     0.148 A 
ATOM     79  C   UNL     1      12.595  -5.605   2.660  1.00  0.00     0.002 A 
ATOM     80  C   UNL     1      10.489  -4.518   2.192  1.00  0.00     0.091 A 
ATOM     81  F   UNL     1       9.682  -2.851   3.678  1.00  0.00    -0.205 F 
ATOM     82  C   UNL     1      11.457  -5.477   1.869  1.00  0.00     0.022 A 
BRANCH  80  83
ATOM     83  S   UNL     1       9.035  -4.431   1.139  1.00  0.00     0.127 S 
ATOM     84  O   UNL     1       9.639  -4.269  -0.183  1.00  0.00    -0.237 OA
ATOM     85  O   UNL     1       8.417  -5.732   1.378  1.00  0.00    -0.237 OA
ATOM     86  O   UNL     1       8.282  -3.276   1.610  1.00  0.00    -0.744 OA
ENDBRANCH  80  83
ENDBRANCH  52  76
BRANCH  64  87
ATOM     87  C   UNL     1      14.250  -2.048   9.570  1.00  0.00     0.023 A 
ATOM     88  C   UNL     1      14.192  -0.978   8.652  1.00  0.00     0.012 A 
ATOM     89  C   UNL     1      15.339  -2.127  10.453  1.00  0.00     0.148 A 
ATOM     90  C   UNL     1      15.209  -0.020   8.606  1.00  0.00     0.002 A 
ATOM     91  C   UNL     1      16.320  -1.146  10.440  1.00  0.00     0.091 A 
ATOM     92  F   UNL     1      15.378  -3.152  11.319  1.00  0.00    -0.205 F 
ATOM     93  C   UNL     1      16.265  -0.095   9.511  1.00  0.00     0.022 A 
BRANCH  91  94
ATOM     94  S   UNL     1      17.625  -1.118  11.670  1.00  0.00     0.127 S 
ATOM     95  O   UNL     1      18.775  -1.594  10.906  1.00  0.00    -0.237 OA
ATOM     96  O   UNL     1      17.678   0.298  12.040  1.00  0.00    -0.237 OA
ATOM     97  O   UNL     1      17.178  -1.994  12.746  1.00  0.00    -0.744 OA
ENDBRANCH  91  94
ENDBRANCH  64  87
ENDBRANCH  38  39
ENDBRANCH  30  33
ENDBRANCH  28  29
ENDBRANCH   1  28
TORSDOF 16
