REMARK SMILES CCn1cc(Br)cc1C(=O)N[C@@H]1C=C[C@@H](C(=O)NCCCCNC(=O)c2ccc(-c3c4nc(c(-c5cccc(S(=O)(=O)[O-])c5F)c5ccc([nH]5)c(-c5cccc(S(=O)(=O)[O-])c5F)c5nc(c(-c6cccc(S(=O)(=O)[O-])c6F)c6ccc3[nH]6)C=C5)C=C4)cc2)C1
REMARK SMILES IDX 20 1 19 2 18 3 16 4 17 5 15 7 12 8 13 9 89 10 14 11 11 12
REMARK SMILES IDX 9 13 10 14 8 16 3 17 4 18 5 19 7 20 6 21 2 22 1 23 21 24
REMARK SMILES IDX 22 25 23 26 24 27 25 29 26 30 27 31 88 32 28 33 87 34 29 35
REMARK SMILES IDX 30 36 31 37 81 38 32 39 86 40 80 41 82 42 33 43 85 44 79 45
REMARK SMILES IDX 78 46 34 48 66 49 46 50 65 51 47 52 50 53 64 54 83 55 48 56
REMARK SMILES IDX 49 57 63 59 84 60 51 61 35 62 36 63 44 64 37 65 39 66 45 67
REMARK SMILES IDX 38 68 40 69 41 70 42 71 43 72 67 73 68 74 76 75 69 76 71 77
REMARK SMILES IDX 77 78 70 79 72 80 73 81 74 82 75 83 52 84 53 85 61 86 54 87
REMARK SMILES IDX 56 88 62 89 55 90 57 91 58 92 59 93 60 94
REMARK H PARENT 18 6 11 15 23 28 82 47 50 58
REMARK Flexibility Score: inf
ROOT
ATOM      1  C   UNL     1       3.318   0.834   4.884  1.00  0.00     0.023 C 
ENDROOT
BRANCH   1   2
ATOM      2  C   UNL     1       2.332  -0.340   4.823  1.00  0.00     0.116 C 
BRANCH   2   3
ATOM      3  N   UNL     1       1.036   0.008   5.356  1.00  0.00    -0.356 N 
ATOM      4  C   UNL     1      -0.155   0.327   4.791  1.00  0.00     0.227 C 
ATOM      5  O   UNL     1      -1.018   0.754   5.569  1.00  0.00    -0.274 OA
ATOM      6  H   UNL     1       1.012   0.015   6.340  1.00  0.00     0.163 HD
BRANCH   4   7
ATOM      7  C   UNL     1      -0.522   0.150   3.310  1.00  0.00     0.103 C 
ATOM      8  C   UNL     1       0.957  -0.651   1.526  1.00  0.00     0.106 C 
ATOM      9  C   UNL     1      -0.002  -1.699   1.961  1.00  0.00    -0.006 C 
ATOM     10  C   UNL     1       0.413   0.627   2.190  1.00  0.00     0.047 C 
ATOM     11  C   UNL     1      -0.772  -1.283   2.969  1.00  0.00    -0.016 C 
BRANCH   8  12
ATOM     12  N   UNL     1       1.129  -0.619   0.103  1.00  0.00    -0.345 N 
ATOM     13  C   UNL     1       1.697  -1.564  -0.723  1.00  0.00     0.268 C 
ATOM     14  O   UNL     1       1.909  -1.211  -1.886  1.00  0.00    -0.268 OA
ATOM     15  H   UNL     1       0.795   0.191  -0.346  1.00  0.00     0.164 HD
BRANCH  13  16
ATOM     16  C   UNL     1       1.888  -2.947  -0.297  1.00  0.00     0.108 A 
ATOM     17  N   UNL     1       2.512  -3.521   0.808  1.00  0.00    -0.343 N 
ATOM     18  C   UNL     1       2.230  -4.875   0.839  1.00  0.00     0.102 A 
ATOM     19  C   UNL     1       1.593  -5.199  -0.322  1.00  0.00     0.036 A 
ATOM     20  C   UNL     1       1.420  -4.022  -1.059  1.00  0.00     0.049 A 
ATOM     21  Br  UNL     1       0.995  -6.891  -0.847  1.00  0.00    -0.049 Br
BRANCH  17  22
ATOM     22  C   UNL     1       3.291  -2.927   1.882  1.00  0.00     0.119 C 
ATOM     23  C   UNL     1       4.325  -1.888   1.484  1.00  0.00     0.027 C 
ENDBRANCH  17  22
ENDBRANCH  13  16
ENDBRANCH   8  12
ENDBRANCH   4   7
ENDBRANCH   2   3
ENDBRANCH   1   2
BRANCH   1  24
ATOM     24  C   UNL     1       3.695   1.312   6.296  1.00  0.00     0.023 C 
BRANCH  24  25
ATOM     25  C   UNL     1       4.477   0.293   7.110  1.00  0.00     0.116 C 
BRANCH  25  26
ATOM     26  N   UNL     1       5.840   0.062   6.609  1.00  0.00    -0.352 N 
ATOM     27  C   UNL     1       6.808  -0.777   7.150  1.00  0.00     0.251 C 
ATOM     28  H   UNL     1       6.096   0.558   5.799  1.00  0.00     0.163 HD
ATOM     29  O   UNL     1       7.992  -0.635   6.891  1.00  0.00    -0.269 OA
BRANCH  27  30
ATOM     30  C   UNL     1       6.353  -1.869   8.030  1.00  0.00     0.039 A 
ATOM     31  C   UNL     1       7.002  -2.219   9.220  1.00  0.00     0.014 A 
ATOM     32  C   UNL     1       5.176  -2.497   7.650  1.00  0.00     0.014 A 
ATOM     33  C   UNL     1       6.397  -3.159  10.056  1.00  0.00     0.010 A 
ATOM     34  C   UNL     1       4.476  -3.209   8.576  1.00  0.00     0.010 A 
ATOM     35  C   UNL     1       5.122  -3.639   9.726  1.00  0.00    -0.014 A 
BRANCH  35  36
ATOM     36  C   UNL     1       4.364  -4.536  10.586  1.00  0.00     0.031 A 
ATOM     37  C   UNL     1       4.100  -4.007  11.949  1.00  0.00     0.074 A 
ATOM     38  C   UNL     1       3.717  -5.609  10.071  1.00  0.00     0.049 A 
ATOM     39  N   UNL     1       4.555  -4.459  13.071  1.00  0.00    -0.248 NA
ATOM     40  C   UNL     1       3.371  -2.733  12.076  1.00  0.00     0.031 C 
ATOM     41  C   UNL     1       3.641  -6.027   8.659  1.00  0.00     0.029 A 
ATOM     42  N   UNL     1       2.831  -6.450  10.666  1.00  0.00    -0.354 N 
ATOM     43  C   UNL     1       3.938  -3.690  14.055  1.00  0.00     0.074 A 
ATOM     44  C   UNL     1       3.438  -2.516  13.391  1.00  0.00     0.031 C 
ATOM     45  C   UNL     1       2.564  -6.820   8.477  1.00  0.00     0.029 A 
ATOM     46  C   UNL     1       1.995  -7.122   9.773  1.00  0.00     0.049 A 
ATOM     47  H   UNL     1       2.783  -6.574  11.641  1.00  0.00     0.167 HD
ATOM     48  C   UNL     1       3.620  -4.223  15.268  1.00  0.00     0.034 A 
ATOM     49  C   UNL     1       0.881  -7.832  10.079  1.00  0.00     0.034 A 
ATOM     50  C   UNL     1       4.276  -5.492  15.470  1.00  0.00     0.049 A 
ATOM     51  C   UNL     1       0.977  -8.181  11.514  1.00  0.00     0.074 A 
ATOM     52  C   UNL     1       5.584  -5.933  15.464  1.00  0.00     0.029 A 
ATOM     53  N   UNL     1       3.499  -6.616  15.318  1.00  0.00    -0.354 N 
ATOM     54  N   UNL     1       1.900  -8.964  11.998  1.00  0.00    -0.248 NA
ATOM     55  C   UNL     1       0.338  -7.293  12.470  1.00  0.00     0.031 C 
ATOM     56  C   UNL     1       5.535  -7.205  14.820  1.00  0.00     0.029 A 
ATOM     57  C   UNL     1       4.198  -7.503  14.546  1.00  0.00     0.049 A 
ATOM     58  H   UNL     1       2.601  -6.757  15.697  1.00  0.00     0.167 HD
ATOM     59  C   UNL     1       2.289  -8.340  13.176  1.00  0.00     0.074 A 
ATOM     60  C   UNL     1       1.218  -7.388  13.471  1.00  0.00     0.031 C 
ATOM     61  C   UNL     1       3.575  -8.433  13.629  1.00  0.00     0.034 A 
BRANCH  48  62
ATOM     62  C   UNL     1       2.417  -3.834  16.101  1.00  0.00     0.023 A 
ATOM     63  C   UNL     1       2.339  -4.372  17.406  1.00  0.00     0.012 A 
ATOM     64  C   UNL     1       1.247  -3.228  15.591  1.00  0.00     0.148 A 
ATOM     65  C   UNL     1       1.146  -4.363  18.136  1.00  0.00     0.002 A 
ATOM     66  C   UNL     1       0.086  -3.148  16.352  1.00  0.00     0.091 A 
ATOM     67  F   UNL     1       1.190  -2.847  14.312  1.00  0.00    -0.205 F 
ATOM     68  C   UNL     1       0.019  -3.744  17.611  1.00  0.00     0.022 A 
BRANCH  66  69
ATOM     69  S   UNL     1      -1.385  -2.318  15.737  1.00  0.00     0.127 S 
ATOM     70  O   UNL     1      -2.250  -3.453  15.430  1.00  0.00    -0.237 OA
ATOM     71  O   UNL     1      -1.787  -1.524  16.898  1.00  0.00    -0.237 OA
ATOM     72  O   UNL     1      -0.935  -1.524  14.600  1.00  0.00    -0.744 OA
ENDBRANCH  66  69
ENDBRANCH  48  62
BRANCH  49  73
ATOM     73  C   UNL     1      -0.375  -7.997   9.311  1.00  0.00     0.023 A 
ATOM     74  C   UNL     1      -1.238  -9.073   9.600  1.00  0.00     0.012 A 
ATOM     75  C   UNL     1      -0.867  -6.947   8.502  1.00  0.00     0.148 A 
ATOM     76  C   UNL     1      -2.558  -9.086   9.131  1.00  0.00     0.002 A 
ATOM     77  C   UNL     1      -2.178  -6.967   8.034  1.00  0.00     0.091 A 
ATOM     78  F   UNL     1      -0.079  -5.888   8.273  1.00  0.00    -0.205 F 
ATOM     79  C   UNL     1      -3.031  -8.029   8.357  1.00  0.00     0.022 A 
BRANCH  77  80
ATOM     80  S   UNL     1      -2.863  -5.624   7.052  1.00  0.00     0.127 S 
ATOM     81  O   UNL     1      -3.475  -6.348   5.937  1.00  0.00    -0.237 OA
ATOM     82  O   UNL     1      -3.809  -5.021   7.985  1.00  0.00    -0.237 OA
ATOM     83  O   UNL     1      -1.727  -4.792   6.673  1.00  0.00    -0.744 OA
ENDBRANCH  77  80
ENDBRANCH  49  73
BRANCH  61  84
ATOM     84  C   UNL     1       4.496  -9.422  12.956  1.00  0.00     0.023 A 
ATOM     85  C   UNL     1       4.886  -9.305  11.604  1.00  0.00     0.012 A 
ATOM     86  C   UNL     1       5.118 -10.394  13.755  1.00  0.00     0.148 A 
ATOM     87  C   UNL     1       5.856 -10.151  11.059  1.00  0.00     0.002 A 
ATOM     88  C   UNL     1       6.112 -11.204  13.223  1.00  0.00     0.091 A 
ATOM     89  F   UNL     1       4.744 -10.488  15.040  1.00  0.00    -0.205 F 
ATOM     90  C   UNL     1       6.479 -11.094  11.872  1.00  0.00     0.022 A 
BRANCH  88  91
ATOM     91  S   UNL     1       7.033 -12.352  14.248  1.00  0.00     0.127 S 
ATOM     92  O   UNL     1       6.483 -13.640  13.833  1.00  0.00    -0.237 OA
ATOM     93  O   UNL     1       8.414 -12.111  13.827  1.00  0.00    -0.237 OA
ATOM     94  O   UNL     1       6.757 -11.967  15.628  1.00  0.00    -0.744 OA
ENDBRANCH  88  91
ENDBRANCH  61  84
ENDBRANCH  35  36
ENDBRANCH  27  30
ENDBRANCH  25  26
ENDBRANCH  24  25
ENDBRANCH   1  24
TORSDOF 17
