REMARK SMILES CC1(C)CCN(C(=O)N[C@](C)(C(=O)NCCCCNC(=O)c2ccc(-c3c4nc(c(-c5cccc(S(=O)(=O)[O-])c5F)c5ccc([nH]5)c(-c5cccc(S(=O)(=O)[O-])c5F)c5nc(c(-c6cccc(S(=O)(=O)[O-])c6F)c6ccc3[nH]6)C=C5)C=C4)cc2)c2ccccc2)C1
REMARK SMILES IDX 17 1 16 2 15 3 14 4 12 5 13 6 10 8 11 9 9 10 7 11 8 12 6 14
REMARK SMILES IDX 1 15 2 16 3 17 4 18 91 19 5 20 85 21 86 22 90 23 87 24 89 25
REMARK SMILES IDX 88 26 18 27 19 28 20 29 21 31 22 32 23 33 84 34 24 35 83 36
REMARK SMILES IDX 25 37 26 38 27 39 77 40 28 41 82 42 76 43 78 44 29 45 81 46
REMARK SMILES IDX 75 47 74 48 30 50 62 51 42 52 61 53 43 54 46 55 60 56 79 57
REMARK SMILES IDX 44 58 45 59 59 61 80 62 47 63 31 64 32 65 40 66 33 67 35 68
REMARK SMILES IDX 41 69 34 70 36 71 37 72 38 73 39 74 63 75 64 76 72 77 65 78
REMARK SMILES IDX 67 79 73 80 66 81 68 82 69 83 70 84 71 85 48 86 49 87 57 88
REMARK SMILES IDX 50 89 52 90 58 91 51 92 53 93 54 94 55 95 56 96
REMARK H PARENT 14 7 9 13 19 30 78 49 46 60
REMARK Flexibility Score: inf
ROOT
ATOM      1  C   UNL     1       3.741   6.689  -3.213  1.00  0.00     0.023 C 
ENDROOT
BRANCH   1   2
ATOM      2  C   UNL     1       3.916   5.970  -1.870  1.00  0.00     0.023 C 
BRANCH   2   3
ATOM      3  C   UNL     1       2.838   6.270  -0.822  1.00  0.00     0.116 C 
BRANCH   3   4
ATOM      4  N   UNL     1       1.524   5.892  -1.290  1.00  0.00    -0.354 N 
ATOM      5  C   UNL     1       0.793   4.745  -1.282  1.00  0.00     0.250 C 
ATOM      6  O   UNL     1      -0.175   4.800  -2.054  1.00  0.00    -0.272 OA
ATOM      7  H   UNL     1       1.046   6.641  -1.715  1.00  0.00     0.163 HD
BRANCH   5   8
ATOM      8  C   UNL     1       1.106   3.456  -0.383  1.00  0.00     0.143 C 
ATOM      9  C   UNL     1       2.587   3.046  -0.576  1.00  0.00     0.051 C 
BRANCH   8  10
ATOM     10  N   UNL     1       1.012   3.826   1.062  1.00  0.00    -0.320 N 
ATOM     11  C   UNL     1      -0.070   4.110   1.819  1.00  0.00     0.318 C 
ATOM     12  O   UNL     1      -0.212   5.287   2.158  1.00  0.00    -0.249 OA
ATOM     13  H   UNL     1       1.873   3.870   1.537  1.00  0.00     0.166 HD
BRANCH  11  14
ATOM     14  N   UNL     1      -0.808   3.105   2.374  1.00  0.00    -0.324 N 
ATOM     15  C   UNL     1      -1.420  -0.057   3.981  1.00  0.00     0.013 C 
ATOM     16  C   UNL     1      -1.821   1.025   2.974  1.00  0.00    -0.016 C 
ATOM     17  C   UNL     1      -2.719   0.386   1.904  1.00  0.00     0.013 C 
ATOM     18  C   UNL     1      -2.586   2.187   3.644  1.00  0.00     0.030 C 
ATOM     19  C   UNL     1      -0.563   1.677   2.362  1.00  0.00     0.127 C 
ATOM     20  C   UNL     1      -1.729   3.425   3.442  1.00  0.00     0.122 C 
ENDBRANCH  11  14
ENDBRANCH   8  10
BRANCH   8  21
ATOM     21  C   UNL     1       0.192   2.271  -0.799  1.00  0.00    -0.013 A 
ATOM     22  C   UNL     1      -1.197   2.455  -0.953  1.00  0.00     0.007 A 
ATOM     23  C   UNL     1       0.686   0.970  -1.048  1.00  0.00     0.007 A 
ATOM     24  C   UNL     1      -2.034   1.417  -1.375  1.00  0.00     0.000 A 
ATOM     25  C   UNL     1      -0.157  -0.078  -1.431  1.00  0.00     0.000 A 
ATOM     26  C   UNL     1      -1.515   0.148  -1.604  1.00  0.00     0.000 A 
ENDBRANCH   8  21
ENDBRANCH   5   8
ENDBRANCH   3   4
ENDBRANCH   2   3
ENDBRANCH   1   2
BRANCH   1  27
ATOM     27  C   UNL     1       3.615   8.206  -3.138  1.00  0.00     0.116 C 
BRANCH  27  28
ATOM     28  N   UNL     1       4.724   8.835  -2.436  1.00  0.00    -0.352 N 
ATOM     29  C   UNL     1       5.395   9.996  -2.749  1.00  0.00     0.251 C 
ATOM     30  H   UNL     1       5.036   8.367  -1.627  1.00  0.00     0.163 HD
ATOM     31  O   UNL     1       6.376  10.336  -2.110  1.00  0.00    -0.269 OA
BRANCH  29  32
ATOM     32  C   UNL     1       4.930  10.800  -3.900  1.00  0.00     0.039 A 
ATOM     33  C   UNL     1       5.846  11.139  -4.898  1.00  0.00     0.014 A 
ATOM     34  C   UNL     1       3.585  11.158  -4.015  1.00  0.00     0.014 A 
ATOM     35  C   UNL     1       5.394  11.767  -6.060  1.00  0.00     0.010 A 
ATOM     36  C   UNL     1       3.128  11.728  -5.198  1.00  0.00     0.010 A 
ATOM     37  C   UNL     1       4.025  12.025  -6.236  1.00  0.00    -0.014 A 
BRANCH  37  38
ATOM     38  C   UNL     1       3.494  12.557  -7.515  1.00  0.00     0.031 A 
ATOM     39  C   UNL     1       2.834  13.905  -7.557  1.00  0.00     0.074 A 
ATOM     40  C   UNL     1       3.503  11.771  -8.610  1.00  0.00     0.049 A 
ATOM     41  N   UNL     1       2.235  14.498  -8.556  1.00  0.00    -0.248 NA
ATOM     42  C   UNL     1       2.821  14.677  -6.304  1.00  0.00     0.031 C 
ATOM     43  C   UNL     1       4.052  10.415  -8.672  1.00  0.00     0.029 A 
ATOM     44  N   UNL     1       3.007  11.986  -9.871  1.00  0.00    -0.354 N 
ATOM     45  C   UNL     1       1.741  15.692  -8.047  1.00  0.00     0.074 A 
ATOM     46  C   UNL     1       2.086  15.726  -6.642  1.00  0.00     0.031 C 
ATOM     47  C   UNL     1       3.871   9.923  -9.908  1.00  0.00     0.029 A 
ATOM     48  C   UNL     1       3.164  10.912 -10.716  1.00  0.00     0.049 A 
ATOM     49  H   UNL     1       2.580  12.829 -10.146  1.00  0.00     0.167 HD
ATOM     50  C   UNL     1       1.084  16.682  -8.696  1.00  0.00     0.034 A 
ATOM     51  C   UNL     1       2.777  10.741 -11.995  1.00  0.00     0.034 A 
ATOM     52  C   UNL     1       0.785  16.662 -10.102  1.00  0.00     0.049 A 
ATOM     53  C   UNL     1       2.057  11.861 -12.695  1.00  0.00     0.074 A 
ATOM     54  C   UNL     1       0.227  17.661 -10.878  1.00  0.00     0.029 A 
ATOM     55  N   UNL     1       1.010  15.581 -10.941  1.00  0.00    -0.354 N 
ATOM     56  N   UNL     1       1.753  13.054 -12.245  1.00  0.00    -0.248 NA
ATOM     57  C   UNL     1       1.649  11.621 -14.087  1.00  0.00     0.031 C 
ATOM     58  C   UNL     1       0.094  17.175 -12.184  1.00  0.00     0.029 A 
ATOM     59  C   UNL     1       0.582  15.879 -12.223  1.00  0.00     0.049 A 
ATOM     60  H   UNL     1       1.414  14.726 -10.665  1.00  0.00     0.167 HD
ATOM     61  C   UNL     1       1.147  13.719 -13.305  1.00  0.00     0.074 A 
ATOM     62  C   UNL     1       1.142  12.800 -14.425  1.00  0.00     0.031 C 
ATOM     63  C   UNL     1       0.627  14.971 -13.342  1.00  0.00     0.034 A 
BRANCH  50  64
ATOM     64  C   UNL     1       0.697  17.897  -7.895  1.00  0.00     0.023 A 
ATOM     65  C   UNL     1       1.698  18.797  -7.473  1.00  0.00     0.012 A 
ATOM     66  C   UNL     1      -0.650  18.168  -7.585  1.00  0.00     0.148 A 
ATOM     67  C   UNL     1       1.370  19.924  -6.721  1.00  0.00     0.002 A 
ATOM     68  C   UNL     1      -0.973  19.316  -6.869  1.00  0.00     0.091 A 
ATOM     69  F   UNL     1      -1.587  17.290  -7.969  1.00  0.00    -0.205 F 
ATOM     70  C   UNL     1       0.036  20.188  -6.427  1.00  0.00     0.022 A 
BRANCH  68  71
ATOM     71  S   UNL     1      -2.672  19.773  -6.508  1.00  0.00     0.127 S 
ATOM     72  O   UNL     1      -2.803  19.351  -5.115  1.00  0.00    -0.237 OA
ATOM     73  O   UNL     1      -2.655  21.224  -6.706  1.00  0.00    -0.237 OA
ATOM     74  O   UNL     1      -3.488  19.046  -7.471  1.00  0.00    -0.744 OA
ENDBRANCH  68  71
ENDBRANCH  50  64
BRANCH  51  75
ATOM     75  C   UNL     1       3.140   9.490 -12.720  1.00  0.00     0.023 A 
ATOM     76  C   UNL     1       4.129   9.549 -13.721  1.00  0.00     0.012 A 
ATOM     77  C   UNL     1       2.558   8.248 -12.400  1.00  0.00     0.148 A 
ATOM     78  C   UNL     1       4.519   8.398 -14.405  1.00  0.00     0.002 A 
ATOM     79  C   UNL     1       2.986   7.096 -13.051  1.00  0.00     0.091 A 
ATOM     80  F   UNL     1       1.611   8.216 -11.452  1.00  0.00    -0.205 F 
ATOM     81  C   UNL     1       3.956   7.171 -14.063  1.00  0.00     0.022 A 
BRANCH  79  82
ATOM     82  S   UNL     1       2.413   5.456 -12.595  1.00  0.00     0.127 S 
ATOM     83  O   UNL     1       1.612   5.085 -13.759  1.00  0.00    -0.237 OA
ATOM     84  O   UNL     1       3.672   4.724 -12.454  1.00  0.00    -0.237 OA
ATOM     85  O   UNL     1       1.677   5.629 -11.350  1.00  0.00    -0.744 OA
ENDBRANCH  79  82
ENDBRANCH  51  75
BRANCH  63  86
ATOM     86  C   UNL     1       0.022  15.437 -14.639  1.00  0.00     0.023 A 
ATOM     87  C   UNL     1      -1.237  14.943 -15.034  1.00  0.00     0.012 A 
ATOM     88  C   UNL     1       0.655  16.425 -15.419  1.00  0.00     0.148 A 
ATOM     89  C   UNL     1      -1.847  15.409 -16.198  1.00  0.00     0.002 A 
ATOM     90  C   UNL     1       0.020  16.917 -16.553  1.00  0.00     0.091 A 
ATOM     91  F   UNL     1       1.861  16.867 -15.035  1.00  0.00    -0.205 F 
ATOM     92  C   UNL     1      -1.226  16.404 -16.949  1.00  0.00     0.022 A 
BRANCH  90  93
ATOM     93  S   UNL     1       0.700  18.261 -17.532  1.00  0.00     0.127 S 
ATOM     94  O   UNL     1       1.115  17.564 -18.748  1.00  0.00    -0.237 OA
ATOM     95  O   UNL     1      -0.458  19.141 -17.698  1.00  0.00    -0.237 OA
ATOM     96  O   UNL     1       1.781  18.829 -16.738  1.00  0.00    -0.744 OA
ENDBRANCH  90  93
ENDBRANCH  63  86
ENDBRANCH  37  38
ENDBRANCH  29  32
ENDBRANCH  27  28
ENDBRANCH   1  27
TORSDOF 17
