REMARK SMILES Cc1cc(Cl)c2c(c1)C=C(C(=O)NCCCCNC(=O)c1ccc(-c3c4nc(c(-c5cccc(S(=O)(=O)[O-])c5F)c5ccc([nH]5)c(-c5cccc(S(=O)(=O)[O-])c5F)c5nc(c(-c6cccc(S(=O)(=O)[O-])c6F)c6ccc3[nH]6)C=C5)C=C4)cc1)[C@@H](C(F)(F)F)O2
REMARK SMILES IDX 16 1 15 2 14 3 13 4 11 5 12 6 10 8 1 9 2 10 3 11 8 12 4 13
REMARK SMILES IDX 7 14 5 15 6 16 9 17 89 18 84 19 85 20 86 21 87 22 88 23
REMARK SMILES IDX 17 24 18 25 19 26 20 28 21 29 22 30 83 31 23 32 82 33 24 34
REMARK SMILES IDX 25 35 26 36 76 37 27 38 81 39 75 40 77 41 28 42 80 43 74 44
REMARK SMILES IDX 73 45 29 47 61 48 41 49 60 50 42 51 45 52 59 53 78 54 43 55
REMARK SMILES IDX 44 56 58 58 79 59 46 60 30 61 31 62 39 63 32 64 34 65 40 66
REMARK SMILES IDX 33 67 35 68 36 69 37 70 38 71 62 72 63 73 71 74 64 75 66 76
REMARK SMILES IDX 72 77 65 78 67 79 68 80 69 81 70 82 47 83 48 84 56 85 49 86
REMARK SMILES IDX 51 87 57 88 50 89 52 90 53 91 54 92 55 93
REMARK H PARENT 13 7 18 27 77 46 45 57
REMARK Flexibility Score: inf
ROOT
ATOM      1  C   UNL     1      -0.253   4.447  10.120  1.00  0.00     0.023 C 
ENDROOT
BRANCH   1   2
ATOM      2  C   UNL     1      -0.374   3.299   9.114  1.00  0.00     0.023 C 
BRANCH   2   3
ATOM      3  C   UNL     1      -1.441   3.513   8.045  1.00  0.00     0.116 C 
BRANCH   3   4
ATOM      4  N   UNL     1      -0.936   4.272   6.914  1.00  0.00    -0.352 N 
ATOM      5  C   UNL     1      -0.527   4.009   5.652  1.00  0.00     0.251 C 
ATOM      6  O   UNL     1      -0.167   4.992   4.997  1.00  0.00    -0.270 OA
ATOM      7  H   UNL     1      -0.876   5.232   7.121  1.00  0.00     0.163 HD
BRANCH   5   8
ATOM      8  C   UNL     1      -0.487   2.656   5.019  1.00  0.00     0.067 C 
ATOM      9  C   UNL     1       1.130  -0.001  -0.331  1.00  0.00     0.044 C 
ATOM     10  C   UNL     1       0.646   0.052   1.088  1.00  0.00    -0.049 A 
ATOM     11  C   UNL     1       0.325  -1.125   1.775  1.00  0.00     0.028 A 
ATOM     12  C   UNL     1       0.572   1.277   1.764  1.00  0.00     0.015 A 
ATOM     13  C   UNL     1      -0.087  -1.073   3.109  1.00  0.00     0.084 A 
ATOM     14  C   UNL     1       0.155   1.333   3.100  1.00  0.00     0.019 A 
ATOM     15  Cl  UNL     1      -0.476  -2.554   3.907  1.00  0.00    -0.080 Cl
ATOM     16  C   UNL     1      -0.183   0.156   3.770  1.00  0.00     0.146 A 
ATOM     17  C   UNL     1       0.106   2.604   3.812  1.00  0.00     0.025 C 
ATOM     18  O   UNL     1      -0.555   0.165   5.087  1.00  0.00    -0.474 OA
ATOM     19  C   UNL     1      -1.090   1.414   5.610  1.00  0.00     0.314 C 
BRANCH  19  20
ATOM     20  C   UNL     1      -2.626   1.390   5.502  1.00  0.00     0.429 C 
ATOM     21  F   UNL     1      -3.144   0.428   6.306  1.00  0.00    -0.167 F 
ATOM     22  F   UNL     1      -3.194   2.557   5.885  1.00  0.00    -0.167 F 
ATOM     23  F   UNL     1      -3.053   1.138   4.244  1.00  0.00    -0.167 F 
ENDBRANCH  19  20
ENDBRANCH   5   8
ENDBRANCH   3   4
ENDBRANCH   2   3
ENDBRANCH   1   2
BRANCH   1  24
ATOM     24  C   UNL     1      -1.542   4.823  10.850  1.00  0.00     0.116 C 
BRANCH  24  25
ATOM     25  N   UNL     1      -2.227   3.691  11.462  1.00  0.00    -0.352 N 
ATOM     26  C   UNL     1      -3.003   3.691  12.597  1.00  0.00     0.251 C 
ATOM     27  H   UNL     1      -2.122   2.823  11.009  1.00  0.00     0.163 HD
ATOM     28  O   UNL     1      -3.470   2.647  13.041  1.00  0.00    -0.269 OA
BRANCH  26  29
ATOM     29  C   UNL     1      -3.222   4.971  13.296  1.00  0.00     0.039 A 
ATOM     30  C   UNL     1      -2.804   5.093  14.623  1.00  0.00     0.014 A 
ATOM     31  C   UNL     1      -3.743   6.066  12.602  1.00  0.00     0.014 A 
ATOM     32  C   UNL     1      -2.834   6.347  15.234  1.00  0.00     0.010 A 
ATOM     33  C   UNL     1      -3.717   7.324  13.195  1.00  0.00     0.010 A 
ATOM     34  C   UNL     1      -3.251   7.476  14.510  1.00  0.00    -0.014 A 
BRANCH  34  35
ATOM     35  C   UNL     1      -3.176   8.834  15.100  1.00  0.00     0.031 A 
ATOM     36  C   UNL     1      -4.434   9.607  15.372  1.00  0.00     0.074 A 
ATOM     37  C   UNL     1      -1.971   9.399  15.310  1.00  0.00     0.049 A 
ATOM     38  N   UNL     1      -4.567  10.819  15.840  1.00  0.00    -0.248 NA
ATOM     39  C   UNL     1      -5.708   8.941  15.053  1.00  0.00     0.031 C 
ATOM     40  C   UNL     1      -0.681   8.773  15.012  1.00  0.00     0.029 A 
ATOM     41  N   UNL     1      -1.633  10.633  15.806  1.00  0.00    -0.354 N 
ATOM     42  C   UNL     1      -5.933  11.071  15.851  1.00  0.00     0.074 A 
ATOM     43  C   UNL     1      -6.586   9.901  15.306  1.00  0.00     0.031 C 
ATOM     44  C   UNL     1       0.307   9.619  15.347  1.00  0.00     0.029 A 
ATOM     45  C   UNL     1      -0.276  10.854  15.863  1.00  0.00     0.049 A 
ATOM     46  H   UNL     1      -2.299  11.298  16.094  1.00  0.00     0.167 HD
ATOM     47  C   UNL     1      -6.587  12.162  16.312  1.00  0.00     0.034 A 
ATOM     48  C   UNL     1       0.418  11.927  16.292  1.00  0.00     0.034 A 
ATOM     49  C   UNL     1      -5.937  13.299  16.903  1.00  0.00     0.049 A 
ATOM     50  C   UNL     1      -0.335  13.112  16.834  1.00  0.00     0.074 A 
ATOM     51  C   UNL     1      -6.516  14.421  17.468  1.00  0.00     0.029 A 
ATOM     52  N   UNL     1      -4.564  13.457  17.010  1.00  0.00    -0.354 N 
ATOM     53  N   UNL     1      -1.629  13.271  16.974  1.00  0.00    -0.248 NA
ATOM     54  C   UNL     1       0.465  14.251  17.308  1.00  0.00     0.031 C 
ATOM     55  C   UNL     1      -5.490  15.259  17.918  1.00  0.00     0.029 A 
ATOM     56  C   UNL     1      -4.274  14.658  17.634  1.00  0.00     0.049 A 
ATOM     57  H   UNL     1      -3.894  12.811  16.690  1.00  0.00     0.167 HD
ATOM     58  C   UNL     1      -1.798  14.514  17.573  1.00  0.00     0.074 A 
ATOM     59  C   UNL     1      -0.473  15.057  17.791  1.00  0.00     0.031 C 
ATOM     60  C   UNL     1      -2.948  15.156  17.894  1.00  0.00     0.034 A 
BRANCH  47  61
ATOM     61  C   UNL     1      -8.091  12.138  16.278  1.00  0.00     0.023 A 
ATOM     62  C   UNL     1      -8.781  11.336  17.210  1.00  0.00     0.012 A 
ATOM     63  C   UNL     1      -8.820  12.939  15.380  1.00  0.00     0.148 A 
ATOM     64  C   UNL     1     -10.174  11.312  17.233  1.00  0.00     0.002 A 
ATOM     65  C   UNL     1     -10.209  12.938  15.433  1.00  0.00     0.091 A 
ATOM     66  F   UNL     1      -8.145  13.675  14.484  1.00  0.00    -0.205 F 
ATOM     67  C   UNL     1     -10.887  12.120  16.352  1.00  0.00     0.022 A 
BRANCH  65  68
ATOM     68  S   UNL     1     -11.219  13.994  14.387  1.00  0.00     0.127 S 
ATOM     69  O   UNL     1     -11.771  13.028  13.439  1.00  0.00    -0.237 OA
ATOM     70  O   UNL     1     -12.189  14.537  15.338  1.00  0.00    -0.237 OA
ATOM     71  O   UNL     1     -10.309  14.980  13.820  1.00  0.00    -0.744 OA
ENDBRANCH  65  68
ENDBRANCH  47  61
BRANCH  48  72
ATOM     72  C   UNL     1       1.907  11.878  16.325  1.00  0.00     0.023 A 
ATOM     73  C   UNL     1       2.556  11.768  17.571  1.00  0.00     0.012 A 
ATOM     74  C   UNL     1       2.679  11.877  15.147  1.00  0.00     0.148 A 
ATOM     75  C   UNL     1       3.946  11.676  17.645  1.00  0.00     0.002 A 
ATOM     76  C   UNL     1       4.060  11.734  15.225  1.00  0.00     0.091 A 
ATOM     77  F   UNL     1       2.045  11.999  13.972  1.00  0.00    -0.205 F 
ATOM     78  C   UNL     1       4.697  11.647  16.473  1.00  0.00     0.022 A 
BRANCH  76  79
ATOM     79  S   UNL     1       5.090  11.551  13.764  1.00  0.00     0.127 S 
ATOM     80  O   UNL     1       5.740  12.856  13.689  1.00  0.00    -0.237 OA
ATOM     81  O   UNL     1       5.970  10.445  14.147  1.00  0.00    -0.237 OA
ATOM     82  O   UNL     1       4.172  11.232  12.679  1.00  0.00    -0.744 OA
ENDBRANCH  76  79
ENDBRANCH  48  72
BRANCH  60  83
ATOM     83  C   UNL     1      -2.842  16.520  18.521  1.00  0.00     0.023 A 
ATOM     84  C   UNL     1      -2.526  17.627  17.709  1.00  0.00     0.012 A 
ATOM     85  C   UNL     1      -3.174  16.724  19.875  1.00  0.00     0.148 A 
ATOM     86  C   UNL     1      -2.531  18.916  18.238  1.00  0.00     0.002 A 
ATOM     87  C   UNL     1      -3.217  18.017  20.384  1.00  0.00     0.091 A 
ATOM     88  F   UNL     1      -3.452  15.654  20.634  1.00  0.00    -0.205 F 
ATOM     89  C   UNL     1      -2.890  19.113  19.570  1.00  0.00     0.022 A 
BRANCH  87  90
ATOM     90  S   UNL     1      -3.764  18.369  22.060  1.00  0.00     0.127 S 
ATOM     91  O   UNL     1      -2.499  18.653  22.733  1.00  0.00    -0.237 OA
ATOM     92  O   UNL     1      -4.630  19.534  21.869  1.00  0.00    -0.237 OA
ATOM     93  O   UNL     1      -4.461  17.171  22.510  1.00  0.00    -0.744 OA
ENDBRANCH  87  90
ENDBRANCH  60  83
ENDBRANCH  34  35
ENDBRANCH  26  29
ENDBRANCH  24  25
ENDBRANCH   1  24
TORSDOF 15
