REMARK SMILES C[C@H](CNC(=O)[C@H]1CCCCC[C@@H]1[NH3+])C(=O)NCCCCNC(=O)c1ccc(-c2c3nc(c(-c4cccc(S(=O)(=O)[O-])c4F)c4ccc([nH]4)c(-c4cccc(S(=O)(=O)[O-])c4F)c4nc(c(-c5cccc(S(=O)(=O)[O-])c5F)c5ccc2[nH]5)C=C4)C=C3)cc1
REMARK SMILES IDX 18 1 17 2 15 3 16 4 2 6 1 7 3 8 4 9 5 10 6 12 7 13 8 14 9 15
REMARK SMILES IDX 10 16 13 18 12 19 11 20 14 22 19 26 20 27 21 28 22 29 23 30
REMARK SMILES IDX 24 32 25 33 26 34 87 35 27 36 86 37 28 38 29 39 30 40 80 41
REMARK SMILES IDX 31 42 85 43 79 44 81 45 32 46 84 47 78 48 77 49 33 51 65 52
REMARK SMILES IDX 45 53 64 54 46 55 49 56 63 57 82 58 47 59 48 60 62 62 83 63
REMARK SMILES IDX 50 64 34 65 35 66 43 67 36 68 38 69 44 70 37 71 39 72 40 73
REMARK SMILES IDX 41 74 42 75 66 76 67 77 75 78 68 79 70 80 76 81 69 82 71 83
REMARK SMILES IDX 72 84 73 85 74 86 51 87 52 88 60 89 53 90 55 91 61 92 54 93
REMARK SMILES IDX 56 94 57 95 58 96 59 97
REMARK H PARENT 17 5 4 11 14 23 14 24 14 25 22 31 81 50 49 61
REMARK Flexibility Score: 90.00
ROOT
ATOM      1  C   UNL     1       5.101  -0.967  -2.097  1.00  0.00     0.116 C 
ENDROOT
BRANCH   1   2
ATOM      2  N   UNL     1       6.425  -0.661  -2.608  1.00  0.00    -0.356 N 
ATOM      3  C   UNL     1       7.233   0.411  -2.404  1.00  0.00     0.224 C 
ATOM      4  O   UNL     1       8.270   0.486  -3.068  1.00  0.00    -0.275 OA
ATOM      5  H   UNL     1       6.800  -1.347  -3.206  1.00  0.00     0.163 HD
BRANCH   3   6
ATOM      6  C   UNL     1       6.918   1.486  -1.375  1.00  0.00     0.094 C 
ATOM      7  C   UNL     1       6.832   0.914   0.040  1.00  0.00     0.020 C 
BRANCH   6   8
ATOM      8  C   UNL     1       5.848   2.524  -1.774  1.00  0.00     0.129 C 
BRANCH   8   9
ATOM      9  N   UNL     1       4.624   2.053  -2.400  1.00  0.00    -0.355 N 
ATOM     10  C   UNL     1       3.291   2.244  -2.288  1.00  0.00     0.229 C 
ATOM     11  H   UNL     1       4.825   1.407  -3.115  1.00  0.00     0.163 HD
ATOM     12  O   UNL     1       2.627   1.732  -3.205  1.00  0.00    -0.275 OA
BRANCH  10  13
ATOM     13  C   UNL     1       2.519   3.029  -1.222  1.00  0.00     0.136 C 
BRANCH  13  14
ATOM     14  C   UNL     1       2.546   2.543   0.225  1.00  0.00     0.020 C 
BRANCH  14  15
ATOM     15  C   UNL     1       3.847   2.634   0.981  1.00  0.00     0.001 C 
BRANCH  15  16
ATOM     16  C   UNL     1       4.476   3.993   1.269  1.00  0.00     0.000 CG0
ATOM     17  G   UNL     1       4.061   5.264   0.531  1.00  0.00     0.000 G0
ENDBRANCH  15  16
ENDBRANCH  14  15
ENDBRANCH  13  14
BRANCH  13  18
ATOM     18  C   UNL     1       2.557   4.542  -1.449  1.00  0.00     0.193 C 
BRANCH  18  19
ATOM     19  C   UNL     1       3.828   5.240  -0.977  1.00  0.00     0.066 C 
BRANCH  19  20
ATOM     20  C   UNL     1       4.061   5.264   0.531  1.00  0.00     0.006 CG0
ATOM     21  G   UNL     1       4.476   3.993   1.269  1.00  0.00     0.000 G0
ENDBRANCH  19  20
ENDBRANCH  18  19
BRANCH  18  22
ATOM     22  N   UNL     1       1.392   5.193  -0.815  1.00  0.00    -0.354 N 
ATOM     23  H   UNL     1       1.445   5.072   0.197  1.00  0.00     0.344 HD
ATOM     24  H   UNL     1       0.533   4.768  -1.164  1.00  0.00     0.344 HD
ATOM     25  H   UNL     1       1.395   6.188  -1.039  1.00  0.00     0.344 HD
ENDBRANCH  18  22
ENDBRANCH  13  18
ENDBRANCH  10  13
ENDBRANCH   8   9
ENDBRANCH   6   8
ENDBRANCH   3   6
ENDBRANCH   1   2
BRANCH   1  26
ATOM     26  C   UNL     1       4.080  -1.026  -3.232  1.00  0.00     0.023 C 
BRANCH  26  27
ATOM     27  C   UNL     1       4.115  -2.299  -4.059  1.00  0.00     0.023 C 
BRANCH  27  28
ATOM     28  C   UNL     1       3.828  -3.559  -3.269  1.00  0.00     0.116 C 
BRANCH  28  29
ATOM     29  N   UNL     1       2.543  -3.536  -2.576  1.00  0.00    -0.352 N 
ATOM     30  C   UNL     1       1.638  -4.566  -2.461  1.00  0.00     0.251 C 
ATOM     31  H   UNL     1       2.296  -2.688  -2.142  1.00  0.00     0.163 HD
ATOM     32  O   UNL     1       0.547  -4.406  -1.925  1.00  0.00    -0.269 OA
BRANCH  30  33
ATOM     33  C   UNL     1       2.012  -5.865  -3.049  1.00  0.00     0.039 A 
ATOM     34  C   UNL     1       1.213  -6.413  -4.052  1.00  0.00     0.014 A 
ATOM     35  C   UNL     1       3.248  -6.426  -2.721  1.00  0.00     0.014 A 
ATOM     36  C   UNL     1       1.696  -7.496  -4.787  1.00  0.00     0.010 A 
ATOM     37  C   UNL     1       3.768  -7.427  -3.525  1.00  0.00     0.010 A 
ATOM     38  C   UNL     1       2.995  -7.981  -4.559  1.00  0.00    -0.014 A 
BRANCH  38  39
ATOM     39  C   UNL     1       3.573  -9.079  -5.371  1.00  0.00     0.031 A 
ATOM     40  C   UNL     1       4.011 -10.347  -4.688  1.00  0.00     0.074 A 
ATOM     41  C   UNL     1       3.806  -8.898  -6.686  1.00  0.00     0.049 A 
ATOM     42  N   UNL     1       4.626 -11.384  -5.191  1.00  0.00    -0.248 NA
ATOM     43  C   UNL     1       3.768 -10.442  -3.237  1.00  0.00     0.031 C 
ATOM     44  C   UNL     1       3.522  -7.674  -7.441  1.00  0.00     0.029 A 
ATOM     45  N   UNL     1       4.362  -9.737  -7.619  1.00  0.00    -0.354 N 
ATOM     46  C   UNL     1       4.895 -12.220  -4.114  1.00  0.00     0.074 A 
ATOM     47  C   UNL     1       4.418 -11.552  -2.925  1.00  0.00     0.031 C 
ATOM     48  C   UNL     1       3.888  -7.851  -8.722  1.00  0.00     0.029 A 
ATOM     49  C   UNL     1       4.454  -9.186  -8.876  1.00  0.00     0.049 A 
ATOM     50  H   UNL     1       4.667 -10.649  -7.407  1.00  0.00     0.167 HD
ATOM     51  C   UNL     1       5.450 -13.454  -4.116  1.00  0.00     0.034 A 
ATOM     52  C   UNL     1       4.935  -9.706 -10.023  1.00  0.00     0.034 A 
ATOM     53  C   UNL     1       5.833 -14.151  -5.311  1.00  0.00     0.049 A 
ATOM     54  C   UNL     1       5.453 -11.120 -10.016  1.00  0.00     0.074 A 
ATOM     55  C   UNL     1       6.285 -15.450  -5.441  1.00  0.00     0.029 A 
ATOM     56  N   UNL     1       5.795 -13.607  -6.585  1.00  0.00    -0.354 N 
ATOM     57  N   UNL     1       5.539 -11.963  -9.015  1.00  0.00    -0.248 NA
ATOM     58  C   UNL     1       5.905 -11.670 -11.303  1.00  0.00     0.031 C 
ATOM     59  C   UNL     1       6.527 -15.691  -6.798  1.00  0.00     0.029 A 
ATOM     60  C   UNL     1       6.215 -14.544  -7.511  1.00  0.00     0.049 A 
ATOM     61  H   UNL     1       5.511 -12.689  -6.800  1.00  0.00     0.167 HD
ATOM     62  C   UNL     1       6.018 -13.151  -9.555  1.00  0.00     0.074 A 
ATOM     63  C   UNL     1       6.185 -12.925 -10.976  1.00  0.00     0.031 C 
ATOM     64  C   UNL     1       6.311 -14.318  -8.930  1.00  0.00     0.034 A 
BRANCH  51  65
ATOM     65  C   UNL     1       5.597 -14.154  -2.792  1.00  0.00     0.023 A 
ATOM     66  C   UNL     1       4.447 -14.626  -2.125  1.00  0.00     0.012 A 
ATOM     67  C   UNL     1       6.866 -14.376  -2.224  1.00  0.00     0.148 A 
ATOM     68  C   UNL     1       4.553 -15.271  -0.894  1.00  0.00     0.002 A 
ATOM     69  C   UNL     1       6.967 -15.061  -1.018  1.00  0.00     0.091 A 
ATOM     70  F   UNL     1       7.945 -13.897  -2.858  1.00  0.00    -0.205 F 
ATOM     71  C   UNL     1       5.812 -15.497  -0.347  1.00  0.00     0.022 A 
BRANCH  69  72
ATOM     72  S   UNL     1       8.547 -15.470  -0.269  1.00  0.00     0.127 S 
ATOM     73  O   UNL     1       8.595 -14.533   0.852  1.00  0.00    -0.237 OA
ATOM     74  O   UNL     1       8.355 -16.869   0.114  1.00  0.00    -0.237 OA
ATOM     75  O   UNL     1       9.547 -15.259  -1.307  1.00  0.00    -0.744 OA
ENDBRANCH  69  72
ENDBRANCH  51  65
BRANCH  52  76
ATOM     76  C   UNL     1       4.852  -8.927 -11.291  1.00  0.00     0.023 A 
ATOM     77  C   UNL     1       3.925  -9.322 -12.276  1.00  0.00     0.012 A 
ATOM     78  C   UNL     1       5.652  -7.791 -11.519  1.00  0.00     0.148 A 
ATOM     79  C   UNL     1       3.818  -8.620 -13.478  1.00  0.00     0.002 A 
ATOM     80  C   UNL     1       5.505  -7.066 -12.698  1.00  0.00     0.091 A 
ATOM     81  F   UNL     1       6.537  -7.436 -10.577  1.00  0.00    -0.205 F 
ATOM     82  C   UNL     1       4.600  -7.488 -13.685  1.00  0.00     0.022 A 
BRANCH  80  83
ATOM     83  S   UNL     1       6.380  -5.525 -12.995  1.00  0.00     0.127 S 
ATOM     84  O   UNL     1       7.384  -5.935 -13.973  1.00  0.00    -0.237 OA
ATOM     85  O   UNL     1       5.319  -4.668 -13.523  1.00  0.00    -0.237 OA
ATOM     86  O   UNL     1       6.890  -5.112 -11.694  1.00  0.00    -0.744 OA
ENDBRANCH  80  83
ENDBRANCH  52  76
BRANCH  64  87
ATOM     87  C   UNL     1       6.811 -15.457  -9.775  1.00  0.00     0.023 A 
ATOM     88  C   UNL     1       8.131 -15.432 -10.266  1.00  0.00     0.012 A 
ATOM     89  C   UNL     1       6.007 -16.591 -10.001  1.00  0.00     0.148 A 
ATOM     90  C   UNL     1       8.636 -16.509 -10.991  1.00  0.00     0.002 A 
ATOM     91  C   UNL     1       6.532 -17.680 -10.685  1.00  0.00     0.091 A 
ATOM     92  F   UNL     1       4.747 -16.585  -9.542  1.00  0.00    -0.205 F 
ATOM     93  C   UNL     1       7.842 -17.638 -11.189  1.00  0.00     0.022 A 
BRANCH  91  94
ATOM     94  S   UNL     1       5.614 -19.209 -10.898  1.00  0.00     0.127 S 
ATOM     95  O   UNL     1       5.209 -19.121 -12.300  1.00  0.00    -0.237 OA
ATOM     96  O   UNL     1       6.629 -20.226 -10.620  1.00  0.00    -0.237 OA
ATOM     97  O   UNL     1       4.530 -19.161  -9.926  1.00  0.00    -0.744 OA
ENDBRANCH  91  94
ENDBRANCH  64  87
ENDBRANCH  38  39
ENDBRANCH  30  33
ENDBRANCH  28  29
ENDBRANCH  27  28
ENDBRANCH  26  27
ENDBRANCH   1  26
TORSDOF 18
