REMARK SMILES CC1(C)CCC[C@H]1NS(=O)(=O)c1ccc(O)c(C(=O)NCCCCNC(=O)c2ccc(-c3c4nc(c(-c5cccc(S(=O)(=O)[O-])c5F)c5ccc([nH]5)c(-c5cccc(S(=O)(=O)[O-])c5F)c5nc(c(-c6cccc(S(=O)(=O)[O-])c6F)c6ccc3[nH]6)C=C5)C=C4)cc2)c1
REMARK SMILES IDX 22 1 21 2 20 3 18 4 19 5 17 7 12 8 13 9 91 10 14 11 15 12
REMARK SMILES IDX 9 13 10 14 11 15 8 16 7 18 1 19 2 20 3 21 4 22 5 23 6 24
REMARK SMILES IDX 16 25 23 27 24 28 25 29 26 30 27 32 28 33 29 34 90 35 30 36
REMARK SMILES IDX 89 37 31 38 32 39 33 40 83 41 34 42 88 43 82 44 84 45 35 46
REMARK SMILES IDX 87 47 81 48 80 49 36 51 68 52 48 53 67 54 49 55 52 56 66 57
REMARK SMILES IDX 85 58 50 59 51 60 65 62 86 63 53 64 37 65 38 66 46 67 39 68
REMARK SMILES IDX 41 69 47 70 40 71 42 72 43 73 44 74 45 75 69 76 70 77 78 78
REMARK SMILES IDX 71 79 73 80 79 81 72 82 74 83 75 84 76 85 77 86 54 87 55 88
REMARK SMILES IDX 63 89 56 90 58 91 64 92 57 93 59 94 60 95 61 96 62 97
REMARK H PARENT 20 6 8 17 16 26 25 31 84 50 52 61
REMARK Flexibility Score: inf
ROOT
ATOM      1  C   UNL     1      -1.375   9.763  -1.991  1.00  0.00     0.023 C 
ENDROOT
BRANCH   1   2
ATOM      2  C   UNL     1      -0.462   9.624  -0.768  1.00  0.00     0.116 C 
BRANCH   2   3
ATOM      3  N   UNL     1      -1.227   9.145   0.360  1.00  0.00    -0.352 N 
ATOM      4  C   UNL     1      -1.550   7.886   0.788  1.00  0.00     0.255 C 
ATOM      5  O   UNL     1      -2.346   7.827   1.731  1.00  0.00    -0.269 OA
ATOM      6  H   UNL     1      -1.586   9.863   0.931  1.00  0.00     0.163 HD
BRANCH   4   7
ATOM      7  C   UNL     1      -0.960   6.603   0.283  1.00  0.00     0.082 A 
ATOM      8  C   UNL     1      -0.539   4.265   0.895  1.00  0.00     0.083 A 
ATOM      9  C   UNL     1       0.178   4.061  -0.275  1.00  0.00     0.025 A 
ATOM     10  C   UNL     1      -1.045   5.535   1.199  1.00  0.00     0.039 A 
ATOM     11  C   UNL     1       0.212   5.075  -1.223  1.00  0.00     0.048 A 
ATOM     12  C   UNL     1      -0.410   6.307  -0.972  1.00  0.00     0.128 A 
BRANCH   8  13
ATOM     13  S   UNL     1      -1.011   2.938   1.965  1.00  0.00     0.240 S 
ATOM     14  O   UNL     1      -2.416   2.683   1.734  1.00  0.00    -0.207 OA
ATOM     15  O   UNL     1      -0.495   3.246   3.278  1.00  0.00    -0.207 OA
BRANCH  13  16
ATOM     16  N   UNL     1      -0.145   1.584   1.482  1.00  0.00    -0.208 NA
ATOM     17  H   UNL     1       0.811   1.903   1.329  1.00  0.00     0.141 HD
BRANCH  16  18
ATOM     18  C   UNL     1      -0.495   0.780   0.300  1.00  0.00     0.075 C 
ATOM     19  C   UNL     1       1.905  -0.175   0.799  1.00  0.00     0.013 C 
ATOM     20  C   UNL     1       0.566  -0.345   0.061  1.00  0.00    -0.019 C 
ATOM     21  C   UNL     1       0.886  -0.447  -1.446  1.00  0.00     0.013 C 
ATOM     22  C   UNL     1      -0.153  -1.616   0.548  1.00  0.00     0.008 C 
ATOM     23  C   UNL     1      -1.598  -1.402   0.135  1.00  0.00     0.002 C 
ATOM     24  C   UNL     1      -1.845   0.063   0.457  1.00  0.00     0.020 C 
ENDBRANCH  16  18
ENDBRANCH  13  16
ENDBRANCH   8  13
BRANCH  12  25
ATOM     25  O   UNL     1      -0.517   7.145  -2.039  1.00  0.00    -0.507 OA
ATOM     26  H   UNL     1      -0.134   6.908  -2.861  1.00  0.00     0.293 HD
ENDBRANCH  12  25
ENDBRANCH   4   7
ENDBRANCH   2   3
ENDBRANCH   1   2
BRANCH   1  27
ATOM     27  C   UNL     1      -2.040  11.131  -2.137  1.00  0.00     0.023 C 
BRANCH  27  28
ATOM     28  C   UNL     1      -1.071  12.263  -2.454  1.00  0.00     0.116 C 
BRANCH  28  29
ATOM     29  N   UNL     1      -0.280  12.028  -3.655  1.00  0.00    -0.352 N 
ATOM     30  C   UNL     1       0.339  12.953  -4.460  1.00  0.00     0.251 C 
ATOM     31  H   UNL     1      -0.175  11.086  -3.923  1.00  0.00     0.163 HD
ATOM     32  O   UNL     1       0.906  12.599  -5.489  1.00  0.00    -0.269 OA
BRANCH  30  33
ATOM     33  C   UNL     1       0.260  14.381  -4.097  1.00  0.00     0.039 A 
ATOM     34  C   UNL     1      -0.178  15.291  -5.060  1.00  0.00     0.014 A 
ATOM     35  C   UNL     1       0.557  14.806  -2.799  1.00  0.00     0.014 A 
ATOM     36  C   UNL     1      -0.384  16.623  -4.701  1.00  0.00     0.010 A 
ATOM     37  C   UNL     1       0.282  16.116  -2.426  1.00  0.00     0.010 A 
ATOM     38  C   UNL     1      -0.187  17.036  -3.373  1.00  0.00    -0.014 A 
BRANCH  38  39
ATOM     39  C   UNL     1      -0.485  18.427  -2.956  1.00  0.00     0.031 A 
ATOM     40  C   UNL     1       0.620  19.328  -2.485  1.00  0.00     0.074 A 
ATOM     41  C   UNL     1      -1.765  18.846  -2.925  1.00  0.00     0.049 A 
ATOM     42  N   UNL     1       0.552  20.570  -2.084  1.00  0.00    -0.248 NA
ATOM     43  C   UNL     1       1.975  18.753  -2.426  1.00  0.00     0.031 C 
ATOM     44  C   UNL     1      -2.933  18.025  -3.254  1.00  0.00     0.029 A 
ATOM     45  N   UNL     1      -2.300  20.061  -2.580  1.00  0.00    -0.354 N 
ATOM     46  C   UNL     1       1.841  20.914  -1.696  1.00  0.00     0.074 A 
ATOM     47  C   UNL     1       2.665  19.739  -1.873  1.00  0.00     0.031 C 
ATOM     48  C   UNL     1      -4.045  18.763  -3.107  1.00  0.00     0.029 A 
ATOM     49  C   UNL     1      -3.672  20.104  -2.667  1.00  0.00     0.049 A 
ATOM     50  H   UNL     1      -1.754  20.829  -2.298  1.00  0.00     0.167 HD
ATOM     51  C   UNL     1       2.305  22.112  -1.269  1.00  0.00     0.034 A 
ATOM     52  C   UNL     1      -4.529  21.117  -2.436  1.00  0.00     0.034 A 
ATOM     53  C   UNL     1       1.493  23.293  -1.159  1.00  0.00     0.049 A 
ATOM     54  C   UNL     1      -3.975  22.464  -2.058  1.00  0.00     0.074 A 
ATOM     55  C   UNL     1       1.884  24.580  -0.837  1.00  0.00     0.029 A 
ATOM     56  N   UNL     1       0.124  23.331  -1.372  1.00  0.00    -0.354 N 
ATOM     57  N   UNL     1      -2.726  22.821  -1.879  1.00  0.00    -0.248 NA
ATOM     58  C   UNL     1      -4.942  23.559  -1.895  1.00  0.00     0.031 C 
ATOM     59  C   UNL     1       0.749  25.398  -0.859  1.00  0.00     0.029 A 
ATOM     60  C   UNL     1      -0.347  24.619  -1.194  1.00  0.00     0.049 A 
ATOM     61  H   UNL     1      -0.431  22.555  -1.615  1.00  0.00     0.167 HD
ATOM     62  C   UNL     1      -2.753  24.185  -1.615  1.00  0.00     0.074 A 
ATOM     63  C   UNL     1      -4.141  24.595  -1.680  1.00  0.00     0.031 C 
ATOM     64  C   UNL     1      -1.724  25.019  -1.325  1.00  0.00     0.034 A 
BRANCH  51  65
ATOM     65  C   UNL     1       3.776  22.222  -0.976  1.00  0.00     0.023 A 
ATOM     66  C   UNL     1       4.689  22.247  -2.051  1.00  0.00     0.012 A 
ATOM     67  C   UNL     1       4.256  22.343   0.341  1.00  0.00     0.148 A 
ATOM     68  C   UNL     1       6.058  22.359  -1.819  1.00  0.00     0.002 A 
ATOM     69  C   UNL     1       5.622  22.492   0.563  1.00  0.00     0.091 A 
ATOM     70  F   UNL     1       3.378  22.288   1.352  1.00  0.00    -0.205 F 
ATOM     71  C   UNL     1       6.523  22.492  -0.514  1.00  0.00     0.022 A 
BRANCH  69  72
ATOM     72  S   UNL     1       6.308  22.737   2.205  1.00  0.00     0.127 S 
ATOM     73  O   UNL     1       6.854  21.413   2.498  1.00  0.00    -0.237 OA
ATOM     74  O   UNL     1       7.315  23.773   1.971  1.00  0.00    -0.237 OA
ATOM     75  O   UNL     1       5.193  23.160   3.041  1.00  0.00    -0.744 OA
ENDBRANCH  69  72
ENDBRANCH  51  65
BRANCH  52  76
ATOM     76  C   UNL     1      -5.986  20.922  -2.674  1.00  0.00     0.023 A 
ATOM     77  C   UNL     1      -6.579  21.516  -3.806  1.00  0.00     0.012 A 
ATOM     78  C   UNL     1      -6.774  20.123  -1.826  1.00  0.00     0.148 A 
ATOM     79  C   UNL     1      -7.936  21.338  -4.075  1.00  0.00     0.002 A 
ATOM     80  C   UNL     1      -8.116  19.910  -2.126  1.00  0.00     0.091 A 
ATOM     81  F   UNL     1      -6.198  19.579  -0.745  1.00  0.00    -0.205 F 
ATOM     82  C   UNL     1      -8.702  20.527  -3.242  1.00  0.00     0.022 A 
BRANCH  80  83
ATOM     83  S   UNL     1      -9.135  18.774  -1.177  1.00  0.00     0.127 S 
ATOM     84  O   UNL     1      -9.892  19.689  -0.327  1.00  0.00    -0.237 OA
ATOM     85  O   UNL     1      -9.918  18.113  -2.222  1.00  0.00    -0.237 OA
ATOM     86  O   UNL     1      -8.193  17.896  -0.495  1.00  0.00    -0.744 OA
ENDBRANCH  80  83
ENDBRANCH  52  76
BRANCH  64  87
ATOM     87  C   UNL     1      -2.053  26.465  -1.072  1.00  0.00     0.023 A 
ATOM     88  C   UNL     1      -2.641  26.836   0.153  1.00  0.00     0.012 A 
ATOM     89  C   UNL     1      -1.710  27.461  -2.006  1.00  0.00     0.148 A 
ATOM     90  C   UNL     1      -2.906  28.175   0.434  1.00  0.00     0.002 A 
ATOM     91  C   UNL     1      -1.940  28.798  -1.702  1.00  0.00     0.091 A 
ATOM     92  F   UNL     1      -1.174  27.087  -3.178  1.00  0.00    -0.205 F 
ATOM     93  C   UNL     1      -2.545  29.156  -0.487  1.00  0.00     0.022 A 
BRANCH  91  94
ATOM     94  S   UNL     1      -1.421  30.121  -2.801  1.00  0.00     0.127 S 
ATOM     95  O   UNL     1      -2.658  30.418  -3.520  1.00  0.00    -0.237 OA
ATOM     96  O   UNL     1      -0.994  31.163  -1.866  1.00  0.00    -0.237 OA
ATOM     97  O   UNL     1      -0.340  29.560  -3.603  1.00  0.00    -0.744 OA
ENDBRANCH  91  94
ENDBRANCH  64  87
ENDBRANCH  38  39
ENDBRANCH  30  33
ENDBRANCH  28  29
ENDBRANCH  27  28
ENDBRANCH   1  27
TORSDOF 18
