REMARK SMILES CC(=O)N1CCCN(S(=O)(=O)c2ccc(C)c(C(=O)NCCCCNC(=O)c3ccc(-c4c5nc(c(-c6cccc(S(=O)(=O)[O-])c6F)c6ccc([nH]6)c(-c6cccc(S(=O)(=O)[O-])c6F)c6nc(c(-c7cccc(S(=O)(=O)[O-])c7F)c7ccc4[nH]7)C=C6)C=C5)cc3)c2)CC1
REMARK SMILES IDX 21 1 20 2 18 3 19 4 17 6 12 7 13 8 91 9 14 10 15 11 16 12
REMARK SMILES IDX 9 13 10 14 11 15 8 16 92 17 93 18 4 19 2 20 1 21 3 22 5 23
REMARK SMILES IDX 7 25 6 26 22 28 23 29 24 30 25 31 26 32 27 34 28 35 29 36
REMARK SMILES IDX 90 37 30 38 89 39 31 40 32 41 33 42 83 43 34 44 88 45 82 46
REMARK SMILES IDX 84 47 35 48 87 49 81 50 80 51 36 53 68 54 48 55 67 56 49 57
REMARK SMILES IDX 52 58 66 59 85 60 50 61 51 62 65 64 86 65 53 66 37 67 38 68
REMARK SMILES IDX 46 69 39 70 41 71 47 72 40 73 42 74 43 75 44 76 45 77 69 78
REMARK SMILES IDX 70 79 78 80 71 81 73 82 79 83 72 84 74 85 75 86 76 87 77 88
REMARK SMILES IDX 54 89 55 90 63 91 56 92 58 93 64 94 57 95 59 96 60 97 61 98
REMARK SMILES IDX 62 99
REMARK H PARENT 20 5 25 33 84 52 52 63
REMARK Flexibility Score: 90.00
ROOT
ATOM      1  C   UNL     1      -2.147   8.945  -7.661  1.00  0.00     0.116 C 
ENDROOT
BRANCH   1   2
ATOM      2  N   UNL     1      -0.798   8.437  -7.612  1.00  0.00    -0.352 N 
ATOM      3  C   UNL     1      -0.153   7.275  -7.315  1.00  0.00     0.251 C 
ATOM      4  O   UNL     1       1.022   7.281  -7.712  1.00  0.00    -0.269 OA
ATOM      5  H   UNL     1      -0.154   9.136  -7.868  1.00  0.00     0.163 HD
BRANCH   3   6
ATOM      6  C   UNL     1      -0.607   6.079  -6.510  1.00  0.00     0.044 A 
ATOM      7  C   UNL     1       0.378   4.150  -5.296  1.00  0.00     0.083 A 
ATOM      8  C   UNL     1      -0.834   3.937  -4.666  1.00  0.00     0.022 A 
ATOM      9  C   UNL     1       0.489   5.218  -6.190  1.00  0.00     0.035 A 
ATOM     10  C   UNL     1      -1.945   4.676  -5.039  1.00  0.00     0.005 A 
ATOM     11  C   UNL     1      -1.867   5.726  -5.981  1.00  0.00    -0.038 A 
ATOM     12  C   UNL     1      -3.197   6.326  -6.307  1.00  0.00     0.045 C 
BRANCH   7  13
ATOM     13  S   UNL     1       1.834   3.271  -4.775  1.00  0.00     0.243 S 
ATOM     14  O   UNL     1       1.938   3.514  -3.345  1.00  0.00    -0.207 OA
ATOM     15  O   UNL     1       2.925   3.635  -5.641  1.00  0.00    -0.207 OA
BRANCH  13  16
ATOM     16  N   UNL     1       1.564   1.607  -5.021  1.00  0.00    -0.196 NA
BRANCH  16  17
ATOM     17  C   UNL     1       0.334   0.913  -4.580  1.00  0.00     0.124 C 
BRANCH  17  18
ATOM     18  C   UNL     1       0.113   0.919  -3.074  1.00  0.00     0.136 C 
BRANCH  18  19
ATOM     19  N   UNL     1       1.103   0.221  -2.255  1.00  0.00    -0.342 N 
BRANCH  19  20
ATOM     20  C   UNL     1       0.562  -0.574  -1.246  1.00  0.00     0.219 C 
ATOM     21  C   UNL     1       1.249  -0.552   0.097  1.00  0.00     0.114 C 
ATOM     22  O   UNL     1      -0.500  -1.184  -1.382  1.00  0.00    -0.275 OA
ENDBRANCH  19  20
BRANCH  19  23
ATOM     23  C   UNL     1       2.459   0.768  -2.219  1.00  0.00     0.121 CG0
ATOM     24  G   UNL     1       3.328   0.616  -3.473  1.00  0.00     0.000 G0
ENDBRANCH  19  23
ENDBRANCH  18  19
ENDBRANCH  17  18
ENDBRANCH  16  17
BRANCH  16  25
ATOM     25  C   UNL     1       2.743   0.724  -4.877  1.00  0.00     0.104 C 
BRANCH  25  26
ATOM     26  C   UNL     1       3.328   0.616  -3.473  1.00  0.00     0.038 CG0
ATOM     27  G   UNL     1       2.459   0.768  -2.219  1.00  0.00     0.000 G0
ENDBRANCH  25  26
ENDBRANCH  16  25
ENDBRANCH  13  16
ENDBRANCH   7  13
ENDBRANCH   3   6
ENDBRANCH   1   2
BRANCH   1  28
ATOM     28  C   UNL     1      -2.596   9.712  -6.412  1.00  0.00     0.023 C 
BRANCH  28  29
ATOM     29  C   UNL     1      -2.224  11.205  -6.352  1.00  0.00     0.023 C 
BRANCH  29  30
ATOM     30  C   UNL     1      -2.967  12.180  -7.282  1.00  0.00     0.116 C 
BRANCH  30  31
ATOM     31  N   UNL     1      -4.419  12.237  -7.058  1.00  0.00    -0.352 N 
ATOM     32  C   UNL     1      -5.479  12.379  -7.951  1.00  0.00     0.251 C 
ATOM     33  H   UNL     1      -4.689  12.161  -6.114  1.00  0.00     0.163 HD
ATOM     34  O   UNL     1      -6.511  12.899  -7.539  1.00  0.00    -0.269 OA
BRANCH  32  35
ATOM     35  C   UNL     1      -5.378  11.863  -9.340  1.00  0.00     0.039 A 
ATOM     36  C   UNL     1      -6.281  12.135 -10.374  1.00  0.00     0.014 A 
ATOM     37  C   UNL     1      -4.377  10.947  -9.578  1.00  0.00     0.014 A 
ATOM     38  C   UNL     1      -6.164  11.448 -11.600  1.00  0.00     0.010 A 
ATOM     39  C   UNL     1      -4.090  10.488 -10.826  1.00  0.00     0.010 A 
ATOM     40  C   UNL     1      -5.074  10.598 -11.798  1.00  0.00    -0.014 A 
BRANCH  40  41
ATOM     41  C   UNL     1      -4.904   9.595 -12.843  1.00  0.00     0.031 A 
ATOM     42  C   UNL     1      -4.646   9.928 -14.240  1.00  0.00     0.074 A 
ATOM     43  C   UNL     1      -4.705   8.328 -12.405  1.00  0.00     0.049 A 
ATOM     44  N   UNL     1      -4.843   9.102 -15.209  1.00  0.00    -0.248 NA
ATOM     45  C   UNL     1      -4.092  11.210 -14.644  1.00  0.00     0.031 C 
ATOM     46  C   UNL     1      -4.059   7.209 -13.067  1.00  0.00     0.029 A 
ATOM     47  N   UNL     1      -5.138   7.788 -11.188  1.00  0.00    -0.354 N 
ATOM     48  C   UNL     1      -4.152   9.600 -16.288  1.00  0.00     0.074 A 
ATOM     49  C   UNL     1      -3.809  10.962 -15.928  1.00  0.00     0.031 C 
ATOM     50  C   UNL     1      -4.360   6.084 -12.394  1.00  0.00     0.029 A 
ATOM     51  C   UNL     1      -5.369   6.430 -11.404  1.00  0.00     0.049 A 
ATOM     52  H   UNL     1      -5.258   8.275 -10.341  1.00  0.00     0.167 HD
ATOM     53  C   UNL     1      -3.740   8.753 -17.274  1.00  0.00     0.034 A 
ATOM     54  C   UNL     1      -6.620   5.893 -11.287  1.00  0.00     0.034 A 
ATOM     55  C   UNL     1      -4.071   7.350 -16.956  1.00  0.00     0.049 A 
ATOM     56  C   UNL     1      -7.123   5.339 -12.612  1.00  0.00     0.074 A 
ATOM     57  C   UNL     1      -3.326   6.279 -16.481  1.00  0.00     0.029 A 
ATOM     58  N   UNL     1      -5.399   6.967 -16.817  1.00  0.00    -0.354 N 
ATOM     59  N   UNL     1      -6.428   5.280 -13.714  1.00  0.00    -0.248 NA
ATOM     60  C   UNL     1      -8.503   4.909 -12.810  1.00  0.00     0.031 C 
ATOM     61  C   UNL     1      -4.221   5.256 -16.050  1.00  0.00     0.029 A 
ATOM     62  C   UNL     1      -5.513   5.688 -16.281  1.00  0.00     0.049 A 
ATOM     63  H   UNL     1      -6.166   7.531 -17.067  1.00  0.00     0.167 HD
ATOM     64  C   UNL     1      -7.259   5.020 -14.775  1.00  0.00     0.074 A 
ATOM     65  C   UNL     1      -8.544   4.753 -14.143  1.00  0.00     0.031 C 
ATOM     66  C   UNL     1      -6.846   5.121 -16.082  1.00  0.00     0.034 A 
BRANCH  53  67
ATOM     67  C   UNL     1      -2.708   9.168 -18.310  1.00  0.00     0.023 A 
ATOM     68  C   UNL     1      -1.821   8.187 -18.802  1.00  0.00     0.012 A 
ATOM     69  C   UNL     1      -2.510  10.483 -18.791  1.00  0.00     0.148 A 
ATOM     70  C   UNL     1      -0.720   8.507 -19.602  1.00  0.00     0.002 A 
ATOM     71  C   UNL     1      -1.362  10.820 -19.516  1.00  0.00     0.091 A 
ATOM     72  F   UNL     1      -3.465  11.406 -18.604  1.00  0.00    -0.205 F 
ATOM     73  C   UNL     1      -0.461   9.832 -19.919  1.00  0.00     0.022 A 
BRANCH  71  74
ATOM     74  S   UNL     1      -0.898  12.533 -19.826  1.00  0.00     0.127 S 
ATOM     75  O   UNL     1       0.543  12.522 -19.561  1.00  0.00    -0.237 OA
ATOM     76  O   UNL     1      -1.254  12.712 -21.230  1.00  0.00    -0.237 OA
ATOM     77  O   UNL     1      -1.663  13.322 -18.865  1.00  0.00    -0.744 OA
ENDBRANCH  71  74
ENDBRANCH  53  67
BRANCH  54  78
ATOM     78  C   UNL     1      -7.466   6.621 -10.276  1.00  0.00     0.023 A 
ATOM     79  C   UNL     1      -7.006   6.628  -8.934  1.00  0.00     0.012 A 
ATOM     80  C   UNL     1      -8.378   7.616 -10.675  1.00  0.00     0.148 A 
ATOM     81  C   UNL     1      -7.314   7.688  -8.075  1.00  0.00     0.002 A 
ATOM     82  C   UNL     1      -8.684   8.665  -9.809  1.00  0.00     0.091 A 
ATOM     83  F   UNL     1      -8.865   7.586 -11.921  1.00  0.00    -0.205 F 
ATOM     84  C   UNL     1      -8.119   8.729  -8.527  1.00  0.00     0.022 A 
BRANCH  82  85
ATOM     85  S   UNL     1      -9.717  10.026 -10.370  1.00  0.00     0.127 S 
ATOM     86  O   UNL     1     -11.053   9.503 -10.103  1.00  0.00    -0.237 OA
ATOM     87  O   UNL     1      -9.307  11.129  -9.504  1.00  0.00    -0.237 OA
ATOM     88  O   UNL     1      -9.352  10.201 -11.769  1.00  0.00    -0.744 OA
ENDBRANCH  82  85
ENDBRANCH  54  78
BRANCH  66  89
ATOM     89  C   UNL     1      -7.687   4.761 -17.306  1.00  0.00     0.023 A 
ATOM     90  C   UNL     1      -8.837   3.955 -17.216  1.00  0.00     0.012 A 
ATOM     91  C   UNL     1      -7.306   5.143 -18.623  1.00  0.00     0.148 A 
ATOM     92  C   UNL     1      -9.650   3.682 -18.323  1.00  0.00     0.002 A 
ATOM     93  C   UNL     1      -8.103   4.859 -19.728  1.00  0.00     0.091 A 
ATOM     94  F   UNL     1      -6.123   5.727 -18.837  1.00  0.00    -0.205 F 
ATOM     95  C   UNL     1      -9.297   4.156 -19.576  1.00  0.00     0.022 A 
BRANCH  93  96
ATOM     96  S   UNL     1      -7.640   5.343 -21.398  1.00  0.00     0.127 S 
ATOM     97  O   UNL     1      -7.309   4.049 -21.995  1.00  0.00    -0.237 OA
ATOM     98  O   UNL     1      -8.879   5.943 -21.893  1.00  0.00    -0.237 OA
ATOM     99  O   UNL     1      -6.528   6.271 -21.262  1.00  0.00    -0.744 OA
ENDBRANCH  93  96
ENDBRANCH  66  89
ENDBRANCH  40  41
ENDBRANCH  32  35
ENDBRANCH  30  31
ENDBRANCH  29  30
ENDBRANCH  28  29
ENDBRANCH   1  28
TORSDOF 17
