REMARK SMILES O=C(CSc1ccc(Cl)cc1)Nc1cccc(C(=O)Nc2ccc(C(=O)NCCCCNC(=O)c3ccc(-c4c5nc(c(-c6cccc(S(=O)(=O)[O-])c6F)c6ccc([nH]6)c(-c6cccc(S(=O)(=O)[O-])c6F)c6nc(c(-c7cccc(S(=O)(=O)[O-])c7F)c7ccc4[nH]7)C=C6)C=C5)cc3)cc2)c1
REMARK SMILES IDX 28 1 27 2 25 3 26 4 24 6 21 7 22 8 99 9 23 10 98 11 20 12
REMARK SMILES IDX 18 13 19 14 17 16 13 17 14 18 100 19 15 20 16 21 12 22 1 23
REMARK SMILES IDX 2 24 3 26 4 27 5 28 6 29 11 30 7 31 10 32 8 33 9 34 29 35
REMARK SMILES IDX 30 36 31 37 32 38 33 39 34 41 35 42 36 43 97 44 37 45 96 46
REMARK SMILES IDX 38 47 39 48 40 49 90 50 41 51 95 52 89 53 91 54 42 55 94 56
REMARK SMILES IDX 88 57 87 58 43 60 75 61 55 62 74 63 56 64 59 65 73 66 92 67
REMARK SMILES IDX 57 68 58 69 72 71 93 72 60 73 44 74 45 75 53 76 46 77 48 78
REMARK SMILES IDX 54 79 47 80 49 81 50 82 51 83 52 84 76 85 77 86 85 87 78 88
REMARK SMILES IDX 80 89 86 90 79 91 81 92 82 93 83 94 84 95 61 96 62 97 70 98
REMARK SMILES IDX 63 99 65 100 71 101 64 102 66 103 67 104 68 105 69 106
REMARK H PARENT 27 5 20 15 12 25 32 40 91 59 59 70
REMARK Flexibility Score: inf
ROOT
ATOM      1  C   UNL     1       4.449   2.204  -1.530  1.00  0.00     0.116 C 
ENDROOT
BRANCH   1   2
ATOM      2  N   UNL     1       3.595   3.324  -1.175  1.00  0.00    -0.352 N 
ATOM      3  C   UNL     1       2.278   3.606  -1.442  1.00  0.00     0.251 C 
ATOM      4  O   UNL     1       1.795   4.621  -0.941  1.00  0.00    -0.269 OA
ATOM      5  H   UNL     1       4.048   4.014  -0.639  1.00  0.00     0.163 HD
BRANCH   3   6
ATOM      6  C   UNL     1       1.398   2.706  -2.238  1.00  0.00     0.039 A 
ATOM      7  C   UNL     1      -0.342   0.849  -3.417  1.00  0.00     0.041 A 
ATOM      8  C   UNL     1      -0.847   1.801  -2.535  1.00  0.00     0.027 A 
ATOM      9  C   UNL     1       0.991   0.924  -3.828  1.00  0.00     0.027 A 
ATOM     10  C   UNL     1       0.030   2.700  -1.920  1.00  0.00     0.016 A 
ATOM     11  C   UNL     1       1.846   1.878  -3.269  1.00  0.00     0.016 A 
BRANCH   7  12
ATOM     12  N   UNL     1      -1.176  -0.215  -3.797  1.00  0.00    -0.322 N 
ATOM     13  C   UNL     1      -0.870  -1.566  -3.852  1.00  0.00     0.255 C 
ATOM     14  O   UNL     1      -1.608  -2.338  -4.462  1.00  0.00    -0.269 OA
ATOM     15  H   UNL     1      -2.093   0.030  -4.057  1.00  0.00     0.170 HD
BRANCH  13  16
ATOM     16  C   UNL     1       0.285  -2.123  -3.081  1.00  0.00     0.042 A 
ATOM     17  C   UNL     1       1.850  -1.983  -1.214  1.00  0.00     0.041 A 
ATOM     18  C   UNL     1       2.516  -3.107  -1.709  1.00  0.00     0.026 A 
ATOM     19  C   UNL     1       0.701  -1.546  -1.872  1.00  0.00     0.040 A 
ATOM     20  C   UNL     1       2.037  -3.770  -2.846  1.00  0.00     0.003 A 
ATOM     21  C   UNL     1       0.932  -3.271  -3.541  1.00  0.00     0.014 A 
BRANCH  17  22
ATOM     22  N   UNL     1       2.411  -1.283  -0.124  1.00  0.00    -0.325 N 
ATOM     23  O   UNL     1       0.637   0.068   0.539  1.00  0.00    -0.274 OA
ATOM     24  C   UNL     1       1.825  -0.247   0.589  1.00  0.00     0.234 C 
ATOM     25  H   UNL     1       3.312  -1.559   0.159  1.00  0.00     0.169 HD
BRANCH  24  26
ATOM     26  C   UNL     1       2.794   0.602   1.398  1.00  0.00     0.175 C 
BRANCH  26  27
ATOM     27  S   UNL     1       4.101  -0.360   2.217  1.00  0.00    -0.116 SA
BRANCH  27  28
ATOM     28  C   UNL     1       3.104  -1.330   3.328  1.00  0.00     0.008 A 
ATOM     29  C   UNL     1       2.170  -0.741   4.188  1.00  0.00     0.016 A 
ATOM     30  C   UNL     1       3.252  -2.720   3.319  1.00  0.00     0.016 A 
ATOM     31  C   UNL     1       1.359  -1.538   4.997  1.00  0.00     0.021 A 
ATOM     32  C   UNL     1       2.443  -3.517   4.130  1.00  0.00     0.021 A 
ATOM     33  C   UNL     1       1.493  -2.923   4.959  1.00  0.00     0.041 A 
ATOM     34  Cl  UNL     1       0.479  -3.908   5.939  1.00  0.00    -0.084 Cl
ENDBRANCH  27  28
ENDBRANCH  26  27
ENDBRANCH  24  26
ENDBRANCH  17  22
ENDBRANCH  13  16
ENDBRANCH   7  12
ENDBRANCH   3   6
ENDBRANCH   1   2
BRANCH   1  35
ATOM     35  C   UNL     1       5.420   2.588  -2.642  1.00  0.00     0.023 C 
BRANCH  35  36
ATOM     36  C   UNL     1       6.610   3.424  -2.158  1.00  0.00     0.023 C 
BRANCH  36  37
ATOM     37  C   UNL     1       7.515   2.739  -1.136  1.00  0.00     0.116 C 
BRANCH  37  38
ATOM     38  N   UNL     1       8.046   1.468  -1.604  1.00  0.00    -0.352 N 
ATOM     39  C   UNL     1       9.283   0.914  -1.368  1.00  0.00     0.251 C 
ATOM     40  H   UNL     1       7.439   0.932  -2.165  1.00  0.00     0.163 HD
ATOM     41  O   UNL     1       9.611  -0.115  -1.933  1.00  0.00    -0.269 OA
BRANCH  39  42
ATOM     42  C   UNL     1      10.217   1.599  -0.445  1.00  0.00     0.039 A 
ATOM     43  C   UNL     1      11.538   1.798  -0.851  1.00  0.00     0.014 A 
ATOM     44  C   UNL     1       9.786   2.047   0.806  1.00  0.00     0.014 A 
ATOM     45  C   UNL     1      12.419   2.488  -0.016  1.00  0.00     0.010 A 
ATOM     46  C   UNL     1      10.644   2.797   1.603  1.00  0.00     0.010 A 
ATOM     47  C   UNL     1      11.974   3.010   1.210  1.00  0.00    -0.014 A 
BRANCH  47  48
ATOM     48  C   UNL     1      12.892   3.760   2.103  1.00  0.00     0.031 A 
ATOM     49  C   UNL     1      13.227   3.218   3.466  1.00  0.00     0.074 A 
ATOM     50  C   UNL     1      13.363   4.964   1.722  1.00  0.00     0.049 A 
ATOM     51  N   UNL     1      13.976   3.741   4.401  1.00  0.00    -0.248 NA
ATOM     52  C   UNL     1      12.613   1.933   3.840  1.00  0.00     0.031 C 
ATOM     53  C   UNL     1      13.034   5.642   0.467  1.00  0.00     0.029 A 
ATOM     54  N   UNL     1      14.196   5.843   2.368  1.00  0.00    -0.354 N 
ATOM     55  C   UNL     1      13.899   2.870   5.481  1.00  0.00     0.074 A 
ATOM     56  C   UNL     1      12.991   1.810   5.104  1.00  0.00     0.031 C 
ATOM     57  C   UNL     1      13.657   6.831   0.435  1.00  0.00     0.029 A 
ATOM     58  C   UNL     1      14.414   7.008   1.671  1.00  0.00     0.049 A 
ATOM     59  H   UNL     1      14.600   5.657   3.246  1.00  0.00     0.167 HD
ATOM     60  C   UNL     1      14.555   2.921   6.666  1.00  0.00     0.034 A 
ATOM     61  C   UNL     1      15.143   8.095   1.991  1.00  0.00     0.034 A 
ATOM     62  C   UNL     1      15.490   3.954   7.021  1.00  0.00     0.049 A 
ATOM     63  C   UNL     1      15.920   8.100   3.280  1.00  0.00     0.074 A 
ATOM     64  C   UNL     1      16.263   4.061   8.163  1.00  0.00     0.029 A 
ATOM     65  N   UNL     1      15.779   5.060   6.237  1.00  0.00    -0.354 N 
ATOM     66  N   UNL     1      15.960   7.188   4.222  1.00  0.00    -0.248 NA
ATOM     67  C   UNL     1      16.790   9.258   3.529  1.00  0.00     0.031 C 
ATOM     68  C   UNL     1      17.013   5.239   8.073  1.00  0.00     0.029 A 
ATOM     69  C   UNL     1      16.723   5.854   6.865  1.00  0.00     0.049 A 
ATOM     70  H   UNL     1      15.372   5.253   5.361  1.00  0.00     0.167 HD
ATOM     71  C   UNL     1      16.883   7.643   5.156  1.00  0.00     0.074 A 
ATOM     72  C   UNL     1      17.395   8.903   4.655  1.00  0.00     0.031 C 
ATOM     73  C   UNL     1      17.264   7.077   6.328  1.00  0.00     0.034 A 
BRANCH  60  74
ATOM     74  C   UNL     1      14.326   1.787   7.632  1.00  0.00     0.023 A 
ATOM     75  C   UNL     1      14.832   0.506   7.326  1.00  0.00     0.012 A 
ATOM     76  C   UNL     1      13.638   1.984   8.844  1.00  0.00     0.148 A 
ATOM     77  C   UNL     1      14.617  -0.570   8.186  1.00  0.00     0.002 A 
ATOM     78  C   UNL     1      13.468   0.916   9.719  1.00  0.00     0.091 A 
ATOM     79  F   UNL     1      13.142   3.201   9.111  1.00  0.00    -0.205 F 
ATOM     80  C   UNL     1      13.943  -0.363   9.385  1.00  0.00     0.022 A 
BRANCH  78  81
ATOM     81  S   UNL     1      12.683   1.099  11.325  1.00  0.00     0.127 S 
ATOM     82  O   UNL     1      11.382   0.475  11.090  1.00  0.00    -0.237 OA
ATOM     83  O   UNL     1      13.577   0.335  12.196  1.00  0.00    -0.237 OA
ATOM     84  O   UNL     1      12.656   2.530  11.594  1.00  0.00    -0.744 OA
ENDBRANCH  78  81
ENDBRANCH  60  74
BRANCH  61  85
ATOM     85  C   UNL     1      15.233   9.230   1.031  1.00  0.00     0.023 A 
ATOM     86  C   UNL     1      16.432   9.448   0.325  1.00  0.00     0.012 A 
ATOM     87  C   UNL     1      14.124  10.060   0.775  1.00  0.00     0.148 A 
ATOM     88  C   UNL     1      16.535  10.490  -0.598  1.00  0.00     0.002 A 
ATOM     89  C   UNL     1      14.216  11.061  -0.185  1.00  0.00     0.091 A 
ATOM     90  F   UNL     1      12.995   9.839   1.463  1.00  0.00    -0.205 F 
ATOM     91  C   UNL     1      15.425  11.289  -0.861  1.00  0.00     0.022 A 
BRANCH  89  92
ATOM     92  S   UNL     1      12.801  12.047  -0.688  1.00  0.00     0.127 S 
ATOM     93  O   UNL     1      13.149  13.362  -0.154  1.00  0.00    -0.237 OA
ATOM     94  O   UNL     1      12.861  11.938  -2.146  1.00  0.00    -0.237 OA
ATOM     95  O   UNL     1      11.641  11.406  -0.085  1.00  0.00    -0.744 OA
ENDBRANCH  89  92
ENDBRANCH  61  85
BRANCH  73  96
ATOM     96  C   UNL     1      18.313   7.789   7.140  1.00  0.00     0.023 A 
ATOM     97  C   UNL     1      17.986   8.975   7.827  1.00  0.00     0.012 A 
ATOM     98  C   UNL     1      19.604   7.242   7.281  1.00  0.00     0.148 A 
ATOM     99  C   UNL     1      18.937   9.623   8.614  1.00  0.00     0.002 A 
ATOM    100  C   UNL     1      20.532   7.868   8.106  1.00  0.00     0.091 A 
ATOM    101  F   UNL     1      19.904   6.125   6.603  1.00  0.00    -0.205 F 
ATOM    102  C   UNL     1      20.204   9.064   8.763  1.00  0.00     0.022 A 
BRANCH 100 103
ATOM    103  S   UNL     1      22.153   7.164   8.430  1.00  0.00     0.127 S 
ATOM    104  O   UNL     1      23.015   8.009   7.605  1.00  0.00    -0.237 OA
ATOM    105  O   UNL     1      22.299   7.367   9.872  1.00  0.00    -0.237 OA
ATOM    106  O   UNL     1      22.068   5.768   8.025  1.00  0.00    -0.744 OA
ENDBRANCH 100 103
ENDBRANCH  73  96
ENDBRANCH  47  48
ENDBRANCH  39  42
ENDBRANCH  37  38
ENDBRANCH  36  37
ENDBRANCH  35  36
ENDBRANCH   1  35
TORSDOF 20
