REMARK SMILES Cc1[nH]c2ccc(Br)cc2c(=O)c1CCC(=O)NCCCCNC(=O)c1ccc(-c2c3nc(c(-c4cccc(S(=O)(=O)[O-])c4F)c4ccc([nH]4)c(-c4cccc(S(=O)(=O)[O-])c4F)c4nc(c(-c5cccc(S(=O)(=O)[O-])c5F)c5ccc2[nH]5)C=C4)C=C3)cc1
REMARK SMILES IDX 21 1 20 2 19 3 18 4 16 5 17 6 15 8 14 9 13 10 1 11 2 12 3 13
REMARK SMILES IDX 4 14 11 16 5 17 10 18 12 19 6 20 9 21 7 22 8 23 22 24 23 25
REMARK SMILES IDX 24 26 25 28 26 29 27 30 88 31 28 32 87 33 29 34 30 35 31 36
REMARK SMILES IDX 81 37 32 38 86 39 80 40 82 41 33 42 85 43 79 44 78 45 34 47
REMARK SMILES IDX 66 48 46 49 65 50 47 51 50 52 64 53 83 54 48 55 49 56 63 58
REMARK SMILES IDX 84 59 51 60 35 61 36 62 44 63 37 64 39 65 45 66 38 67 40 68
REMARK SMILES IDX 41 69 42 70 43 71 67 72 68 73 76 74 69 75 71 76 77 77 70 78
REMARK SMILES IDX 72 79 73 80 74 81 75 82 52 83 53 84 61 85 54 86 56 87 62 88
REMARK SMILES IDX 55 89 57 90 58 91 59 92 60 93
REMARK H PARENT 18 7 3 15 23 27 82 46 50 57
REMARK Flexibility Score: inf
ROOT
ATOM      1  C   UNL     1      -0.136   0.676   6.141  1.00  0.00     0.023 C 
ENDROOT
BRANCH   1   2
ATOM      2  C   UNL     1       0.283   0.154   4.777  1.00  0.00     0.023 C 
BRANCH   2   3
ATOM      3  C   UNL     1       1.284  -0.990   4.794  1.00  0.00     0.116 C 
BRANCH   3   4
ATOM      4  N   UNL     1       0.592  -2.260   4.687  1.00  0.00    -0.356 N 
ATOM      5  C   UNL     1       0.093  -2.873   3.574  1.00  0.00     0.220 C 
ATOM      6  O   UNL     1      -0.599  -3.883   3.715  1.00  0.00    -0.275 OA
ATOM      7  H   UNL     1       0.465  -2.747   5.533  1.00  0.00     0.163 HD
BRANCH   5   8
ATOM      8  C   UNL     1       0.434  -2.350   2.189  1.00  0.00     0.105 C 
BRANCH   8   9
ATOM      9  C   UNL     1      -0.735  -1.643   1.479  1.00  0.00     0.051 C 
BRANCH   9  10
ATOM     10  C   UNL     1      -0.639  -0.130   1.482  1.00  0.00     0.020 A 
ATOM     11  C   UNL     1       1.393   0.032   0.004  1.00  0.00     0.064 C 
ATOM     12  C   UNL     1       0.323   0.618   0.893  1.00  0.00     0.019 A 
ATOM     13  N   UNL     1       0.424   1.983   1.086  1.00  0.00    -0.358 N 
ATOM     14  C   UNL     1      -0.379   2.672   2.000  1.00  0.00     0.050 A 
ATOM     15  H   UNL     1       1.085   2.490   0.560  1.00  0.00     0.166 HD
ATOM     16  C   UNL     1      -1.727   0.609   2.222  1.00  0.00     0.192 A 
ATOM     17  C   UNL     1      -0.047   3.959   2.431  1.00  0.00     0.028 A 
ATOM     18  C   UNL     1      -1.472   2.025   2.588  1.00  0.00     0.047 A 
ATOM     19  O   UNL     1      -2.753   0.054   2.576  1.00  0.00    -0.289 OA
ATOM     20  C   UNL     1      -0.788   4.577   3.442  1.00  0.00     0.018 A 
ATOM     21  C   UNL     1      -2.237   2.645   3.581  1.00  0.00     0.030 A 
ATOM     22  C   UNL     1      -1.876   3.917   4.014  1.00  0.00     0.018 A 
ATOM     23  Br  UNL     1      -2.825   4.730   5.433  1.00  0.00    -0.051 Br
ENDBRANCH   9  10
ENDBRANCH   8   9
ENDBRANCH   5   8
ENDBRANCH   3   4
ENDBRANCH   2   3
ENDBRANCH   1   2
BRANCH   1  24
ATOM     24  C   UNL     1       0.933   1.483   6.857  1.00  0.00     0.116 C 
BRANCH  24  25
ATOM     25  N   UNL     1       1.376   2.672   6.129  1.00  0.00    -0.352 N 
ATOM     26  C   UNL     1       1.405   3.998   6.506  1.00  0.00     0.251 C 
ATOM     27  H   UNL     1       1.708   2.496   5.219  1.00  0.00     0.163 HD
ATOM     28  O   UNL     1       1.766   4.851   5.698  1.00  0.00    -0.269 OA
BRANCH  26  29
ATOM     29  C   UNL     1       0.948   4.394   7.857  1.00  0.00     0.039 A 
ATOM     30  C   UNL     1       1.256   3.607   8.960  1.00  0.00     0.014 A 
ATOM     31  C   UNL     1       0.129   5.516   8.012  1.00  0.00     0.014 A 
ATOM     32  C   UNL     1       0.523   3.758  10.126  1.00  0.00     0.010 A 
ATOM     33  C   UNL     1      -0.493   5.759   9.244  1.00  0.00     0.010 A 
ATOM     34  C   UNL     1      -0.365   4.835  10.290  1.00  0.00    -0.014 A 
BRANCH  34  35
ATOM     35  C   UNL     1      -1.125   4.940  11.567  1.00  0.00     0.031 A 
ATOM     36  C   UNL     1      -2.633   4.931  11.595  1.00  0.00     0.074 A 
ATOM     37  C   UNL     1      -0.435   4.933  12.726  1.00  0.00     0.049 A 
ATOM     38  N   UNL     1      -3.428   4.916  12.636  1.00  0.00    -0.248 NA
ATOM     39  C   UNL     1      -3.347   4.951  10.307  1.00  0.00     0.031 C 
ATOM     40  C   UNL     1       1.027   4.968  12.831  1.00  0.00     0.029 A 
ATOM     41  N   UNL     1      -0.854   4.838  14.029  1.00  0.00    -0.354 N 
ATOM     42  C   UNL     1      -4.723   4.982  12.134  1.00  0.00     0.074 A 
ATOM     43  C   UNL     1      -4.614   5.030  10.694  1.00  0.00     0.031 C 
ATOM     44  C   UNL     1       1.383   4.787  14.108  1.00  0.00     0.029 A 
ATOM     45  C   UNL     1       0.180   4.710  14.928  1.00  0.00     0.049 A 
ATOM     46  H   UNL     1      -1.802   4.858  14.295  1.00  0.00     0.167 HD
ATOM     47  C   UNL     1      -5.895   4.984  12.812  1.00  0.00     0.034 A 
ATOM     48  C   UNL     1       0.173   4.549  16.265  1.00  0.00     0.034 A 
ATOM     49  C   UNL     1      -6.006   4.857  14.241  1.00  0.00     0.049 A 
ATOM     50  C   UNL     1      -1.139   4.504  16.985  1.00  0.00     0.074 A 
ATOM     51  C   UNL     1      -7.156   4.806  15.009  1.00  0.00     0.029 A 
ATOM     52  N   UNL     1      -4.935   4.745  15.113  1.00  0.00    -0.354 N 
ATOM     53  N   UNL     1      -2.349   4.517  16.482  1.00  0.00    -0.248 NA
ATOM     54  C   UNL     1      -1.093   4.429  18.451  1.00  0.00     0.031 C 
ATOM     55  C   UNL     1      -6.780   4.663  16.348  1.00  0.00     0.029 A 
ATOM     56  C   UNL     1      -5.397   4.624  16.412  1.00  0.00     0.049 A 
ATOM     57  H   UNL     1      -3.987   4.750  14.848  1.00  0.00     0.167 HD
ATOM     58  C   UNL     1      -3.210   4.460  17.568  1.00  0.00     0.074 A 
ATOM     59  C   UNL     1      -2.384   4.377  18.756  1.00  0.00     0.031 C 
ATOM     60  C   UNL     1      -4.563   4.504  17.578  1.00  0.00     0.034 A 
BRANCH  47  61
ATOM     61  C   UNL     1      -7.175   5.078  12.026  1.00  0.00     0.023 A 
ATOM     62  C   UNL     1      -7.704   3.917  11.430  1.00  0.00     0.012 A 
ATOM     63  C   UNL     1      -7.909   6.280  11.980  1.00  0.00     0.148 A 
ATOM     64  C   UNL     1      -8.945   3.950  10.795  1.00  0.00     0.002 A 
ATOM     65  C   UNL     1      -9.158   6.299  11.369  1.00  0.00     0.091 A 
ATOM     66  F   UNL     1      -7.378   7.373  12.546  1.00  0.00    -0.205 F 
ATOM     67  C   UNL     1      -9.675   5.136  10.774  1.00  0.00     0.022 A 
BRANCH  65  68
ATOM     68  S   UNL     1     -10.206   7.758  11.338  1.00  0.00     0.127 S 
ATOM     69  O   UNL     1     -10.231   8.073   9.909  1.00  0.00    -0.237 OA
ATOM     70  O   UNL     1     -11.467   7.243  11.870  1.00  0.00    -0.237 OA
ATOM     71  O   UNL     1      -9.546   8.748  12.178  1.00  0.00    -0.744 OA
ENDBRANCH  65  68
ENDBRANCH  47  61
BRANCH  48  72
ATOM     72  C   UNL     1       1.467   4.378  16.979  1.00  0.00     0.023 A 
ATOM     73  C   UNL     1       1.825   3.106  17.463  1.00  0.00     0.012 A 
ATOM     74  C   UNL     1       2.389   5.438  17.073  1.00  0.00     0.148 A 
ATOM     75  C   UNL     1       3.084   2.891  18.023  1.00  0.00     0.002 A 
ATOM     76  C   UNL     1       3.661   5.204  17.580  1.00  0.00     0.091 A 
ATOM     77  F   UNL     1       2.017   6.643  16.617  1.00  0.00    -0.205 F 
ATOM     78  C   UNL     1       4.007   3.934  18.066  1.00  0.00     0.022 A 
BRANCH  76  79
ATOM     79  S   UNL     1       4.958   6.446  17.529  1.00  0.00     0.127 S 
ATOM     80  O   UNL     1       5.128   6.757  18.946  1.00  0.00    -0.237 OA
ATOM     81  O   UNL     1       6.063   5.702  16.923  1.00  0.00    -0.237 OA
ATOM     82  O   UNL     1       4.438   7.526  16.703  1.00  0.00    -0.744 OA
ENDBRANCH  76  79
ENDBRANCH  48  72
BRANCH  60  83
ATOM     83  C   UNL     1      -5.251   4.480  18.913  1.00  0.00     0.023 A 
ATOM     84  C   UNL     1      -5.341   5.673  19.655  1.00  0.00     0.012 A 
ATOM     85  C   UNL     1      -5.897   3.318  19.374  1.00  0.00     0.148 A 
ATOM     86  C   UNL     1      -6.061   5.708  20.847  1.00  0.00     0.002 A 
ATOM     87  C   UNL     1      -6.637   3.368  20.548  1.00  0.00     0.091 A 
ATOM     88  F   UNL     1      -5.784   2.195  18.651  1.00  0.00    -0.205 F 
ATOM     89  C   UNL     1      -6.717   4.561  21.288  1.00  0.00     0.022 A 
BRANCH  87  90
ATOM     90  S   UNL     1      -7.573   1.964  21.163  1.00  0.00     0.127 S 
ATOM     91  O   UNL     1      -6.837   1.629  22.382  1.00  0.00    -0.237 OA
ATOM     92  O   UNL     1      -8.895   2.548  21.389  1.00  0.00    -0.237 OA
ATOM     93  O   UNL     1      -7.525   0.956  20.113  1.00  0.00    -0.744 OA
ENDBRANCH  87  90
ENDBRANCH  60  83
ENDBRANCH  34  35
ENDBRANCH  26  29
ENDBRANCH  24  25
ENDBRANCH   1  24
TORSDOF 16
