REMARK SMILES CS(=O)(=O)c1ccc(/C=C(/C(=O)NCCCCNC(=O)c2ccc(-c3c4nc(c(-c5cccc(S(=O)(=O)[O-])c5F)c5ccc([nH]5)c(-c5cccc(S(=O)(=O)[O-])c5F)c5nc(c(-c6cccc(S(=O)(=O)[O-])c6F)c6ccc3[nH]6)C=C5)C=C4)cc2)c2ccc(-c3ccc(F)cc3F)cc2)cc1
REMARK SMILES IDX 16 1 15 2 14 3 13 4 11 5 12 6 10 8 9 9 8 10 5 11 6 12 99 13
REMARK SMILES IDX 7 14 98 15 2 16 1 17 3 18 4 19 84 20 85 21 97 22 86 23 96 24
REMARK SMILES IDX 87 25 88 26 89 27 94 28 90 29 93 30 95 31 91 32 92 33 17 34
REMARK SMILES IDX 18 35 19 36 20 38 21 39 22 40 83 41 23 42 82 43 24 44 25 45
REMARK SMILES IDX 26 46 76 47 27 48 81 49 75 50 77 51 28 52 80 53 74 54 73 55
REMARK SMILES IDX 29 57 61 58 41 59 60 60 42 61 45 62 59 63 78 64 43 65 44 66
REMARK SMILES IDX 58 68 79 69 46 70 30 71 31 72 39 73 32 74 34 75 40 76 33 77
REMARK SMILES IDX 35 78 36 79 37 80 38 81 62 82 63 83 71 84 64 85 66 86 72 87
REMARK SMILES IDX 65 88 67 89 68 90 69 91 70 92 47 93 48 94 56 95 49 96 51 97
REMARK SMILES IDX 57 98 50 99 52 100 53 101 54 102 55 103
REMARK H PARENT 13 7 18 37 77 56 45 67
REMARK Flexibility Score: inf
ROOT
ATOM      1  C   UNL     1       3.729   4.612  -9.148  1.00  0.00     0.023 C 
ENDROOT
BRANCH   1   2
ATOM      2  C   UNL     1       3.076   3.750  -8.060  1.00  0.00     0.023 C 
BRANCH   2   3
ATOM      3  C   UNL     1       2.156   2.649  -8.597  1.00  0.00     0.116 C 
BRANCH   3   4
ATOM      4  N   UNL     1       2.938   1.603  -9.221  1.00  0.00    -0.352 N 
ATOM      5  C   UNL     1       3.393   0.392  -8.806  1.00  0.00     0.251 C 
ATOM      6  O   UNL     1       4.085  -0.232  -9.614  1.00  0.00    -0.269 OA
ATOM      7  H   UNL     1       3.196   1.814 -10.148  1.00  0.00     0.163 HD
BRANCH   5   8
ATOM      8  C   UNL     1       3.027  -0.234  -7.474  1.00  0.00     0.047 C 
ATOM      9  C   UNL     1       2.822   0.508  -6.362  1.00  0.00     0.022 C 
BRANCH   9  10
ATOM     10  C   UNL     1       2.338   0.100  -5.026  1.00  0.00    -0.025 A 
ATOM     11  C   UNL     1       1.179  -0.627  -2.578  1.00  0.00     0.067 A 
ATOM     12  C   UNL     1       2.224  -1.388  -3.105  1.00  0.00     0.021 A 
ATOM     13  C   UNL     1       0.726   0.512  -3.242  1.00  0.00     0.021 A 
ATOM     14  C   UNL     1       2.819  -1.004  -4.312  1.00  0.00     0.009 A 
ATOM     15  C   UNL     1       1.310   0.873  -4.458  1.00  0.00     0.009 A 
BRANCH  11  16
ATOM     16  S   UNL     1       0.365  -1.137  -1.085  1.00  0.00     0.175 S 
ATOM     17  C   UNL     1       1.048  -0.059   0.145  1.00  0.00     0.163 C 
ATOM     18  O   UNL     1       0.803  -2.490  -0.778  1.00  0.00    -0.224 OA
ATOM     19  O   UNL     1      -1.041  -0.828  -1.227  1.00  0.00    -0.224 OA
ENDBRANCH  11  16
ENDBRANCH   9  10
BRANCH   8  20
ATOM     20  C   UNL     1       3.105  -1.714  -7.389  1.00  0.00    -0.013 A 
ATOM     21  C   UNL     1       4.360  -2.314  -7.552  1.00  0.00     0.009 A 
ATOM     22  C   UNL     1       2.013  -2.526  -7.072  1.00  0.00     0.009 A 
ATOM     23  C   UNL     1       4.532  -3.683  -7.356  1.00  0.00     0.009 A 
ATOM     24  C   UNL     1       2.195  -3.900  -6.847  1.00  0.00     0.009 A 
ATOM     25  C   UNL     1       3.463  -4.502  -6.960  1.00  0.00    -0.015 A 
BRANCH  25  26
ATOM     26  C   UNL     1       3.700  -5.926  -6.644  1.00  0.00     0.018 A 
ATOM     27  C   UNL     1       4.852  -6.310  -5.924  1.00  0.00     0.015 A 
ATOM     28  C   UNL     1       2.821  -6.949  -7.038  1.00  0.00     0.133 A 
ATOM     29  C   UNL     1       5.119  -7.650  -5.636  1.00  0.00     0.040 A 
ATOM     30  C   UNL     1       3.076  -8.289  -6.750  1.00  0.00     0.079 A 
ATOM     31  F   UNL     1       1.705  -6.661  -7.723  1.00  0.00    -0.206 F 
ATOM     32  C   UNL     1       4.227  -8.627  -6.056  1.00  0.00     0.126 A 
ATOM     33  F   UNL     1       4.483  -9.913  -5.782  1.00  0.00    -0.207 F 
ENDBRANCH  25  26
ENDBRANCH   8  20
ENDBRANCH   5   8
ENDBRANCH   3   4
ENDBRANCH   2   3
ENDBRANCH   1   2
BRANCH   1  34
ATOM     34  C   UNL     1       2.756   5.374 -10.040  1.00  0.00     0.116 C 
BRANCH  34  35
ATOM     35  N   UNL     1       1.864   6.250  -9.291  1.00  0.00    -0.352 N 
ATOM     36  C   UNL     1       1.340   7.459  -9.681  1.00  0.00     0.251 C 
ATOM     37  H   UNL     1       1.604   5.936  -8.395  1.00  0.00     0.163 HD
ATOM     38  O   UNL     1       0.686   8.136  -8.894  1.00  0.00    -0.269 OA
BRANCH  36  39
ATOM     39  C   UNL     1       1.612   7.946 -11.047  1.00  0.00     0.039 A 
ATOM     40  C   UNL     1       2.173   9.214 -11.215  1.00  0.00     0.014 A 
ATOM     41  C   UNL     1       1.372   7.121 -12.149  1.00  0.00     0.014 A 
ATOM     42  C   UNL     1       2.564   9.629 -12.490  1.00  0.00     0.010 A 
ATOM     43  C   UNL     1       1.817   7.512 -13.406  1.00  0.00     0.010 A 
ATOM     44  C   UNL     1       2.423   8.765 -13.588  1.00  0.00    -0.014 A 
BRANCH  44  45
ATOM     45  C   UNL     1       2.925   9.130 -14.936  1.00  0.00     0.031 A 
ATOM     46  C   UNL     1       1.962   9.276 -16.081  1.00  0.00     0.074 A 
ATOM     47  C   UNL     1       4.253   9.208 -15.151  1.00  0.00     0.049 A 
ATOM     48  N   UNL     1       2.214   9.472 -17.348  1.00  0.00    -0.248 NA
ATOM     49  C   UNL     1       0.529   9.154 -15.764  1.00  0.00     0.031 C 
ATOM     50  C   UNL     1       5.288   9.006 -14.135  1.00  0.00     0.029 A 
ATOM     51  N   UNL     1       4.961   9.439 -16.304  1.00  0.00    -0.354 N 
ATOM     52  C   UNL     1       0.980   9.453 -17.986  1.00  0.00     0.074 A 
ATOM     53  C   UNL     1      -0.018   9.201 -16.970  1.00  0.00     0.031 C 
ATOM     54  C   UNL     1       6.497   9.115 -14.710  1.00  0.00     0.029 A 
ATOM     55  C   UNL     1       6.325   9.366 -16.138  1.00  0.00     0.049 A 
ATOM     56  H   UNL     1       4.534   9.638 -17.168  1.00  0.00     0.167 HD
ATOM     57  C   UNL     1       0.700   9.656 -19.295  1.00  0.00     0.034 A 
ATOM     58  C   UNL     1       7.323   9.477 -17.036  1.00  0.00     0.034 A 
ATOM     59  C   UNL     1       1.690   9.963 -20.291  1.00  0.00     0.049 A 
ATOM     60  C   UNL     1       6.983   9.755 -18.475  1.00  0.00     0.074 A 
ATOM     61  C   UNL     1       1.500  10.282 -21.623  1.00  0.00     0.029 A 
ATOM     62  N   UNL     1       3.057   9.989 -20.064  1.00  0.00    -0.354 N 
ATOM     63  N   UNL     1       5.803   9.896 -19.031  1.00  0.00    -0.248 NA
ATOM     64  C   UNL     1       8.108   9.923 -19.406  1.00  0.00     0.031 C 
ATOM     65  C   UNL     1       2.754  10.491 -22.205  1.00  0.00     0.029 A 
ATOM     66  C   UNL     1       3.724  10.315 -21.231  1.00  0.00     0.049 A 
ATOM     67  H   UNL     1       3.490   9.802 -19.199  1.00  0.00     0.167 HD
ATOM     68  C   UNL     1       6.044  10.205 -20.364  1.00  0.00     0.074 A 
ATOM     69  C   UNL     1       7.483  10.248 -20.530  1.00  0.00     0.031 C 
ATOM     70  C   UNL     1       5.155  10.418 -21.365  1.00  0.00     0.034 A 
BRANCH  57  71
ATOM     71  C   UNL     1      -0.745   9.618 -19.714  1.00  0.00     0.023 A 
ATOM     72  C   UNL     1      -1.597  10.681 -19.354  1.00  0.00     0.012 A 
ATOM     73  C   UNL     1      -1.248   8.567 -20.506  1.00  0.00     0.148 A 
ATOM     74  C   UNL     1      -2.935  10.684 -19.745  1.00  0.00     0.002 A 
ATOM     75  C   UNL     1      -2.572   8.597 -20.927  1.00  0.00     0.091 A 
ATOM     76  F   UNL     1      -0.429   7.552 -20.818  1.00  0.00    -0.205 F 
ATOM     77  C   UNL     1      -3.419   9.649 -20.540  1.00  0.00     0.022 A 
BRANCH  75  78
ATOM     78  S   UNL     1      -3.269   7.348 -22.014  1.00  0.00     0.127 S 
ATOM     79  O   UNL     1      -4.110   6.589 -21.090  1.00  0.00    -0.237 OA
ATOM     80  O   UNL     1      -4.007   8.158 -22.985  1.00  0.00    -0.237 OA
ATOM     81  O   UNL     1      -2.134   6.625 -22.569  1.00  0.00    -0.744 OA
ENDBRANCH  75  78
ENDBRANCH  57  71
BRANCH  58  82
ATOM     82  C   UNL     1       8.742   9.401 -16.585  1.00  0.00     0.023 A 
ATOM     83  C   UNL     1       9.522  10.574 -16.578  1.00  0.00     0.012 A 
ATOM     84  C   UNL     1       9.310   8.195 -16.132  1.00  0.00     0.148 A 
ATOM     85  C   UNL     1      10.851  10.542 -16.155  1.00  0.00     0.002 A 
ATOM     86  C   UNL     1      10.619   8.181 -15.662  1.00  0.00     0.091 A 
ATOM     87  F   UNL     1       8.556   7.087 -16.158  1.00  0.00    -0.205 F 
ATOM     88  C   UNL     1      11.397   9.349 -15.688  1.00  0.00     0.022 A 
BRANCH  86  89
ATOM     89  S   UNL     1      11.357   6.720 -14.920  1.00  0.00     0.127 S 
ATOM     90  O   UNL     1      12.271   6.280 -15.970  1.00  0.00    -0.237 OA
ATOM     91  O   UNL     1      12.005   7.277 -13.731  1.00  0.00    -0.237 OA
ATOM     92  O   UNL     1      10.243   5.828 -14.629  1.00  0.00    -0.744 OA
ENDBRANCH  86  89
ENDBRANCH  58  82
BRANCH  70  93
ATOM     93  C   UNL     1       5.699  10.752 -22.728  1.00  0.00     0.023 A 
ATOM     94  C   UNL     1       6.274   9.738 -23.517  1.00  0.00     0.012 A 
ATOM     95  C   UNL     1       5.552  12.048 -23.262  1.00  0.00     0.148 A 
ATOM     96  C   UNL     1       6.716  10.012 -24.810  1.00  0.00     0.002 A 
ATOM     97  C   UNL     1       5.954  12.303 -24.568  1.00  0.00     0.091 A 
ATOM     98  F   UNL     1       5.019  13.003 -22.486  1.00  0.00    -0.205 F 
ATOM     99  C   UNL     1       6.544  11.290 -25.340  1.00  0.00     0.022 A 
BRANCH  97 100
ATOM    100  S   UNL     1       5.684  13.892 -25.363  1.00  0.00     0.127 S 
ATOM    101  O   UNL     1       7.038  14.444 -25.391  1.00  0.00    -0.237 OA
ATOM    102  O   UNL     1       5.158  13.500 -26.671  1.00  0.00    -0.237 OA
ATOM    103  O   UNL     1       4.735  14.605 -24.520  1.00  0.00    -0.744 OA
ENDBRANCH  97 100
ENDBRANCH  70  93
ENDBRANCH  44  45
ENDBRANCH  36  39
ENDBRANCH  34  35
ENDBRANCH   1  34
TORSDOF 18
