REMARK SMILES [NH3+]CC(=O)N1C[C@H](O)C[C@H]1C(=O)NCCCCNC(=O)c1ccc(-c2c3nc(c(-c4cccc(S(=O)(=O)[O-])c4F)c4ccc([nH]4)c(-c4cccc(S(=O)(=O)[O-])c4F)c4nc(c(-c5cccc(S(=O)(=O)[O-])c5F)c5ccc2[nH]5)C=C4)C=C3)cc1
REMARK SMILES IDX 15 1 14 2 13 3 11 4 12 5 10 7 5 8 6 9 7 10 9 11 3 12 4 13
REMARK SMILES IDX 2 14 1 15 8 19 16 21 17 22 18 23 19 24 20 26 21 27 22 28
REMARK SMILES IDX 83 29 23 30 82 31 24 32 25 33 26 34 76 35 27 36 81 37 75 38
REMARK SMILES IDX 77 39 28 40 80 41 74 42 73 43 29 45 61 46 41 47 60 48 42 49
REMARK SMILES IDX 45 50 59 51 78 52 43 53 44 54 58 56 79 57 46 58 30 59 31 60
REMARK SMILES IDX 39 61 32 62 34 63 40 64 33 65 35 66 36 67 37 68 38 69 62 70
REMARK SMILES IDX 63 71 71 72 64 73 66 74 72 75 65 76 67 77 68 78 69 79 70 80
REMARK SMILES IDX 47 81 48 82 56 83 49 84 51 85 57 86 50 87 52 88 53 89 54 90
REMARK SMILES IDX 55 91
REMARK H PARENT 13 6 1 16 1 17 1 18 8 20 18 25 77 44 45 55
REMARK Flexibility Score: inf
ROOT
ATOM      1  C   UNL     1       1.575  -4.706  -0.757  1.00  0.00     0.023 C 
ENDROOT
BRANCH   1   2
ATOM      2  C   UNL     1       2.833  -4.543  -1.601  1.00  0.00     0.116 C 
BRANCH   2   3
ATOM      3  N   UNL     1       2.552  -4.441  -3.014  1.00  0.00    -0.354 N 
ATOM      4  C   UNL     1       2.722  -3.403  -3.879  1.00  0.00     0.242 C 
ATOM      5  O   UNL     1       2.648  -3.662  -5.085  1.00  0.00    -0.273 OA
ATOM      6  H   UNL     1       2.175  -5.256  -3.418  1.00  0.00     0.163 HD
BRANCH   4   7
ATOM      7  C   UNL     1       3.222  -2.017  -3.426  1.00  0.00     0.177 C 
ATOM      8  N   UNL     1       2.628  -1.383  -2.242  1.00  0.00    -0.323 N 
ATOM      9  C   UNL     1       3.648  -0.902  -1.320  1.00  0.00     0.152 C 
ATOM     10  C   UNL     1       4.953  -0.965  -2.111  1.00  0.00     0.136 C 
ATOM     11  C   UNL     1       4.729  -2.071  -3.134  1.00  0.00     0.069 C 
BRANCH   8  12
ATOM     12  C   UNL     1       1.290  -1.038  -2.263  1.00  0.00     0.278 C 
ATOM     13  O   UNL     1       0.539  -1.462  -3.143  1.00  0.00    -0.268 OA
BRANCH  12  14
ATOM     14  C   UNL     1       0.756  -0.062  -1.205  1.00  0.00     0.360 C 
BRANCH  14  15
ATOM     15  N   UNL     1       0.806  -0.606   0.158  1.00  0.00    -0.350 N 
ATOM     16  H   UNL     1       0.441   0.085   0.813  1.00  0.00     0.344 HD
ATOM     17  H   UNL     1       1.772  -0.827   0.401  1.00  0.00     0.344 HD
ATOM     18  H   UNL     1       0.241  -1.453   0.207  1.00  0.00     0.344 HD
ENDBRANCH  14  15
ENDBRANCH  12  14
ENDBRANCH   8  12
BRANCH  10  19
ATOM     19  O   UNL     1       5.197   0.276  -2.769  1.00  0.00    -0.391 OA
ATOM     20  H   UNL     1       4.450   0.486  -3.351  1.00  0.00     0.211 HD
ENDBRANCH  10  19
ENDBRANCH   4   7
ENDBRANCH   2   3
ENDBRANCH   1   2
BRANCH   1  21
ATOM     21  C   UNL     1       0.797  -6.001  -1.002  1.00  0.00     0.023 C 
BRANCH  21  22
ATOM     22  C   UNL     1       1.608  -7.290  -0.910  1.00  0.00     0.116 C 
BRANCH  22  23
ATOM     23  N   UNL     1       2.280  -7.461   0.373  1.00  0.00    -0.352 N 
ATOM     24  C   UNL     1       2.436  -8.614   1.105  1.00  0.00     0.251 C 
ATOM     25  H   UNL     1       2.673  -6.648   0.764  1.00  0.00     0.163 HD
ATOM     26  O   UNL     1       2.949  -8.577   2.219  1.00  0.00    -0.269 OA
BRANCH  24  27
ATOM     27  C   UNL     1       1.947  -9.893   0.548  1.00  0.00     0.039 A 
ATOM     28  C   UNL     1       1.083 -10.683   1.311  1.00  0.00     0.014 A 
ATOM     29  C   UNL     1       2.305 -10.279  -0.747  1.00  0.00     0.014 A 
ATOM     30  C   UNL     1       0.516 -11.829   0.747  1.00  0.00     0.010 A 
ATOM     31  C   UNL     1       1.692 -11.384  -1.325  1.00  0.00     0.010 A 
ATOM     32  C   UNL     1       0.790 -12.168  -0.587  1.00  0.00    -0.014 A 
BRANCH  32  33
ATOM     33  C   UNL     1       0.161 -13.338  -1.250  1.00  0.00     0.031 A 
ATOM     34  C   UNL     1       1.028 -14.468  -1.734  1.00  0.00     0.074 A 
ATOM     35  C   UNL     1      -1.156 -13.324  -1.535  1.00  0.00     0.049 A 
ATOM     36  N   UNL     1       0.713 -15.487  -2.488  1.00  0.00    -0.248 NA
ATOM     37  C   UNL     1       2.449 -14.422  -1.348  1.00  0.00     0.031 C 
ATOM     38  C   UNL     1      -2.090 -12.255  -1.175  1.00  0.00     0.029 A 
ATOM     39  N   UNL     1      -1.930 -14.218  -2.233  1.00  0.00    -0.354 N 
ATOM     40  C   UNL     1       1.901 -16.171  -2.715  1.00  0.00     0.074 A 
ATOM     41  C   UNL     1       2.947 -15.442  -2.032  1.00  0.00     0.031 C 
ATOM     42  C   UNL     1      -3.306 -12.549  -1.665  1.00  0.00     0.029 A 
ATOM     43  C   UNL     1      -3.233 -13.807  -2.400  1.00  0.00     0.049 A 
ATOM     44  H   UNL     1      -1.585 -15.072  -2.581  1.00  0.00     0.167 HD
ATOM     45  C   UNL     1       2.099 -17.317  -3.408  1.00  0.00     0.034 A 
ATOM     46  C   UNL     1      -4.249 -14.374  -3.082  1.00  0.00     0.034 A 
ATOM     47  C   UNL     1       1.045 -18.074  -4.024  1.00  0.00     0.049 A 
ATOM     48  C   UNL     1      -4.016 -15.684  -3.787  1.00  0.00     0.074 A 
ATOM     49  C   UNL     1       1.129 -19.292  -4.674  1.00  0.00     0.029 A 
ATOM     50  N   UNL     1      -0.286 -17.691  -4.057  1.00  0.00    -0.354 N 
ATOM     51  N   UNL     1      -2.912 -16.388  -3.873  1.00  0.00    -0.248 NA
ATOM     52  C   UNL     1      -5.171 -16.298  -4.458  1.00  0.00     0.031 C 
ATOM     53  C   UNL     1      -0.154 -19.645  -5.102  1.00  0.00     0.029 A 
ATOM     54  C   UNL     1      -1.037 -18.652  -4.708  1.00  0.00     0.049 A 
ATOM     55  H   UNL     1      -0.644 -16.857  -3.674  1.00  0.00     0.167 HD
ATOM     56  C   UNL     1      -3.250 -17.545  -4.566  1.00  0.00     0.074 A 
ATOM     57  C   UNL     1      -4.663 -17.453  -4.871  1.00  0.00     0.031 C 
ATOM     58  C   UNL     1      -2.459 -18.583  -4.928  1.00  0.00     0.034 A 
BRANCH  45  59
ATOM     59  C   UNL     1       3.502 -17.856  -3.481  1.00  0.00     0.023 A 
ATOM     60  C   UNL     1       4.078 -18.442  -2.336  1.00  0.00     0.012 A 
ATOM     61  C   UNL     1       4.228 -17.835  -4.688  1.00  0.00     0.148 A 
ATOM     62  C   UNL     1       5.368 -18.969  -2.381  1.00  0.00     0.002 A 
ATOM     63  C   UNL     1       5.497 -18.400  -4.735  1.00  0.00     0.091 A 
ATOM     64  F   UNL     1       3.673 -17.252  -5.760  1.00  0.00    -0.205 F 
ATOM     65  C   UNL     1       6.072 -18.957  -3.581  1.00  0.00     0.022 A 
BRANCH  63  66
ATOM     66  S   UNL     1       6.451 -18.501  -6.255  1.00  0.00     0.127 S 
ATOM     67  O   UNL     1       7.447 -17.451  -6.049  1.00  0.00    -0.237 OA
ATOM     68  O   UNL     1       6.982 -19.863  -6.199  1.00  0.00    -0.237 OA
ATOM     69  O   UNL     1       5.503 -18.267  -7.335  1.00  0.00    -0.744 OA
ENDBRANCH  63  66
ENDBRANCH  45  59
BRANCH  46  70
ATOM     70  C   UNL     1      -5.600 -13.746  -3.063  1.00  0.00     0.023 A 
ATOM     71  C   UNL     1      -6.630 -14.360  -2.324  1.00  0.00     0.012 A 
ATOM     72  C   UNL     1      -5.865 -12.537  -3.736  1.00  0.00     0.148 A 
ATOM     73  C   UNL     1      -7.907 -13.799  -2.278  1.00  0.00     0.002 A 
ATOM     74  C   UNL     1      -7.126 -11.957  -3.644  1.00  0.00     0.091 A 
ATOM     75  F   UNL     1      -4.877 -11.974  -4.445  1.00  0.00    -0.205 F 
ATOM     76  C   UNL     1      -8.152 -12.594  -2.929  1.00  0.00     0.022 A 
BRANCH  74  77
ATOM     77  S   UNL     1      -7.494 -10.343  -4.344  1.00  0.00     0.127 S 
ATOM     78  O   UNL     1      -8.296 -10.699  -5.511  1.00  0.00    -0.237 OA
ATOM     79  O   UNL     1      -8.236  -9.701  -3.258  1.00  0.00    -0.237 OA
ATOM     80  O   UNL     1      -6.198  -9.737  -4.620  1.00  0.00    -0.744 OA
ENDBRANCH  74  77
ENDBRANCH  46  70
BRANCH  58  81
ATOM     81  C   UNL     1      -3.095 -19.745  -5.640  1.00  0.00     0.023 A 
ATOM     82  C   UNL     1      -3.420 -19.636  -7.005  1.00  0.00     0.012 A 
ATOM     83  C   UNL     1      -3.250 -20.983  -4.984  1.00  0.00     0.148 A 
ATOM     84  C   UNL     1      -3.904 -20.740  -7.706  1.00  0.00     0.002 A 
ATOM     85  C   UNL     1      -3.692 -22.089  -5.699  1.00  0.00     0.091 A 
ATOM     86  F   UNL     1      -2.950 -21.057  -3.679  1.00  0.00    -0.205 F 
ATOM     87  C   UNL     1      -4.026 -21.968  -7.058  1.00  0.00     0.022 A 
BRANCH  85  88
ATOM     88  S   UNL     1      -3.788 -23.730  -4.973  1.00  0.00     0.127 S 
ATOM     89  O   UNL     1      -5.233 -23.922  -4.862  1.00  0.00    -0.237 OA
ATOM     90  O   UNL     1      -3.139 -24.558  -5.990  1.00  0.00    -0.237 OA
ATOM     91  O   UNL     1      -3.069 -23.652  -3.709  1.00  0.00    -0.744 OA
ENDBRANCH  85  88
ENDBRANCH  58  81
ENDBRANCH  32  33
ENDBRANCH  24  27
ENDBRANCH  22  23
ENDBRANCH  21  22
ENDBRANCH   1  21
TORSDOF 18
