REMARK SMILES O=C(NCCCCNC(=O)c1ccc(-c2c3nc(c(-c4cccc(S(=O)(=O)[O-])c4F)c4ccc([nH]4)c(-c4cccc(S(=O)(=O)[O-])c4F)c4nc(c(-c5cccc(S(=O)(=O)[O-])c5F)c5ccc2[nH]5)C=C4)C=C3)cc1)c1ccc(/C=C/c2ccc3cccc(O)c3n2)cc1
REMARK SMILES IDX 5 1 4 2 3 3 1 4 2 5 74 7 75 8 92 9 76 10 91 11 77 12 78 13
REMARK SMILES IDX 79 14 80 15 81 16 90 17 82 18 89 19 83 20 87 21 84 22 86 23
REMARK SMILES IDX 85 24 88 25 6 27 7 28 8 29 9 30 10 32 11 33 12 34 73 35
REMARK SMILES IDX 13 36 72 37 14 38 15 39 16 40 66 41 17 42 71 43 65 44 67 45
REMARK SMILES IDX 18 46 70 47 64 48 63 49 19 51 51 52 31 53 50 54 32 55 35 56
REMARK SMILES IDX 49 57 68 58 33 59 34 60 48 62 69 63 36 64 20 65 21 66 29 67
REMARK SMILES IDX 22 68 24 69 30 70 23 71 25 72 26 73 27 74 28 75 52 76 53 77
REMARK SMILES IDX 61 78 54 79 56 80 62 81 55 82 57 83 58 84 59 85 60 86 37 87
REMARK SMILES IDX 38 88 46 89 39 90 41 91 47 92 40 93 42 94 43 95 44 96 45 97
REMARK H PARENT 3 6 88 26 8 31 67 50 35 61
REMARK Flexibility Score: inf
ROOT
ATOM      1  C   UNL     1       5.065   1.768  -1.586  1.00  0.00     0.023 C 
ENDROOT
BRANCH   1   2
ATOM      2  C   UNL     1       4.742   1.151  -0.226  1.00  0.00     0.116 C 
BRANCH   2   3
ATOM      3  N   UNL     1       3.314   1.036   0.004  1.00  0.00    -0.352 N 
ATOM      4  O   UNL     1       1.328   0.004   0.249  1.00  0.00    -0.269 OA
ATOM      5  C   UNL     1       2.551  -0.079   0.233  1.00  0.00     0.251 C 
ATOM      6  H   UNL     1       2.819   1.887  -0.007  1.00  0.00     0.163 HD
BRANCH   5   7
ATOM      7  C   UNL     1       3.181  -1.401   0.435  1.00  0.00     0.039 A 
ATOM      8  C   UNL     1       4.156  -1.626   1.415  1.00  0.00     0.014 A 
ATOM      9  C   UNL     1       2.709  -2.462  -0.334  1.00  0.00     0.014 A 
ATOM     10  C   UNL     1       4.691  -2.912   1.598  1.00  0.00     0.009 A 
ATOM     11  C   UNL     1       3.238  -3.737  -0.143  1.00  0.00     0.009 A 
ATOM     12  C   UNL     1       4.235  -3.981   0.822  1.00  0.00    -0.026 A 
BRANCH  12  13
ATOM     13  C   UNL     1       4.780  -5.344   0.865  1.00  0.00     0.010 C 
ATOM     14  C   UNL     1       5.856  -5.849   1.504  1.00  0.00     0.029 C 
BRANCH  14  15
ATOM     15  C   UNL     1       6.392  -7.082   0.871  1.00  0.00     0.064 A 
ATOM     16  C   UNL     1       7.116  -6.795  -0.283  1.00  0.00     0.029 A 
ATOM     17  N   UNL     1       5.649  -8.209   1.010  1.00  0.00    -0.245 NA
ATOM     18  C   UNL     1       6.726  -7.437  -1.448  1.00  0.00     0.013 A 
ATOM     19  C   UNL     1       5.365  -8.903  -0.119  1.00  0.00     0.113 A 
ATOM     20  C   UNL     1       5.769  -8.453  -1.389  1.00  0.00     0.004 A 
ATOM     21  C   UNL     1       4.603 -10.070  -0.076  1.00  0.00     0.141 A 
ATOM     22  C   UNL     1       5.209  -9.009  -2.552  1.00  0.00     0.010 A 
ATOM     23  C   UNL     1       4.104 -10.682  -1.225  1.00  0.00     0.048 A 
ATOM     24  C   UNL     1       4.356 -10.107  -2.466  1.00  0.00     0.005 A 
BRANCH  21  25
ATOM     25  O   UNL     1       4.330 -10.659   1.135  1.00  0.00    -0.506 OA
ATOM     26  H   UNL     1       3.819 -11.444   1.170  1.00  0.00     0.293 HD
ENDBRANCH  21  25
ENDBRANCH  14  15
ENDBRANCH  12  13
ENDBRANCH   5   7
ENDBRANCH   2   3
ENDBRANCH   1   2
BRANCH   1  27
ATOM     27  C   UNL     1       4.574   3.201  -1.798  1.00  0.00     0.023 C 
BRANCH  27  28
ATOM     28  C   UNL     1       4.975   4.206  -0.724  1.00  0.00     0.116 C 
BRANCH  28  29
ATOM     29  N   UNL     1       6.417   4.309  -0.546  1.00  0.00    -0.352 N 
ATOM     30  C   UNL     1       7.216   5.428  -0.518  1.00  0.00     0.251 C 
ATOM     31  H   UNL     1       6.888   3.453  -0.428  1.00  0.00     0.163 HD
ATOM     32  O   UNL     1       8.437   5.304  -0.479  1.00  0.00    -0.269 OA
BRANCH  30  33
ATOM     33  C   UNL     1       6.607   6.776  -0.567  1.00  0.00     0.039 A 
ATOM     34  C   UNL     1       7.144   7.728  -1.438  1.00  0.00     0.014 A 
ATOM     35  C   UNL     1       5.500   7.095   0.223  1.00  0.00     0.014 A 
ATOM     36  C   UNL     1       6.525   8.974  -1.570  1.00  0.00     0.010 A 
ATOM     37  C   UNL     1       4.837   8.304   0.029  1.00  0.00     0.010 A 
ATOM     38  C   UNL     1       5.341   9.257  -0.869  1.00  0.00    -0.014 A 
BRANCH  38  39
ATOM     39  C   UNL     1       4.603  10.530  -1.083  1.00  0.00     0.031 A 
ATOM     40  C   UNL     1       4.390  11.491   0.056  1.00  0.00     0.074 A 
ATOM     41  C   UNL     1       4.039  10.778  -2.282  1.00  0.00     0.049 A 
ATOM     42  N   UNL     1       3.728  12.619   0.070  1.00  0.00    -0.248 NA
ATOM     43  C   UNL     1       4.971  11.121   1.356  1.00  0.00     0.031 C 
ATOM     44  C   UNL     1       4.096   9.888  -3.443  1.00  0.00     0.029 A 
ATOM     45  N   UNL     1       3.282  11.839  -2.715  1.00  0.00    -0.354 N 
ATOM     46  C   UNL     1       3.781  13.075   1.381  1.00  0.00     0.074 A 
ATOM     47  C   UNL     1       4.507  12.081   2.142  1.00  0.00     0.031 C 
ATOM     48  C   UNL     1       3.409  10.439  -4.455  1.00  0.00     0.029 A 
ATOM     49  C   UNL     1       2.833  11.704  -4.009  1.00  0.00     0.049 A 
ATOM     50  H   UNL     1       3.080  12.622  -2.154  1.00  0.00     0.167 HD
ATOM     51  C   UNL     1       3.294  14.227   1.903  1.00  0.00     0.034 A 
ATOM     52  C   UNL     1       2.039  12.501  -4.751  1.00  0.00     0.034 A 
ATOM     53  C   UNL     1       2.599  15.227   1.137  1.00  0.00     0.049 A 
ATOM     54  C   UNL     1       1.540  13.792  -4.163  1.00  0.00     0.074 A 
ATOM     55  C   UNL     1       2.151  16.469   1.550  1.00  0.00     0.029 A 
ATOM     56  N   UNL     1       2.233  15.093  -0.194  1.00  0.00    -0.354 N 
ATOM     57  N   UNL     1       1.743  14.285  -2.966  1.00  0.00    -0.248 NA
ATOM     58  C   UNL     1       0.733  14.654  -5.039  1.00  0.00     0.031 C 
ATOM     59  C   UNL     1       1.484  17.072   0.479  1.00  0.00     0.029 A 
ATOM     60  C   UNL     1       1.550  16.223  -0.614  1.00  0.00     0.049 A 
ATOM     61  H   UNL     1       2.430  14.311  -0.757  1.00  0.00     0.167 HD
ATOM     62  C   UNL     1       1.119  15.528  -2.953  1.00  0.00     0.074 A 
ATOM     63  C   UNL     1       0.548  15.720  -4.271  1.00  0.00     0.031 C 
ATOM     64  C   UNL     1       1.020  16.423  -1.939  1.00  0.00     0.034 A 
BRANCH  51  65
ATOM     65  C   UNL     1       3.534  14.482   3.370  1.00  0.00     0.023 A 
ATOM     66  C   UNL     1       4.842  14.741   3.830  1.00  0.00     0.012 A 
ATOM     67  C   UNL     1       2.465  14.503   4.287  1.00  0.00     0.148 A 
ATOM     68  C   UNL     1       5.089  14.966   5.184  1.00  0.00     0.002 A 
ATOM     69  C   UNL     1       2.713  14.778   5.627  1.00  0.00     0.091 A 
ATOM     70  F   UNL     1       1.230  14.236   3.838  1.00  0.00    -0.205 F 
ATOM     71  C   UNL     1       4.025  14.994   6.080  1.00  0.00     0.022 A 
BRANCH  69  72
ATOM     72  S   UNL     1       1.399  14.920   6.844  1.00  0.00     0.127 S 
ATOM     73  O   UNL     1       1.579  13.691   7.616  1.00  0.00    -0.237 OA
ATOM     74  O   UNL     1       1.769  16.145   7.555  1.00  0.00    -0.237 OA
ATOM     75  O   UNL     1       0.159  15.010   6.087  1.00  0.00    -0.744 OA
ENDBRANCH  69  72
ENDBRANCH  51  65
BRANCH  52  76
ATOM     76  C   UNL     1       1.720  12.120  -6.156  1.00  0.00     0.023 A 
ATOM     77  C   UNL     1       2.292  12.847  -7.218  1.00  0.00     0.012 A 
ATOM     78  C   UNL     1       0.896  11.015  -6.443  1.00  0.00     0.148 A 
ATOM     79  C   UNL     1       2.029  12.495  -8.542  1.00  0.00     0.002 A 
ATOM     80  C   UNL     1       0.684  10.635  -7.763  1.00  0.00     0.091 A 
ATOM     81  F   UNL     1       0.357  10.342  -5.417  1.00  0.00    -0.205 F 
ATOM     82  C   UNL     1       1.235  11.384  -8.815  1.00  0.00     0.022 A 
BRANCH  80  83
ATOM     83  S   UNL     1      -0.209   9.142  -8.208  1.00  0.00     0.127 S 
ATOM     84  O   UNL     1      -1.388   9.687  -8.878  1.00  0.00    -0.237 OA
ATOM     85  O   UNL     1       0.748   8.473  -9.090  1.00  0.00    -0.237 OA
ATOM     86  O   UNL     1      -0.464   8.444  -6.955  1.00  0.00    -0.744 OA
ENDBRANCH  80  83
ENDBRANCH  52  76
BRANCH  64  87
ATOM     87  C   UNL     1       0.296  17.716  -2.215  1.00  0.00     0.023 A 
ATOM     88  C   UNL     1      -1.105  17.721  -2.370  1.00  0.00     0.012 A 
ATOM     89  C   UNL     1       0.998  18.937  -2.246  1.00  0.00     0.148 A 
ATOM     90  C   UNL     1      -1.790  18.916  -2.586  1.00  0.00     0.002 A 
ATOM     91  C   UNL     1       0.303  20.129  -2.410  1.00  0.00     0.091 A 
ATOM     92  F   UNL     1       2.333  18.911  -2.115  1.00  0.00    -0.205 F 
ATOM     93  C   UNL     1      -1.089  20.120  -2.594  1.00  0.00     0.022 A 
BRANCH  91  94
ATOM     94  S   UNL     1       1.109  21.733  -2.335  1.00  0.00     0.127 S 
ATOM     95  O   UNL     1       1.040  22.167  -3.729  1.00  0.00    -0.237 OA
ATOM     96  O   UNL     1       0.238  22.474  -1.422  1.00  0.00    -0.237 OA
ATOM     97  O   UNL     1       2.450  21.487  -1.824  1.00  0.00    -0.744 OA
ENDBRANCH  91  94
ENDBRANCH  64  87
ENDBRANCH  38  39
ENDBRANCH  30  33
ENDBRANCH  28  29
ENDBRANCH  27  28
ENDBRANCH   1  27
TORSDOF 17
