REMARK SMILES Cc1ccc(S(=O)(=O)n2cc(C(=O)C(=O)N[C@@H](Cc3cnc[nH]3)C(=O)NCCCCNC(=O)c3ccc(-c4c5nc(c(-c6cccc(S(=O)(=O)[O-])c6F)c6ccc([nH]6)c(-c6cccc(S(=O)(=O)[O-])c6F)c6nc(c(-c7cccc(S(=O)(=O)[O-])c7F)c7ccc4[nH]7)C=C6)C=C5)cc3)c3ccccc32)cc1
REMARK SMILES IDX 27 1 26 2 24 3 25 4 17 6 16 7 14 8 15 9 12 11 13 12 11 13
REMARK SMILES IDX 9 14 10 15 102 16 97 17 101 18 98 19 100 20 99 21 6 22 7 23
REMARK SMILES IDX 8 24 5 25 1 26 2 27 3 28 104 29 4 30 103 31 18 32 19 33
REMARK SMILES IDX 20 34 23 35 21 36 22 37 28 39 29 40 30 41 31 42 32 43 33 45
REMARK SMILES IDX 34 46 35 47 96 48 36 49 95 50 37 51 38 52 39 53 89 54 40 55
REMARK SMILES IDX 94 56 88 57 90 58 41 59 93 60 87 61 86 62 42 64 74 65 54 66
REMARK SMILES IDX 73 67 55 68 58 69 72 70 91 71 56 72 57 73 71 75 92 76 59 77
REMARK SMILES IDX 43 78 44 79 52 80 45 81 47 82 53 83 46 84 48 85 49 86 50 87
REMARK SMILES IDX 51 88 75 89 76 90 84 91 77 92 79 93 85 94 78 95 80 96 81 97
REMARK SMILES IDX 82 98 83 99 60 100 61 101 69 102 62 103 64 104 70 105 63 106
REMARK SMILES IDX 65 107 66 108 67 109 68 110
REMARK H PARENT 26 5 16 10 23 38 31 44 90 63 58 74
REMARK Flexibility Score: inf
ROOT
ATOM      1  C   UNL     1      -8.166   5.919   6.009  1.00  0.00     0.116 C 
ENDROOT
BRANCH   1   2
ATOM      2  N   UNL     1      -7.238   6.814   5.347  1.00  0.00    -0.354 N 
ATOM      3  C   UNL     1      -7.199   7.188   4.032  1.00  0.00     0.242 C 
ATOM      4  O   UNL     1      -6.696   8.289   3.780  1.00  0.00    -0.273 OA
ATOM      5  H   UNL     1      -6.542   7.206   5.922  1.00  0.00     0.163 HD
BRANCH   3   6
ATOM      6  C   UNL     1      -7.819   6.344   2.888  1.00  0.00     0.177 C 
BRANCH   6   7
ATOM      7  N   UNL     1      -7.606   4.899   3.067  1.00  0.00    -0.337 N 
ATOM      8  C   UNL     1      -6.744   4.024   2.458  1.00  0.00     0.293 C 
ATOM      9  O   UNL     1      -6.588   2.919   2.969  1.00  0.00    -0.265 OA
ATOM     10  H   UNL     1      -8.186   4.486   3.747  1.00  0.00     0.164 HD
BRANCH   8  11
ATOM     11  C   UNL     1      -6.030   4.386   1.137  1.00  0.00     0.252 C 
ATOM     12  O   UNL     1      -6.229   5.491   0.643  1.00  0.00    -0.283 OA
BRANCH  11  13
ATOM     13  C   UNL     1      -5.177   3.425   0.428  1.00  0.00     0.054 A 
ATOM     14  N   UNL     1      -4.123   1.571  -0.221  1.00  0.00    -0.240 N 
ATOM     15  C   UNL     1      -4.891   2.117   0.773  1.00  0.00     0.117 A 
ATOM     16  C   UNL     1      -3.861   2.490  -1.214  1.00  0.00     0.065 A 
ATOM     17  C   UNL     1      -4.482   3.677  -0.807  1.00  0.00     0.012 A 
ATOM     18  C   UNL     1      -3.129   2.413  -2.413  1.00  0.00     0.028 A 
ATOM     19  C   UNL     1      -4.344   4.824  -1.620  1.00  0.00     0.011 A 
ATOM     20  C   UNL     1      -3.003   3.570  -3.188  1.00  0.00     0.002 A 
ATOM     21  C   UNL     1      -3.598   4.763  -2.797  1.00  0.00     0.001 A 
BRANCH  14  22
ATOM     22  S   UNL     1      -3.535  -0.024  -0.185  1.00  0.00     0.268 S 
ATOM     23  O   UNL     1      -3.832  -0.571  -1.492  1.00  0.00    -0.201 OA
ATOM     24  O   UNL     1      -4.057  -0.620   1.035  1.00  0.00    -0.201 OA
BRANCH  22  25
ATOM     25  C   UNL     1      -1.773   0.043  -0.017  1.00  0.00     0.088 A 
ATOM     26  C   UNL     1       2.525  -0.041   0.031  1.00  0.00     0.044 C 
ATOM     27  C   UNL     1       1.025  -0.006   0.043  1.00  0.00    -0.051 A 
ATOM     28  C   UNL     1       0.301  -1.201  -0.043  1.00  0.00     0.005 A 
ATOM     29  C   UNL     1       0.334   1.208   0.138  1.00  0.00     0.005 A 
ATOM     30  C   UNL     1      -1.093  -1.179  -0.078  1.00  0.00     0.022 A 
ATOM     31  C   UNL     1      -1.063   1.237   0.123  1.00  0.00     0.022 A 
ENDBRANCH  22  25
ENDBRANCH  14  22
ENDBRANCH  11  13
ENDBRANCH   8  11
ENDBRANCH   6   7
BRANCH   6  32
ATOM     32  C   UNL     1      -9.272   6.716   2.518  1.00  0.00     0.090 C 
BRANCH  32  33
ATOM     33  C   UNL     1     -10.290   6.297   3.517  1.00  0.00     0.037 A 
ATOM     34  C   UNL     1     -10.843   5.067   3.808  1.00  0.00     0.134 A 
ATOM     35  N   UNL     1     -10.854   7.157   4.431  1.00  0.00    -0.348 N 
ATOM     36  N   UNL     1     -11.557   5.126   4.971  1.00  0.00    -0.245 NA
ATOM     37  C   UNL     1     -11.519   6.386   5.340  1.00  0.00     0.196 A 
ATOM     38  H   UNL     1     -10.790   8.140   4.429  1.00  0.00     0.167 HD
ENDBRANCH  32  33
ENDBRANCH   6  32
ENDBRANCH   3   6
ENDBRANCH   1   2
BRANCH   1  39
ATOM     39  C   UNL     1      -7.546   4.897   6.961  1.00  0.00     0.023 C 
BRANCH  39  40
ATOM     40  C   UNL     1      -7.034   5.431   8.299  1.00  0.00     0.023 C 
BRANCH  40  41
ATOM     41  C   UNL     1      -8.067   6.241   9.053  1.00  0.00     0.116 C 
BRANCH  41  42
ATOM     42  N   UNL     1      -9.133   5.493   9.671  1.00  0.00    -0.352 N 
ATOM     43  C   UNL     1     -10.104   5.947  10.548  1.00  0.00     0.251 C 
ATOM     44  H   UNL     1      -9.176   4.537   9.441  1.00  0.00     0.163 HD
ATOM     45  O   UNL     1     -10.637   5.108  11.271  1.00  0.00    -0.269 OA
BRANCH  43  46
ATOM     46  C   UNL     1     -10.591   7.361  10.526  1.00  0.00     0.039 A 
ATOM     47  C   UNL     1     -11.804   7.667  11.167  1.00  0.00     0.014 A 
ATOM     48  C   UNL     1     -10.018   8.329   9.711  1.00  0.00     0.014 A 
ATOM     49  C   UNL     1     -12.543   8.785  10.777  1.00  0.00     0.010 A 
ATOM     50  C   UNL     1     -10.760   9.380   9.264  1.00  0.00     0.010 A 
ATOM     51  C   UNL     1     -12.059   9.540   9.725  1.00  0.00    -0.014 A 
BRANCH  51  52
ATOM     52  C   UNL     1     -12.759  10.559   8.983  1.00  0.00     0.031 A 
ATOM     53  C   UNL     1     -12.758  11.925   9.508  1.00  0.00     0.074 A 
ATOM     54  C   UNL     1     -12.981  10.251   7.684  1.00  0.00     0.049 A 
ATOM     55  N   UNL     1     -13.605  12.821   9.157  1.00  0.00    -0.248 NA
ATOM     56  C   UNL     1     -11.776  12.386  10.489  1.00  0.00     0.031 C 
ATOM     57  C   UNL     1     -13.093  11.139   6.541  1.00  0.00     0.029 A 
ATOM     58  N   UNL     1     -13.220   8.978   7.146  1.00  0.00    -0.354 N 
ATOM     59  C   UNL     1     -13.100  14.023   9.603  1.00  0.00     0.074 A 
ATOM     60  C   UNL     1     -12.053  13.692  10.541  1.00  0.00     0.031 C 
ATOM     61  C   UNL     1     -13.633  10.454   5.515  1.00  0.00     0.029 A 
ATOM     62  C   UNL     1     -14.058   9.161   6.038  1.00  0.00     0.049 A 
ATOM     63  H   UNL     1     -12.868   8.122   7.482  1.00  0.00     0.167 HD
ATOM     64  C   UNL     1     -13.443  15.165   8.951  1.00  0.00     0.034 A 
ATOM     65  C   UNL     1     -15.330   8.661   5.989  1.00  0.00     0.034 A 
ATOM     66  C   UNL     1     -14.238  14.837   7.760  1.00  0.00     0.049 A 
ATOM     67  C   UNL     1     -16.361   9.774   5.951  1.00  0.00     0.074 A 
ATOM     68  C   UNL     1     -13.876  14.658   6.433  1.00  0.00     0.029 A 
ATOM     69  N   UNL     1     -15.500  14.276   7.900  1.00  0.00    -0.354 N 
ATOM     70  N   UNL     1     -16.084  11.029   6.169  1.00  0.00    -0.248 NA
ATOM     71  C   UNL     1     -17.778   9.565   5.679  1.00  0.00     0.031 C 
ATOM     72  C   UNL     1     -14.918  13.948   5.784  1.00  0.00     0.029 A 
ATOM     73  C   UNL     1     -15.922  13.709   6.707  1.00  0.00     0.049 A 
ATOM     74  H   UNL     1     -16.024  14.280   8.734  1.00  0.00     0.167 HD
ATOM     75  C   UNL     1     -17.235  11.768   6.208  1.00  0.00     0.074 A 
ATOM     76  C   UNL     1     -18.260  10.813   5.818  1.00  0.00     0.031 C 
ATOM     77  C   UNL     1     -17.235  13.078   6.611  1.00  0.00     0.034 A 
BRANCH  64  78
ATOM     78  C   UNL     1     -12.756  16.499   9.148  1.00  0.00     0.023 A 
ATOM     79  C   UNL     1     -12.707  17.370   8.037  1.00  0.00     0.012 A 
ATOM     80  C   UNL     1     -12.152  16.965  10.340  1.00  0.00     0.148 A 
ATOM     81  C   UNL     1     -12.033  18.592   8.067  1.00  0.00     0.002 A 
ATOM     82  C   UNL     1     -11.431  18.165  10.356  1.00  0.00     0.091 A 
ATOM     83  F   UNL     1     -12.323  16.280  11.478  1.00  0.00    -0.205 F 
ATOM     84  C   UNL     1     -11.370  18.979   9.219  1.00  0.00     0.022 A 
BRANCH  82  85
ATOM     85  S   UNL     1     -10.470  18.710  11.779  1.00  0.00     0.127 S 
ATOM     86  O   UNL     1      -9.193  19.087  11.166  1.00  0.00    -0.237 OA
ATOM     87  O   UNL     1     -11.255  19.835  12.280  1.00  0.00    -0.237 OA
ATOM     88  O   UNL     1     -10.378  17.555  12.665  1.00  0.00    -0.744 OA
ENDBRANCH  82  85
ENDBRANCH  64  78
BRANCH  65  89
ATOM     89  C   UNL     1     -15.494   7.370   6.734  1.00  0.00     0.023 A 
ATOM     90  C   UNL     1     -14.820   6.241   6.215  1.00  0.00     0.012 A 
ATOM     91  C   UNL     1     -15.858   7.371   8.092  1.00  0.00     0.148 A 
ATOM     92  C   UNL     1     -14.338   5.243   7.069  1.00  0.00     0.002 A 
ATOM     93  C   UNL     1     -15.367   6.375   8.938  1.00  0.00     0.091 A 
ATOM     94  F   UNL     1     -16.580   8.397   8.559  1.00  0.00    -0.205 F 
ATOM     95  C   UNL     1     -14.559   5.343   8.437  1.00  0.00     0.022 A 
BRANCH  93  96
ATOM     96  S   UNL     1     -15.628   6.461  10.714  1.00  0.00     0.127 S 
ATOM     97  O   UNL     1     -16.853   5.685  10.870  1.00  0.00    -0.237 OA
ATOM     98  O   UNL     1     -14.427   5.824  11.250  1.00  0.00    -0.237 OA
ATOM     99  O   UNL     1     -15.723   7.885  11.000  1.00  0.00    -0.744 OA
ENDBRANCH  93  96
ENDBRANCH  65  89
BRANCH  77 100
ATOM    100  C   UNL     1     -18.464  13.905   6.953  1.00  0.00     0.023 A 
ATOM    101  C   UNL     1     -19.720  13.325   7.200  1.00  0.00     0.012 A 
ATOM    102  C   UNL     1     -18.362  15.306   7.177  1.00  0.00     0.148 A 
ATOM    103  C   UNL     1     -20.829  14.090   7.580  1.00  0.00     0.002 A 
ATOM    104  C   UNL     1     -19.429  16.037   7.687  1.00  0.00     0.091 A 
ATOM    105  F   UNL     1     -17.233  15.960   6.868  1.00  0.00    -0.205 F 
ATOM    106  C   UNL     1     -20.678  15.441   7.850  1.00  0.00     0.022 A 
BRANCH 104 107
ATOM    107  S   UNL     1     -19.204  17.713   8.299  1.00  0.00     0.127 S 
ATOM    108  O   UNL     1     -19.667  18.511   7.165  1.00  0.00    -0.237 OA
ATOM    109  O   UNL     1     -20.089  17.738   9.465  1.00  0.00    -0.237 OA
ATOM    110  O   UNL     1     -17.788  17.817   8.622  1.00  0.00    -0.744 OA
ENDBRANCH 104 107
ENDBRANCH  77 100
ENDBRANCH  51  52
ENDBRANCH  43  46
ENDBRANCH  41  42
ENDBRANCH  40  41
ENDBRANCH  39  40
ENDBRANCH   1  39
TORSDOF 21
