REMARK SMILES Nc1ccc(C(=O)N2Cc3nc[nH]c3C[C@H]2C(=O)NCCCCNC(=O)c2ccc(-c3c4nc(c(-c5cccc(S(=O)(=O)[O-])c5F)c5ccc([nH]5)c(-c5cccc(S(=O)(=O)[O-])c5F)c5nc(c(-c6cccc(S(=O)(=O)[O-])c6F)c6ccc3[nH]6)C=C5)C=C4)cc2)cc1
REMARK SMILES IDX 21 1 20 2 19 3 17 4 18 5 16 7 8 8 9 9 10 10 15 11 11 12
REMARK SMILES IDX 14 13 12 14 13 15 6 17 7 18 5 19 2 20 3 21 91 22 4 23 90 24
REMARK SMILES IDX 1 25 22 28 23 29 24 30 25 31 26 33 27 34 28 35 89 36 29 37
REMARK SMILES IDX 88 38 30 39 31 40 32 41 82 42 33 43 87 44 81 45 83 46 34 47
REMARK SMILES IDX 86 48 80 49 79 50 35 52 67 53 47 54 66 55 48 56 51 57 65 58
REMARK SMILES IDX 84 59 49 60 50 61 64 63 85 64 52 65 36 66 37 67 45 68 38 69
REMARK SMILES IDX 40 70 46 71 39 72 41 73 42 74 43 75 44 76 68 77 69 78 77 79
REMARK SMILES IDX 70 80 72 81 78 82 71 83 73 84 74 85 75 86 76 87 53 88 54 89
REMARK SMILES IDX 62 90 55 91 57 92 63 93 56 94 58 95 59 96 60 97 61 98
REMARK H PARENT 19 6 13 16 1 26 1 27 24 32 83 51 51 62
REMARK Flexibility Score: inf
ROOT
ATOM      1  C   UNL     1      -4.611   4.310   2.103  1.00  0.00     0.023 C 
ENDROOT
BRANCH   1   2
ATOM      2  C   UNL     1      -4.530   4.664   0.618  1.00  0.00     0.116 C 
BRANCH   2   3
ATOM      3  N   UNL     1      -3.286   4.296  -0.022  1.00  0.00    -0.354 N 
ATOM      4  C   UNL     1      -2.954   3.315  -0.901  1.00  0.00     0.243 C 
ATOM      5  O   UNL     1      -1.877   3.481  -1.489  1.00  0.00    -0.273 OA
ATOM      6  H   UNL     1      -2.528   4.872   0.230  1.00  0.00     0.163 HD
BRANCH   4   7
ATOM      7  C   UNL     1      -3.784   2.041  -1.223  1.00  0.00     0.181 C 
ATOM      8  N   UNL     1      -4.117   1.101  -0.089  1.00  0.00    -0.320 N 
ATOM      9  C   UNL     1      -5.444   1.143   0.564  1.00  0.00     0.178 C 
ATOM     10  C   UNL     1      -6.431   1.956  -0.185  1.00  0.00     0.081 A 
ATOM     11  C   UNL     1      -4.960   2.355  -2.196  1.00  0.00     0.091 C 
ATOM     12  N   UNL     1      -7.604   2.434   0.341  1.00  0.00    -0.240 NA
ATOM     13  C   UNL     1      -6.214   2.493  -1.429  1.00  0.00     0.042 A 
ATOM     14  C   UNL     1      -8.088   3.244  -0.578  1.00  0.00     0.197 A 
ATOM     15  N   UNL     1      -7.290   3.289  -1.693  1.00  0.00    -0.348 N 
ATOM     16  H   UNL     1      -7.460   3.795  -2.520  1.00  0.00     0.167 HD
BRANCH   8  17
ATOM     17  C   UNL     1      -3.291   0.056   0.354  1.00  0.00     0.254 C 
ATOM     18  O   UNL     1      -3.736  -0.893   1.005  1.00  0.00    -0.269 OA
BRANCH  17  19
ATOM     19  C   UNL     1      -1.823   0.045   0.120  1.00  0.00     0.040 A 
ATOM     20  C   UNL     1       0.996  -0.094  -0.031  1.00  0.00     0.031 A 
ATOM     21  C   UNL     1       0.219  -1.243  -0.189  1.00  0.00     0.026 A 
ATOM     22  C   UNL     1       0.353   1.105   0.274  1.00  0.00     0.026 A 
ATOM     23  C   UNL     1      -1.181  -1.174  -0.135  1.00  0.00     0.016 A 
ATOM     24  C   UNL     1      -1.041   1.168   0.377  1.00  0.00     0.016 A 
BRANCH  20  25
ATOM     25  N   UNL     1       2.382  -0.169   0.009  1.00  0.00    -0.399 N 
ATOM     26  H   UNL     1       2.835  -1.016  -0.207  1.00  0.00     0.156 HD
ATOM     27  H   UNL     1       2.911   0.624   0.252  1.00  0.00     0.156 HD
ENDBRANCH  20  25
ENDBRANCH  17  19
ENDBRANCH   8  17
ENDBRANCH   4   7
ENDBRANCH   2   3
ENDBRANCH   1   2
BRANCH   1  28
ATOM     28  C   UNL     1      -4.224   5.435   3.075  1.00  0.00     0.023 C 
BRANCH  28  29
ATOM     29  C   UNL     1      -5.093   6.692   3.020  1.00  0.00     0.116 C 
BRANCH  29  30
ATOM     30  N   UNL     1      -6.494   6.466   3.378  1.00  0.00    -0.352 N 
ATOM     31  C   UNL     1      -7.565   7.317   3.141  1.00  0.00     0.251 C 
ATOM     32  H   UNL     1      -6.699   5.619   3.837  1.00  0.00     0.163 HD
ATOM     33  O   UNL     1      -8.587   7.264   3.795  1.00  0.00    -0.269 OA
BRANCH  31  34
ATOM     34  C   UNL     1      -7.420   8.293   2.044  1.00  0.00     0.039 A 
ATOM     35  C   UNL     1      -7.636   9.656   2.254  1.00  0.00     0.014 A 
ATOM     36  C   UNL     1      -6.941   7.813   0.827  1.00  0.00     0.014 A 
ATOM     37  C   UNL     1      -7.260  10.552   1.255  1.00  0.00     0.010 A 
ATOM     38  C   UNL     1      -6.456   8.706  -0.101  1.00  0.00     0.010 A 
ATOM     39  C   UNL     1      -6.633  10.077   0.090  1.00  0.00    -0.014 A 
BRANCH  39  40
ATOM     40  C   UNL     1      -6.051  11.022  -0.865  1.00  0.00     0.031 A 
ATOM     41  C   UNL     1      -5.153  12.068  -0.290  1.00  0.00     0.074 A 
ATOM     42  C   UNL     1      -6.128  10.875  -2.206  1.00  0.00     0.049 A 
ATOM     43  N   UNL     1      -5.357  13.344  -0.254  1.00  0.00    -0.248 NA
ATOM     44  C   UNL     1      -3.932  11.643   0.410  1.00  0.00     0.031 C 
ATOM     45  C   UNL     1      -6.687   9.752  -2.969  1.00  0.00     0.029 A 
ATOM     46  N   UNL     1      -5.573  11.650  -3.178  1.00  0.00    -0.354 N 
ATOM     47  C   UNL     1      -4.194  13.908   0.271  1.00  0.00     0.074 A 
ATOM     48  C   UNL     1      -3.434  12.813   0.816  1.00  0.00     0.031 C 
ATOM     49  C   UNL     1      -6.201   9.780  -4.227  1.00  0.00     0.029 A 
ATOM     50  C   UNL     1      -5.465  11.015  -4.409  1.00  0.00     0.049 A 
ATOM     51  H   UNL     1      -5.276  12.576  -3.023  1.00  0.00     0.167 HD
ATOM     52  C   UNL     1      -3.850  15.203   0.016  1.00  0.00     0.034 A 
ATOM     53  C   UNL     1      -4.781  11.454  -5.491  1.00  0.00     0.034 A 
ATOM     54  C   UNL     1      -4.955  15.947  -0.535  1.00  0.00     0.049 A 
ATOM     55  C   UNL     1      -4.634  12.919  -5.350  1.00  0.00     0.074 A 
ATOM     56  C   UNL     1      -6.250  16.218  -0.137  1.00  0.00     0.029 A 
ATOM     57  N   UNL     1      -4.914  16.233  -1.878  1.00  0.00    -0.354 N 
ATOM     58  N   UNL     1      -5.642  13.747  -5.384  1.00  0.00    -0.248 NA
ATOM     59  C   UNL     1      -3.417  13.436  -4.751  1.00  0.00     0.031 C 
ATOM     60  C   UNL     1      -7.019  16.142  -1.336  1.00  0.00     0.029 A 
ATOM     61  C   UNL     1      -6.137  15.897  -2.392  1.00  0.00     0.049 A 
ATOM     62  H   UNL     1      -4.151  16.608  -2.376  1.00  0.00     0.167 HD
ATOM     63  C   UNL     1      -5.341  14.693  -4.413  1.00  0.00     0.074 A 
ATOM     64  C   UNL     1      -3.914  14.520  -4.149  1.00  0.00     0.031 C 
ATOM     65  C   UNL     1      -6.326  15.325  -3.706  1.00  0.00     0.034 A 
BRANCH  52  66
ATOM     66  C   UNL     1      -2.437  15.742  -0.074  1.00  0.00     0.023 A 
ATOM     67  C   UNL     1      -2.283  17.143  -0.203  1.00  0.00     0.012 A 
ATOM     68  C   UNL     1      -1.294  14.951  -0.325  1.00  0.00     0.148 A 
ATOM     69  C   UNL     1      -1.079  17.719  -0.625  1.00  0.00     0.002 A 
ATOM     70  C   UNL     1      -0.077  15.534  -0.665  1.00  0.00     0.091 A 
ATOM     71  F   UNL     1      -1.398  13.621  -0.375  1.00  0.00    -0.205 F 
ATOM     72  C   UNL     1       0.028  16.914  -0.851  1.00  0.00     0.022 A 
BRANCH  70  73
ATOM     73  S   UNL     1       1.400  14.540  -0.910  1.00  0.00     0.127 S 
ATOM     74  O   UNL     1       1.498  14.518  -2.366  1.00  0.00    -0.237 OA
ATOM     75  O   UNL     1       2.419  15.340  -0.231  1.00  0.00    -0.237 OA
ATOM     76  O   UNL     1       1.116  13.265  -0.263  1.00  0.00    -0.744 OA
ENDBRANCH  70  73
ENDBRANCH  52  66
BRANCH  53  77
ATOM     77  C   UNL     1      -4.066  10.669  -6.519  1.00  0.00     0.023 A 
ATOM     78  C   UNL     1      -3.764  11.252  -7.764  1.00  0.00     0.012 A 
ATOM     79  C   UNL     1      -3.447   9.441  -6.190  1.00  0.00     0.148 A 
ATOM     80  C   UNL     1      -2.852  10.650  -8.639  1.00  0.00     0.002 A 
ATOM     81  C   UNL     1      -2.551   8.840  -7.068  1.00  0.00     0.091 A 
ATOM     82  F   UNL     1      -3.665   8.911  -4.979  1.00  0.00    -0.205 F 
ATOM     83  C   UNL     1      -2.240   9.448  -8.289  1.00  0.00     0.022 A 
BRANCH  81  84
ATOM     84  S   UNL     1      -1.730   7.291  -6.670  1.00  0.00     0.127 S 
ATOM     85  O   UNL     1      -1.847   6.551  -7.928  1.00  0.00    -0.237 OA
ATOM     86  O   UNL     1      -0.380   7.739  -6.343  1.00  0.00    -0.237 OA
ATOM     87  O   UNL     1      -2.497   6.715  -5.571  1.00  0.00    -0.744 OA
ENDBRANCH  81  84
ENDBRANCH  53  77
BRANCH  65  88
ATOM     88  C   UNL     1      -7.758  15.172  -4.160  1.00  0.00     0.023 A 
ATOM     89  C   UNL     1      -8.400  13.916  -4.213  1.00  0.00     0.012 A 
ATOM     90  C   UNL     1      -8.530  16.333  -4.344  1.00  0.00     0.148 A 
ATOM     91  C   UNL     1      -9.771  13.820  -4.466  1.00  0.00     0.002 A 
ATOM     92  C   UNL     1      -9.902  16.236  -4.547  1.00  0.00     0.091 A 
ATOM     93  F   UNL     1      -7.910  17.522  -4.285  1.00  0.00    -0.205 F 
ATOM     94  C   UNL     1     -10.525  14.981  -4.618  1.00  0.00     0.022 A 
BRANCH  92  95
ATOM     95  S   UNL     1     -10.945  17.694  -4.615  1.00  0.00     0.127 S 
ATOM     96  O   UNL     1     -11.225  17.803  -6.045  1.00  0.00    -0.237 OA
ATOM     97  O   UNL     1     -12.093  17.300  -3.796  1.00  0.00    -0.237 OA
ATOM     98  O   UNL     1     -10.155  18.778  -4.044  1.00  0.00    -0.744 OA
ENDBRANCH  92  95
ENDBRANCH  65  88
ENDBRANCH  39  40
ENDBRANCH  31  34
ENDBRANCH  29  30
ENDBRANCH  28  29
ENDBRANCH   1  28
TORSDOF 17
