REMARK SMILES CC[C@](C)(NS(=O)(=O)c1ccc(OC)c(F)c1)C(=O)NCCCCNC(=O)c1ccc(-c2c3nc(c(-c4cccc(S(=O)(=O)[O-])c4F)c4ccc([nH]4)c(-c4cccc(S(=O)(=O)[O-])c4F)c4nc(c(-c5cccc(S(=O)(=O)[O-])c5F)c5ccc2[nH]5)C=C4)C=C3)cc1
REMARK SMILES IDX 22 1 21 2 20 3 18 4 19 5 3 7 4 8 2 9 1 10 5 11 6 13 7 14
REMARK SMILES IDX 8 15 9 16 10 17 17 18 11 19 15 20 12 21 16 22 13 23 14 24
REMARK SMILES IDX 23 25 24 26 25 27 26 28 27 30 28 31 29 32 90 33 30 34 89 35
REMARK SMILES IDX 31 36 32 37 33 38 83 39 34 40 88 41 82 42 84 43 35 44 87 45
REMARK SMILES IDX 81 46 80 47 36 49 68 50 48 51 67 52 49 53 52 54 66 55 85 56
REMARK SMILES IDX 50 57 51 58 65 60 86 61 53 62 37 63 38 64 46 65 39 66 41 67
REMARK SMILES IDX 47 68 40 69 42 70 43 71 44 72 45 73 69 74 70 75 78 76 71 77
REMARK SMILES IDX 73 78 79 79 72 80 74 81 75 82 76 83 77 84 54 85 55 86 63 87
REMARK SMILES IDX 56 88 58 89 64 90 57 91 59 92 60 93 61 94 62 95
REMARK H PARENT 20 6 5 12 25 29 84 48 52 59
REMARK Flexibility Score: inf
ROOT
ATOM      1  C   UNL     1       1.958  -1.575   6.280  1.00  0.00     0.023 C 
ENDROOT
BRANCH   1   2
ATOM      2  C   UNL     1       1.677  -0.427   5.310  1.00  0.00     0.116 C 
BRANCH   2   3
ATOM      3  N   UNL     1       2.392  -0.433   4.043  1.00  0.00    -0.354 N 
ATOM      4  C   UNL     1       1.999  -0.427   2.739  1.00  0.00     0.241 C 
ATOM      5  O   UNL     1       2.781   0.174   1.986  1.00  0.00    -0.273 OA
ATOM      6  H   UNL     1       3.371  -0.446   4.151  1.00  0.00     0.163 HD
BRANCH   4   7
ATOM      7  C   UNL     1       0.765  -1.163   2.150  1.00  0.00     0.108 C 
ATOM      8  C   UNL     1       0.668  -0.704   0.655  1.00  0.00     0.040 C 
BRANCH   7   9
ATOM      9  C   UNL     1      -0.512  -0.726   2.906  1.00  0.00     0.030 C 
ATOM     10  C   UNL     1      -1.831  -0.641   2.143  1.00  0.00     0.006 C 
ENDBRANCH   7   9
BRANCH   7  11
ATOM     11  N   UNL     1       0.885  -2.634   1.964  1.00  0.00    -0.196 NA
ATOM     12  H   UNL     1       1.445  -2.718   1.116  1.00  0.00     0.142 HD
BRANCH  11  13
ATOM     13  S   UNL     1       1.462  -3.849   2.925  1.00  0.00     0.241 S 
ATOM     14  O   UNL     1       0.965  -3.624   4.263  1.00  0.00    -0.207 OA
ATOM     15  O   UNL     1       1.066  -5.040   2.208  1.00  0.00    -0.207 OA
BRANCH  13  16
ATOM     16  C   UNL     1       3.239  -3.894   2.970  1.00  0.00     0.085 A 
ATOM     17  C   UNL     1       4.050  -2.824   2.618  1.00  0.00     0.026 A 
ATOM     18  C   UNL     1       3.850  -5.068   3.430  1.00  0.00     0.065 A 
ATOM     19  C   UNL     1       5.421  -2.846   2.899  1.00  0.00     0.051 A 
ATOM     20  C   UNL     1       5.236  -5.112   3.635  1.00  0.00     0.166 A 
ATOM     21  C   UNL     1       6.030  -3.986   3.424  1.00  0.00     0.154 A 
ATOM     22  F   UNL     1       5.762  -6.268   4.062  1.00  0.00    -0.203 F 
BRANCH  21  23
ATOM     23  O   UNL     1       7.364  -3.831   3.668  1.00  0.00    -0.494 OA
ATOM     24  C   UNL     1       8.100  -4.965   4.120  1.00  0.00     0.278 C 
ENDBRANCH  21  23
ENDBRANCH  13  16
ENDBRANCH  11  13
ENDBRANCH   7  11
ENDBRANCH   4   7
ENDBRANCH   2   3
ENDBRANCH   1   2
BRANCH   1  25
ATOM     25  C   UNL     1       3.392  -2.094   6.362  1.00  0.00     0.023 C 
BRANCH  25  26
ATOM     26  C   UNL     1       4.362  -1.158   7.065  1.00  0.00     0.116 C 
BRANCH  26  27
ATOM     27  N   UNL     1       4.028  -1.012   8.474  1.00  0.00    -0.352 N 
ATOM     28  C   UNL     1       4.791  -1.266   9.585  1.00  0.00     0.251 C 
ATOM     29  H   UNL     1       3.118  -0.682   8.657  1.00  0.00     0.163 HD
ATOM     30  O   UNL     1       4.246  -1.350  10.683  1.00  0.00    -0.269 OA
BRANCH  28  31
ATOM     31  C   UNL     1       6.259  -1.419   9.472  1.00  0.00     0.039 A 
ATOM     32  C   UNL     1       6.915  -2.324  10.313  1.00  0.00     0.014 A 
ATOM     33  C   UNL     1       6.997  -0.622   8.593  1.00  0.00     0.014 A 
ATOM     34  C   UNL     1       8.307  -2.436  10.261  1.00  0.00     0.010 A 
ATOM     35  C   UNL     1       8.372  -0.796   8.482  1.00  0.00     0.010 A 
ATOM     36  C   UNL     1       9.045  -1.675   9.340  1.00  0.00    -0.014 A 
BRANCH  36  37
ATOM     37  C   UNL     1      10.527  -1.734   9.296  1.00  0.00     0.031 A 
ATOM     38  C   UNL     1      11.332  -0.502   9.618  1.00  0.00     0.074 A 
ATOM     39  C   UNL     1      11.142  -2.865   8.900  1.00  0.00     0.049 A 
ATOM     40  N   UNL     1      12.627  -0.329   9.574  1.00  0.00    -0.248 NA
ATOM     41  C   UNL     1      10.583   0.706  10.012  1.00  0.00     0.031 C 
ATOM     42  C   UNL     1      10.463  -4.097   8.494  1.00  0.00     0.029 A 
ATOM     43  N   UNL     1      12.474  -3.155   8.753  1.00  0.00    -0.354 N 
ATOM     44  C   UNL     1      12.842   1.008   9.890  1.00  0.00     0.074 A 
ATOM     45  C   UNL     1      11.546   1.613  10.087  1.00  0.00     0.031 C 
ATOM     46  C   UNL     1      11.383  -5.014   8.157  1.00  0.00     0.029 A 
ATOM     47  C   UNL     1      12.714  -4.429   8.294  1.00  0.00     0.049 A 
ATOM     48  H   UNL     1      13.191  -2.511   8.956  1.00  0.00     0.167 HD
ATOM     49  C   UNL     1      14.017   1.663  10.040  1.00  0.00     0.034 A 
ATOM     50  C   UNL     1      13.876  -5.053   8.017  1.00  0.00     0.034 A 
ATOM     51  C   UNL     1      15.302   1.035   9.912  1.00  0.00     0.049 A 
ATOM     52  C   UNL     1      15.170  -4.321   8.248  1.00  0.00     0.074 A 
ATOM     53  C   UNL     1      16.551   1.585  10.137  1.00  0.00     0.029 A 
ATOM     54  N   UNL     1      15.504  -0.282   9.530  1.00  0.00    -0.354 N 
ATOM     55  N   UNL     1      15.356  -3.098   8.686  1.00  0.00    -0.248 NA
ATOM     56  C   UNL     1      16.414  -5.058   7.983  1.00  0.00     0.031 C 
ATOM     57  C   UNL     1      17.510   0.605   9.873  1.00  0.00     0.029 A 
ATOM     58  C   UNL     1      16.858  -0.563   9.508  1.00  0.00     0.049 A 
ATOM     59  H   UNL     1      14.790  -0.922   9.308  1.00  0.00     0.167 HD
ATOM     60  C   UNL     1      16.733  -2.931   8.779  1.00  0.00     0.074 A 
ATOM     61  C   UNL     1      17.334  -4.184   8.370  1.00  0.00     0.031 C 
ATOM     62  C   UNL     1      17.436  -1.834   9.153  1.00  0.00     0.034 A 
BRANCH  49  63
ATOM     63  C   UNL     1      13.976   3.117  10.432  1.00  0.00     0.023 A 
ATOM     64  C   UNL     1      13.595   3.471  11.742  1.00  0.00     0.012 A 
ATOM     65  C   UNL     1      14.407   4.121   9.543  1.00  0.00     0.148 A 
ATOM     66  C   UNL     1      13.620   4.802  12.155  1.00  0.00     0.002 A 
ATOM     67  C   UNL     1      14.475   5.440   9.976  1.00  0.00     0.091 A 
ATOM     68  F   UNL     1      14.748   3.767   8.295  1.00  0.00    -0.205 F 
ATOM     69  C   UNL     1      14.072   5.783  11.278  1.00  0.00     0.022 A 
BRANCH  67  70
ATOM     70  S   UNL     1      15.123   6.769   8.955  1.00  0.00     0.127 S 
ATOM     71  O   UNL     1      13.926   7.580   8.732  1.00  0.00    -0.237 OA
ATOM     72  O   UNL     1      16.116   7.378   9.839  1.00  0.00    -0.237 OA
ATOM     73  O   UNL     1      15.672   6.133   7.765  1.00  0.00    -0.744 OA
ENDBRANCH  67  70
ENDBRANCH  49  63
BRANCH  50  74
ATOM     74  C   UNL     1      13.858  -6.476   7.574  1.00  0.00     0.023 A 
ATOM     75  C   UNL     1      14.307  -7.478   8.456  1.00  0.00     0.012 A 
ATOM     76  C   UNL     1      13.334  -6.850   6.321  1.00  0.00     0.148 A 
ATOM     77  C   UNL     1      14.253  -8.824   8.092  1.00  0.00     0.002 A 
ATOM     78  C   UNL     1      13.229  -8.195   5.988  1.00  0.00     0.091 A 
ATOM     79  F   UNL     1      12.925  -5.881   5.489  1.00  0.00    -0.205 F 
ATOM     80  C   UNL     1      13.702  -9.184   6.865  1.00  0.00     0.022 A 
BRANCH  78  81
ATOM     81  S   UNL     1      12.391  -8.751   4.498  1.00  0.00     0.127 S 
ATOM     82  O   UNL     1      13.510  -9.209   3.679  1.00  0.00    -0.237 OA
ATOM     83  O   UNL     1      11.527  -9.813   5.014  1.00  0.00    -0.237 OA
ATOM     84  O   UNL     1      11.671  -7.587   3.998  1.00  0.00    -0.744 OA
ENDBRANCH  78  81
ENDBRANCH  50  74
BRANCH  62  85
ATOM     85  C   UNL     1      18.938  -1.925   9.169  1.00  0.00     0.023 A 
ATOM     86  C   UNL     1      19.648  -1.915   7.953  1.00  0.00     0.012 A 
ATOM     87  C   UNL     1      19.646  -1.882  10.387  1.00  0.00     0.148 A 
ATOM     88  C   UNL     1      21.041  -1.879   7.948  1.00  0.00     0.002 A 
ATOM     89  C   UNL     1      21.032  -1.795  10.374  1.00  0.00     0.091 A 
ATOM     90  F   UNL     1      18.949  -1.906  11.532  1.00  0.00    -0.205 F 
ATOM     91  C   UNL     1      21.732  -1.803   9.156  1.00  0.00     0.022 A 
BRANCH  89  92
ATOM     92  S   UNL     1      21.999  -1.583  11.873  1.00  0.00     0.127 S 
ATOM     93  O   UNL     1      22.666  -2.879  11.982  1.00  0.00    -0.237 OA
ATOM     94  O   UNL     1      22.882  -0.471  11.517  1.00  0.00    -0.237 OA
ATOM     95  O   UNL     1      21.044  -1.282  12.930  1.00  0.00    -0.744 OA
ENDBRANCH  89  92
ENDBRANCH  62  85
ENDBRANCH  36  37
ENDBRANCH  28  31
ENDBRANCH  26  27
ENDBRANCH  25  26
ENDBRANCH   1  25
TORSDOF 19
