REMARK SMILES O=C(NCCCCNC(=O)[C@H](F)[C@H](O)C1CCOCC1)c1ccc(-c2c3nc(c(-c4cccc(S(=O)(=O)[O-])c4F)c4ccc([nH]4)c(-c4cccc(S(=O)(=O)[O-])c4F)c4nc(c(-c5cccc(S(=O)(=O)[O-])c5F)c5ccc2[nH]5)C=C4)C=C3)cc1
REMARK SMILES IDX 5 1 4 2 3 3 1 4 2 5 21 7 22 8 83 9 23 10 82 11 24 12 25 13
REMARK SMILES IDX 26 14 76 15 27 16 81 17 75 18 77 19 28 20 80 21 74 22 73 23
REMARK SMILES IDX 29 25 61 26 41 27 60 28 42 29 45 30 59 31 78 32 43 33 44 34
REMARK SMILES IDX 58 36 79 37 46 38 30 39 31 40 39 41 32 42 34 43 40 44 33 45
REMARK SMILES IDX 35 46 36 47 37 48 38 49 62 50 63 51 71 52 64 53 66 54 72 55
REMARK SMILES IDX 65 56 67 57 68 58 69 59 70 60 47 61 48 62 56 63 49 64 51 65
REMARK SMILES IDX 57 66 50 67 52 68 53 69 54 70 55 71 6 72 7 73 8 74 9 75
REMARK SMILES IDX 10 77 11 78 12 79 13 80 15 81 16 82 20 83 17 84 19 85 18 86
REMARK SMILES IDX 14 87
REMARK H PARENT 3 6 77 24 45 35 8 76 14 88
REMARK Flexibility Score: inf
ROOT
ATOM      1  C   UNL     1      10.546   9.172  -1.240  1.00  0.00     0.023 C 
ENDROOT
BRANCH   1   2
ATOM      2  C   UNL     1      11.286   8.846  -2.531  1.00  0.00     0.116 C 
BRANCH   2   3
ATOM      3  N   UNL     1      10.930   9.705  -3.650  1.00  0.00    -0.352 N 
ATOM      4  O   UNL     1      11.325  10.890  -5.535  1.00  0.00    -0.269 OA
ATOM      5  C   UNL     1      11.734  10.090  -4.701  1.00  0.00     0.251 C 
ATOM      6  H   UNL     1      10.009  10.052  -3.658  1.00  0.00     0.163 HD
BRANCH   5   7
ATOM      7  C   UNL     1      13.110   9.554  -4.771  1.00  0.00     0.039 A 
ATOM      8  C   UNL     1      13.332   8.182  -4.644  1.00  0.00     0.014 A 
ATOM      9  C   UNL     1      14.184  10.439  -4.892  1.00  0.00     0.014 A 
ATOM     10  C   UNL     1      14.629   7.711  -4.486  1.00  0.00     0.010 A 
ATOM     11  C   UNL     1      15.492   9.950  -4.817  1.00  0.00     0.010 A 
ATOM     12  C   UNL     1      15.724   8.588  -4.577  1.00  0.00    -0.014 A 
BRANCH  12  13
ATOM     13  C   UNL     1      17.096   8.030  -4.494  1.00  0.00     0.031 A 
ATOM     14  C   UNL     1      18.023   8.377  -3.363  1.00  0.00     0.074 A 
ATOM     15  C   UNL     1      17.488   7.167  -5.453  1.00  0.00     0.049 A 
ATOM     16  N   UNL     1      19.224   7.917  -3.119  1.00  0.00    -0.248 NA
ATOM     17  C   UNL     1      17.554   9.368  -2.381  1.00  0.00     0.031 C 
ATOM     18  C   UNL     1      16.688   6.799  -6.625  1.00  0.00     0.029 A 
ATOM     19  N   UNL     1      18.638   6.437  -5.594  1.00  0.00    -0.354 N 
ATOM     20  C   UNL     1      19.669   8.582  -1.983  1.00  0.00     0.074 A 
ATOM     21  C   UNL     1      18.609   9.485  -1.584  1.00  0.00     0.031 C 
ATOM     22  C   UNL     1      17.354   5.885  -7.343  1.00  0.00     0.029 A 
ATOM     23  C   UNL     1      18.645   5.637  -6.712  1.00  0.00     0.049 A 
ATOM     24  H   UNL     1      19.388   6.482  -4.957  1.00  0.00     0.167 HD
ATOM     25  C   UNL     1      20.844   8.438  -1.324  1.00  0.00     0.034 A 
ATOM     26  C   UNL     1      19.586   4.798  -7.183  1.00  0.00     0.034 A 
ATOM     27  C   UNL     1      21.876   7.509  -1.704  1.00  0.00     0.049 A 
ATOM     28  C   UNL     1      20.855   4.625  -6.402  1.00  0.00     0.074 A 
ATOM     29  C   UNL     1      23.082   7.256  -1.072  1.00  0.00     0.029 A 
ATOM     30  N   UNL     1      21.827   6.679  -2.814  1.00  0.00    -0.354 N 
ATOM     31  N   UNL     1      21.202   5.174  -5.263  1.00  0.00    -0.248 NA
ATOM     32  C   UNL     1      21.853   3.700  -6.955  1.00  0.00     0.031 C 
ATOM     33  C   UNL     1      23.764   6.276  -1.804  1.00  0.00     0.029 A 
ATOM     34  C   UNL     1      22.980   5.914  -2.887  1.00  0.00     0.049 A 
ATOM     35  H   UNL     1      21.082   6.639  -3.456  1.00  0.00     0.167 HD
ATOM     36  C   UNL     1      22.453   4.656  -4.958  1.00  0.00     0.074 A 
ATOM     37  C   UNL     1      22.784   3.716  -6.011  1.00  0.00     0.031 C 
ATOM     38  C   UNL     1      23.271   4.954  -3.919  1.00  0.00     0.034 A 
BRANCH  25  39
ATOM     39  C   UNL     1      21.066   9.262  -0.082  1.00  0.00     0.023 A 
ATOM     40  C   UNL     1      20.427   8.885   1.117  1.00  0.00     0.012 A 
ATOM     41  C   UNL     1      21.973  10.340  -0.072  1.00  0.00     0.148 A 
ATOM     42  C   UNL     1      20.675   9.576   2.302  1.00  0.00     0.002 A 
ATOM     43  C   UNL     1      22.241  11.004   1.121  1.00  0.00     0.091 A 
ATOM     44  F   UNL     1      22.555  10.695  -1.226  1.00  0.00    -0.205 F 
ATOM     45  C   UNL     1      21.589  10.626   2.307  1.00  0.00     0.022 A 
BRANCH  43  46
ATOM     46  S   UNL     1      23.451  12.327   1.246  1.00  0.00     0.127 S 
ATOM     47  O   UNL     1      22.591  13.494   1.436  1.00  0.00    -0.237 OA
ATOM     48  O   UNL     1      24.216  11.935   2.430  1.00  0.00    -0.237 OA
ATOM     49  O   UNL     1      24.204  12.300   0.001  1.00  0.00    -0.744 OA
ENDBRANCH  43  46
ENDBRANCH  25  39
BRANCH  26  50
ATOM     50  C   UNL     1      19.326   4.025  -8.428  1.00  0.00     0.023 A 
ATOM     51  C   UNL     1      19.131   2.633  -8.354  1.00  0.00     0.012 A 
ATOM     52  C   UNL     1      19.206   4.669  -9.675  1.00  0.00     0.148 A 
ATOM     53  C   UNL     1      18.841   1.895  -9.502  1.00  0.00     0.002 A 
ATOM     54  C   UNL     1      18.854   3.937 -10.802  1.00  0.00     0.091 A 
ATOM     55  F   UNL     1      19.417   5.992  -9.735  1.00  0.00    -0.205 F 
ATOM     56  C   UNL     1      18.687   2.548 -10.723  1.00  0.00     0.022 A 
BRANCH  54  57
ATOM     57  S   UNL     1      18.479   4.752 -12.359  1.00  0.00     0.127 S 
ATOM     58  O   UNL     1      19.764   4.693 -13.048  1.00  0.00    -0.237 OA
ATOM     59  O   UNL     1      17.437   3.893 -12.923  1.00  0.00    -0.237 OA
ATOM     60  O   UNL     1      18.008   6.079 -11.979  1.00  0.00    -0.744 OA
ENDBRANCH  54  57
ENDBRANCH  26  50
BRANCH  38  61
ATOM     61  C   UNL     1      24.605   4.259  -3.879  1.00  0.00     0.023 A 
ATOM     62  C   UNL     1      25.617   4.662  -4.773  1.00  0.00     0.012 A 
ATOM     63  C   UNL     1      24.871   3.245  -2.941  1.00  0.00     0.148 A 
ATOM     64  C   UNL     1      26.865   4.042  -4.756  1.00  0.00     0.002 A 
ATOM     65  C   UNL     1      26.131   2.659  -2.903  1.00  0.00     0.091 A 
ATOM     66  F   UNL     1      23.887   2.858  -2.116  1.00  0.00    -0.205 F 
ATOM     67  C   UNL     1      27.125   3.048  -3.816  1.00  0.00     0.022 A 
BRANCH  65  68
ATOM     68  S   UNL     1      26.568   1.428  -1.669  1.00  0.00     0.127 S 
ATOM     69  O   UNL     1      26.407   0.184  -2.418  1.00  0.00    -0.237 OA
ATOM     70  O   UNL     1      27.954   1.775  -1.353  1.00  0.00    -0.237 OA
ATOM     71  O   UNL     1      25.635   1.631  -0.568  1.00  0.00    -0.744 OA
ENDBRANCH  65  68
ENDBRANCH  38  61
ENDBRANCH  12  13
ENDBRANCH   5   7
ENDBRANCH   2   3
ENDBRANCH   1   2
BRANCH   1  72
ATOM     72  C   UNL     1       9.023   9.165  -1.343  1.00  0.00     0.023 C 
BRANCH  72  73
ATOM     73  C   UNL     1       8.427   7.899  -1.950  1.00  0.00     0.116 C 
BRANCH  73  74
ATOM     74  N   UNL     1       8.505   6.748  -1.075  1.00  0.00    -0.353 N 
ATOM     75  C   UNL     1       7.591   6.306  -0.150  1.00  0.00     0.257 C 
ATOM     76  H   UNL     1       9.325   6.208  -1.153  1.00  0.00     0.163 HD
ATOM     77  O   UNL     1       7.877   5.311   0.516  1.00  0.00    -0.272 OA
BRANCH  75  78
ATOM     78  C   UNL     1       6.286   7.082   0.036  1.00  0.00     0.283 C 
ATOM     79  F   UNL     1       5.695   6.774   1.240  1.00  0.00    -0.234 F 
BRANCH  78  80
ATOM     80  C   UNL     1       5.218   6.848  -1.066  1.00  0.00     0.161 C 
BRANCH  80  81
ATOM     81  C   UNL     1       4.554   8.103  -1.732  1.00  0.00     0.026 C 
ATOM     82  C   UNL     1       4.674   8.140  -3.270  1.00  0.00     0.035 C 
ATOM     83  C   UNL     1       4.944   9.467  -1.136  1.00  0.00     0.035 C 
ATOM     84  C   UNL     1       4.008   9.381  -3.852  1.00  0.00     0.160 C 
ATOM     85  C   UNL     1       4.252  10.617  -1.856  1.00  0.00     0.160 C 
ATOM     86  O   UNL     1       4.532  10.562  -3.251  1.00  0.00    -0.381 OA
ENDBRANCH  80  81
BRANCH  80  87
ATOM     87  O   UNL     1       5.571   5.875  -2.056  1.00  0.00    -0.389 OA
ATOM     88  H   UNL     1       6.272   6.231  -2.623  1.00  0.00     0.211 HD
ENDBRANCH  80  87
ENDBRANCH  78  80
ENDBRANCH  75  78
ENDBRANCH  73  74
ENDBRANCH  72  73
ENDBRANCH   1  72
TORSDOF 17
