REMARK SMILES C[C@@H](C(=O)NCCCCNC(=O)c1ccc(-c2c3nc(c(-c4cccc(S(=O)(=O)[O-])c4F)c4ccc([nH]4)c(-c4cccc(S(=O)(=O)[O-])c4F)c4nc(c(-c5cccc(S(=O)(=O)[O-])c5F)c5ccc2[nH]5)C=C4)C=C3)cc1)N(C)c1ccc(C(N)=O)nn1
REMARK SMILES IDX 7 1 6 2 5 3 3 4 4 5 2 7 1 8 76 9 77 10 78 11 79 12 86 13
REMARK SMILES IDX 80 14 85 15 81 16 82 17 83 18 84 19 8 22 9 23 10 24 11 25
REMARK SMILES IDX 12 27 13 28 14 29 75 30 15 31 74 32 16 33 17 34 18 35 68 36
REMARK SMILES IDX 19 37 73 38 67 39 69 40 20 41 72 42 66 43 65 44 21 46 53 47
REMARK SMILES IDX 33 48 52 49 34 50 37 51 51 52 70 53 35 54 36 55 50 57 71 58
REMARK SMILES IDX 38 59 22 60 23 61 31 62 24 63 26 64 32 65 25 66 27 67 28 68
REMARK SMILES IDX 29 69 30 70 54 71 55 72 63 73 56 74 58 75 64 76 57 77 59 78
REMARK SMILES IDX 60 79 61 80 62 81 39 82 40 83 48 84 41 85 43 86 49 87 42 88
REMARK SMILES IDX 44 89 45 90 46 91 47 92
REMARK H PARENT 5 6 83 20 83 21 10 26 69 45 37 56
REMARK Flexibility Score: inf
ROOT
ATOM      1  C   UNL     1       4.262  -1.227  -0.473  1.00  0.00     0.023 C 
ENDROOT
BRANCH   1   2
ATOM      2  C   UNL     1       3.456  -0.883  -1.726  1.00  0.00     0.116 C 
BRANCH   2   3
ATOM      3  N   UNL     1       2.342  -1.790  -1.905  1.00  0.00    -0.354 N 
ATOM      4  C   UNL     1       1.012  -1.627  -1.637  1.00  0.00     0.242 C 
ATOM      5  O   UNL     1       0.284  -2.580  -1.922  1.00  0.00    -0.273 OA
ATOM      6  H   UNL     1       2.582  -2.667  -2.281  1.00  0.00     0.163 HD
BRANCH   4   7
ATOM      7  C   UNL     1       0.475  -0.271  -1.081  1.00  0.00     0.169 C 
ATOM      8  C   UNL     1       1.107   0.164   0.241  1.00  0.00     0.042 C 
BRANCH   7   9
ATOM      9  N   UNL     1      -1.017  -0.215  -1.001  1.00  0.00    -0.346 N 
ATOM     10  C   UNL     1      -1.706   0.287  -2.187  1.00  0.00     0.146 C 
BRANCH   9  11
ATOM     11  C   UNL     1      -1.724  -1.213  -0.315  1.00  0.00     0.151 A 
ATOM     12  C   UNL     1      -1.430  -1.537   1.007  1.00  0.00     0.051 A 
ATOM     13  N   UNL     1      -2.747  -1.870  -0.917  1.00  0.00    -0.132 NA
ATOM     14  C   UNL     1      -2.104  -2.567   1.661  1.00  0.00     0.040 A 
ATOM     15  N   UNL     1      -3.422  -2.907  -0.292  1.00  0.00    -0.143 NA
ATOM     16  C   UNL     1      -3.080  -3.248   0.967  1.00  0.00     0.150 A 
BRANCH  16  17
ATOM     17  C   UNL     1      -3.813  -4.376   1.601  1.00  0.00     0.269 C 
ATOM     18  N   UNL     1      -4.657  -5.087   0.792  1.00  0.00    -0.364 N 
ATOM     19  O   UNL     1      -3.673  -4.662   2.786  1.00  0.00    -0.268 OA
ATOM     20  H   UNL     1      -4.754  -4.840  -0.156  1.00  0.00     0.160 HD
ATOM     21  H   UNL     1      -5.167  -5.845   1.158  1.00  0.00     0.160 HD
ENDBRANCH  16  17
ENDBRANCH   9  11
ENDBRANCH   7   9
ENDBRANCH   4   7
ENDBRANCH   2   3
ENDBRANCH   1   2
BRANCH   1  22
ATOM     22  C   UNL     1       5.064  -2.528  -0.572  1.00  0.00     0.023 C 
BRANCH  22  23
ATOM     23  C   UNL     1       6.077  -2.586  -1.712  1.00  0.00     0.116 C 
BRANCH  23  24
ATOM     24  N   UNL     1       7.051  -1.504  -1.660  1.00  0.00    -0.352 N 
ATOM     25  C   UNL     1       8.412  -1.556  -1.845  1.00  0.00     0.251 C 
ATOM     26  H   UNL     1       6.684  -0.612  -1.465  1.00  0.00     0.163 HD
ATOM     27  O   UNL     1       9.096  -0.559  -1.630  1.00  0.00    -0.269 OA
BRANCH  25  28
ATOM     28  C   UNL     1       9.049  -2.821  -2.269  1.00  0.00     0.039 A 
ATOM     29  C   UNL     1      10.183  -3.265  -1.586  1.00  0.00     0.014 A 
ATOM     30  C   UNL     1       8.515  -3.580  -3.315  1.00  0.00     0.014 A 
ATOM     31  C   UNL     1      10.736  -4.509  -1.900  1.00  0.00     0.010 A 
ATOM     32  C   UNL     1       9.024  -4.850  -3.577  1.00  0.00     0.010 A 
ATOM     33  C   UNL     1      10.134  -5.332  -2.867  1.00  0.00    -0.014 A 
BRANCH  33  34
ATOM     34  C   UNL     1      10.621  -6.716  -3.106  1.00  0.00     0.031 A 
ATOM     35  C   UNL     1      11.162  -7.120  -4.451  1.00  0.00     0.074 A 
ATOM     36  C   UNL     1      10.495  -7.637  -2.128  1.00  0.00     0.049 A 
ATOM     37  N   UNL     1      11.586  -8.291  -4.848  1.00  0.00    -0.248 NA
ATOM     38  C   UNL     1      11.214  -6.080  -5.492  1.00  0.00     0.031 C 
ATOM     39  C   UNL     1       9.912  -7.392  -0.806  1.00  0.00     0.029 A 
ATOM     40  N   UNL     1      10.822  -8.970  -2.101  1.00  0.00    -0.354 N 
ATOM     41  C   UNL     1      11.924  -8.142  -6.187  1.00  0.00     0.074 A 
ATOM     42  C   UNL     1      11.632  -6.771  -6.545  1.00  0.00     0.031 C 
ATOM     43  C   UNL     1       9.925  -8.533  -0.099  1.00  0.00     0.029 A 
ATOM     44  C   UNL     1      10.481  -9.599  -0.925  1.00  0.00     0.049 A 
ATOM     45  H   UNL     1      11.259  -9.433  -2.852  1.00  0.00     0.167 HD
ATOM     46  C   UNL     1      12.451  -9.056  -7.036  1.00  0.00     0.034 A 
ATOM     47  C   UNL     1      10.585 -10.892  -0.558  1.00  0.00     0.034 A 
ATOM     48  C   UNL     1      12.771 -10.410  -6.670  1.00  0.00     0.049 A 
ATOM     49  C   UNL     1      11.196 -11.877  -1.517  1.00  0.00     0.074 A 
ATOM     50  C   UNL     1      13.394 -11.381  -7.434  1.00  0.00     0.029 A 
ATOM     51  N   UNL     1      12.481 -10.991  -5.446  1.00  0.00    -0.354 N 
ATOM     52  N   UNL     1      11.667 -11.673  -2.723  1.00  0.00    -0.248 NA
ATOM     53  C   UNL     1      11.322 -13.267  -1.052  1.00  0.00     0.031 C 
ATOM     54  C   UNL     1      13.446 -12.561  -6.686  1.00  0.00     0.029 A 
ATOM     55  C   UNL     1      12.893 -12.313  -5.441  1.00  0.00     0.049 A 
ATOM     56  H   UNL     1      12.046 -10.532  -4.692  1.00  0.00     0.167 HD
ATOM     57  C   UNL     1      12.176 -12.896  -3.145  1.00  0.00     0.074 A 
ATOM     58  C   UNL     1      11.980 -13.829  -2.055  1.00  0.00     0.031 C 
ATOM     59  C   UNL     1      12.740 -13.221  -4.334  1.00  0.00     0.034 A 
BRANCH  46  60
ATOM     60  C   UNL     1      12.761  -8.619  -8.445  1.00  0.00     0.023 A 
ATOM     61  C   UNL     1      13.848  -7.753  -8.683  1.00  0.00     0.012 A 
ATOM     62  C   UNL     1      12.039  -9.139  -9.537  1.00  0.00     0.148 A 
ATOM     63  C   UNL     1      14.196  -7.393  -9.984  1.00  0.00     0.002 A 
ATOM     64  C   UNL     1      12.420  -8.812 -10.832  1.00  0.00     0.091 A 
ATOM     65  F   UNL     1      10.998  -9.947  -9.287  1.00  0.00    -0.205 F 
ATOM     66  C   UNL     1      13.491  -7.932 -11.057  1.00  0.00     0.022 A 
BRANCH  64  67
ATOM     67  S   UNL     1      11.633  -9.516 -12.285  1.00  0.00     0.127 S 
ATOM     68  O   UNL     1      10.990  -8.340 -12.870  1.00  0.00    -0.237 OA
ATOM     69  O   UNL     1      12.779 -10.024 -13.039  1.00  0.00    -0.237 OA
ATOM     70  O   UNL     1      10.721 -10.541 -11.795  1.00  0.00    -0.744 OA
ENDBRANCH  64  67
ENDBRANCH  46  60
BRANCH  47  71
ATOM     71  C   UNL     1      10.133 -11.329   0.794  1.00  0.00     0.023 A 
ATOM     72  C   UNL     1      11.083 -11.766   1.738  1.00  0.00     0.012 A 
ATOM     73  C   UNL     1       8.771 -11.316   1.148  1.00  0.00     0.148 A 
ATOM     74  C   UNL     1      10.679 -12.226   2.993  1.00  0.00     0.002 A 
ATOM     75  C   UNL     1       8.381 -11.716   2.420  1.00  0.00     0.091 A 
ATOM     76  F   UNL     1       7.880 -10.907   0.232  1.00  0.00    -0.205 F 
ATOM     77  C   UNL     1       9.331 -12.192   3.337  1.00  0.00     0.022 A 
BRANCH  75  78
ATOM     78  S   UNL     1       6.685 -11.577   2.992  1.00  0.00     0.127 S 
ATOM     79  O   UNL     1       6.268 -12.976   3.034  1.00  0.00    -0.237 OA
ATOM     80  O   UNL     1       6.859 -10.945   4.301  1.00  0.00    -0.237 OA
ATOM     81  O   UNL     1       6.008 -10.741   2.010  1.00  0.00    -0.744 OA
ENDBRANCH  75  78
ENDBRANCH  47  71
BRANCH  59  82
ATOM     82  C   UNL     1      13.228 -14.635  -4.513  1.00  0.00     0.023 A 
ATOM     83  C   UNL     1      12.303 -15.690  -4.638  1.00  0.00     0.012 A 
ATOM     84  C   UNL     1      14.607 -14.908  -4.622  1.00  0.00     0.148 A 
ATOM     85  C   UNL     1      12.743 -17.000  -4.830  1.00  0.00     0.002 A 
ATOM     86  C   UNL     1      15.035 -16.207  -4.867  1.00  0.00     0.091 A 
ATOM     87  F   UNL     1      15.472 -13.893  -4.484  1.00  0.00    -0.205 F 
ATOM     88  C   UNL     1      14.106 -17.256  -4.956  1.00  0.00     0.022 A 
BRANCH  86  89
ATOM     89  S   UNL     1      16.762 -16.617  -5.141  1.00  0.00     0.127 S 
ATOM     90  O   UNL     1      17.087 -17.364  -3.927  1.00  0.00    -0.237 OA
ATOM     91  O   UNL     1      16.697 -17.428  -6.358  1.00  0.00    -0.237 OA
ATOM     92  O   UNL     1      17.459 -15.348  -5.297  1.00  0.00    -0.744 OA
ENDBRANCH  86  89
ENDBRANCH  59  82
ENDBRANCH  33  34
ENDBRANCH  25  28
ENDBRANCH  23  24
ENDBRANCH  22  23
ENDBRANCH   1  22
TORSDOF 17
