REMARK SMILES CC[C@@](C)(NS(=O)(=O)c1ccc(F)c(F)c1)C(=O)NCCCCNC(=O)c1ccc(-c2c3nc(c(-c4cccc(S(=O)(=O)[O-])c4F)c4ccc([nH]4)c(-c4cccc(S(=O)(=O)[O-])c4F)c4nc(c(-c5cccc(S(=O)(=O)[O-])c5F)c5ccc2[nH]5)C=C4)C=C3)cc1
REMARK SMILES IDX 21 1 20 2 19 3 17 4 18 5 3 7 4 8 2 9 1 10 5 11 6 13 7 14
REMARK SMILES IDX 8 15 9 16 10 17 16 18 11 19 14 20 12 21 15 22 13 23 22 24
REMARK SMILES IDX 23 25 24 26 25 27 26 29 27 30 28 31 89 32 29 33 88 34 30 35
REMARK SMILES IDX 31 36 32 37 82 38 33 39 87 40 81 41 83 42 34 43 86 44 80 45
REMARK SMILES IDX 79 46 35 48 67 49 47 50 66 51 48 52 51 53 65 54 84 55 49 56
REMARK SMILES IDX 50 57 64 59 85 60 52 61 36 62 37 63 45 64 38 65 40 66 46 67
REMARK SMILES IDX 39 68 41 69 42 70 43 71 44 72 68 73 69 74 77 75 70 76 72 77
REMARK SMILES IDX 78 78 71 79 73 80 74 81 75 82 76 83 53 84 54 85 62 86 55 87
REMARK SMILES IDX 57 88 63 89 56 90 58 91 59 92 60 93 61 94
REMARK H PARENT 19 6 5 12 24 28 83 47 51 58
REMARK Flexibility Score: inf
ROOT
ATOM      1  C   UNL     1       1.960   6.517   2.036  1.00  0.00     0.023 C 
ENDROOT
BRANCH   1   2
ATOM      2  C   UNL     1       1.927   5.546   0.841  1.00  0.00     0.116 C 
BRANCH   2   3
ATOM      3  N   UNL     1       2.714   4.323   0.898  1.00  0.00    -0.354 N 
ATOM      4  C   UNL     1       2.437   2.986   0.862  1.00  0.00     0.241 C 
ATOM      5  O   UNL     1       3.405   2.274   0.559  1.00  0.00    -0.273 OA
ATOM      6  H   UNL     1       3.679   4.503   0.982  1.00  0.00     0.163 HD
BRANCH   4   7
ATOM      7  C   UNL     1       1.095   2.316   1.250  1.00  0.00     0.108 C 
ATOM      8  C   UNL     1      -0.085   2.866   0.432  1.00  0.00     0.040 C 
BRANCH   7   9
ATOM      9  C   UNL     1       1.146   0.756   0.997  1.00  0.00     0.030 C 
ATOM     10  C   UNL     1       1.341   0.256  -0.430  1.00  0.00     0.006 C 
ENDBRANCH   7   9
BRANCH   7  11
ATOM     11  N   UNL     1       0.713   2.396   2.686  1.00  0.00    -0.196 NA
ATOM     12  H   UNL     1       0.323   1.477   2.896  1.00  0.00     0.142 HD
BRANCH  11  13
ATOM     13  S   UNL     1       1.661   2.754   4.014  1.00  0.00     0.241 S 
ATOM     14  O   UNL     1       1.528   4.178   4.240  1.00  0.00    -0.207 OA
ATOM     15  O   UNL     1       1.208   1.825   5.024  1.00  0.00    -0.207 OA
BRANCH  13  16
ATOM     16  C   UNL     1       3.368   2.402   3.706  1.00  0.00     0.085 A 
ATOM     17  C   UNL     1       3.931   1.145   3.911  1.00  0.00     0.025 A 
ATOM     18  C   UNL     1       4.200   3.475   3.390  1.00  0.00     0.064 A 
ATOM     19  C   UNL     1       5.312   0.974   3.715  1.00  0.00     0.044 A 
ATOM     20  C   UNL     1       5.553   3.302   3.157  1.00  0.00     0.160 A 
ATOM     21  C   UNL     1       6.112   2.050   3.319  1.00  0.00     0.158 A 
ATOM     22  F   UNL     1       6.285   4.353   2.764  1.00  0.00    -0.204 F 
ATOM     23  F   UNL     1       7.420   1.864   3.104  1.00  0.00    -0.204 F 
ENDBRANCH  13  16
ENDBRANCH  11  13
ENDBRANCH   7  11
ENDBRANCH   4   7
ENDBRANCH   2   3
ENDBRANCH   1   2
BRANCH   1  24
ATOM     24  C   UNL     1       3.279   7.018   2.640  1.00  0.00     0.023 C 
BRANCH  24  25
ATOM     25  C   UNL     1       4.361   7.451   1.667  1.00  0.00     0.116 C 
BRANCH  25  26
ATOM     26  N   UNL     1       4.120   8.815   1.233  1.00  0.00    -0.352 N 
ATOM     27  C   UNL     1       4.961   9.894   1.372  1.00  0.00     0.251 C 
ATOM     28  H   UNL     1       3.258   8.988   0.790  1.00  0.00     0.163 HD
ATOM     29  O   UNL     1       4.506  11.033   1.328  1.00  0.00    -0.269 OA
BRANCH  27  30
ATOM     30  C   UNL     1       6.416   9.676   1.552  1.00  0.00     0.039 A 
ATOM     31  C   UNL     1       7.131  10.493   2.433  1.00  0.00     0.014 A 
ATOM     32  C   UNL     1       7.085   8.707   0.796  1.00  0.00     0.014 A 
ATOM     33  C   UNL     1       8.516  10.345   2.547  1.00  0.00     0.010 A 
ATOM     34  C   UNL     1       8.455   8.518   0.959  1.00  0.00     0.010 A 
ATOM     35  C   UNL     1       9.190   9.363   1.802  1.00  0.00    -0.014 A 
BRANCH  35  36
ATOM     36  C   UNL     1      10.671   9.261   1.839  1.00  0.00     0.031 A 
ATOM     37  C   UNL     1      11.474   9.586   0.605  1.00  0.00     0.074 A 
ATOM     38  C   UNL     1      11.290   8.841   2.958  1.00  0.00     0.049 A 
ATOM     39  N   UNL     1      12.771   9.575   0.438  1.00  0.00    -0.248 NA
ATOM     40  C   UNL     1      10.721   9.949  -0.608  1.00  0.00     0.031 C 
ATOM     41  C   UNL     1      10.618   8.426   4.191  1.00  0.00     0.029 A 
ATOM     42  N   UNL     1      12.624   8.677   3.235  1.00  0.00    -0.354 N 
ATOM     43  C   UNL     1      12.986   9.893  -0.899  1.00  0.00     0.074 A 
ATOM     44  C   UNL     1      11.686  10.056  -1.509  1.00  0.00     0.031 C 
ATOM     45  C   UNL     1      11.543   8.065   5.095  1.00  0.00     0.029 A 
ATOM     46  C   UNL     1      12.871   8.204   4.503  1.00  0.00     0.049 A 
ATOM     47  H   UNL     1      13.338   8.878   2.587  1.00  0.00     0.167 HD
ATOM     48  C   UNL     1      14.158  10.067  -1.553  1.00  0.00     0.034 A 
ATOM     49  C   UNL     1      14.036   7.919   5.117  1.00  0.00     0.034 A 
ATOM     50  C   UNL     1      15.447   9.952  -0.929  1.00  0.00     0.049 A 
ATOM     51  C   UNL     1      15.327   8.166   4.380  1.00  0.00     0.074 A 
ATOM     52  C   UNL     1      16.693  10.202  -1.475  1.00  0.00     0.029 A 
ATOM     53  N   UNL     1      15.657   9.546   0.380  1.00  0.00    -0.354 N 
ATOM     54  N   UNL     1      15.511   8.635   3.169  1.00  0.00    -0.248 NA
ATOM     55  C   UNL     1      16.572   7.884   5.109  1.00  0.00     0.031 C 
ATOM     56  C   UNL     1      17.659   9.920  -0.504  1.00  0.00     0.029 A 
ATOM     57  C   UNL     1      17.012   9.524   0.656  1.00  0.00     0.049 A 
ATOM     58  H   UNL     1      14.946   9.307   1.018  1.00  0.00     0.167 HD
ATOM     59  C   UNL     1      16.888   8.739   3.005  1.00  0.00     0.074 A 
ATOM     60  C   UNL     1      17.489   8.305   4.249  1.00  0.00     0.031 C 
ATOM     61  C   UNL     1      17.592   9.142   1.919  1.00  0.00     0.034 A 
BRANCH  48  62
ATOM     62  C   UNL     1      14.102  10.452  -3.009  1.00  0.00     0.023 A 
ATOM     63  C   UNL     1      13.670  11.745  -3.372  1.00  0.00     0.012 A 
ATOM     64  C   UNL     1      14.531   9.561  -4.013  1.00  0.00     0.148 A 
ATOM     65  C   UNL     1      13.633  12.133  -4.711  1.00  0.00     0.002 A 
ATOM     66  C   UNL     1      14.535   9.971  -5.341  1.00  0.00     0.091 A 
ATOM     67  F   UNL     1      14.918   8.330  -3.652  1.00  0.00    -0.205 F 
ATOM     68  C   UNL     1      14.075  11.251  -5.693  1.00  0.00     0.022 A 
BRANCH  66  69
ATOM     69  S   UNL     1      15.159   8.940  -6.673  1.00  0.00     0.127 S 
ATOM     70  O   UNL     1      13.930   8.610  -7.392  1.00  0.00    -0.237 OA
ATOM     71  O   UNL     1      16.050   9.860  -7.382  1.00  0.00    -0.237 OA
ATOM     72  O   UNL     1      15.830   7.817  -6.033  1.00  0.00    -0.744 OA
ENDBRANCH  66  69
ENDBRANCH  48  62
BRANCH  49  73
ATOM     73  C   UNL     1      14.040   7.444   6.530  1.00  0.00     0.023 A 
ATOM     74  C   UNL     1      14.529   8.293   7.543  1.00  0.00     0.012 A 
ATOM     75  C   UNL     1      13.547   6.172   6.880  1.00  0.00     0.148 A 
ATOM     76  C   UNL     1      14.560   7.871   8.872  1.00  0.00     0.002 A 
ATOM     77  C   UNL     1      13.531   5.779   8.213  1.00  0.00     0.091 A 
ATOM     78  F   UNL     1      13.098   5.374   5.901  1.00  0.00    -0.205 F 
ATOM     79  C   UNL     1      14.053   6.619   9.209  1.00  0.00     0.022 A 
BRANCH  77  80
ATOM     80  S   UNL     1      12.782   4.238   8.754  1.00  0.00     0.127 S 
ATOM     81  O   UNL     1      13.954   3.451   9.127  1.00  0.00    -0.237 OA
ATOM     82  O   UNL     1      11.955   4.681   9.877  1.00  0.00    -0.237 OA
ATOM     83  O   UNL     1      12.025   3.747   7.611  1.00  0.00    -0.744 OA
ENDBRANCH  77  80
ENDBRANCH  49  73
BRANCH  61  84
ATOM     84  C   UNL     1      19.094   9.172   2.029  1.00  0.00     0.023 A 
ATOM     85  C   UNL     1      19.820   7.966   2.051  1.00  0.00     0.012 A 
ATOM     86  C   UNL     1      19.788  10.399   2.028  1.00  0.00     0.148 A 
ATOM     87  C   UNL     1      21.213   7.978   2.105  1.00  0.00     0.002 A 
ATOM     88  C   UNL     1      21.177  10.403   2.029  1.00  0.00     0.091 A 
ATOM     89  F   UNL     1      19.078  11.536   2.023  1.00  0.00    -0.205 F 
ATOM     90  C   UNL     1      21.891   9.195   2.081  1.00  0.00     0.022 A 
BRANCH  88  91
ATOM     91  S   UNL     1      22.135  11.917   1.897  1.00  0.00     0.127 S 
ATOM     92  O   UNL     1      22.675  12.047   3.249  1.00  0.00    -0.237 OA
ATOM     93  O   UNL     1      23.124  11.571   0.876  1.00  0.00    -0.237 OA
ATOM     94  O   UNL     1      21.193  12.954   1.497  1.00  0.00    -0.744 OA
ENDBRANCH  88  91
ENDBRANCH  61  84
ENDBRANCH  35  36
ENDBRANCH  27  30
ENDBRANCH  25  26
ENDBRANCH  24  25
ENDBRANCH   1  24
TORSDOF 18
