REMARK SMILES O=C(Cc1ccc(F)cc1F)Nc1sccc1C(=O)NCCCCNC(=O)c1ccc(-c2c3nc(c(-c4cccc(S(=O)(=O)[O-])c4F)c4ccc([nH]4)c(-c4cccc(S(=O)(=O)[O-])c4F)c4nc(c(-c5cccc(S(=O)(=O)[O-])c5F)c5ccc2[nH]5)C=C4)C=C3)cc1
REMARK SMILES IDX 22 1 21 2 20 3 18 4 19 5 17 7 13 8 14 9 15 10 16 11 12 12
REMARK SMILES IDX 1 13 2 14 3 16 4 17 5 18 10 19 6 20 9 21 11 22 7 23 8 24
REMARK SMILES IDX 23 25 24 26 25 27 26 28 27 30 28 31 29 32 90 33 30 34 89 35
REMARK SMILES IDX 31 36 32 37 33 38 83 39 34 40 88 41 82 42 84 43 35 44 87 45
REMARK SMILES IDX 81 46 80 47 36 49 68 50 48 51 67 52 49 53 52 54 66 55 85 56
REMARK SMILES IDX 50 57 51 58 65 60 86 61 53 62 37 63 38 64 46 65 39 66 41 67
REMARK SMILES IDX 47 68 40 69 42 70 43 71 44 72 45 73 69 74 70 75 78 76 71 77
REMARK SMILES IDX 73 78 79 79 72 80 74 81 75 82 76 83 77 84 54 85 55 86 63 87
REMARK SMILES IDX 56 88 58 89 64 90 57 91 59 92 60 93 61 94 62 95
REMARK H PARENT 20 6 12 15 25 29 84 48 52 59
REMARK Flexibility Score: inf
ROOT
ATOM      1  C   UNL     1       3.488  -0.803   3.226  1.00  0.00     0.023 C 
ENDROOT
BRANCH   1   2
ATOM      2  C   UNL     1       2.671  -0.031   2.200  1.00  0.00     0.116 C 
BRANCH   2   3
ATOM      3  N   UNL     1       1.319   0.301   2.564  1.00  0.00    -0.352 N 
ATOM      4  C   UNL     1       0.512   1.315   2.091  1.00  0.00     0.254 C 
ATOM      5  O   UNL     1      -0.644   1.355   2.516  1.00  0.00    -0.269 OA
ATOM      6  H   UNL     1       0.911  -0.278   3.248  1.00  0.00     0.163 HD
BRANCH   4   7
ATOM      7  C   UNL     1       1.044   2.421   1.282  1.00  0.00     0.074 A 
ATOM      8  C   UNL     1       1.931   2.431   0.217  1.00  0.00     0.108 A 
ATOM      9  S   UNL     1       2.453   4.003  -0.208  1.00  0.00    -0.126 S 
ATOM     10  C   UNL     1       1.315   4.730   0.829  1.00  0.00     0.068 A 
ATOM     11  C   UNL     1       0.637   3.786   1.564  1.00  0.00     0.028 A 
BRANCH   8  12
ATOM     12  N   UNL     1       2.545   1.485  -0.575  1.00  0.00    -0.317 N 
ATOM     13  O   UNL     1       0.769   0.041  -0.805  1.00  0.00    -0.274 OA
ATOM     14  C   UNL     1       1.968   0.285  -0.921  1.00  0.00     0.229 C 
ATOM     15  H   UNL     1       3.449   1.679  -0.912  1.00  0.00     0.170 HD
BRANCH  14  16
ATOM     16  C   UNL     1       2.960  -0.817  -1.260  1.00  0.00     0.139 C 
BRANCH  16  17
ATOM     17  C   UNL     1       3.853  -0.784  -2.472  1.00  0.00    -0.003 A 
ATOM     18  C   UNL     1       4.370  -2.025  -2.902  1.00  0.00     0.010 A 
ATOM     19  C   UNL     1       4.355   0.370  -3.077  1.00  0.00     0.129 A 
ATOM     20  C   UNL     1       5.338  -2.096  -3.904  1.00  0.00     0.040 A 
ATOM     21  C   UNL     1       5.319   0.309  -4.080  1.00  0.00     0.078 A 
ATOM     22  F   UNL     1       3.968   1.583  -2.666  1.00  0.00    -0.207 F 
ATOM     23  C   UNL     1       5.804  -0.926  -4.483  1.00  0.00     0.126 A 
ATOM     24  F   UNL     1       6.755  -0.987  -5.424  1.00  0.00    -0.207 F 
ENDBRANCH  16  17
ENDBRANCH  14  16
ENDBRANCH   8  12
ENDBRANCH   4   7
ENDBRANCH   2   3
ENDBRANCH   1   2
BRANCH   1  25
ATOM     25  C   UNL     1       3.033  -2.231   3.527  1.00  0.00     0.023 C 
BRANCH  25  26
ATOM     26  C   UNL     1       2.743  -3.151   2.342  1.00  0.00     0.116 C 
BRANCH  26  27
ATOM     27  N   UNL     1       3.856  -3.335   1.419  1.00  0.00    -0.352 N 
ATOM     28  C   UNL     1       4.303  -4.487   0.807  1.00  0.00     0.251 C 
ATOM     29  H   UNL     1       4.362  -2.519   1.202  1.00  0.00     0.163 HD
ATOM     30  O   UNL     1       5.243  -4.425   0.017  1.00  0.00    -0.269 OA
BRANCH  28  31
ATOM     31  C   UNL     1       3.696  -5.800   1.135  1.00  0.00     0.039 A 
ATOM     32  C   UNL     1       4.539  -6.869   1.461  1.00  0.00     0.014 A 
ATOM     33  C   UNL     1       2.312  -5.976   1.161  1.00  0.00     0.014 A 
ATOM     34  C   UNL     1       3.993  -8.081   1.899  1.00  0.00     0.010 A 
ATOM     35  C   UNL     1       1.772  -7.156   1.671  1.00  0.00     0.010 A 
ATOM     36  C   UNL     1       2.604  -8.222   2.050  1.00  0.00    -0.014 A 
BRANCH  36  37
ATOM     37  C   UNL     1       2.002  -9.465   2.606  1.00  0.00     0.031 A 
ATOM     38  C   UNL     1       1.058 -10.290   1.770  1.00  0.00     0.074 A 
ATOM     39  C   UNL     1       2.220  -9.803   3.894  1.00  0.00     0.049 A 
ATOM     40  N   UNL     1       0.380 -11.359   2.100  1.00  0.00    -0.248 NA
ATOM     41  C   UNL     1       0.821  -9.836   0.389  1.00  0.00     0.031 C 
ATOM     42  C   UNL     1       3.039  -9.044   4.843  1.00  0.00     0.029 A 
ATOM     43  N   UNL     1       1.748 -10.857   4.638  1.00  0.00    -0.354 N 
ATOM     44  C   UNL     1      -0.395 -11.676   0.991  1.00  0.00     0.074 A 
ATOM     45  C   UNL     1      -0.128 -10.669  -0.012  1.00  0.00     0.031 C 
ATOM     46  C   UNL     1       3.014  -9.658   6.037  1.00  0.00     0.029 A 
ATOM     47  C   UNL     1       2.164 -10.842   5.950  1.00  0.00     0.049 A 
ATOM     48  H   UNL     1       1.165 -11.559   4.266  1.00  0.00     0.167 HD
ATOM     49  C   UNL     1      -1.228 -12.728   0.807  1.00  0.00     0.034 A 
ATOM     50  C   UNL     1       1.896 -11.687   6.966  1.00  0.00     0.034 A 
ATOM     51  C   UNL     1      -1.444 -13.767   1.777  1.00  0.00     0.049 A 
ATOM     52  C   UNL     1       1.036 -12.896   6.708  1.00  0.00     0.074 A 
ATOM     53  C   UNL     1      -2.199 -14.920   1.651  1.00  0.00     0.029 A 
ATOM     54  N   UNL     1      -0.898 -13.784   3.050  1.00  0.00    -0.354 N 
ATOM     55  N   UNL     1       0.444 -13.266   5.598  1.00  0.00    -0.248 NA
ATOM     56  C   UNL     1       0.843 -13.830   7.828  1.00  0.00     0.031 C 
ATOM     57  C   UNL     1      -2.110 -15.634   2.850  1.00  0.00     0.029 A 
ATOM     58  C   UNL     1      -1.291 -14.931   3.718  1.00  0.00     0.049 A 
ATOM     59  H   UNL     1      -0.317 -13.083   3.425  1.00  0.00     0.167 HD
ATOM     60  C   UNL     1      -0.151 -14.492   5.872  1.00  0.00     0.074 A 
ATOM     61  C   UNL     1       0.165 -14.812   7.249  1.00  0.00     0.031 C 
ATOM     62  C   UNL     1      -0.905 -15.275   5.062  1.00  0.00     0.034 A 
BRANCH  49  63
ATOM     63  C   UNL     1      -1.914 -12.848  -0.529  1.00  0.00     0.023 A 
ATOM     64  C   UNL     1      -1.159 -13.220  -1.661  1.00  0.00     0.012 A 
ATOM     65  C   UNL     1      -3.302 -12.648  -0.660  1.00  0.00     0.148 A 
ATOM     66  C   UNL     1      -1.765 -13.355  -2.908  1.00  0.00     0.002 A 
ATOM     67  C   UNL     1      -3.907 -12.826  -1.900  1.00  0.00     0.091 A 
ATOM     68  F   UNL     1      -4.000 -12.275   0.421  1.00  0.00    -0.205 F 
ATOM     69  C   UNL     1      -3.139 -13.167  -3.025  1.00  0.00     0.022 A 
BRANCH  67  70
ATOM     70  S   UNL     1      -5.682 -12.684  -2.139  1.00  0.00     0.127 S 
ATOM     71  O   UNL     1      -5.783 -11.412  -2.851  1.00  0.00    -0.237 OA
ATOM     72  O   UNL     1      -5.980 -13.864  -2.953  1.00  0.00    -0.237 OA
ATOM     73  O   UNL     1      -6.268 -12.707  -0.805  1.00  0.00    -0.744 OA
ENDBRANCH  67  70
ENDBRANCH  49  63
BRANCH  50  74
ATOM     74  C   UNL     1       2.528 -11.476   8.300  1.00  0.00     0.023 A 
ATOM     75  C   UNL     1       3.545 -12.355   8.723  1.00  0.00     0.012 A 
ATOM     76  C   UNL     1       2.152 -10.410   9.139  1.00  0.00     0.148 A 
ATOM     77  C   UNL     1       4.151 -12.198   9.970  1.00  0.00     0.002 A 
ATOM     78  C   UNL     1       2.796 -10.228  10.359  1.00  0.00     0.091 A 
ATOM     79  F   UNL     1       1.173  -9.591   8.728  1.00  0.00    -0.205 F 
ATOM     80  C   UNL     1       3.783 -11.130  10.784  1.00  0.00     0.022 A 
BRANCH  78  81
ATOM     81  S   UNL     1       2.476  -8.805  11.409  1.00  0.00     0.127 S 
ATOM     82  O   UNL     1       1.667  -9.393  12.472  1.00  0.00    -0.237 OA
ATOM     83  O   UNL     1       3.827  -8.410  11.809  1.00  0.00    -0.237 OA
ATOM     84  O   UNL     1       1.802  -7.837  10.553  1.00  0.00    -0.744 OA
ENDBRANCH  78  81
ENDBRANCH  50  74
BRANCH  62  85
ATOM     85  C   UNL     1      -1.405 -16.583   5.614  1.00  0.00     0.023 A 
ATOM     86  C   UNL     1      -2.461 -16.592   6.545  1.00  0.00     0.012 A 
ATOM     87  C   UNL     1      -0.885 -17.806   5.145  1.00  0.00     0.148 A 
ATOM     88  C   UNL     1      -2.974 -17.798   7.022  1.00  0.00     0.002 A 
ATOM     89  C   UNL     1      -1.431 -19.004   5.591  1.00  0.00     0.091 A 
ATOM     90  F   UNL     1       0.137 -17.777   4.276  1.00  0.00    -0.205 F 
ATOM     91  C   UNL     1      -2.469 -19.002   6.537  1.00  0.00     0.022 A 
BRANCH  89  92
ATOM     92  S   UNL     1      -0.899 -20.593   4.943  1.00  0.00     0.127 S 
ATOM     93  O   UNL     1      -0.021 -21.072   6.008  1.00  0.00    -0.237 OA
ATOM     94  O   UNL     1      -2.163 -21.322   4.820  1.00  0.00    -0.237 OA
ATOM     95  O   UNL     1      -0.249 -20.303   3.671  1.00  0.00    -0.744 OA
ENDBRANCH  89  92
ENDBRANCH  62  85
ENDBRANCH  36  37
ENDBRANCH  28  31
ENDBRANCH  26  27
ENDBRANCH  25  26
ENDBRANCH   1  25
TORSDOF 17
