REMARK SMILES CC(=O)Nc1cccc(-c2cc(F)ccc2C(=O)NCCCCNC(=O)c2ccc(-c3c4nc(c(-c5cccc(S(=O)(=O)[O-])c5F)c5ccc([nH]5)c(-c5cccc(S(=O)(=O)[O-])c5F)c5nc(c(-c6cccc(S(=O)(=O)[O-])c6F)c6ccc3[nH]6)C=C5)C=C4)cc2)c1
REMARK SMILES IDX 22 1 21 2 20 3 19 4 17 5 18 6 16 8 10 9 11 10 12 11 15 12
REMARK SMILES IDX 13 13 14 14 9 15 5 16 6 17 90 18 7 19 8 20 4 21 1 22 2 23
REMARK SMILES IDX 3 24 23 26 24 27 25 28 26 30 27 31 28 32 89 33 29 34 88 35
REMARK SMILES IDX 30 36 31 37 32 38 82 39 33 40 87 41 81 42 83 43 34 44 86 45
REMARK SMILES IDX 80 46 79 47 35 49 67 50 47 51 66 52 48 53 51 54 65 55 84 56
REMARK SMILES IDX 49 57 50 58 64 60 85 61 52 62 36 63 37 64 45 65 38 66 40 67
REMARK SMILES IDX 46 68 39 69 41 70 42 71 43 72 44 73 68 74 69 75 77 76 70 77
REMARK SMILES IDX 72 78 78 79 71 80 73 81 74 82 75 83 76 84 53 85 54 86 62 87
REMARK SMILES IDX 55 88 57 89 63 90 56 91 58 92 59 93 60 94 61 95
REMARK H PARENT 19 7 4 25 24 29 83 48 51 59
REMARK Flexibility Score: inf
ROOT
ATOM      1  C   UNL     1       2.594  -1.374   5.765  1.00  0.00     0.023 C 
ENDROOT
BRANCH   1   2
ATOM      2  C   UNL     1       3.484  -2.336   4.977  1.00  0.00     0.023 C 
BRANCH   2   3
ATOM      3  C   UNL     1       3.693  -2.069   3.494  1.00  0.00     0.116 C 
BRANCH   3   4
ATOM      4  N   UNL     1       4.550  -0.971   3.132  1.00  0.00    -0.352 N 
ATOM      5  C   UNL     1       5.312  -0.757   2.007  1.00  0.00     0.251 C 
ATOM      6  O   UNL     1       5.818   0.366   1.901  1.00  0.00    -0.269 OA
ATOM      7  H   UNL     1       4.599  -0.252   3.803  1.00  0.00     0.163 HD
BRANCH   5   8
ATOM      8  C   UNL     1       5.667  -1.768   0.944  1.00  0.00     0.047 A 
ATOM      9  C   UNL     1       4.856  -2.740   0.301  1.00  0.00    -0.003 A 
ATOM     10  C   UNL     1       5.434  -3.509  -0.746  1.00  0.00     0.048 A 
ATOM     11  C   UNL     1       6.750  -3.332  -1.151  1.00  0.00     0.123 A 
ATOM     12  C   UNL     1       7.008  -1.617   0.493  1.00  0.00     0.017 A 
ATOM     13  F   UNL     1       7.243  -4.081  -2.146  1.00  0.00    -0.207 F 
ATOM     14  C   UNL     1       7.547  -2.389  -0.539  1.00  0.00     0.040 A 
BRANCH   9  15
ATOM     15  C   UNL     1       3.450  -3.054   0.606  1.00  0.00    -0.015 A 
ATOM     16  C   UNL     1       1.132  -2.386   0.952  1.00  0.00     0.041 A 
ATOM     17  C   UNL     1       0.844  -3.674   1.424  1.00  0.00     0.026 A 
ATOM     18  C   UNL     1       2.430  -2.093   0.513  1.00  0.00     0.034 A 
ATOM     19  C   UNL     1       1.825  -4.660   1.459  1.00  0.00     0.003 A 
ATOM     20  C   UNL     1       3.117  -4.352   1.049  1.00  0.00     0.009 A 
BRANCH  16  21
ATOM     21  N   UNL     1       0.120  -1.428   1.119  1.00  0.00    -0.326 N 
ATOM     22  C   UNL     1       0.748   0.321  -0.537  1.00  0.00     0.114 C 
ATOM     23  C   UNL     1      -0.024  -0.152   0.662  1.00  0.00     0.221 C 
ATOM     24  O   UNL     1      -0.836   0.590   1.219  1.00  0.00    -0.275 OA
ATOM     25  H   UNL     1      -0.633  -1.738   1.673  1.00  0.00     0.169 HD
ENDBRANCH  16  21
ENDBRANCH   9  15
ENDBRANCH   5   8
ENDBRANCH   3   4
ENDBRANCH   2   3
ENDBRANCH   1   2
BRANCH   1  26
ATOM     26  C   UNL     1       1.262  -0.925   5.160  1.00  0.00     0.116 C 
BRANCH  26  27
ATOM     27  N   UNL     1       0.422  -1.979   4.611  1.00  0.00    -0.352 N 
ATOM     28  C   UNL     1      -0.955  -2.053   4.555  1.00  0.00     0.251 C 
ATOM     29  H   UNL     1       0.903  -2.747   4.226  1.00  0.00     0.163 HD
ATOM     30  O   UNL     1      -1.483  -2.960   3.910  1.00  0.00    -0.269 OA
BRANCH  28  31
ATOM     31  C   UNL     1      -1.794  -1.090   5.305  1.00  0.00     0.039 A 
ATOM     32  C   UNL     1      -2.785  -1.590   6.157  1.00  0.00     0.014 A 
ATOM     33  C   UNL     1      -1.575   0.286   5.229  1.00  0.00     0.014 A 
ATOM     34  C   UNL     1      -3.466  -0.723   7.018  1.00  0.00     0.010 A 
ATOM     35  C   UNL     1      -2.196   1.138   6.143  1.00  0.00     0.010 A 
ATOM     36  C   UNL     1      -3.129   0.641   7.067  1.00  0.00    -0.014 A 
BRANCH  36  37
ATOM     37  C   UNL     1      -3.683   1.528   8.129  1.00  0.00     0.031 A 
ATOM     38  C   UNL     1      -4.528   2.724   7.782  1.00  0.00     0.074 A 
ATOM     39  C   UNL     1      -3.350   1.295   9.417  1.00  0.00     0.049 A 
ATOM     40  N   UNL     1      -5.088   3.596   8.583  1.00  0.00    -0.248 NA
ATOM     41  C   UNL     1      -4.756   2.994   6.354  1.00  0.00     0.031 C 
ATOM     42  C   UNL     1      -2.450   0.234   9.881  1.00  0.00     0.029 A 
ATOM     43  N   UNL     1      -3.714   1.942  10.573  1.00  0.00    -0.354 N 
ATOM     44  C   UNL     1      -5.714   4.525   7.761  1.00  0.00     0.074 A 
ATOM     45  C   UNL     1      -5.430   4.135   6.396  1.00  0.00     0.031 C 
ATOM     46  C   UNL     1      -2.350   0.291  11.219  1.00  0.00     0.029 A 
ATOM     47  C   UNL     1      -3.161   1.398  11.711  1.00  0.00     0.049 A 
ATOM     48  H   UNL     1      -4.314   2.722  10.587  1.00  0.00     0.167 HD
ATOM     49  C   UNL     1      -6.488   5.583   8.105  1.00  0.00     0.034 A 
ATOM     50  C   UNL     1      -3.302   1.742  13.007  1.00  0.00     0.034 A 
ATOM     51  C   UNL     1      -6.802   5.948   9.461  1.00  0.00     0.049 A 
ATOM     52  C   UNL     1      -4.227   2.876  13.361  1.00  0.00     0.074 A 
ATOM     53  C   UNL     1      -7.623   6.967   9.913  1.00  0.00     0.029 A 
ATOM     54  N   UNL     1      -6.315   5.302  10.587  1.00  0.00    -0.354 N 
ATOM     55  N   UNL     1      -4.944   3.635  12.569  1.00  0.00    -0.248 NA
ATOM     56  C   UNL     1      -4.401   3.168  14.792  1.00  0.00     0.031 C 
ATOM     57  C   UNL     1      -7.633   6.936  11.312  1.00  0.00     0.029 A 
ATOM     58  C   UNL     1      -6.825   5.892  11.731  1.00  0.00     0.049 A 
ATOM     59  H   UNL     1      -5.696   4.537  10.575  1.00  0.00     0.167 HD
ATOM     60  C   UNL     1      -5.678   4.470  13.403  1.00  0.00     0.074 A 
ATOM     61  C   UNL     1      -5.344   4.099  14.763  1.00  0.00     0.031 C 
ATOM     62  C   UNL     1      -6.533   5.470  13.076  1.00  0.00     0.034 A 
BRANCH  49  63
ATOM     63  C   UNL     1      -7.126   6.373   6.991  1.00  0.00     0.023 A 
ATOM     64  C   UNL     1      -8.192   5.796   6.269  1.00  0.00     0.012 A 
ATOM     65  C   UNL     1      -6.731   7.694   6.699  1.00  0.00     0.148 A 
ATOM     66  C   UNL     1      -8.834   6.505   5.256  1.00  0.00     0.002 A 
ATOM     67  C   UNL     1      -7.403   8.410   5.713  1.00  0.00     0.091 A 
ATOM     68  F   UNL     1      -5.708   8.222   7.386  1.00  0.00    -0.205 F 
ATOM     69  C   UNL     1      -8.446   7.814   4.984  1.00  0.00     0.022 A 
BRANCH  67  70
ATOM     70  S   UNL     1      -7.035  10.127   5.331  1.00  0.00     0.127 S 
ATOM     71  O   UNL     1      -6.471  10.016   3.986  1.00  0.00    -0.237 OA
ATOM     72  O   UNL     1      -8.360  10.744   5.387  1.00  0.00    -0.237 OA
ATOM     73  O   UNL     1      -6.107  10.579   6.358  1.00  0.00    -0.744 OA
ENDBRANCH  67  70
ENDBRANCH  49  63
BRANCH  50  74
ATOM     74  C   UNL     1      -2.637   0.943  14.077  1.00  0.00     0.023 A 
ATOM     75  C   UNL     1      -3.427   0.147  14.930  1.00  0.00     0.012 A 
ATOM     76  C   UNL     1      -1.241   0.959  14.258  1.00  0.00     0.148 A 
ATOM     77  C   UNL     1      -2.846  -0.583  15.969  1.00  0.00     0.002 A 
ATOM     78  C   UNL     1      -0.663   0.185  15.260  1.00  0.00     0.091 A 
ATOM     79  F   UNL     1      -0.501   1.734  13.451  1.00  0.00    -0.205 F 
ATOM     80  C   UNL     1      -1.464  -0.571  16.128  1.00  0.00     0.022 A 
BRANCH  78  81
ATOM     81  S   UNL     1       1.120   0.045  15.435  1.00  0.00     0.127 S 
ATOM     82  O   UNL     1       1.396   1.007  16.498  1.00  0.00    -0.237 OA
ATOM     83  O   UNL     1       1.288  -1.358  15.815  1.00  0.00    -0.237 OA
ATOM     84  O   UNL     1       1.656   0.369  14.118  1.00  0.00    -0.744 OA
ENDBRANCH  78  81
ENDBRANCH  50  74
BRANCH  62  85
ATOM     85  C   UNL     1      -7.190   6.215  14.208  1.00  0.00     0.023 A 
ATOM     86  C   UNL     1      -6.428   7.107  14.989  1.00  0.00     0.012 A 
ATOM     87  C   UNL     1      -8.565   6.065  14.473  1.00  0.00     0.148 A 
ATOM     88  C   UNL     1      -7.015   7.807  16.042  1.00  0.00     0.002 A 
ATOM     89  C   UNL     1      -9.153   6.801  15.496  1.00  0.00     0.091 A 
ATOM     90  F   UNL     1      -9.271   5.195  13.737  1.00  0.00    -0.205 F 
ATOM     91  C   UNL     1      -8.378   7.662  16.289  1.00  0.00     0.022 A 
BRANCH  89  92
ATOM     92  S   UNL     1     -10.919   6.735  15.816  1.00  0.00     0.127 S 
ATOM     93  O   UNL     1     -10.987   5.792  16.930  1.00  0.00    -0.237 OA
ATOM     94  O   UNL     1     -11.229   8.121  16.173  1.00  0.00    -0.237 OA
ATOM     95  O   UNL     1     -11.526   6.290  14.569  1.00  0.00    -0.744 OA
ENDBRANCH  89  92
ENDBRANCH  62  85
ENDBRANCH  36  37
ENDBRANCH  28  31
ENDBRANCH  26  27
ENDBRANCH   1  26
TORSDOF 16
