REMARK SMILES O=C(NCCCCNC(=O)[C@@H]1[C@H](C(=O)Nc2ccc(Cn3cncn3)cc2)[C@@H]2C=C[C@H]1CC2)c1ccc(-c2c3nc(c(-c4cccc(S(=O)(=O)[O-])c4F)c4ccc([nH]4)c(-c4cccc(S(=O)(=O)[O-])c4F)c4nc(c(-c5cccc(S(=O)(=O)[O-])c5F)c5ccc2[nH]5)C=C4)C=C3)cc1
REMARK SMILES IDX 6 1 5 2 4 3 3 4 1 5 2 6 34 8 35 9 96 10 36 11 95 12 37 13
REMARK SMILES IDX 38 14 39 15 89 16 40 17 94 18 88 19 90 20 41 21 93 22 87 23
REMARK SMILES IDX 86 24 42 26 74 27 54 28 73 29 55 30 58 31 72 32 91 33 56 34
REMARK SMILES IDX 57 35 71 37 92 38 59 39 43 40 44 41 52 42 45 43 47 44 53 45
REMARK SMILES IDX 46 46 48 47 49 48 50 49 51 50 75 51 76 52 84 53 77 54 79 55
REMARK SMILES IDX 85 56 78 57 80 58 81 59 82 60 83 61 60 62 61 63 69 64 62 65
REMARK SMILES IDX 64 66 70 67 63 68 65 69 66 70 67 71 68 72 7 73 8 74 9 75
REMARK SMILES IDX 10 77 11 78 12 79 31 80 28 81 30 82 32 83 29 84 33 85 13 86
REMARK SMILES IDX 14 87 15 88 16 90 17 91 27 92 18 93 26 94 19 95 20 96 21 97
REMARK SMILES IDX 22 98 25 99 23 100 24 101
REMARK H PARENT 3 7 90 25 58 36 8 76 15 89
REMARK Flexibility Score: inf
ROOT
ATOM      1  C   UNL     1       4.599   0.571  -3.607  1.00  0.00     0.023 C 
ENDROOT
BRANCH   1   2
ATOM      2  C   UNL     1       5.009  -0.161  -2.315  1.00  0.00     0.023 C 
BRANCH   2   3
ATOM      3  C   UNL     1       4.572   0.487  -0.985  1.00  0.00     0.116 C 
BRANCH   3   4
ATOM      4  N   UNL     1       3.151   0.746  -0.883  1.00  0.00    -0.352 N 
ATOM      5  O   UNL     1       0.989   0.596  -0.446  1.00  0.00    -0.269 OA
ATOM      6  C   UNL     1       2.077   0.015  -0.459  1.00  0.00     0.251 C 
ATOM      7  H   UNL     1       2.904   1.649  -1.187  1.00  0.00     0.163 HD
BRANCH   6   8
ATOM      8  C   UNL     1       2.115  -1.423  -0.123  1.00  0.00     0.039 A 
ATOM      9  C   UNL     1       3.230  -2.244  -0.277  1.00  0.00     0.014 A 
ATOM     10  C   UNL     1       0.878  -1.998   0.221  1.00  0.00     0.014 A 
ATOM     11  C   UNL     1       3.076  -3.614  -0.317  1.00  0.00     0.010 A 
ATOM     12  C   UNL     1       0.722  -3.370   0.216  1.00  0.00     0.010 A 
ATOM     13  C   UNL     1       1.808  -4.159  -0.140  1.00  0.00    -0.014 A 
BRANCH  13  14
ATOM     14  C   UNL     1       1.699  -5.603  -0.200  1.00  0.00     0.031 A 
ATOM     15  C   UNL     1       2.430  -6.278   0.904  1.00  0.00     0.074 A 
ATOM     16  C   UNL     1       0.938  -6.218  -1.124  1.00  0.00     0.049 A 
ATOM     17  N   UNL     1       3.438  -7.083   0.819  1.00  0.00    -0.248 NA
ATOM     18  C   UNL     1       2.129  -5.842   2.278  1.00  0.00     0.031 C 
ATOM     19  C   UNL     1       0.000  -5.598  -2.066  1.00  0.00     0.029 A 
ATOM     20  N   UNL     1       0.724  -7.549  -1.312  1.00  0.00    -0.354 N 
ATOM     21  C   UNL     1       3.728  -7.448   2.134  1.00  0.00     0.074 A 
ATOM     22  C   UNL     1       3.058  -6.496   2.973  1.00  0.00     0.031 C 
ATOM     23  C   UNL     1      -0.866  -6.538  -2.507  1.00  0.00     0.029 A 
ATOM     24  C   UNL     1      -0.464  -7.830  -1.982  1.00  0.00     0.049 A 
ATOM     25  H   UNL     1       1.349  -8.245  -1.005  1.00  0.00     0.167 HD
ATOM     26  C   UNL     1       4.246  -8.674   2.419  1.00  0.00     0.034 A 
ATOM     27  C   UNL     1      -1.118  -9.020  -1.998  1.00  0.00     0.034 A 
ATOM     28  C   UNL     1       4.867  -9.254   1.253  1.00  0.00     0.049 A 
ATOM     29  C   UNL     1      -0.150 -10.063  -1.590  1.00  0.00     0.074 A 
ATOM     30  C   UNL     1       5.899  -8.894   0.410  1.00  0.00     0.029 A 
ATOM     31  N   UNL     1       4.151 -10.217   0.586  1.00  0.00    -0.354 N 
ATOM     32  N   UNL     1       0.888 -10.397  -2.303  1.00  0.00    -0.248 NA
ATOM     33  C   UNL     1      -0.082 -10.408  -0.179  1.00  0.00     0.031 C 
ATOM     34  C   UNL     1       5.477  -9.313  -0.886  1.00  0.00     0.029 A 
ATOM     35  C   UNL     1       4.249  -9.963  -0.753  1.00  0.00     0.049 A 
ATOM     36  H   UNL     1       3.654 -10.960   0.999  1.00  0.00     0.167 HD
ATOM     37  C   UNL     1       1.906 -10.550  -1.371  1.00  0.00     0.074 A 
ATOM     38  C   UNL     1       1.228 -10.650  -0.079  1.00  0.00     0.031 C 
ATOM     39  C   UNL     1       3.204 -10.279  -1.700  1.00  0.00     0.034 A 
BRANCH  26  40
ATOM     40  C   UNL     1       3.793  -9.543   3.584  1.00  0.00     0.023 A 
ATOM     41  C   UNL     1       4.395 -10.819   3.689  1.00  0.00     0.012 A 
ATOM     42  C   UNL     1       2.629  -9.328   4.360  1.00  0.00     0.148 A 
ATOM     43  C   UNL     1       3.802 -11.857   4.416  1.00  0.00     0.002 A 
ATOM     44  C   UNL     1       2.073 -10.347   5.127  1.00  0.00     0.091 A 
ATOM     45  F   UNL     1       1.970  -8.173   4.295  1.00  0.00    -0.205 F 
ATOM     46  C   UNL     1       2.633 -11.624   5.126  1.00  0.00     0.022 A 
BRANCH  44  47
ATOM     47  S   UNL     1       0.574 -10.091   6.088  1.00  0.00     0.127 S 
ATOM     48  O   UNL     1      -0.396 -10.870   5.319  1.00  0.00    -0.237 OA
ATOM     49  O   UNL     1       0.950 -10.671   7.379  1.00  0.00    -0.237 OA
ATOM     50  O   UNL     1       0.357  -8.654   6.119  1.00  0.00    -0.744 OA
ENDBRANCH  44  47
ENDBRANCH  26  40
BRANCH  27  51
ATOM     51  C   UNL     1      -2.578  -9.284  -2.021  1.00  0.00     0.023 A 
ATOM     52  C   UNL     1      -3.054 -10.553  -2.406  1.00  0.00     0.012 A 
ATOM     53  C   UNL     1      -3.485  -8.395  -1.400  1.00  0.00     0.148 A 
ATOM     54  C   UNL     1      -4.380 -10.933  -2.158  1.00  0.00     0.002 A 
ATOM     55  C   UNL     1      -4.803  -8.772  -1.166  1.00  0.00     0.091 A 
ATOM     56  F   UNL     1      -3.030  -7.217  -0.954  1.00  0.00    -0.205 F 
ATOM     57  C   UNL     1      -5.253 -10.046  -1.533  1.00  0.00     0.022 A 
BRANCH  55  58
ATOM     58  S   UNL     1      -5.979  -7.690  -0.342  1.00  0.00     0.127 S 
ATOM     59  O   UNL     1      -7.121  -7.735  -1.254  1.00  0.00    -0.237 OA
ATOM     60  O   UNL     1      -6.182  -8.373   0.930  1.00  0.00    -0.237 OA
ATOM     61  O   UNL     1      -5.330  -6.384  -0.262  1.00  0.00    -0.744 OA
ENDBRANCH  55  58
ENDBRANCH  27  51
BRANCH  39  62
ATOM     62  C   UNL     1       3.535 -10.060  -3.153  1.00  0.00     0.023 A 
ATOM     63  C   UNL     1       3.029  -8.973  -3.896  1.00  0.00     0.012 A 
ATOM     64  C   UNL     1       4.522 -10.876  -3.728  1.00  0.00     0.148 A 
ATOM     65  C   UNL     1       3.485  -8.719  -5.193  1.00  0.00     0.002 A 
ATOM     66  C   UNL     1       5.007 -10.593  -4.997  1.00  0.00     0.091 A 
ATOM     67  F   UNL     1       4.994 -11.902  -3.004  1.00  0.00    -0.205 F 
ATOM     68  C   UNL     1       4.485  -9.522  -5.738  1.00  0.00     0.022 A 
BRANCH  66  69
ATOM     69  S   UNL     1       6.381 -11.509  -5.695  1.00  0.00     0.127 S 
ATOM     70  O   UNL     1       5.717 -12.338  -6.699  1.00  0.00    -0.237 OA
ATOM     71  O   UNL     1       7.224 -10.444  -6.240  1.00  0.00    -0.237 OA
ATOM     72  O   UNL     1       6.987 -12.234  -4.584  1.00  0.00    -0.744 OA
ENDBRANCH  66  69
ENDBRANCH  39  62
ENDBRANCH  13  14
ENDBRANCH   6   8
ENDBRANCH   3   4
ENDBRANCH   2   3
ENDBRANCH   1   2
BRANCH   1  73
ATOM     73  C   UNL     1       5.074   2.014  -3.671  1.00  0.00     0.116 C 
BRANCH  73  74
ATOM     74  N   UNL     1       6.323   2.242  -4.366  1.00  0.00    -0.356 N 
ATOM     75  C   UNL     1       6.940   3.413  -4.682  1.00  0.00     0.224 C 
ATOM     76  H   UNL     1       6.796   1.428  -4.654  1.00  0.00     0.163 HD
ATOM     77  O   UNL     1       8.175   3.361  -4.756  1.00  0.00    -0.275 OA
BRANCH  75  78
ATOM     78  C   UNL     1       6.242   4.726  -5.067  1.00  0.00     0.098 C 
ATOM     79  C   UNL     1       6.934   6.040  -4.560  1.00  0.00     0.098 C 
ATOM     80  C   UNL     1       4.703   4.960  -5.183  1.00  0.00     0.025 C 
ATOM     81  C   UNL     1       5.892   7.201  -4.550  1.00  0.00     0.025 C 
ATOM     82  C   UNL     1       4.137   5.670  -3.969  1.00  0.00    -0.027 C 
ATOM     83  C   UNL     1       4.485   6.010  -6.313  1.00  0.00     0.009 C 
ATOM     84  C   UNL     1       4.739   6.830  -3.653  1.00  0.00    -0.027 C 
ATOM     85  C   UNL     1       5.262   7.311  -5.970  1.00  0.00     0.009 C 
BRANCH  79  86
ATOM     86  C   UNL     1       7.960   6.124  -3.389  1.00  0.00     0.228 C 
ATOM     87  O   UNL     1       9.139   6.397  -3.674  1.00  0.00    -0.274 OA
ATOM     88  N   UNL     1       7.680   6.153  -2.049  1.00  0.00    -0.326 N 
ATOM     89  H   UNL     1       8.402   6.545  -1.506  1.00  0.00     0.169 HD
BRANCH  88  90
ATOM     90  C   UNL     1       6.579   5.739  -1.295  1.00  0.00     0.041 A 
ATOM     91  C   UNL     1       6.217   6.388  -0.118  1.00  0.00     0.026 A 
ATOM     92  C   UNL     1       5.840   4.648  -1.678  1.00  0.00     0.026 A 
ATOM     93  C   UNL     1       4.998   6.076   0.514  1.00  0.00     0.008 A 
ATOM     94  C   UNL     1       4.627   4.333  -1.072  1.00  0.00     0.008 A 
ATOM     95  C   UNL     1       4.157   5.086  -0.007  1.00  0.00    -0.026 A 
BRANCH  95  96
ATOM     96  C   UNL     1       2.771   4.811   0.516  1.00  0.00     0.181 C 
BRANCH  96  97
ATOM     97  N   UNL     1       2.764   3.812   1.561  1.00  0.00    -0.249 N 
ATOM     98  C   UNL     1       3.368   3.850   2.776  1.00  0.00     0.220 A 
ATOM     99  N   UNL     1       2.036   2.697   1.426  1.00  0.00    -0.160 NA
ATOM    100  N   UNL     1       3.080   2.758   3.446  1.00  0.00    -0.224 NA
ATOM    101  C   UNL     1       2.267   2.076   2.584  1.00  0.00     0.246 A 
ENDBRANCH  96  97
ENDBRANCH  95  96
ENDBRANCH  88  90
ENDBRANCH  79  86
ENDBRANCH  75  78
ENDBRANCH  73  74
ENDBRANCH   1  73
TORSDOF 18
