REMARK SMILES C[C@@H]([C@H](C)O)[C@@H](Cc1ccccc1)C(=O)NCCCCNC(=O)c1ccc(-c2c3nc(c(-c4cccc(S(=O)(=O)[O-])c4F)c4ccc([nH]4)c(-c4cccc(S(=O)(=O)[O-])c4F)c4nc(c(-c5cccc(S(=O)(=O)[O-])c5F)c5ccc2[nH]5)C=C4)C=C3)cc1
REMARK SMILES IDX 18 1 17 2 16 3 14 4 15 5 6 7 2 8 1 9 3 10 4 11 5 12 7 14
REMARK SMILES IDX 8 15 9 16 13 17 10 18 12 19 11 20 19 21 20 22 21 23 22 24
REMARK SMILES IDX 23 26 24 27 25 28 86 29 26 30 85 31 27 32 28 33 29 34 79 35
REMARK SMILES IDX 30 36 84 37 78 38 80 39 31 40 83 41 77 42 76 43 32 45 64 46
REMARK SMILES IDX 44 47 63 48 45 49 48 50 62 51 81 52 46 53 47 54 61 56 82 57
REMARK SMILES IDX 49 58 33 59 34 60 42 61 35 62 37 63 43 64 36 65 38 66 39 67
REMARK SMILES IDX 40 68 41 69 65 70 66 71 74 72 67 73 69 74 75 75 68 76 70 77
REMARK SMILES IDX 71 78 72 79 73 80 50 81 51 82 59 83 52 84 54 85 60 86 53 87
REMARK SMILES IDX 55 88 56 89 57 90 58 91
REMARK H PARENT 16 6 5 13 21 25 80 44 48 55
REMARK Flexibility Score: inf
ROOT
ATOM      1  C   UNL     1       3.315   1.551   5.045  1.00  0.00     0.023 C 
ENDROOT
BRANCH   1   2
ATOM      2  C   UNL     1       2.348   2.295   4.138  1.00  0.00     0.116 C 
BRANCH   2   3
ATOM      3  N   UNL     1       2.616   2.153   2.723  1.00  0.00    -0.356 N 
ATOM      4  C   UNL     1       1.751   1.975   1.687  1.00  0.00     0.223 C 
ATOM      5  O   UNL     1       2.199   2.112   0.544  1.00  0.00    -0.275 OA
ATOM      6  H   UNL     1       3.567   2.190   2.471  1.00  0.00     0.163 HD
BRANCH   4   7
ATOM      7  C   UNL     1       0.278   1.577   1.871  1.00  0.00     0.088 C 
BRANCH   7   8
ATOM      8  C   UNL     1       0.070   0.260   2.676  1.00  0.00     0.027 C 
ATOM      9  C   UNL     1      -1.406  -0.169   2.737  1.00  0.00     0.011 C 
BRANCH   8  10
ATOM     10  C   UNL     1       0.971  -0.898   2.147  1.00  0.00     0.115 C 
ATOM     11  C   UNL     1       0.751  -1.290   0.686  1.00  0.00     0.038 C 
BRANCH  10  12
ATOM     12  O   UNL     1       0.781  -2.056   2.967  1.00  0.00    -0.393 OA
ATOM     13  H   UNL     1      -0.137  -2.360   2.888  1.00  0.00     0.210 HD
ENDBRANCH  10  12
ENDBRANCH   8  10
ENDBRANCH   7   8
BRANCH   7  14
ATOM     14  C   UNL     1      -0.642   2.792   2.156  1.00  0.00     0.049 C 
BRANCH  14  15
ATOM     15  C   UNL     1      -0.473   3.574   3.435  1.00  0.00    -0.047 A 
ATOM     16  C   UNL     1       0.203   4.806   3.417  1.00  0.00     0.004 A 
ATOM     17  C   UNL     1      -0.958   3.095   4.660  1.00  0.00     0.004 A 
ATOM     18  C   UNL     1       0.442   5.506   4.602  1.00  0.00     0.000 A 
ATOM     19  C   UNL     1      -0.705   3.790   5.846  1.00  0.00     0.000 A 
ATOM     20  C   UNL     1       0.005   4.988   5.819  1.00  0.00     0.000 A 
ENDBRANCH  14  15
ENDBRANCH   7  14
ENDBRANCH   4   7
ENDBRANCH   2   3
ENDBRANCH   1   2
BRANCH   1  21
ATOM     21  C   UNL     1       4.638   2.268   5.305  1.00  0.00     0.023 C 
BRANCH  21  22
ATOM     22  C   UNL     1       4.542   3.719   5.774  1.00  0.00     0.116 C 
BRANCH  22  23
ATOM     23  N   UNL     1       3.674   3.924   6.925  1.00  0.00    -0.352 N 
ATOM     24  C   UNL     1       3.844   4.785   7.989  1.00  0.00     0.251 C 
ATOM     25  H   UNL     1       2.857   3.376   6.946  1.00  0.00     0.163 HD
ATOM     26  O   UNL     1       3.039   4.798   8.907  1.00  0.00    -0.269 OA
BRANCH  24  27
ATOM     27  C   UNL     1       5.029   5.676   8.019  1.00  0.00     0.039 A 
ATOM     28  C   UNL     1       5.805   5.732   9.179  1.00  0.00     0.014 A 
ATOM     29  C   UNL     1       5.383   6.433   6.899  1.00  0.00     0.014 A 
ATOM     30  C   UNL     1       6.972   6.503   9.194  1.00  0.00     0.010 A 
ATOM     31  C   UNL     1       6.583   7.137   6.891  1.00  0.00     0.010 A 
ATOM     32  C   UNL     1       7.385   7.191   8.041  1.00  0.00    -0.014 A 
BRANCH  32  33
ATOM     33  C   UNL     1       8.639   7.990   8.025  1.00  0.00     0.031 A 
ATOM     34  C   UNL     1       8.581   9.480   7.810  1.00  0.00     0.074 A 
ATOM     35  C   UNL     1       9.833   7.372   8.125  1.00  0.00     0.049 A 
ATOM     36  N   UNL     1       9.562  10.341   7.734  1.00  0.00    -0.248 NA
ATOM     37  C   UNL     1       7.247  10.076   7.626  1.00  0.00     0.031 C 
ATOM     38  C   UNL     1      10.031   5.926   8.245  1.00  0.00     0.029 A 
ATOM     39  N   UNL     1      11.108   7.881   8.117  1.00  0.00    -0.354 N 
ATOM     40  C   UNL     1       8.970  11.568   7.456  1.00  0.00     0.074 A 
ATOM     41  C   UNL     1       7.548  11.333   7.337  1.00  0.00     0.031 C 
ATOM     42  C   UNL     1      11.348   5.666   8.307  1.00  0.00     0.029 A 
ATOM     43  C   UNL     1      12.088   6.921   8.215  1.00  0.00     0.049 A 
ATOM     44  H   UNL     1      11.303   8.843   8.048  1.00  0.00     0.167 HD
ATOM     45  C   UNL     1       9.549  12.788   7.348  1.00  0.00     0.034 A 
ATOM     46  C   UNL     1      13.431   7.040   8.237  1.00  0.00     0.034 A 
ATOM     47  C   UNL     1      10.955  13.029   7.523  1.00  0.00     0.049 A 
ATOM     48  C   UNL     1      14.045   8.414   8.192  1.00  0.00     0.074 A 
ATOM     49  C   UNL     1      11.629  14.237   7.518  1.00  0.00     0.029 A 
ATOM     50  N   UNL     1      11.904  12.042   7.739  1.00  0.00    -0.354 N 
ATOM     51  N   UNL     1      13.453   9.580   8.096  1.00  0.00    -0.248 NA
ATOM     52  C   UNL     1      15.508   8.494   8.308  1.00  0.00     0.031 C 
ATOM     53  C   UNL     1      12.989  13.979   7.722  1.00  0.00     0.029 A 
ATOM     54  C   UNL     1      13.158  12.612   7.875  1.00  0.00     0.049 A 
ATOM     55  H   UNL     1      11.714  11.077   7.789  1.00  0.00     0.167 HD
ATOM     56  C   UNL     1      14.463  10.530   8.187  1.00  0.00     0.074 A 
ATOM     57  C   UNL     1      15.704   9.804   8.362  1.00  0.00     0.031 C 
ATOM     58  C   UNL     1      14.374  11.882   8.119  1.00  0.00     0.034 A 
BRANCH  45  59
ATOM     59  C   UNL     1       8.647  13.967   7.090  1.00  0.00     0.023 A 
ATOM     60  C   UNL     1       7.788  14.418   8.115  1.00  0.00     0.012 A 
ATOM     61  C   UNL     1       8.678  14.656   5.863  1.00  0.00     0.148 A 
ATOM     62  C   UNL     1       6.947  15.510   7.909  1.00  0.00     0.002 A 
ATOM     63  C   UNL     1       7.869  15.773   5.681  1.00  0.00     0.091 A 
ATOM     64  F   UNL     1       9.484  14.201   4.893  1.00  0.00    -0.205 F 
ATOM     65  C   UNL     1       6.995  16.192   6.697  1.00  0.00     0.022 A 
BRANCH  63  66
ATOM     66  S   UNL     1       7.915  16.768   4.186  1.00  0.00     0.127 S 
ATOM     67  O   UNL     1       6.645  16.412   3.556  1.00  0.00    -0.237 OA
ATOM     68  O   UNL     1       7.968  18.128   4.723  1.00  0.00    -0.237 OA
ATOM     69  O   UNL     1       9.111  16.354   3.466  1.00  0.00    -0.744 OA
ENDBRANCH  63  66
ENDBRANCH  45  59
BRANCH  46  70
ATOM     70  C   UNL     1      14.285   5.829   8.405  1.00  0.00     0.023 A 
ATOM     71  C   UNL     1      14.962   5.627   9.624  1.00  0.00     0.012 A 
ATOM     72  C   UNL     1      14.416   4.871   7.381  1.00  0.00     0.148 A 
ATOM     73  C   UNL     1      15.782   4.513   9.809  1.00  0.00     0.002 A 
ATOM     74  C   UNL     1      15.193   3.736   7.591  1.00  0.00     0.091 A 
ATOM     75  F   UNL     1      13.774   5.085   6.224  1.00  0.00    -0.205 F 
ATOM     76  C   UNL     1      15.890   3.564   8.797  1.00  0.00     0.022 A 
BRANCH  74  77
ATOM     77  S   UNL     1      15.289   2.401   6.393  1.00  0.00     0.127 S 
ATOM     78  O   UNL     1      16.643   2.564   5.872  1.00  0.00    -0.237 OA
ATOM     79  O   UNL     1      15.091   1.222   7.237  1.00  0.00    -0.237 OA
ATOM     80  O   UNL     1      14.210   2.647   5.446  1.00  0.00    -0.744 OA
ENDBRANCH  74  77
ENDBRANCH  46  70
BRANCH  58  81
ATOM     81  C   UNL     1      15.641  12.678   8.288  1.00  0.00     0.023 A 
ATOM     82  C   UNL     1      16.601  12.701   7.257  1.00  0.00     0.012 A 
ATOM     83  C   UNL     1      15.844  13.465   9.439  1.00  0.00     0.148 A 
ATOM     84  C   UNL     1      17.759  13.468   7.384  1.00  0.00     0.002 A 
ATOM     85  C   UNL     1      16.976  14.264   9.538  1.00  0.00     0.091 A 
ATOM     86  F   UNL     1      14.930  13.414  10.420  1.00  0.00    -0.205 F 
ATOM     87  C   UNL     1      17.940  14.258   8.517  1.00  0.00     0.022 A 
BRANCH  85  88
ATOM     88  S   UNL     1      17.236  15.386  10.918  1.00  0.00     0.127 S 
ATOM     89  O   UNL     1      18.220  14.655  11.714  1.00  0.00    -0.237 OA
ATOM     90  O   UNL     1      17.755  16.583  10.256  1.00  0.00    -0.237 OA
ATOM     91  O   UNL     1      15.929  15.562  11.537  1.00  0.00    -0.744 OA
ENDBRANCH  85  88
ENDBRANCH  58  81
ENDBRANCH  32  33
ENDBRANCH  24  27
ENDBRANCH  22  23
ENDBRANCH  21  22
ENDBRANCH   1  21
TORSDOF 19
