REMARK SMILES Cc1ccc(C)c(OCc2ccc(C(=O)NCCCCNC(=O)c3ccc(-c4c5nc(c(-c6cccc(S(=O)(=O)[O-])c6F)c6ccc([nH]6)c(-c6cccc(S(=O)(=O)[O-])c6F)c6nc(c(-c7cccc(S(=O)(=O)[O-])c7F)c7ccc4[nH]7)C=C6)C=C5)cc3)cc2)c1C
REMARK SMILES IDX 18 1 17 2 16 3 14 4 15 5 13 7 10 8 11 9 88 10 12 11 87 12
REMARK SMILES IDX 9 13 8 14 7 15 1 16 2 17 3 18 89 19 4 20 90 21 5 22 6 23
REMARK SMILES IDX 19 24 20 25 21 26 22 27 23 29 24 30 25 31 86 32 26 33 85 34
REMARK SMILES IDX 27 35 28 36 29 37 79 38 30 39 84 40 78 41 80 42 31 43 83 44
REMARK SMILES IDX 77 45 76 46 32 48 64 49 44 50 63 51 45 52 48 53 62 54 81 55
REMARK SMILES IDX 46 56 47 57 61 59 82 60 49 61 33 62 34 63 42 64 35 65 37 66
REMARK SMILES IDX 43 67 36 68 38 69 39 70 40 71 41 72 65 73 66 74 74 75 67 76
REMARK SMILES IDX 69 77 75 78 68 79 70 80 71 81 72 82 73 83 50 84 51 85 59 86
REMARK SMILES IDX 52 87 54 88 60 89 53 90 55 91 56 92 57 93 58 94
REMARK H PARENT 16 6 21 28 80 47 48 58
REMARK Flexibility Score: inf
ROOT
ATOM      1  C   UNL     1       4.517   3.631   6.790  1.00  0.00     0.023 C 
ENDROOT
BRANCH   1   2
ATOM      2  C   UNL     1       5.585   2.856   6.017  1.00  0.00     0.116 C 
BRANCH   2   3
ATOM      3  N   UNL     1       5.229   1.461   5.950  1.00  0.00    -0.352 N 
ATOM      4  C   UNL     1       4.339   0.783   5.163  1.00  0.00     0.251 C 
ATOM      5  O   UNL     1       4.177  -0.411   5.425  1.00  0.00    -0.269 OA
ATOM      6  H   UNL     1       5.717   0.891   6.587  1.00  0.00     0.163 HD
BRANCH   4   7
ATOM      7  C   UNL     1       3.620   1.373   3.988  1.00  0.00     0.039 A 
ATOM      8  C   UNL     1       2.475   2.163   1.492  1.00  0.00    -0.011 A 
ATOM      9  C   UNL     1       2.425   0.840   1.935  1.00  0.00     0.008 A 
ATOM     10  C   UNL     1       3.006   3.106   2.381  1.00  0.00     0.008 A 
ATOM     11  C   UNL     1       2.994   0.450   3.149  1.00  0.00     0.014 A 
ATOM     12  C   UNL     1       3.550   2.718   3.616  1.00  0.00     0.014 A 
BRANCH   8  13
ATOM     13  C   UNL     1       2.186   2.588   0.058  1.00  0.00     0.265 C 
BRANCH  13  14
ATOM     14  O   UNL     1       0.993   2.189  -0.617  1.00  0.00    -0.488 OA
BRANCH  14  15
ATOM     15  C   UNL     1       0.632   0.872  -0.687  1.00  0.00     0.125 A 
ATOM     16  C   UNL     1      -2.625  -1.003   0.100  1.00  0.00     0.045 C 
ATOM     17  C   UNL     1      -1.202  -0.689  -0.270  1.00  0.00    -0.044 A 
ATOM     18  C   UNL     1      -0.320  -1.745  -0.524  1.00  0.00     0.004 A 
ATOM     19  C   UNL     1      -0.730   0.635  -0.371  1.00  0.00    -0.006 A 
ATOM     20  C   UNL     1       0.995  -1.499  -0.921  1.00  0.00     0.007 A 
ATOM     21  C   UNL     1      -1.626   1.819  -0.095  1.00  0.00     0.049 C 
ATOM     22  C   UNL     1       1.482  -0.189  -1.049  1.00  0.00    -0.009 A 
ATOM     23  C   UNL     1       2.904  -0.015  -1.502  1.00  0.00     0.048 C 
ENDBRANCH  14  15
ENDBRANCH  13  14
ENDBRANCH   8  13
ENDBRANCH   4   7
ENDBRANCH   2   3
ENDBRANCH   1   2
BRANCH   1  24
ATOM     24  C   UNL     1       4.620   3.474   8.310  1.00  0.00     0.023 C 
BRANCH  24  25
ATOM     25  C   UNL     1       5.955   3.913   8.897  1.00  0.00     0.116 C 
BRANCH  25  26
ATOM     26  N   UNL     1       6.351   5.247   8.468  1.00  0.00    -0.352 N 
ATOM     27  C   UNL     1       7.196   6.123   9.097  1.00  0.00     0.251 C 
ATOM     28  H   UNL     1       5.962   5.559   7.619  1.00  0.00     0.163 HD
ATOM     29  O   UNL     1       7.340   7.263   8.665  1.00  0.00    -0.269 OA
BRANCH  27  30
ATOM     30  C   UNL     1       7.892   5.688  10.320  1.00  0.00     0.039 A 
ATOM     31  C   UNL     1       7.809   6.492  11.457  1.00  0.00     0.014 A 
ATOM     32  C   UNL     1       8.581   4.473  10.352  1.00  0.00     0.014 A 
ATOM     33  C   UNL     1       8.386   6.053  12.646  1.00  0.00     0.010 A 
ATOM     34  C   UNL     1       9.088   4.003  11.557  1.00  0.00     0.010 A 
ATOM     35  C   UNL     1       9.008   4.795  12.712  1.00  0.00    -0.014 A 
BRANCH  35  36
ATOM     36  C   UNL     1       9.575   4.299  13.988  1.00  0.00     0.031 A 
ATOM     37  C   UNL     1      11.053   4.062  14.119  1.00  0.00     0.074 A 
ATOM     38  C   UNL     1       8.745   4.011  15.009  1.00  0.00     0.049 A 
ATOM     39  N   UNL     1      11.731   3.659  15.162  1.00  0.00    -0.248 NA
ATOM     40  C   UNL     1      11.877   4.278  12.917  1.00  0.00     0.031 C 
ATOM     41  C   UNL     1       7.284   4.106  14.964  1.00  0.00     0.029 A 
ATOM     42  N   UNL     1       9.010   3.564  16.278  1.00  0.00    -0.354 N 
ATOM     43  C   UNL     1      13.049   3.547  14.737  1.00  0.00     0.074 A 
ATOM     44  C   UNL     1      13.071   3.881  13.331  1.00  0.00     0.031 C 
ATOM     45  C   UNL     1       6.783   3.746  16.157  1.00  0.00     0.029 A 
ATOM     46  C   UNL     1       7.882   3.378  17.043  1.00  0.00     0.049 A 
ATOM     47  H   UNL     1       9.920   3.393  16.610  1.00  0.00     0.167 HD
ATOM     48  C   UNL     1      14.148   3.230  15.462  1.00  0.00     0.034 A 
ATOM     49  C   UNL     1       7.752   2.965  18.318  1.00  0.00     0.034 A 
ATOM     50  C   UNL     1      14.123   2.941  16.870  1.00  0.00     0.049 A 
ATOM     51  C   UNL     1       8.994   2.682  19.118  1.00  0.00     0.074 A 
ATOM     52  C   UNL     1      15.188   2.699  17.718  1.00  0.00     0.029 A 
ATOM     53  N   UNL     1      12.971   2.849  17.636  1.00  0.00    -0.354 N 
ATOM     54  N   UNL     1      10.250   2.756  18.747  1.00  0.00    -0.248 NA
ATOM     55  C   UNL     1       8.805   2.303  20.525  1.00  0.00     0.031 C 
ATOM     56  C   UNL     1      14.678   2.440  18.995  1.00  0.00     0.029 A 
ATOM     57  C   UNL     1      13.297   2.547  18.947  1.00  0.00     0.049 A 
ATOM     58  H   UNL     1      12.056   2.980  17.298  1.00  0.00     0.167 HD
ATOM     59  C   UNL     1      11.000   2.465  19.881  1.00  0.00     0.074 A 
ATOM     60  C   UNL     1      10.057   2.241  20.957  1.00  0.00     0.031 C 
ATOM     61  C   UNL     1      12.347   2.376  20.016  1.00  0.00     0.034 A 
BRANCH  48  62
ATOM     62  C   UNL     1      15.478   3.239  14.754  1.00  0.00     0.023 A 
ATOM     63  C   UNL     1      16.042   4.467  14.351  1.00  0.00     0.012 A 
ATOM     64  C   UNL     1      16.194   2.046  14.533  1.00  0.00     0.148 A 
ATOM     65  C   UNL     1      17.278   4.507  13.707  1.00  0.00     0.002 A 
ATOM     66  C   UNL     1      17.447   2.098  13.932  1.00  0.00     0.091 A 
ATOM     67  F   UNL     1      15.633   0.885  14.901  1.00  0.00    -0.205 F 
ATOM     68  C   UNL     1      17.984   3.324  13.508  1.00  0.00     0.022 A 
BRANCH  66  69
ATOM     69  S   UNL     1      18.471   0.641  13.701  1.00  0.00     0.127 S 
ATOM     70  O   UNL     1      18.412   0.465  12.251  1.00  0.00    -0.237 OA
ATOM     71  O   UNL     1      19.768   1.093  14.207  1.00  0.00    -0.237 OA
ATOM     72  O   UNL     1      17.849  -0.416  14.486  1.00  0.00    -0.744 OA
ENDBRANCH  66  69
ENDBRANCH  48  62
BRANCH  49  73
ATOM     73  C   UNL     1       6.400   2.881  18.939  1.00  0.00     0.023 A 
ATOM     74  C   UNL     1       6.035   3.812  19.930  1.00  0.00     0.012 A 
ATOM     75  C   UNL     1       5.466   1.909  18.532  1.00  0.00     0.148 A 
ATOM     76  C   UNL     1       4.777   3.757  20.530  1.00  0.00     0.002 A 
ATOM     77  C   UNL     1       4.195   1.894  19.094  1.00  0.00     0.091 A 
ATOM     78  F   UNL     1       5.836   1.026  17.594  1.00  0.00    -0.205 F 
ATOM     79  C   UNL     1       3.854   2.805  20.106  1.00  0.00     0.022 A 
BRANCH  77  80
ATOM     80  S   UNL     1       2.901   0.791  18.514  1.00  0.00     0.127 S 
ATOM     81  O   UNL     1       2.795  -0.155  19.621  1.00  0.00    -0.237 OA
ATOM     82  O   UNL     1       1.766   1.705  18.372  1.00  0.00    -0.237 OA
ATOM     83  O   UNL     1       3.389   0.244  17.255  1.00  0.00    -0.744 OA
ENDBRANCH  77  80
ENDBRANCH  49  73
BRANCH  61  84
ATOM     84  C   UNL     1      12.886   2.048  21.384  1.00  0.00     0.023 A 
ATOM     85  C   UNL     1      12.731   0.748  21.905  1.00  0.00     0.012 A 
ATOM     86  C   UNL     1      13.600   3.010  22.125  1.00  0.00     0.148 A 
ATOM     87  C   UNL     1      13.244   0.422  23.160  1.00  0.00     0.002 A 
ATOM     88  C   UNL     1      14.152   2.663  23.352  1.00  0.00     0.091 A 
ATOM     89  F   UNL     1      13.720   4.247  21.621  1.00  0.00    -0.205 F 
ATOM     90  C   UNL     1      13.963   1.375  23.877  1.00  0.00     0.022 A 
BRANCH  88  91
ATOM     91  S   UNL     1      15.176   3.798  24.296  1.00  0.00     0.127 S 
ATOM     92  O   UNL     1      14.265   4.203  25.365  1.00  0.00    -0.237 OA
ATOM     93  O   UNL     1      16.279   2.937  24.728  1.00  0.00    -0.237 OA
ATOM     94  O   UNL     1      15.564   4.851  23.368  1.00  0.00    -0.744 OA
ENDBRANCH  88  91
ENDBRANCH  61  84
ENDBRANCH  35  36
ENDBRANCH  27  30
ENDBRANCH  25  26
ENDBRANCH  24  25
ENDBRANCH   1  24
TORSDOF 17
