REMARK SMILES C[C@]12CCC(=O)N1[C@H](C(=O)N1CCC[C@@H]1C(=O)NCCCCNC(=O)c1ccc(-c3c4nc(c(-c5cccc(S(=O)(=O)[O-])c5F)c5ccc([nH]5)c(-c5cccc(S(=O)(=O)[O-])c5F)c5nc(c(-c6cccc(S(=O)(=O)[O-])c6F)c6ccc3[nH]6)C=C5)C=C4)cc1)CS2
REMARK SMILES IDX 21 1 20 2 19 3 18 4 16 5 17 6 15 8 11 9 12 10 13 11 14 12
REMARK SMILES IDX 9 13 10 14 8 15 1 16 2 17 3 18 7 19 90 20 4 21 5 22 89 23
REMARK SMILES IDX 6 24 22 25 23 26 24 27 25 29 26 30 27 31 88 32 28 33 87 34
REMARK SMILES IDX 29 35 30 36 31 37 81 38 32 39 86 40 80 41 82 42 33 43 85 44
REMARK SMILES IDX 79 45 78 46 34 48 66 49 46 50 65 51 47 52 50 53 64 54 83 55
REMARK SMILES IDX 48 56 49 57 63 59 84 60 51 61 35 62 36 63 44 64 37 65 39 66
REMARK SMILES IDX 45 67 38 68 40 69 41 70 42 71 43 72 67 73 68 74 76 75 69 76
REMARK SMILES IDX 71 77 77 78 70 79 72 80 73 81 74 82 75 83 52 84 53 85 61 86
REMARK SMILES IDX 54 87 56 88 62 89 55 90 57 91 58 92 59 93 60 94
REMARK H PARENT 18 7 23 28 82 47 50 58
REMARK Flexibility Score: inf
ROOT
ATOM      1  C   UNL     1       3.300  -0.332   2.069  1.00  0.00     0.023 C 
ENDROOT
BRANCH   1   2
ATOM      2  C   UNL     1       3.407   1.039   1.398  1.00  0.00     0.023 C 
BRANCH   2   3
ATOM      3  C   UNL     1       3.231   2.244   2.312  1.00  0.00     0.116 C 
BRANCH   3   4
ATOM      4  N   UNL     1       4.430   3.024   2.434  1.00  0.00    -0.354 N 
ATOM      5  C   UNL     1       4.680   4.313   2.089  1.00  0.00     0.242 C 
ATOM      6  O   UNL     1       5.758   4.757   2.507  1.00  0.00    -0.273 OA
ATOM      7  H   UNL     1       5.194   2.548   2.833  1.00  0.00     0.163 HD
BRANCH   5   8
ATOM      8  C   UNL     1       3.637   5.250   1.358  1.00  0.00     0.174 C 
ATOM      9  N   UNL     1       3.117   4.822   0.030  1.00  0.00    -0.329 N 
ATOM     10  C   UNL     1       3.933   5.415  -1.029  1.00  0.00     0.120 C 
ATOM     11  C   UNL     1       5.044   6.176  -0.334  1.00  0.00     0.024 C 
ATOM     12  C   UNL     1       4.393   6.548   0.993  1.00  0.00     0.037 C 
BRANCH   9  13
ATOM     13  C   UNL     1       1.963   4.197  -0.422  1.00  0.00     0.246 C 
ATOM     14  O   UNL     1       2.028   3.601  -1.509  1.00  0.00    -0.272 OA
BRANCH  13  15
ATOM     15  C   UNL     1       0.548   4.507   0.172  1.00  0.00     0.186 C 
ATOM     16  C   UNL     1       0.129   1.342  -0.711  1.00  0.00     0.047 C 
ATOM     17  C   UNL     1      -0.703   2.365   0.064  1.00  0.00     0.087 C 
ATOM     18  C   UNL     1      -2.183   2.022  -0.077  1.00  0.00     0.049 C 
ATOM     19  N   UNL     1      -0.549   3.710  -0.438  1.00  0.00    -0.315 N 
ATOM     20  S   UNL     1      -0.222   2.569   1.830  1.00  0.00    -0.131 SA
ATOM     21  C   UNL     1      -2.880   3.350  -0.281  1.00  0.00     0.103 C 
ATOM     22  C   UNL     1      -1.781   4.303  -0.685  1.00  0.00     0.224 C 
ATOM     23  C   UNL     1       0.307   4.308   1.659  1.00  0.00     0.107 C 
ATOM     24  O   UNL     1      -1.960   5.471  -1.000  1.00  0.00    -0.275 OA
ENDBRANCH  13  15
ENDBRANCH   9  13
ENDBRANCH   5   8
ENDBRANCH   3   4
ENDBRANCH   2   3
ENDBRANCH   1   2
BRANCH   1  25
ATOM     25  C   UNL     1       2.048  -0.606   2.904  1.00  0.00     0.116 C 
BRANCH  25  26
ATOM     26  N   UNL     1       0.803  -0.357   2.196  1.00  0.00    -0.352 N 
ATOM     27  C   UNL     1      -0.392  -1.045   2.214  1.00  0.00     0.251 C 
ATOM     28  H   UNL     1       0.814   0.432   1.607  1.00  0.00     0.163 HD
ATOM     29  O   UNL     1      -1.317  -0.745   1.477  1.00  0.00    -0.269 OA
BRANCH  27  30
ATOM     30  C   UNL     1      -0.545  -2.165   3.149  1.00  0.00     0.039 A 
ATOM     31  C   UNL     1      -1.066  -3.375   2.686  1.00  0.00     0.014 A 
ATOM     32  C   UNL     1      -0.125  -2.011   4.470  1.00  0.00     0.014 A 
ATOM     33  C   UNL     1      -1.057  -4.479   3.532  1.00  0.00     0.010 A 
ATOM     34  C   UNL     1      -0.027  -3.127   5.274  1.00  0.00     0.010 A 
ATOM     35  C   UNL     1      -0.480  -4.369   4.806  1.00  0.00    -0.014 A 
BRANCH  35  36
ATOM     36  C   UNL     1      -0.278  -5.546   5.671  1.00  0.00     0.031 A 
ATOM     37  C   UNL     1      -0.941  -5.588   7.015  1.00  0.00     0.074 A 
ATOM     38  C   UNL     1       0.629  -6.467   5.295  1.00  0.00     0.049 A 
ATOM     39  N   UNL     1      -0.778  -6.442   7.986  1.00  0.00    -0.248 NA
ATOM     40  C   UNL     1      -1.871  -4.487   7.330  1.00  0.00     0.031 C 
ATOM     41  C   UNL     1       1.404  -6.433   4.050  1.00  0.00     0.029 A 
ATOM     42  N   UNL     1       1.082  -7.589   5.934  1.00  0.00    -0.354 N 
ATOM     43  C   UNL     1      -1.538  -5.957   9.043  1.00  0.00     0.074 A 
ATOM     44  C   UNL     1      -2.130  -4.712   8.609  1.00  0.00     0.031 C 
ATOM     45  C   UNL     1       2.225  -7.493   4.011  1.00  0.00     0.029 A 
ATOM     46  C   UNL     1       2.057  -8.263   5.236  1.00  0.00     0.049 A 
ATOM     47  H   UNL     1       0.742  -7.886   6.809  1.00  0.00     0.167 HD
ATOM     48  C   UNL     1      -1.746  -6.522  10.255  1.00  0.00     0.034 A 
ATOM     49  C   UNL     1       2.731  -9.383   5.556  1.00  0.00     0.034 A 
ATOM     50  C   UNL     1      -1.186  -7.792  10.629  1.00  0.00     0.049 A 
ATOM     51  C   UNL     1       2.389 -10.056   6.856  1.00  0.00     0.074 A 
ATOM     52  C   UNL     1      -1.385  -8.519  11.786  1.00  0.00     0.029 A 
ATOM     53  N   UNL     1      -0.319  -8.529   9.833  1.00  0.00    -0.354 N 
ATOM     54  N   UNL     1       1.556  -9.662   7.791  1.00  0.00    -0.248 NA
ATOM     55  C   UNL     1       3.038 -11.343   7.130  1.00  0.00     0.031 C 
ATOM     56  C   UNL     1      -0.635  -9.698  11.689  1.00  0.00     0.029 A 
ATOM     57  C   UNL     1       0.017  -9.711  10.465  1.00  0.00     0.049 A 
ATOM     58  H   UNL     1       0.009  -8.250   8.947  1.00  0.00     0.167 HD
ATOM     59  C   UNL     1       1.550 -10.668   8.746  1.00  0.00     0.074 A 
ATOM     60  C   UNL     1       2.451 -11.698   8.265  1.00  0.00     0.031 C 
ATOM     61  C   UNL     1       0.877 -10.733   9.922  1.00  0.00     0.034 A 
BRANCH  48  62
ATOM     62  C   UNL     1      -2.656  -5.798  11.214  1.00  0.00     0.023 A 
ATOM     63  C   UNL     1      -4.034  -5.703  10.925  1.00  0.00     0.012 A 
ATOM     64  C   UNL     1      -2.161  -5.215  12.396  1.00  0.00     0.148 A 
ATOM     65  C   UNL     1      -4.894  -4.999  11.766  1.00  0.00     0.002 A 
ATOM     66  C   UNL     1      -3.034  -4.554  13.255  1.00  0.00     0.091 A 
ATOM     67  F   UNL     1      -0.847  -5.292  12.647  1.00  0.00    -0.205 F 
ATOM     68  C   UNL     1      -4.396  -4.431  12.934  1.00  0.00     0.022 A 
BRANCH  66  69
ATOM     69  S   UNL     1      -2.506  -3.849  14.821  1.00  0.00     0.127 S 
ATOM     70  O   UNL     1      -2.564  -2.416  14.535  1.00  0.00    -0.237 OA
ATOM     71  O   UNL     1      -3.539  -4.329  15.739  1.00  0.00    -0.237 OA
ATOM     72  O   UNL     1      -1.175  -4.384  15.073  1.00  0.00    -0.744 OA
ENDBRANCH  66  69
ENDBRANCH  48  62
BRANCH  49  73
ATOM     73  C   UNL     1       3.684  -9.983   4.580  1.00  0.00     0.023 A 
ATOM     74  C   UNL     1       3.315 -11.161   3.901  1.00  0.00     0.012 A 
ATOM     75  C   UNL     1       4.911  -9.367   4.263  1.00  0.00     0.148 A 
ATOM     76  C   UNL     1       4.159 -11.730   2.947  1.00  0.00     0.002 A 
ATOM     77  C   UNL     1       5.725  -9.911   3.275  1.00  0.00     0.091 A 
ATOM     78  F   UNL     1       5.248  -8.248   4.920  1.00  0.00    -0.205 F 
ATOM     79  C   UNL     1       5.358 -11.100   2.626  1.00  0.00     0.022 A 
BRANCH  77  80
ATOM     80  S   UNL     1       7.220  -9.095   2.701  1.00  0.00     0.127 S 
ATOM     81  O   UNL     1       8.263  -9.931   3.290  1.00  0.00    -0.237 OA
ATOM     82  O   UNL     1       7.090  -9.204   1.248  1.00  0.00    -0.237 OA
ATOM     83  O   UNL     1       7.137  -7.731   3.206  1.00  0.00    -0.744 OA
ENDBRANCH  77  80
ENDBRANCH  49  73
BRANCH  61  84
ATOM     84  C   UNL     1       1.063 -11.975  10.748  1.00  0.00     0.023 A 
ATOM     85  C   UNL     1       2.262 -12.166  11.460  1.00  0.00     0.012 A 
ATOM     86  C   UNL     1       0.016 -12.906  10.879  1.00  0.00     0.148 A 
ATOM     87  C   UNL     1       2.427 -13.286  12.272  1.00  0.00     0.002 A 
ATOM     88  C   UNL     1       0.169 -13.993  11.729  1.00  0.00     0.091 A 
ATOM     89  F   UNL     1      -1.107 -12.713  10.172  1.00  0.00    -0.205 F 
ATOM     90  C   UNL     1       1.378 -14.191  12.417  1.00  0.00     0.022 A 
BRANCH  88  91
ATOM     91  S   UNL     1      -1.168 -15.147  12.049  1.00  0.00     0.127 S 
ATOM     92  O   UNL     1      -0.764 -16.301  11.247  1.00  0.00    -0.237 OA
ATOM     93  O   UNL     1      -1.070 -15.345  13.496  1.00  0.00    -0.237 OA
ATOM     94  O   UNL     1      -2.386 -14.475  11.616  1.00  0.00    -0.744 OA
ENDBRANCH  88  91
ENDBRANCH  61  84
ENDBRANCH  35  36
ENDBRANCH  27  30
ENDBRANCH  25  26
ENDBRANCH   1  25
TORSDOF 16
