REMARK SMILES CC(C)[C@@H](NC(=O)[C@@](C)([NH3+])C(F)(F)F)C(=O)NCCCCNC(=O)c1ccc(-c2c3nc(c(-c4cccc(S(=O)(=O)[O-])c4F)c4ccc([nH]4)c(-c4cccc(S(=O)(=O)[O-])c4F)c4nc(c(-c5cccc(S(=O)(=O)[O-])c5F)c5ccc2[nH]5)C=C4)C=C3)cc1
REMARK SMILES IDX 19 1 18 2 17 3 15 4 16 5 4 7 2 8 1 9 3 10 5 11 6 12 7 14
REMARK SMILES IDX 8 15 9 16 10 17 11 21 12 22 13 23 14 24 20 25 21 26 22 27
REMARK SMILES IDX 23 28 24 30 25 31 26 32 87 33 27 34 86 35 28 36 29 37 30 38
REMARK SMILES IDX 80 39 31 40 85 41 79 42 81 43 32 44 84 45 78 46 77 47 33 49
REMARK SMILES IDX 65 50 45 51 64 52 46 53 49 54 63 55 82 56 47 57 48 58 62 60
REMARK SMILES IDX 83 61 50 62 34 63 35 64 43 65 36 66 38 67 44 68 37 69 39 70
REMARK SMILES IDX 40 71 41 72 42 73 66 74 67 75 75 76 68 77 70 78 76 79 69 80
REMARK SMILES IDX 71 81 72 82 73 83 74 84 51 85 52 86 60 87 53 88 55 89 61 90
REMARK SMILES IDX 54 91 56 92 57 93 58 94 59 95
REMARK H PARENT 17 6 5 13 10 18 10 19 10 20 22 29 81 48 49 59
REMARK Flexibility Score: inf
ROOT
ATOM      1  C   UNL     1       1.870  -3.499  -3.674  1.00  0.00     0.023 C 
ENDROOT
BRANCH   1   2
ATOM      2  C   UNL     1       0.817  -2.663  -2.957  1.00  0.00     0.116 C 
BRANCH   2   3
ATOM      3  N   UNL     1       0.096  -3.428  -1.954  1.00  0.00    -0.354 N 
ATOM      4  C   UNL     1      -0.807  -2.994  -1.026  1.00  0.00     0.242 C 
ATOM      5  O   UNL     1      -1.523  -3.833  -0.473  1.00  0.00    -0.273 OA
ATOM      6  H   UNL     1       0.284  -4.394  -1.941  1.00  0.00     0.163 HD
BRANCH   4   7
ATOM      7  C   UNL     1      -0.923  -1.508  -0.649  1.00  0.00     0.174 C 
BRANCH   7   8
ATOM      8  C   UNL     1       0.424  -1.028  -0.011  1.00  0.00     0.015 C 
ATOM      9  C   UNL     1       0.362   0.393   0.558  1.00  0.00     0.010 C 
ATOM     10  C   UNL     1       0.935  -1.974   1.088  1.00  0.00     0.010 C 
ENDBRANCH   7   8
BRANCH   7  11
ATOM     11  N   UNL     1      -1.325  -0.683  -1.803  1.00  0.00    -0.338 N 
ATOM     12  C   UNL     1      -2.494  -0.586  -2.515  1.00  0.00     0.291 C 
ATOM     13  H   UNL     1      -0.615  -0.083  -2.127  1.00  0.00     0.164 HD
ATOM     14  O   UNL     1      -2.629   0.505  -3.082  1.00  0.00    -0.267 OA
BRANCH  12  15
ATOM     15  C   UNL     1      -3.527  -1.733  -2.705  1.00  0.00     0.267 C 
ATOM     16  C   UNL     1      -2.955  -2.899  -3.525  1.00  0.00     0.100 C 
BRANCH  15  17
ATOM     17  N   UNL     1      -3.972  -2.250  -1.365  1.00  0.00    -0.337 N 
ATOM     18  H   UNL     1      -3.166  -2.611  -0.854  1.00  0.00     0.345 HD
ATOM     19  H   UNL     1      -4.653  -2.998  -1.498  1.00  0.00     0.345 HD
ATOM     20  H   UNL     1      -4.400  -1.492  -0.833  1.00  0.00     0.345 HD
ENDBRANCH  15  17
BRANCH  15  21
ATOM     21  C   UNL     1      -4.692  -1.154  -3.573  1.00  0.00     0.453 C 
ATOM     22  F   UNL     1      -5.367  -0.153  -2.968  1.00  0.00    -0.164 F 
ATOM     23  F   UNL     1      -4.275  -0.718  -4.785  1.00  0.00    -0.164 F 
ATOM     24  F   UNL     1      -5.603  -2.139  -3.820  1.00  0.00    -0.164 F 
ENDBRANCH  15  21
ENDBRANCH  12  15
ENDBRANCH   7  11
ENDBRANCH   4   7
ENDBRANCH   2   3
ENDBRANCH   1   2
BRANCH   1  25
ATOM     25  C   UNL     1       1.307  -4.662  -4.492  1.00  0.00     0.023 C 
BRANCH  25  26
ATOM     26  C   UNL     1       0.269  -4.267  -5.535  1.00  0.00     0.116 C 
BRANCH  26  27
ATOM     27  N   UNL     1       0.808  -3.370  -6.546  1.00  0.00    -0.352 N 
ATOM     28  C   UNL     1       0.956  -3.587  -7.899  1.00  0.00     0.251 C 
ATOM     29  H   UNL     1       1.107  -2.491  -6.220  1.00  0.00     0.163 HD
ATOM     30  O   UNL     1       1.590  -2.805  -8.588  1.00  0.00    -0.269 OA
BRANCH  28  31
ATOM     31  C   UNL     1       0.353  -4.799  -8.492  1.00  0.00     0.039 A 
ATOM     32  C   UNL     1       1.154  -5.654  -9.251  1.00  0.00     0.014 A 
ATOM     33  C   UNL     1      -0.987  -5.107  -8.248  1.00  0.00     0.014 A 
ATOM     34  C   UNL     1       0.624  -6.863  -9.708  1.00  0.00     0.010 A 
ATOM     35  C   UNL     1      -1.487  -6.344  -8.638  1.00  0.00     0.010 A 
ATOM     36  C   UNL     1      -0.689  -7.234  -9.375  1.00  0.00    -0.014 A 
BRANCH  36  37
ATOM     37  C   UNL     1      -1.260  -8.541  -9.791  1.00  0.00     0.031 A 
ATOM     38  C   UNL     1      -2.455  -8.573 -10.705  1.00  0.00     0.074 A 
ATOM     39  C   UNL     1      -0.770  -9.686  -9.275  1.00  0.00     0.049 A 
ATOM     40  N   UNL     1      -3.169  -9.597 -11.095  1.00  0.00    -0.248 NA
ATOM     41  C   UNL     1      -2.928  -7.279 -11.228  1.00  0.00     0.031 C 
ATOM     42  C   UNL     1       0.345  -9.784  -8.331  1.00  0.00     0.029 A 
ATOM     43  N   UNL     1      -1.169 -10.989  -9.450  1.00  0.00    -0.354 N 
ATOM     44  C   UNL     1      -4.191  -9.071 -11.875  1.00  0.00     0.074 A 
ATOM     45  C   UNL     1      -4.029  -7.634 -11.874  1.00  0.00     0.031 C 
ATOM     46  C   UNL     1       0.541 -11.074  -8.012  1.00  0.00     0.029 A 
ATOM     47  C   UNL     1      -0.453 -11.893  -8.699  1.00  0.00     0.049 A 
ATOM     48  H   UNL     1      -1.899 -11.251 -10.056  1.00  0.00     0.167 HD
ATOM     49  C   UNL     1      -5.159  -9.725 -12.559  1.00  0.00     0.034 A 
ATOM     50  C   UNL     1      -0.590 -13.228  -8.572  1.00  0.00     0.034 A 
ATOM     51  C   UNL     1      -5.290 -11.155 -12.598  1.00  0.00     0.049 A 
ATOM     52  C   UNL     1      -1.660 -13.931  -9.366  1.00  0.00     0.074 A 
ATOM     53  C   UNL     1      -6.199 -11.916 -13.311  1.00  0.00     0.029 A 
ATOM     54  N   UNL     1      -4.485 -12.041 -11.899  1.00  0.00    -0.354 N 
ATOM     55  N   UNL     1      -2.534 -13.426 -10.202  1.00  0.00    -0.248 NA
ATOM     56  C   UNL     1      -1.740 -15.393  -9.227  1.00  0.00     0.031 C 
ATOM     57  C   UNL     1      -5.951 -13.264 -13.034  1.00  0.00     0.029 A 
ATOM     58  C   UNL     1      -4.872 -13.342 -12.167  1.00  0.00     0.049 A 
ATOM     59  H   UNL     1      -3.747 -11.783 -11.301  1.00  0.00     0.167 HD
ATOM     60  C   UNL     1      -3.231 -14.510 -10.726  1.00  0.00     0.074 A 
ATOM     61  C   UNL     1      -2.670 -15.700 -10.121  1.00  0.00     0.031 C 
ATOM     62  C   UNL     1      -4.251 -14.518 -11.618  1.00  0.00     0.034 A 
BRANCH  49  63
ATOM     63  C   UNL     1      -6.118  -8.899 -13.377  1.00  0.00     0.023 A 
ATOM     64  C   UNL     1      -5.662  -8.277 -14.556  1.00  0.00     0.012 A 
ATOM     65  C   UNL     1      -7.476  -8.792 -13.019  1.00  0.00     0.148 A 
ATOM     66  C   UNL     1      -6.533  -7.532 -15.350  1.00  0.00     0.002 A 
ATOM     67  C   UNL     1      -8.349  -8.087 -13.840  1.00  0.00     0.091 A 
ATOM     68  F   UNL     1      -7.887  -9.376 -11.884  1.00  0.00    -0.205 F 
ATOM     69  C   UNL     1      -7.877  -7.447 -14.998  1.00  0.00     0.022 A 
BRANCH  67  70
ATOM     70  S   UNL     1     -10.113  -7.985 -13.521  1.00  0.00     0.127 S 
ATOM     71  O   UNL     1     -10.267  -6.576 -13.162  1.00  0.00    -0.237 OA
ATOM     72  O   UNL     1     -10.681  -8.350 -14.819  1.00  0.00    -0.237 OA
ATOM     73  O   UNL     1     -10.384  -8.934 -12.450  1.00  0.00    -0.744 OA
ENDBRANCH  67  70
ENDBRANCH  49  63
BRANCH  50  74
ATOM     74  C   UNL     1       0.349 -14.004  -7.712  1.00  0.00     0.023 A 
ATOM     75  C   UNL     1       1.270 -14.883  -8.317  1.00  0.00     0.012 A 
ATOM     76  C   UNL     1       0.340 -13.883  -6.310  1.00  0.00     0.148 A 
ATOM     77  C   UNL     1       2.132 -15.658  -7.541  1.00  0.00     0.002 A 
ATOM     78  C   UNL     1       1.240 -14.616  -5.545  1.00  0.00     0.091 A 
ATOM     79  F   UNL     1      -0.550 -13.052  -5.749  1.00  0.00    -0.205 F 
ATOM     80  C   UNL     1       2.124 -15.519  -6.156  1.00  0.00     0.022 A 
BRANCH  78  81
ATOM     81  S   UNL     1       1.385 -14.403  -3.767  1.00  0.00     0.127 S 
ATOM     82  O   UNL     1       0.755 -15.621  -3.266  1.00  0.00    -0.237 OA
ATOM     83  O   UNL     1       2.836 -14.338  -3.585  1.00  0.00    -0.237 OA
ATOM     84  O   UNL     1       0.691 -13.157  -3.467  1.00  0.00    -0.744 OA
ENDBRANCH  78  81
ENDBRANCH  50  74
BRANCH  62  85
ATOM     85  C   UNL     1      -4.792 -15.853 -12.057  1.00  0.00     0.023 A 
ATOM     86  C   UNL     1      -5.595 -16.611 -11.183  1.00  0.00     0.012 A 
ATOM     87  C   UNL     1      -4.581 -16.307 -13.374  1.00  0.00     0.148 A 
ATOM     88  C   UNL     1      -6.157 -17.815 -11.604  1.00  0.00     0.002 A 
ATOM     89  C   UNL     1      -5.185 -17.483 -13.803  1.00  0.00     0.091 A 
ATOM     90  F   UNL     1      -3.799 -15.579 -14.184  1.00  0.00    -0.205 F 
ATOM     91  C   UNL     1      -5.964 -18.243 -12.916  1.00  0.00     0.022 A 
BRANCH  89  92
ATOM     92  S   UNL     1      -5.074 -18.059 -15.500  1.00  0.00     0.127 S 
ATOM     93  O   UNL     1      -4.192 -19.218 -15.364  1.00  0.00    -0.237 OA
ATOM     94  O   UNL     1      -6.466 -18.385 -15.809  1.00  0.00    -0.237 OA
ATOM     95  O   UNL     1      -4.529 -16.948 -16.268  1.00  0.00    -0.744 OA
ENDBRANCH  89  92
ENDBRANCH  62  85
ENDBRANCH  36  37
ENDBRANCH  28  31
ENDBRANCH  26  27
ENDBRANCH  25  26
ENDBRANCH   1  25
TORSDOF 19
