REMARK SMILES O=C(NCCCCNC(=O)c1ccc2nc(-c3c[nH]nc3-c3ccc(F)cc3F)[nH]c2c1)c1ccc(-c2c3nc(c(-c4cccc(S(=O)(=O)[O-])c4F)c4ccc([nH]4)c(-c4cccc(S(=O)(=O)[O-])c4F)c4nc(c(-c5cccc(S(=O)(=O)[O-])c5F)c5ccc2[nH]5)C=C4)C=C3)cc1
REMARK SMILES IDX 5 1 4 2 3 3 1 4 2 5 33 7 34 8 95 9 35 10 94 11 36 12 37 13
REMARK SMILES IDX 38 14 88 15 39 16 93 17 87 18 89 19 40 20 92 21 86 22 85 23
REMARK SMILES IDX 41 25 73 26 53 27 72 28 54 29 57 30 71 31 90 32 55 33 56 34
REMARK SMILES IDX 70 36 91 37 58 38 42 39 43 40 51 41 44 42 46 43 52 44 45 45
REMARK SMILES IDX 47 46 48 47 49 48 50 49 74 50 75 51 83 52 76 53 78 54 84 55
REMARK SMILES IDX 77 56 79 57 80 58 81 59 82 60 59 61 60 62 68 63 61 64 63 65
REMARK SMILES IDX 69 66 62 67 64 68 65 69 66 70 67 71 6 72 7 73 8 74 9 75
REMARK SMILES IDX 10 77 11 78 12 79 32 80 13 81 31 82 14 83 30 84 15 85 16 86
REMARK SMILES IDX 17 88 18 89 21 90 19 91 20 92 22 94 23 95 28 96 24 97 27 98
REMARK SMILES IDX 29 99 25 100 26 101
REMARK H PARENT 3 6 89 24 57 35 8 76 30 87 19 93
REMARK Flexibility Score: inf
ROOT
ATOM      1  C   UNL     1       4.873  -2.562   0.317  1.00  0.00     0.023 C 
ENDROOT
BRANCH   1   2
ATOM      2  C   UNL     1       4.582  -1.215  -0.335  1.00  0.00     0.116 C 
BRANCH   2   3
ATOM      3  N   UNL     1       3.162  -0.966  -0.527  1.00  0.00    -0.352 N 
ATOM      4  O   UNL     1       1.187   0.089  -0.286  1.00  0.00    -0.269 OA
ATOM      5  C   UNL     1       2.406   0.116  -0.139  1.00  0.00     0.251 C 
ATOM      6  H   UNL     1       2.671  -1.674  -1.003  1.00  0.00     0.163 HD
BRANCH   5   7
ATOM      7  C   UNL     1       3.059   1.285   0.492  1.00  0.00     0.039 A 
ATOM      8  C   UNL     1       4.234   1.821  -0.038  1.00  0.00     0.014 A 
ATOM      9  C   UNL     1       2.502   1.831   1.652  1.00  0.00     0.014 A 
ATOM     10  C   UNL     1       4.943   2.776   0.684  1.00  0.00     0.010 A 
ATOM     11  C   UNL     1       3.172   2.854   2.329  1.00  0.00     0.010 A 
ATOM     12  C   UNL     1       4.426   3.297   1.882  1.00  0.00    -0.014 A 
BRANCH  12  13
ATOM     13  C   UNL     1       5.210   4.313   2.634  1.00  0.00     0.031 A 
ATOM     14  C   UNL     1       5.734   4.028   4.018  1.00  0.00     0.074 A 
ATOM     15  C   UNL     1       5.471   5.500   2.050  1.00  0.00     0.049 A 
ATOM     16  N   UNL     1       6.489   4.777   4.781  1.00  0.00    -0.248 NA
ATOM     17  C   UNL     1       5.357   2.744   4.631  1.00  0.00     0.031 C 
ATOM     18  C   UNL     1       4.981   5.914   0.734  1.00  0.00     0.029 A 
ATOM     19  N   UNL     1       6.216   6.568   2.479  1.00  0.00    -0.354 N 
ATOM     20  C   UNL     1       6.638   4.083   5.976  1.00  0.00     0.074 A 
ATOM     21  C   UNL     1       5.890   2.851   5.841  1.00  0.00     0.031 C 
ATOM     22  C   UNL     1       5.471   7.128   0.445  1.00  0.00     0.029 A 
ATOM     23  C   UNL     1       6.274   7.597   1.568  1.00  0.00     0.049 A 
ATOM     24  H   UNL     1       6.666   6.596   3.354  1.00  0.00     0.167 HD
ATOM     25  C   UNL     1       7.347   4.428   7.077  1.00  0.00     0.034 A 
ATOM     26  C   UNL     1       6.906   8.785   1.626  1.00  0.00     0.034 A 
ATOM     27  C   UNL     1       8.139   5.624   7.188  1.00  0.00     0.049 A 
ATOM     28  C   UNL     1       7.732   9.115   2.837  1.00  0.00     0.074 A 
ATOM     29  C   UNL     1       8.955   6.023   8.233  1.00  0.00     0.029 A 
ATOM     30  N   UNL     1       8.217   6.615   6.222  1.00  0.00    -0.354 N 
ATOM     31  N   UNL     1       7.972   8.381   3.896  1.00  0.00    -0.248 NA
ATOM     32  C   UNL     1       8.400  10.424   2.847  1.00  0.00     0.031 C 
ATOM     33  C   UNL     1       9.518   7.261   7.902  1.00  0.00     0.029 A 
ATOM     34  C   UNL     1       9.062   7.627   6.646  1.00  0.00     0.049 A 
ATOM     35  H   UNL     1       7.740   6.602   5.361  1.00  0.00     0.167 HD
ATOM     36  C   UNL     1       8.843   9.123   4.683  1.00  0.00     0.074 A 
ATOM     37  C   UNL     1       9.106  10.356   3.968  1.00  0.00     0.031 C 
ATOM     38  C   UNL     1       9.364   8.820   5.898  1.00  0.00     0.034 A 
BRANCH  25  39
ATOM     39  C   UNL     1       7.342   3.475   8.245  1.00  0.00     0.023 A 
ATOM     40  C   UNL     1       8.098   2.287   8.176  1.00  0.00     0.012 A 
ATOM     41  C   UNL     1       6.648   3.783   9.431  1.00  0.00     0.148 A 
ATOM     42  C   UNL     1       8.141   1.408   9.258  1.00  0.00     0.002 A 
ATOM     43  C   UNL     1       6.726   2.920  10.520  1.00  0.00     0.091 A 
ATOM     44  F   UNL     1       5.914   4.904   9.472  1.00  0.00    -0.205 F 
ATOM     45  C   UNL     1       7.464   1.729  10.432  1.00  0.00     0.022 A 
BRANCH  43  46
ATOM     46  S   UNL     1       5.946   3.291  12.095  1.00  0.00     0.127 S 
ATOM     47  O   UNL     1       4.748   2.456  12.037  1.00  0.00    -0.237 OA
ATOM     48  O   UNL     1       6.953   2.843  13.058  1.00  0.00    -0.237 OA
ATOM     49  O   UNL     1       5.716   4.729  12.092  1.00  0.00    -0.744 OA
ENDBRANCH  43  46
ENDBRANCH  25  39
BRANCH  26  50
ATOM     50  C   UNL     1       6.846   9.707   0.459  1.00  0.00     0.023 A 
ATOM     51  C   UNL     1       8.000   9.899  -0.326  1.00  0.00     0.012 A 
ATOM     52  C   UNL     1       5.648  10.346   0.087  1.00  0.00     0.148 A 
ATOM     53  C   UNL     1       7.966  10.726  -1.449  1.00  0.00     0.002 A 
ATOM     54  C   UNL     1       5.607  11.122  -1.065  1.00  0.00     0.091 A 
ATOM     55  F   UNL     1       4.565  10.165   0.857  1.00  0.00    -0.205 F 
ATOM     56  C   UNL     1       6.768  11.326  -1.826  1.00  0.00     0.022 A 
BRANCH  54  57
ATOM     57  S   UNL     1       4.073  11.811  -1.698  1.00  0.00     0.127 S 
ATOM     58  O   UNL     1       4.207  13.220  -1.339  1.00  0.00    -0.237 OA
ATOM     59  O   UNL     1       4.177  11.527  -3.130  1.00  0.00    -0.237 OA
ATOM     60  O   UNL     1       3.011  11.079  -1.021  1.00  0.00    -0.744 OA
ENDBRANCH  54  57
ENDBRANCH  26  50
BRANCH  38  61
ATOM     61  C   UNL     1      10.297   9.821   6.522  1.00  0.00     0.023 A 
ATOM     62  C   UNL     1       9.778  11.010   7.072  1.00  0.00     0.012 A 
ATOM     63  C   UNL     1      11.677   9.558   6.622  1.00  0.00     0.148 A 
ATOM     64  C   UNL     1      10.622  11.935   7.684  1.00  0.00     0.002 A 
ATOM     65  C   UNL     1      12.506  10.466   7.271  1.00  0.00     0.091 A 
ATOM     66  F   UNL     1      12.158   8.434   6.071  1.00  0.00    -0.205 F 
ATOM     67  C   UNL     1      11.983  11.659   7.794  1.00  0.00     0.022 A 
BRANCH  65  68
ATOM     68  S   UNL     1      14.253  10.135   7.531  1.00  0.00     0.127 S 
ATOM     69  O   UNL     1      14.867  10.898   6.446  1.00  0.00    -0.237 OA
ATOM     70  O   UNL     1      14.485  10.683   8.868  1.00  0.00    -0.237 OA
ATOM     71  O   UNL     1      14.394   8.687   7.446  1.00  0.00    -0.744 OA
ENDBRANCH  65  68
ENDBRANCH  38  61
ENDBRANCH  12  13
ENDBRANCH   5   7
ENDBRANCH   2   3
ENDBRANCH   1   2
BRANCH   1  72
ATOM     72  C   UNL     1       4.388  -3.787  -0.458  1.00  0.00     0.023 C 
BRANCH  72  73
ATOM     73  C   UNL     1       4.807  -3.834  -1.926  1.00  0.00     0.116 C 
BRANCH  73  74
ATOM     74  N   UNL     1       6.251  -3.806  -2.081  1.00  0.00    -0.352 N 
ATOM     75  C   UNL     1       7.078  -4.766  -2.598  1.00  0.00     0.251 C 
ATOM     76  H   UNL     1       6.695  -2.983  -1.772  1.00  0.00     0.163 HD
ATOM     77  O   UNL     1       8.297  -4.667  -2.510  1.00  0.00    -0.269 OA
BRANCH  75  78
ATOM     78  C   UNL     1       6.495  -5.942  -3.267  1.00  0.00     0.042 A 
ATOM     79  C   UNL     1       5.719  -5.774  -4.421  1.00  0.00     0.016 A 
ATOM     80  C   UNL     1       6.791  -7.208  -2.742  1.00  0.00     0.042 A 
ATOM     81  C   UNL     1       5.218  -6.889  -5.102  1.00  0.00     0.031 A 
ATOM     82  C   UNL     1       6.257  -8.295  -3.434  1.00  0.00     0.067 A 
ATOM     83  C   UNL     1       5.522  -8.166  -4.607  1.00  0.00     0.089 A 
ATOM     84  N   UNL     1       6.296  -9.648  -3.209  1.00  0.00    -0.338 N 
ATOM     85  N   UNL     1       5.228  -9.394  -5.133  1.00  0.00    -0.228 NA
ATOM     86  C   UNL     1       5.713 -10.273  -4.281  1.00  0.00     0.142 A 
ATOM     87  H   UNL     1       6.677 -10.092  -2.417  1.00  0.00     0.168 HD
BRANCH  86  88
ATOM     88  C   UNL     1       5.668 -11.736  -4.492  1.00  0.00     0.063 A 
ATOM     89  C   UNL     1       5.670 -12.701  -3.514  1.00  0.00     0.117 A 
ATOM     90  C   UNL     1       5.640 -12.438  -5.731  1.00  0.00     0.106 A 
ATOM     91  N   UNL     1       5.553 -13.886  -4.179  1.00  0.00    -0.284 N 
ATOM     92  N   UNL     1       5.581 -13.764  -5.515  1.00  0.00    -0.175 NA
ATOM     93  H   UNL     1       5.457 -14.752  -3.720  1.00  0.00     0.189 HD
BRANCH  90  94
ATOM     94  C   UNL     1       5.825 -11.896  -7.073  1.00  0.00     0.039 A 
ATOM     95  C   UNL     1       6.938 -11.078  -7.341  1.00  0.00     0.016 A 
ATOM     96  C   UNL     1       4.937 -12.185  -8.113  1.00  0.00     0.135 A 
ATOM     97  C   UNL     1       7.145 -10.558  -8.620  1.00  0.00     0.040 A 
ATOM     98  C   UNL     1       5.143 -11.673  -9.393  1.00  0.00     0.079 A 
ATOM     99  F   UNL     1       3.855 -12.951  -7.905  1.00  0.00    -0.206 F 
ATOM    100  C   UNL     1       6.245 -10.864  -9.633  1.00  0.00     0.126 A 
ATOM    101  F   UNL     1       6.449 -10.372 -10.862  1.00  0.00    -0.207 F 
ENDBRANCH  90  94
ENDBRANCH  86  88
ENDBRANCH  75  78
ENDBRANCH  73  74
ENDBRANCH  72  73
ENDBRANCH   1  72
TORSDOF 16
