REMARK SMILES O=C(CC[NH+]1CCC([N@H+]2CCC[C@H](C(=O)NCc3cccnc3)C2)CC1)NCCCCNC(=O)c1ccc(-c2c3nc(c(-c4cccc(S(=O)(=O)[O-])c4F)c4ccc([nH]4)c(-c4cccc(S(=O)(=O)[O-])c4F)c4nc(c(-c5cccc(S(=O)(=O)[O-])c5F)c5ccc2[nH]5)C=C4)C=C3)cc1
REMARK SMILES IDX 28 1 27 2 1 3 2 4 3 6 4 7 5 8 6 9 26 10 7 12 25 13 8 14 9 15
REMARK SMILES IDX 10 16 24 17 11 19 13 20 12 21 14 22 15 23 16 24 17 26 18 27
REMARK SMILES IDX 19 28 23 29 20 30 22 31 21 32 29 33 30 34 31 35 32 36 33 37
REMARK SMILES IDX 34 39 35 40 36 41 97 42 37 43 96 44 38 45 39 46 40 47 90 48
REMARK SMILES IDX 41 49 95 50 89 51 91 52 42 53 94 54 88 55 87 56 43 58 75 59
REMARK SMILES IDX 55 60 74 61 56 62 59 63 73 64 92 65 57 66 58 67 72 69 93 70
REMARK SMILES IDX 60 71 44 72 45 73 53 74 46 75 48 76 54 77 47 78 49 79 50 80
REMARK SMILES IDX 51 81 52 82 76 83 77 84 85 85 78 86 80 87 86 88 79 89 81 90
REMARK SMILES IDX 82 91 83 92 84 93 61 94 62 95 70 96 63 97 65 98 71 99 64 100
REMARK SMILES IDX 66 101 67 102 68 103 69 104
REMARK H PARENT 27 5 5 11 9 18 16 25 32 38 91 57 59 68
REMARK Flexibility Score: inf
ROOT
ATOM      1  C   UNL     1       2.220   1.206   2.051  1.00  0.00     0.116 C 
ENDROOT
BRANCH   1   2
ATOM      2  N   UNL     1       2.782   0.477   0.928  1.00  0.00    -0.356 N 
ATOM      3  O   UNL     1       0.793  -0.246   0.024  1.00  0.00    -0.275 OA
ATOM      4  C   UNL     1       2.018  -0.170  -0.020  1.00  0.00     0.225 C 
ATOM      5  H   UNL     1       3.762   0.443   0.840  1.00  0.00     0.163 HD
BRANCH   4   6
ATOM      6  C   UNL     1       2.818  -0.816  -1.143  1.00  0.00     0.161 C 
BRANCH   6   7
ATOM      7  C   UNL     1       3.567   0.219  -1.987  1.00  0.00     0.272 C 
BRANCH   7   8
ATOM      8  N   UNL     1       4.718   0.723  -1.233  1.00  0.00    -0.334 N 
ATOM      9  C   UNL     1       5.930  -0.079  -1.456  1.00  0.00     0.268 C 
ATOM     10  C   UNL     1       4.996   2.138  -1.486  1.00  0.00     0.268 C 
ATOM     11  H   UNL     1       4.450   0.633  -0.253  1.00  0.00     0.348 HD
ATOM     12  C   UNL     1       6.941   0.277  -0.376  1.00  0.00     0.126 C 
ATOM     13  C   UNL     1       5.956   2.633  -0.410  1.00  0.00     0.126 C 
ATOM     14  C   UNL     1       7.241   1.785  -0.361  1.00  0.00     0.195 C 
BRANCH  14  15
ATOM     15  N   UNL     1       8.029   2.248   0.789  1.00  0.00    -0.331 N 
ATOM     16  C   UNL     1       7.727   1.564   2.049  1.00  0.00     0.262 C 
ATOM     17  C   UNL     1       9.473   2.264   0.532  1.00  0.00     0.275 C 
ATOM     18  H   UNL     1       7.727   3.214   0.912  1.00  0.00     0.348 HD
ATOM     19  C   UNL     1       8.362   2.309   3.202  1.00  0.00     0.062 C 
ATOM     20  C   UNL     1      10.276   2.917   1.658  1.00  0.00     0.133 C 
ATOM     21  C   UNL     1       9.863   2.459   3.053  1.00  0.00     0.025 C 
BRANCH  20  22
ATOM     22  C   UNL     1      10.521   4.420   1.525  1.00  0.00     0.229 C 
ATOM     23  O   UNL     1      11.691   4.814   1.427  1.00  0.00    -0.275 OA
ATOM     24  N   UNL     1       9.602   5.411   1.515  1.00  0.00    -0.352 N 
ATOM     25  H   UNL     1      10.011   6.301   1.607  1.00  0.00     0.163 HD
BRANCH  24  26
ATOM     26  C   UNL     1       8.159   5.478   1.401  1.00  0.00     0.153 C 
BRANCH  26  27
ATOM     27  C   UNL     1       7.500   6.344   2.447  1.00  0.00    -0.010 A 
ATOM     28  C   UNL     1       6.221   6.034   2.924  1.00  0.00     0.009 A 
ATOM     29  C   UNL     1       8.091   7.490   2.969  1.00  0.00     0.116 A 
ATOM     30  C   UNL     1       5.653   6.779   3.959  1.00  0.00     0.020 A 
ATOM     31  N   UNL     1       7.561   8.237   3.970  1.00  0.00    -0.264 NA
ATOM     32  C   UNL     1       6.369   7.849   4.462  1.00  0.00     0.111 A 
ENDBRANCH  26  27
ENDBRANCH  24  26
ENDBRANCH  20  22
ENDBRANCH  14  15
ENDBRANCH   7   8
ENDBRANCH   6   7
ENDBRANCH   4   6
ENDBRANCH   1   2
BRANCH   1  33
ATOM     33  C   UNL     1       2.517   0.559   3.407  1.00  0.00     0.023 C 
BRANCH  33  34
ATOM     34  C   UNL     1       3.981   0.615   3.867  1.00  0.00     0.023 C 
BRANCH  34  35
ATOM     35  C   UNL     1       4.523   1.995   4.264  1.00  0.00     0.116 C 
BRANCH  35  36
ATOM     36  N   UNL     1       3.922   2.531   5.482  1.00  0.00    -0.352 N 
ATOM     37  C   UNL     1       4.493   3.075   6.619  1.00  0.00     0.251 C 
ATOM     38  H   UNL     1       2.938   2.500   5.498  1.00  0.00     0.163 HD
ATOM     39  O   UNL     1       3.770   3.315   7.585  1.00  0.00    -0.269 OA
BRANCH  37  40
ATOM     40  C   UNL     1       5.942   3.410   6.703  1.00  0.00     0.039 A 
ATOM     41  C   UNL     1       6.659   3.260   7.895  1.00  0.00     0.014 A 
ATOM     42  C   UNL     1       6.599   3.964   5.619  1.00  0.00     0.014 A 
ATOM     43  C   UNL     1       8.044   3.542   7.941  1.00  0.00     0.010 A 
ATOM     44  C   UNL     1       7.970   4.242   5.666  1.00  0.00     0.010 A 
ATOM     45  C   UNL     1       8.740   3.969   6.795  1.00  0.00    -0.014 A 
BRANCH  45  46
ATOM     46  C   UNL     1      10.241   3.953   6.670  1.00  0.00     0.031 A 
ATOM     47  C   UNL     1      11.037   5.110   6.084  1.00  0.00     0.074 A 
ATOM     48  C   UNL     1      10.889   2.776   6.834  1.00  0.00     0.049 A 
ATOM     49  N   UNL     1      12.324   5.186   5.836  1.00  0.00    -0.248 NA
ATOM     50  C   UNL     1      10.290   6.303   5.659  1.00  0.00     0.031 C 
ATOM     51  C   UNL     1      10.252   1.494   7.151  1.00  0.00     0.029 A 
ATOM     52  N   UNL     1      12.220   2.448   6.704  1.00  0.00    -0.354 N 
ATOM     53  C   UNL     1      12.528   6.398   5.176  1.00  0.00     0.074 A 
ATOM     54  C   UNL     1      11.222   6.999   5.021  1.00  0.00     0.031 C 
ATOM     55  C   UNL     1      11.187   0.535   7.221  1.00  0.00     0.029 A 
ATOM     56  C   UNL     1      12.493   1.119   6.938  1.00  0.00     0.049 A 
ATOM     57  H   UNL     1      12.914   3.105   6.465  1.00  0.00     0.167 HD
ATOM     58  C   UNL     1      13.688   6.989   4.781  1.00  0.00     0.034 A 
ATOM     59  C   UNL     1      13.656   0.435   6.947  1.00  0.00     0.034 A 
ATOM     60  C   UNL     1      14.998   6.435   5.019  1.00  0.00     0.049 A 
ATOM     61  C   UNL     1      14.948   1.156   6.684  1.00  0.00     0.074 A 
ATOM     62  C   UNL     1      16.232   7.046   4.868  1.00  0.00     0.029 A 
ATOM     63  N   UNL     1      15.246   5.141   5.441  1.00  0.00    -0.354 N 
ATOM     64  N   UNL     1      15.139   2.405   6.343  1.00  0.00    -0.248 NA
ATOM     65  C   UNL     1      16.191   0.387   6.860  1.00  0.00     0.031 C 
ATOM     66  C   UNL     1      17.228   6.113   5.179  1.00  0.00     0.029 A 
ATOM     67  C   UNL     1      16.612   4.933   5.558  1.00  0.00     0.049 A 
ATOM     68  H   UNL     1      14.555   4.467   5.632  1.00  0.00     0.167 HD
ATOM     69  C   UNL     1      16.517   2.584   6.306  1.00  0.00     0.074 A 
ATOM     70  C   UNL     1      17.115   1.321   6.680  1.00  0.00     0.031 C 
ATOM     71  C   UNL     1      17.218   3.698   5.982  1.00  0.00     0.034 A 
BRANCH  58  72
ATOM     72  C   UNL     1      13.624   8.371   4.160  1.00  0.00     0.023 A 
ATOM     73  C   UNL     1      13.190   9.457   4.951  1.00  0.00     0.012 A 
ATOM     74  C   UNL     1      14.102   8.628   2.856  1.00  0.00     0.148 A 
ATOM     75  C   UNL     1      13.180  10.757   4.446  1.00  0.00     0.002 A 
ATOM     76  C   UNL     1      14.137   9.936   2.376  1.00  0.00     0.091 A 
ATOM     77  F   UNL     1      14.525   7.598   2.111  1.00  0.00    -0.205 F 
ATOM     78  C   UNL     1      13.663  10.997   3.165  1.00  0.00     0.022 A 
BRANCH  76  79
ATOM     79  S   UNL     1      14.832  10.377   0.776  1.00  0.00     0.127 S 
ATOM     80  O   UNL     1      13.632  10.758   0.029  1.00  0.00    -0.237 OA
ATOM     81  O   UNL     1      15.710  11.498   1.121  1.00  0.00    -0.237 OA
ATOM     82  O   UNL     1      15.522   9.195   0.290  1.00  0.00    -0.744 OA
ENDBRANCH  76  79
ENDBRANCH  58  72
BRANCH  59  83
ATOM     83  C   UNL     1      13.666  -0.999   7.356  1.00  0.00     0.023 A 
ATOM     84  C   UNL     1      14.174  -1.337   8.627  1.00  0.00     0.012 A 
ATOM     85  C   UNL     1      13.156  -2.015   6.527  1.00  0.00     0.148 A 
ATOM     86  C   UNL     1      14.214  -2.666   9.049  1.00  0.00     0.002 A 
ATOM     87  C   UNL     1      13.149  -3.331   6.976  1.00  0.00     0.091 A 
ATOM     88  F   UNL     1      12.674  -1.671   5.325  1.00  0.00    -0.205 F 
ATOM     89  C   UNL     1      13.694  -3.661   8.227  1.00  0.00     0.022 A 
BRANCH  87  90
ATOM     90  S   UNL     1      12.382  -4.664   6.048  1.00  0.00     0.127 S 
ATOM     91  O   UNL     1      13.541  -5.458   5.649  1.00  0.00    -0.237 OA
ATOM     92  O   UNL     1      11.529  -5.285   7.062  1.00  0.00    -0.237 OA
ATOM     93  O   UNL     1      11.653  -4.021   4.962  1.00  0.00    -0.744 OA
ENDBRANCH  87  90
ENDBRANCH  59  83
BRANCH  71  94
ATOM     94  C   UNL     1      18.723   3.636   6.062  1.00  0.00     0.023 A 
ATOM     95  C   UNL     1      19.452   2.881   5.122  1.00  0.00     0.012 A 
ATOM     96  C   UNL     1      19.420   4.380   7.036  1.00  0.00     0.148 A 
ATOM     97  C   UNL     1      20.845   2.837   5.172  1.00  0.00     0.002 A 
ATOM     98  C   UNL     1      20.810   4.373   7.049  1.00  0.00     0.091 A 
ATOM     99  F   UNL     1      18.711   5.078   7.936  1.00  0.00    -0.205 F 
ATOM    100  C   UNL     1      21.524   3.591   6.127  1.00  0.00     0.022 A 
BRANCH  98 101
ATOM    101  S   UNL     1      21.772   5.384   8.181  1.00  0.00     0.127 S 
ATOM    102  O   UNL     1      22.334   4.375   9.078  1.00  0.00    -0.237 OA
ATOM    103  O   UNL     1      22.744   6.011   7.285  1.00  0.00    -0.237 OA
ATOM    104  O   UNL     1      20.830   6.309   8.796  1.00  0.00    -0.744 OA
ENDBRANCH  98 101
ENDBRANCH  71  94
ENDBRANCH  45  46
ENDBRANCH  37  40
ENDBRANCH  35  36
ENDBRANCH  34  35
ENDBRANCH  33  34
ENDBRANCH   1  33
TORSDOF 20
