REMARK SMILES O=C(NCCCCNC(=O)c1ccc(-c2c3nc(c(-c4cccc(S(=O)(=O)[O-])c4F)c4ccc([nH]4)c(-c4cccc(S(=O)(=O)[O-])c4F)c4nc(c(-c5cccc(S(=O)(=O)[O-])c5F)c5ccc2[nH]5)C=C4)C=C3)cc1)/C(=C/c1ccccc1Cl)NC(=O)c1ccccc1
REMARK SMILES IDX 6 1 5 2 4 3 3 4 1 5 2 6 74 8 75 9 83 10 84 11 85 13 86 14
REMARK SMILES IDX 87 15 91 16 88 17 90 18 89 19 76 20 77 21 81 22 78 23 80 24
REMARK SMILES IDX 82 25 79 26 7 27 8 28 9 29 10 31 11 32 12 33 73 34 13 35
REMARK SMILES IDX 72 36 14 37 15 38 16 39 66 40 17 41 71 42 65 43 67 44 18 45
REMARK SMILES IDX 70 46 64 47 63 48 19 50 51 51 31 52 50 53 32 54 35 55 49 56
REMARK SMILES IDX 68 57 33 58 34 59 48 61 69 62 36 63 20 64 21 65 29 66 22 67
REMARK SMILES IDX 24 68 30 69 23 70 25 71 26 72 27 73 28 74 52 75 53 76 61 77
REMARK SMILES IDX 54 78 56 79 62 80 55 81 57 82 58 83 59 84 60 85 37 86 38 87
REMARK SMILES IDX 46 88 39 89 41 90 47 91 40 92 42 93 43 94 44 95 45 96
REMARK H PARENT 3 7 83 12 8 30 67 49 35 60
REMARK Flexibility Score: inf
ROOT
ATOM      1  C   UNL     1       4.655  -4.236   1.500  1.00  0.00     0.023 C 
ENDROOT
BRANCH   1   2
ATOM      2  C   UNL     1       4.997  -2.839   2.037  1.00  0.00     0.023 C 
BRANCH   2   3
ATOM      3  C   UNL     1       4.696  -1.632   1.150  1.00  0.00     0.116 C 
BRANCH   3   4
ATOM      4  N   UNL     1       3.287  -1.381   0.898  1.00  0.00    -0.351 N 
ATOM      5  O   UNL     1       1.426  -0.209   0.440  1.00  0.00    -0.268 OA
ATOM      6  C   UNL     1       2.654  -0.214   0.543  1.00  0.00     0.267 C 
ATOM      7  H   UNL     1       2.697  -2.163   0.997  1.00  0.00     0.163 HD
BRANCH   6   8
ATOM      8  C   UNL     1       3.443   1.074   0.362  1.00  0.00     0.107 C 
ATOM      9  C   UNL     1       2.861   2.181   0.872  1.00  0.00     0.041 C 
BRANCH   8  10
ATOM     10  N   UNL     1       4.672   1.106  -0.254  1.00  0.00    -0.317 N 
ATOM     11  C   UNL     1       5.164   0.355  -1.302  1.00  0.00     0.255 C 
ATOM     12  H   UNL     1       5.301   1.771   0.110  1.00  0.00     0.170 HD
ATOM     13  O   UNL     1       6.366   0.382  -1.559  1.00  0.00    -0.269 OA
BRANCH  11  14
ATOM     14  C   UNL     1       4.248  -0.458  -2.141  1.00  0.00     0.040 A 
ATOM     15  C   UNL     1       4.635  -1.755  -2.485  1.00  0.00     0.014 A 
ATOM     16  C   UNL     1       3.007   0.036  -2.562  1.00  0.00     0.014 A 
ATOM     17  C   UNL     1       3.732  -2.592  -3.140  1.00  0.00     0.001 A 
ATOM     18  C   UNL     1       2.109  -0.808  -3.214  1.00  0.00     0.001 A 
ATOM     19  C   UNL     1       2.463  -2.128  -3.480  1.00  0.00     0.000 A 
ENDBRANCH  11  14
ENDBRANCH   8  10
BRANCH   9  20
ATOM     20  C   UNL     1       3.358   3.578   0.963  1.00  0.00    -0.005 A 
ATOM     21  C   UNL     1       3.053   4.237   2.171  1.00  0.00     0.010 A 
ATOM     22  C   UNL     1       4.049   4.318  -0.015  1.00  0.00     0.048 A 
ATOM     23  C   UNL     1       3.496   5.538   2.433  1.00  0.00     0.001 A 
ATOM     24  C   UNL     1       4.532   5.606   0.268  1.00  0.00     0.021 A 
ATOM     25  Cl  UNL     1       4.291   3.772  -1.637  1.00  0.00    -0.084 Cl
ATOM     26  C   UNL     1       4.265   6.211   1.493  1.00  0.00     0.002 A 
ENDBRANCH   9  20
ENDBRANCH   6   8
ENDBRANCH   3   4
ENDBRANCH   2   3
ENDBRANCH   1   2
BRANCH   1  27
ATOM     27  C   UNL     1       5.082  -4.609   0.078  1.00  0.00     0.116 C 
BRANCH  27  28
ATOM     28  N   UNL     1       6.511  -4.530  -0.185  1.00  0.00    -0.352 N 
ATOM     29  C   UNL     1       7.282  -5.343  -0.999  1.00  0.00     0.251 C 
ATOM     30  H   UNL     1       6.992  -3.804   0.274  1.00  0.00     0.163 HD
ATOM     31  O   UNL     1       8.486  -5.153  -1.098  1.00  0.00    -0.269 OA
BRANCH  29  32
ATOM     32  C   UNL     1       6.652  -6.476  -1.724  1.00  0.00     0.039 A 
ATOM     33  C   UNL     1       7.142  -7.769  -1.525  1.00  0.00     0.014 A 
ATOM     34  C   UNL     1       5.569  -6.271  -2.579  1.00  0.00     0.014 A 
ATOM     35  C   UNL     1       6.480  -8.861  -2.102  1.00  0.00     0.010 A 
ATOM     36  C   UNL     1       4.882  -7.363  -3.119  1.00  0.00     0.010 A 
ATOM     37  C   UNL     1       5.312  -8.674  -2.863  1.00  0.00    -0.014 A 
BRANCH  37  38
ATOM     38  C   UNL     1       4.484  -9.836  -3.299  1.00  0.00     0.031 A 
ATOM     39  C   UNL     1       4.283 -10.164  -4.755  1.00  0.00     0.074 A 
ATOM     40  C   UNL     1       3.826 -10.558  -2.367  1.00  0.00     0.049 A 
ATOM     41  N   UNL     1       3.586 -11.135  -5.289  1.00  0.00    -0.248 NA
ATOM     42  C   UNL     1       4.929  -9.281  -5.738  1.00  0.00     0.031 C 
ATOM     43  C   UNL     1       3.850 -10.298  -0.926  1.00  0.00     0.029 A 
ATOM     44  N   UNL     1       2.987 -11.640  -2.492  1.00  0.00    -0.354 N 
ATOM     45  C   UNL     1       3.688 -10.971  -6.666  1.00  0.00     0.074 A 
ATOM     46  C   UNL     1       4.495  -9.789  -6.885  1.00  0.00     0.031 C 
ATOM     47  C   UNL     1       3.068 -11.193  -0.303  1.00  0.00     0.029 A 
ATOM     48  C   UNL     1       2.469 -12.080  -1.295  1.00  0.00     0.049 A 
ATOM     49  H   UNL     1       2.777 -12.061  -3.357  1.00  0.00     0.167 HD
ATOM     50  C   UNL     1       3.182 -11.747  -7.657  1.00  0.00     0.034 A 
ATOM     51  C   UNL     1       1.609 -13.083  -1.020  1.00  0.00     0.034 A 
ATOM     52  C   UNL     1       2.414 -12.946  -7.447  1.00  0.00     0.049 A 
ATOM     53  C   UNL     1       1.103 -13.955  -2.138  1.00  0.00     0.074 A 
ATOM     54  C   UNL     1       1.944 -13.841  -8.394  1.00  0.00     0.029 A 
ATOM     55  N   UNL     1       1.994 -13.417  -6.214  1.00  0.00    -0.354 N 
ATOM     56  N   UNL     1       1.372 -13.893  -3.418  1.00  0.00    -0.248 NA
ATOM     57  C   UNL     1       0.208 -15.062  -1.768  1.00  0.00     0.031 C 
ATOM     58  C   UNL     1       1.227 -14.845  -7.735  1.00  0.00     0.029 A 
ATOM     59  C   UNL     1       1.266 -14.585  -6.375  1.00  0.00     0.049 A 
ATOM     60  H   UNL     1       2.184 -12.986  -5.350  1.00  0.00     0.167 HD
ATOM     61  C   UNL     1       0.718 -14.975  -3.998  1.00  0.00     0.074 A 
ATOM     62  C   UNL     1       0.052 -15.686  -2.928  1.00  0.00     0.031 C 
ATOM     63  C   UNL     1       0.665 -15.335  -5.303  1.00  0.00     0.034 A 
BRANCH  50  64
ATOM     64  C   UNL     1       3.501 -11.368  -9.080  1.00  0.00     0.023 A 
ATOM     65  C   UNL     1       4.798 -11.605  -9.579  1.00  0.00     0.012 A 
ATOM     66  C   UNL     1       2.504 -10.879  -9.947  1.00  0.00     0.148 A 
ATOM     67  C   UNL     1       5.105 -11.339 -10.912  1.00  0.00     0.002 A 
ATOM     68  C   UNL     1       2.808 -10.652 -11.285  1.00  0.00     0.091 A 
ATOM     69  F   UNL     1       1.281 -10.647  -9.450  1.00  0.00    -0.205 F 
ATOM     70  C   UNL     1       4.109 -10.873 -11.766  1.00  0.00     0.022 A 
BRANCH  68  71
ATOM     71  S   UNL     1       1.577 -10.129 -12.484  1.00  0.00     0.127 S 
ATOM     72  O   UNL     1       1.970  -8.741 -12.723  1.00  0.00    -0.237 OA
ATOM     73  O   UNL     1       1.830 -11.035 -13.604  1.00  0.00    -0.237 OA
ATOM     74  O   UNL     1       0.285 -10.311 -11.837  1.00  0.00    -0.744 OA
ENDBRANCH  68  71
ENDBRANCH  50  64
BRANCH  51  75
ATOM     75  C   UNL     1       1.229 -13.371   0.392  1.00  0.00     0.023 A 
ATOM     76  C   UNL     1       1.708 -14.543   1.009  1.00  0.00     0.012 A 
ATOM     77  C   UNL     1       0.412 -12.493   1.128  1.00  0.00     0.148 A 
ATOM     78  C   UNL     1       1.350 -14.854   2.321  1.00  0.00     0.002 A 
ATOM     79  C   UNL     1       0.104 -12.781   2.453  1.00  0.00     0.091 A 
ATOM     80  F   UNL     1      -0.049 -11.390   0.519  1.00  0.00    -0.205 F 
ATOM     81  C   UNL     1       0.557 -13.969   3.046  1.00  0.00     0.022 A 
BRANCH  79  82
ATOM     82  S   UNL     1      -0.800 -11.629   3.494  1.00  0.00     0.127 S 
ATOM     83  O   UNL     1      -2.126 -12.238   3.535  1.00  0.00    -0.237 OA
ATOM     84  O   UNL     1      -0.051 -11.697   4.750  1.00  0.00    -0.237 OA
ATOM     85  O   UNL     1      -0.707 -10.342   2.816  1.00  0.00    -0.744 OA
ENDBRANCH  79  82
ENDBRANCH  51  75
BRANCH  63  86
ATOM     86  C   UNL     1      -0.101 -16.581  -5.665  1.00  0.00     0.023 A 
ATOM     87  C   UNL     1      -1.509 -16.571  -5.641  1.00  0.00     0.012 A 
ATOM     88  C   UNL     1       0.574 -17.736  -6.112  1.00  0.00     0.148 A 
ATOM     89  C   UNL     1      -2.234 -17.696  -6.032  1.00  0.00     0.002 A 
ATOM     90  C   UNL     1      -0.156 -18.838  -6.543  1.00  0.00     0.091 A 
ATOM     91  F   UNL     1       1.915 -17.735  -6.108  1.00  0.00    -0.205 F 
ATOM     92  C   UNL     1      -1.559 -18.824  -6.495  1.00  0.00     0.022 A 
BRANCH  90  93
ATOM     93  S   UNL     1       0.627 -20.298  -7.241  1.00  0.00     0.127 S 
ATOM     94  O   UNL     1       0.474 -21.265  -6.156  1.00  0.00    -0.237 OA
ATOM     95  O   UNL     1      -0.202 -20.564  -8.417  1.00  0.00    -0.237 OA
ATOM     96  O   UNL     1       1.997 -19.909  -7.545  1.00  0.00    -0.744 OA
ENDBRANCH  90  93
ENDBRANCH  63  86
ENDBRANCH  37  38
ENDBRANCH  29  32
ENDBRANCH  27  28
ENDBRANCH   1  27
TORSDOF 17
