REMARK SMILES C/C(=C/c1cccc(OCC(=O)NCCCCNC(=O)c2ccc(-c3c4nc(c(-c5cccc(S(=O)(=O)[O-])c5F)c5ccc([nH]5)c(-c5cccc(S(=O)(=O)[O-])c5F)c5nc(c(-c6cccc(S(=O)(=O)[O-])c6F)c6ccc3[nH]6)C=C5)C=C4)cc2)c1)c1nc2sccc2c(=O)[nH]1
REMARK SMILES IDX 15 1 14 2 13 3 11 4 12 5 10 7 9 8 8 9 4 10 5 11 84 12 6 13
REMARK SMILES IDX 7 14 3 15 1 16 2 17 85 18 86 19 94 20 87 21 92 22 88 24
REMARK SMILES IDX 91 25 93 26 89 27 90 28 16 29 17 30 18 31 19 32 20 34 21 35
REMARK SMILES IDX 22 36 83 37 23 38 82 39 24 40 25 41 26 42 76 43 27 44 81 45
REMARK SMILES IDX 75 46 77 47 28 48 80 49 74 50 73 51 29 53 61 54 41 55 60 56
REMARK SMILES IDX 42 57 45 58 59 59 78 60 43 61 44 62 58 64 79 65 46 66 30 67
REMARK SMILES IDX 31 68 39 69 32 70 34 71 40 72 33 73 35 74 36 75 37 76 38 77
REMARK SMILES IDX 62 78 63 79 71 80 64 81 66 82 72 83 65 84 67 85 68 86 69 87
REMARK SMILES IDX 70 88 47 89 48 90 56 91 49 92 51 93 57 94 50 95 52 96 53 97
REMARK SMILES IDX 54 98 55 99
REMARK H PARENT 13 6 94 23 18 33 77 52 45 63
REMARK Flexibility Score: inf
ROOT
ATOM      1  C   UNL     1      -0.908   4.601   6.851  1.00  0.00     0.023 C 
ENDROOT
BRANCH   1   2
ATOM      2  C   UNL     1       0.573   4.966   6.898  1.00  0.00     0.116 C 
BRANCH   2   3
ATOM      3  N   UNL     1       1.438   4.074   6.152  1.00  0.00    -0.353 N 
ATOM      4  C   UNL     1       2.122   4.343   4.998  1.00  0.00     0.257 C 
ATOM      5  O   UNL     1       3.051   3.608   4.662  1.00  0.00    -0.271 OA
ATOM      6  H   UNL     1       1.547   3.167   6.519  1.00  0.00     0.163 HD
BRANCH   4   7
ATOM      7  C   UNL     1       1.783   5.582   4.169  1.00  0.00     0.329 C 
BRANCH   7   8
ATOM      8  O   UNL     1       0.413   5.843   3.930  1.00  0.00    -0.484 OA
BRANCH   8   9
ATOM      9  C   UNL     1      -0.262   5.048   3.044  1.00  0.00     0.120 A 
ATOM     10  C   UNL     1      -0.585   3.226   1.468  1.00  0.00    -0.022 A 
ATOM     11  C   UNL     1      -1.921   3.609   1.305  1.00  0.00     0.008 A 
ATOM     12  C   UNL     1       0.246   3.955   2.338  1.00  0.00     0.054 A 
ATOM     13  C   UNL     1      -2.429   4.698   2.010  1.00  0.00     0.004 A 
ATOM     14  C   UNL     1      -1.600   5.412   2.873  1.00  0.00     0.046 A 
BRANCH  10  15
ATOM     15  C   UNL     1      -0.074   2.097   0.676  1.00  0.00     0.015 C 
ATOM     16  C   UNL     1       1.071  -0.091   0.259  1.00  0.00     0.048 C 
ATOM     17  C   UNL     1       0.506   0.975   1.145  1.00  0.00    -0.008 C 
BRANCH  17  18
ATOM     18  C   UNL     1       0.654   0.731   2.605  1.00  0.00     0.137 A 
ATOM     19  N   UNL     1       1.818   0.640   3.172  1.00  0.00    -0.219 NA
ATOM     20  N   UNL     1      -0.547   0.601   3.267  1.00  0.00    -0.306 N 
ATOM     21  C   UNL     1       1.770   0.464   4.521  1.00  0.00     0.131 A 
ATOM     22  C   UNL     1      -0.647   0.426   4.628  1.00  0.00     0.259 A 
ATOM     23  H   UNL     1      -1.377   0.635   2.739  1.00  0.00     0.171 HD
ATOM     24  S   UNL     1       3.183   0.367   5.476  1.00  0.00    -0.124 S 
ATOM     25  C   UNL     1       0.634   0.360   5.295  1.00  0.00     0.077 A 
ATOM     26  O   UNL     1      -1.723   0.369   5.203  1.00  0.00    -0.269 OA
ATOM     27  C   UNL     1       2.276   0.240   6.925  1.00  0.00     0.068 A 
ATOM     28  C   UNL     1       0.921   0.217   6.684  1.00  0.00     0.028 A 
ENDBRANCH  17  18
ENDBRANCH  10  15
ENDBRANCH   8   9
ENDBRANCH   7   8
ENDBRANCH   4   7
ENDBRANCH   2   3
ENDBRANCH   1   2
BRANCH   1  29
ATOM     29  C   UNL     1      -1.311   3.271   7.494  1.00  0.00     0.023 C 
BRANCH  29  30
ATOM     30  C   UNL     1      -0.788   2.990   8.900  1.00  0.00     0.116 C 
BRANCH  30  31
ATOM     31  N   UNL     1      -1.177   4.000   9.868  1.00  0.00    -0.352 N 
ATOM     32  C   UNL     1      -1.697   3.869  11.133  1.00  0.00     0.251 C 
ATOM     33  H   UNL     1      -1.046   4.929   9.570  1.00  0.00     0.163 HD
ATOM     34  O   UNL     1      -2.053   4.883  11.731  1.00  0.00    -0.269 OA
BRANCH  32  35
ATOM     35  C   UNL     1      -1.859   2.543  11.783  1.00  0.00     0.039 A 
ATOM     36  C   UNL     1      -3.002   2.325  12.561  1.00  0.00     0.014 A 
ATOM     37  C   UNL     1      -0.890   1.539  11.695  1.00  0.00     0.014 A 
ATOM     38  C   UNL     1      -3.193   1.099  13.209  1.00  0.00     0.010 A 
ATOM     39  C   UNL     1      -1.112   0.293  12.291  1.00  0.00     0.010 A 
ATOM     40  C   UNL     1      -2.260   0.060  13.064  1.00  0.00    -0.014 A 
BRANCH  40  41
ATOM     41  C   UNL     1      -2.487  -1.263  13.712  1.00  0.00     0.031 A 
ATOM     42  C   UNL     1      -1.560  -1.768  14.788  1.00  0.00     0.074 A 
ATOM     43  C   UNL     1      -3.506  -2.043  13.298  1.00  0.00     0.049 A 
ATOM     44  N   UNL     1      -1.615  -2.888  15.465  1.00  0.00    -0.248 NA
ATOM     45  C   UNL     1      -0.410  -0.918  15.134  1.00  0.00     0.031 C 
ATOM     46  C   UNL     1      -4.433  -1.716  12.213  1.00  0.00     0.029 A 
ATOM     47  N   UNL     1      -3.921  -3.280  13.728  1.00  0.00    -0.354 N 
ATOM     48  C   UNL     1      -0.498  -2.892  16.293  1.00  0.00     0.074 A 
ATOM     49  C   UNL     1       0.236  -1.677  16.009  1.00  0.00     0.031 C 
ATOM     50  C   UNL     1      -5.310  -2.722  12.066  1.00  0.00     0.029 A 
ATOM     51  C   UNL     1      -5.000  -3.774  13.030  1.00  0.00     0.049 A 
ATOM     52  H   UNL     1      -3.489  -3.767  14.466  1.00  0.00     0.167 HD
ATOM     53  C   UNL     1      -0.128  -3.804  17.225  1.00  0.00     0.034 A 
ATOM     54  C   UNL     1      -5.666  -4.939  13.151  1.00  0.00     0.034 A 
ATOM     55  C   UNL     1      -0.875  -4.994  17.540  1.00  0.00     0.049 A 
ATOM     56  C   UNL     1      -5.266  -5.911  14.229  1.00  0.00     0.074 A 
ATOM     57  C   UNL     1      -0.625  -5.931  18.528  1.00  0.00     0.029 A 
ATOM     58  N   UNL     1      -2.011  -5.418  16.870  1.00  0.00    -0.354 N 
ATOM     59  N   UNL     1      -4.307  -5.812  15.116  1.00  0.00    -0.248 NA
ATOM     60  C   UNL     1      -6.071  -7.136  14.349  1.00  0.00     0.031 C 
ATOM     61  C   UNL     1      -1.599  -6.933  18.441  1.00  0.00     0.029 A 
ATOM     62  C   UNL     1      -2.471  -6.606  17.416  1.00  0.00     0.049 A 
ATOM     63  H   UNL     1      -2.431  -4.944  16.116  1.00  0.00     0.167 HD
ATOM     64  C   UNL     1      -4.413  -6.942  15.920  1.00  0.00     0.074 A 
ATOM     65  C   UNL     1      -5.548  -7.697  15.431  1.00  0.00     0.031 C 
ATOM     66  C   UNL     1      -3.630  -7.328  16.958  1.00  0.00     0.034 A 
BRANCH  53  67
ATOM     67  C   UNL     1       1.122  -3.523  18.021  1.00  0.00     0.023 A 
ATOM     68  C   UNL     1       1.113  -2.494  18.986  1.00  0.00     0.012 A 
ATOM     69  C   UNL     1       2.281  -4.308  17.863  1.00  0.00     0.148 A 
ATOM     70  C   UNL     1       2.246  -2.226  19.753  1.00  0.00     0.002 A 
ATOM     71  C   UNL     1       3.393  -4.064  18.663  1.00  0.00     0.091 A 
ATOM     72  F   UNL     1       2.280  -5.270  16.929  1.00  0.00    -0.205 F 
ATOM     73  C   UNL     1       3.381  -3.017  19.599  1.00  0.00     0.022 A 
BRANCH  71  74
ATOM     74  S   UNL     1       4.875  -5.078  18.598  1.00  0.00     0.127 S 
ATOM     75  O   UNL     1       5.821  -4.173  17.945  1.00  0.00    -0.237 OA
ATOM     76  O   UNL     1       5.145  -5.322  20.015  1.00  0.00    -0.237 OA
ATOM     77  O   UNL     1       4.516  -6.265  17.835  1.00  0.00    -0.744 OA
ENDBRANCH  71  74
ENDBRANCH  53  67
BRANCH  54  78
ATOM     78  C   UNL     1      -6.838  -5.220  12.272  1.00  0.00     0.023 A 
ATOM     79  C   UNL     1      -8.133  -5.220  12.826  1.00  0.00     0.012 A 
ATOM     80  C   UNL     1      -6.680  -5.464  10.895  1.00  0.00     0.148 A 
ATOM     81  C   UNL     1      -9.247  -5.492  12.032  1.00  0.00     0.002 A 
ATOM     82  C   UNL     1      -7.799  -5.680  10.098  1.00  0.00     0.091 A 
ATOM     83  F   UNL     1      -5.439  -5.473  10.389  1.00  0.00    -0.205 F 
ATOM     84  C   UNL     1      -9.081  -5.712  10.668  1.00  0.00     0.022 A 
BRANCH  82  85
ATOM     85  S   UNL     1      -7.694  -5.846   8.313  1.00  0.00     0.127 S 
ATOM     86  O   UNL     1      -8.003  -7.261   8.124  1.00  0.00    -0.237 OA
ATOM     87  O   UNL     1      -8.735  -4.922   7.862  1.00  0.00    -0.237 OA
ATOM     88  O   UNL     1      -6.340  -5.442   7.960  1.00  0.00    -0.744 OA
ENDBRANCH  82  85
ENDBRANCH  54  78
BRANCH  66  89
ATOM     89  C   UNL     1      -3.987  -8.614  17.661  1.00  0.00     0.023 A 
ATOM     90  C   UNL     1      -3.784  -9.848  17.011  1.00  0.00     0.012 A 
ATOM     91  C   UNL     1      -4.480  -8.604  18.981  1.00  0.00     0.148 A 
ATOM     92  C   UNL     1      -4.106 -11.048  17.647  1.00  0.00     0.002 A 
ATOM     93  C   UNL     1      -4.752  -9.806  19.626  1.00  0.00     0.091 A 
ATOM     94  F   UNL     1      -4.688  -7.422  19.580  1.00  0.00    -0.205 F 
ATOM     95  C   UNL     1      -4.579 -11.027  18.956  1.00  0.00     0.022 A 
BRANCH  93  96
ATOM     96  S   UNL     1      -5.274  -9.873  21.344  1.00  0.00     0.127 S 
ATOM     97  O   UNL     1      -6.707 -10.130  21.212  1.00  0.00    -0.237 OA
ATOM     98  O   UNL     1      -4.499 -11.001  21.864  1.00  0.00    -0.237 OA
ATOM     99  O   UNL     1      -4.915  -8.583  21.919  1.00  0.00    -0.744 OA
ENDBRANCH  93  96
ENDBRANCH  66  89
ENDBRANCH  40  41
ENDBRANCH  32  35
ENDBRANCH  30  31
ENDBRANCH  29  30
ENDBRANCH   1  29
TORSDOF 18
