REMARK SMILES CNS(=O)(=O)c1ccc(Oc2csc(C(=O)NCCCCNC(=O)c3ccc(-c4c5nc(c(-c6cccc(S(=O)(=O)[O-])c6F)c6ccc([nH]6)c(-c6cccc(S(=O)(=O)[O-])c6F)c6nc(c(-c7cccc(S(=O)(=O)[O-])c7F)c7ccc4[nH]7)C=C6)C=C5)cc3)c2)cc1
REMARK SMILES IDX 19 1 18 2 17 3 15 4 16 5 14 7 11 8 12 9 88 10 13 11 10 12
REMARK SMILES IDX 9 13 6 14 7 15 90 16 8 17 89 18 3 19 4 20 5 21 2 22 1 23
REMARK SMILES IDX 20 25 21 26 22 27 23 28 24 30 25 31 26 32 87 33 27 34 86 35
REMARK SMILES IDX 28 36 29 37 30 38 80 39 31 40 85 41 79 42 81 43 32 44 84 45
REMARK SMILES IDX 78 46 77 47 33 49 65 50 45 51 64 52 46 53 49 54 63 55 82 56
REMARK SMILES IDX 47 57 48 58 62 60 83 61 50 62 34 63 35 64 43 65 36 66 38 67
REMARK SMILES IDX 44 68 37 69 39 70 40 71 41 72 42 73 66 74 67 75 75 76 68 77
REMARK SMILES IDX 70 78 76 79 69 80 71 81 72 82 73 83 74 84 51 85 52 86 60 87
REMARK SMILES IDX 53 88 55 89 61 90 54 91 56 92 57 93 58 94 59 95
REMARK H PARENT 17 6 2 24 22 29 81 48 49 59
REMARK Flexibility Score: inf
ROOT
ATOM      1  C   UNL     1      -4.452   6.404  -4.472  1.00  0.00     0.023 C 
ENDROOT
BRANCH   1   2
ATOM      2  C   UNL     1      -4.985   7.387  -3.431  1.00  0.00     0.116 C 
BRANCH   2   3
ATOM      3  N   UNL     1      -6.386   7.142  -3.160  1.00  0.00    -0.351 N 
ATOM      4  C   UNL     1      -7.040   6.557  -2.103  1.00  0.00     0.261 C 
ATOM      5  O   UNL     1      -8.272   6.564  -2.183  1.00  0.00    -0.268 OA
ATOM      6  H   UNL     1      -6.988   7.455  -3.874  1.00  0.00     0.163 HD
BRANCH   4   7
ATOM      7  C   UNL     1      -6.322   6.005  -0.959  1.00  0.00     0.096 A 
ATOM      8  C   UNL     1      -4.741   5.217   0.564  1.00  0.00     0.138 A 
ATOM      9  C   UNL     1      -5.850   5.258   1.371  1.00  0.00     0.112 A 
ATOM     10  C   UNL     1      -5.015   5.589  -0.779  1.00  0.00     0.072 A 
ATOM     11  S   UNL     1      -7.227   5.761   0.498  1.00  0.00    -0.135 S 
BRANCH   8  12
ATOM     12  O   UNL     1      -3.512   4.918   1.036  1.00  0.00    -0.456 OA
BRANCH  12  13
ATOM     13  C   UNL     1      -3.042   3.627   1.038  1.00  0.00     0.127 A 
ATOM     14  C   UNL     1      -1.909   1.088   1.200  1.00  0.00     0.082 A 
ATOM     15  C   UNL     1      -1.123   2.210   1.472  1.00  0.00     0.025 A 
ATOM     16  C   UNL     1      -3.249   1.229   0.826  1.00  0.00     0.025 A 
ATOM     17  C   UNL     1      -1.696   3.480   1.387  1.00  0.00     0.048 A 
ATOM     18  C   UNL     1      -3.817   2.501   0.749  1.00  0.00     0.048 A 
BRANCH  14  19
ATOM     19  S   UNL     1      -1.243  -0.549   1.307  1.00  0.00     0.240 S 
ATOM     20  O   UNL     1      -1.681  -1.295   0.146  1.00  0.00    -0.207 OA
ATOM     21  O   UNL     1      -1.483  -1.016   2.651  1.00  0.00    -0.207 OA
BRANCH  19  22
ATOM     22  N   UNL     1       0.424  -0.348   1.180  1.00  0.00    -0.214 NA
ATOM     23  C   UNL     1       0.999  -0.160  -0.147  1.00  0.00     0.120 C 
ATOM     24  H   UNL     1       0.673   0.471   1.736  1.00  0.00     0.141 HD
ENDBRANCH  19  22
ENDBRANCH  14  19
ENDBRANCH  12  13
ENDBRANCH   8  12
ENDBRANCH   4   7
ENDBRANCH   2   3
ENDBRANCH   1   2
BRANCH   1  25
ATOM     25  C   UNL     1      -4.830   6.768  -5.912  1.00  0.00     0.023 C 
BRANCH  25  26
ATOM     26  C   UNL     1      -4.336   8.134  -6.385  1.00  0.00     0.116 C 
BRANCH  26  27
ATOM     27  N   UNL     1      -2.893   8.298  -6.259  1.00  0.00    -0.352 N 
ATOM     28  C   UNL     1      -2.026   8.906  -7.136  1.00  0.00     0.251 C 
ATOM     29  H   UNL     1      -2.488   7.928  -5.442  1.00  0.00     0.163 HD
ATOM     30  O   UNL     1      -0.815   8.862  -6.946  1.00  0.00    -0.269 OA
BRANCH  28  31
ATOM     31  C   UNL     1      -2.577   9.577  -8.330  1.00  0.00     0.039 A 
ATOM     32  C   UNL     1      -2.093   9.221  -9.590  1.00  0.00     0.014 A 
ATOM     33  C   UNL     1      -3.628  10.489  -8.201  1.00  0.00     0.014 A 
ATOM     34  C   UNL     1      -2.723   9.720 -10.731  1.00  0.00     0.010 A 
ATOM     35  C   UNL     1      -4.301  10.922  -9.338  1.00  0.00     0.010 A 
ATOM     36  C   UNL     1      -3.862  10.534 -10.614  1.00  0.00    -0.014 A 
BRANCH  36  37
ATOM     37  C   UNL     1      -4.638  10.951 -11.810  1.00  0.00     0.031 A 
ATOM     38  C   UNL     1      -4.792  12.408 -12.145  1.00  0.00     0.074 A 
ATOM     39  C   UNL     1      -5.289  10.019 -12.535  1.00  0.00     0.049 A 
ATOM     40  N   UNL     1      -5.489  12.962 -13.103  1.00  0.00    -0.248 NA
ATOM     41  C   UNL     1      -4.096  13.370 -11.275  1.00  0.00     0.031 C 
ATOM     42  C   UNL     1      -5.285   8.580 -12.261  1.00  0.00     0.029 A 
ATOM     43  N   UNL     1      -6.108  10.145 -13.630  1.00  0.00    -0.354 N 
ATOM     44  C   UNL     1      -5.346  14.333 -12.931  1.00  0.00     0.074 A 
ATOM     45  C   UNL     1      -4.522  14.528 -11.758  1.00  0.00     0.031 C 
ATOM     46  C   UNL     1      -6.063   7.958 -13.161  1.00  0.00     0.029 A 
ATOM     47  C   UNL     1      -6.654   8.954 -14.050  1.00  0.00     0.049 A 
ATOM     48  H   UNL     1      -6.288  11.006 -14.072  1.00  0.00     0.167 HD
ATOM     49  C   UNL     1      -5.837  15.339 -13.693  1.00  0.00     0.034 A 
ATOM     50  C   UNL     1      -7.547   8.692 -15.024  1.00  0.00     0.034 A 
ATOM     51  C   UNL     1      -6.634  15.139 -14.873  1.00  0.00     0.049 A 
ATOM     52  C   UNL     1      -8.063   9.826 -15.868  1.00  0.00     0.074 A 
ATOM     53  C   UNL     1      -7.098  16.089 -15.766  1.00  0.00     0.029 A 
ATOM     54  N   UNL     1      -7.107  13.913 -15.313  1.00  0.00    -0.354 N 
ATOM     55  N   UNL     1      -7.780  11.103 -15.794  1.00  0.00    -0.248 NA
ATOM     56  C   UNL     1      -8.997   9.480 -16.949  1.00  0.00     0.031 C 
ATOM     57  C   UNL     1      -7.888  15.441 -16.721  1.00  0.00     0.029 A 
ATOM     58  C   UNL     1      -7.878  14.082 -16.450  1.00  0.00     0.049 A 
ATOM     59  H   UNL     1      -6.921  13.048 -14.880  1.00  0.00     0.167 HD
ATOM     60  C   UNL     1      -8.475  11.709 -16.835  1.00  0.00     0.074 A 
ATOM     61  C   UNL     1      -9.174  10.654 -17.539  1.00  0.00     0.031 C 
ATOM     62  C   UNL     1      -8.537  13.022 -17.169  1.00  0.00     0.034 A 
BRANCH  49  63
ATOM     63  C   UNL     1      -5.499  16.751 -13.290  1.00  0.00     0.023 A 
ATOM     64  C   UNL     1      -4.177  17.222 -13.424  1.00  0.00     0.012 A 
ATOM     65  C   UNL     1      -6.501  17.629 -12.831  1.00  0.00     0.148 A 
ATOM     66  C   UNL     1      -3.848  18.529 -13.070  1.00  0.00     0.002 A 
ATOM     67  C   UNL     1      -6.176  18.945 -12.528  1.00  0.00     0.091 A 
ATOM     68  F   UNL     1      -7.748  17.159 -12.691  1.00  0.00    -0.205 F 
ATOM     69  C   UNL     1      -4.848  19.393 -12.633  1.00  0.00     0.022 A 
BRANCH  67  70
ATOM     70  S   UNL     1      -7.405  20.158 -12.036  1.00  0.00     0.127 S 
ATOM     71  O   UNL     1      -7.059  20.375 -10.632  1.00  0.00    -0.237 OA
ATOM     72  O   UNL     1      -7.096  21.283 -12.920  1.00  0.00    -0.237 OA
ATOM     73  O   UNL     1      -8.701  19.537 -12.271  1.00  0.00    -0.744 OA
ENDBRANCH  67  70
ENDBRANCH  49  63
BRANCH  50  74
ATOM     74  C   UNL     1      -7.986   7.290 -15.275  1.00  0.00     0.023 A 
ATOM     75  C   UNL     1      -7.590   6.635 -16.457  1.00  0.00     0.012 A 
ATOM     76  C   UNL     1      -8.770   6.594 -14.334  1.00  0.00     0.148 A 
ATOM     77  C   UNL     1      -7.995   5.324 -16.713  1.00  0.00     0.002 A 
ATOM     78  C   UNL     1      -9.120   5.270 -14.568  1.00  0.00     0.091 A 
ATOM     79  F   UNL     1      -9.143   7.239 -13.219  1.00  0.00    -0.205 F 
ATOM     80  C   UNL     1      -8.750   4.639 -15.765  1.00  0.00     0.022 A 
BRANCH  78  81
ATOM     81  S   UNL     1      -9.973   4.269 -13.345  1.00  0.00     0.127 S 
ATOM     82  O   UNL     1     -11.269   4.057 -13.985  1.00  0.00    -0.237 OA
ATOM     83  O   UNL     1      -9.117   3.084 -13.279  1.00  0.00    -0.237 OA
ATOM     84  O   UNL     1      -9.993   5.065 -12.126  1.00  0.00    -0.744 OA
ENDBRANCH  78  81
ENDBRANCH  50  74
BRANCH  62  85
ATOM     85  C   UNL     1      -9.361  13.402 -18.371  1.00  0.00     0.023 A 
ATOM     86  C   UNL     1     -10.767  13.345 -18.310  1.00  0.00     0.012 A 
ATOM     87  C   UNL     1      -8.739  13.896 -19.536  1.00  0.00     0.148 A 
ATOM     88  C   UNL     1     -11.541  13.745 -19.399  1.00  0.00     0.002 A 
ATOM     89  C   UNL     1      -9.517  14.343 -20.596  1.00  0.00     0.091 A 
ATOM     90  F   UNL     1      -7.399  13.927 -19.580  1.00  0.00    -0.205 F 
ATOM     91  C   UNL     1     -10.917  14.255 -20.535  1.00  0.00     0.022 A 
BRANCH  89  92
ATOM     92  S   UNL     1      -8.809  15.106 -22.060  1.00  0.00     0.127 S 
ATOM     93  O   UNL     1      -9.101  14.108 -23.087  1.00  0.00    -0.237 OA
ATOM     94  O   UNL     1      -9.587  16.341 -22.170  1.00  0.00    -0.237 OA
ATOM     95  O   UNL     1      -7.395  15.303 -21.770  1.00  0.00    -0.744 OA
ENDBRANCH  89  92
ENDBRANCH  62  85
ENDBRANCH  36  37
ENDBRANCH  28  31
ENDBRANCH  26  27
ENDBRANCH  25  26
ENDBRANCH   1  25
TORSDOF 18
