REMARK SMILES CC[C@@H]1CCC[C@@](CC[NH+]2CCOCC2)(C(=O)NCCCCNC(=O)c2ccc(-c3c4nc(c(-c5cccc(S(=O)(=O)[O-])c5F)c5ccc([nH]5)c(-c5cccc(S(=O)(=O)[O-])c5F)c5nc(c(-c6cccc(S(=O)(=O)[O-])c6F)c6ccc3[nH]6)C=C5)C=C4)cc2)C1
REMARK SMILES IDX 20 1 19 2 18 3 16 4 17 5 7 7 3 8 4 9 89 10 5 11 6 12 2 13
REMARK SMILES IDX 1 14 8 15 9 16 10 17 11 18 15 19 12 21 14 22 13 23 21 24
REMARK SMILES IDX 22 25 23 26 24 27 25 29 26 30 27 31 88 32 28 33 87 34 29 35
REMARK SMILES IDX 30 36 31 37 81 38 32 39 86 40 80 41 82 42 33 43 85 44 79 45
REMARK SMILES IDX 78 46 34 48 66 49 46 50 65 51 47 52 50 53 64 54 83 55 48 56
REMARK SMILES IDX 49 57 63 59 84 60 51 61 35 62 36 63 44 64 37 65 39 66 45 67
REMARK SMILES IDX 38 68 40 69 41 70 42 71 43 72 67 73 68 74 76 75 69 76 71 77
REMARK SMILES IDX 77 78 70 79 72 80 73 81 74 82 75 83 52 84 53 85 61 86 54 87
REMARK SMILES IDX 56 88 62 89 55 90 57 91 58 92 59 93 60 94
REMARK H PARENT 18 6 10 20 23 28 82 47 50 58
REMARK Flexibility Score: inf
ROOT
ATOM      1  C   UNL     1       4.287   7.262  -1.981  1.00  0.00     0.023 C 
ENDROOT
BRANCH   1   2
ATOM      2  C   UNL     1       3.116   6.791  -1.109  1.00  0.00     0.116 C 
BRANCH   2   3
ATOM      3  N   UNL     1       2.189   5.858  -1.730  1.00  0.00    -0.356 N 
ATOM      4  C   UNL     1       1.114   5.148  -1.279  1.00  0.00     0.226 C 
ATOM      5  O   UNL     1       0.467   4.570  -2.163  1.00  0.00    -0.274 OA
ATOM      6  H   UNL     1       2.379   5.704  -2.684  1.00  0.00     0.163 HD
BRANCH   4   7
ATOM      7  C   UNL     1       0.667   5.024   0.207  1.00  0.00     0.055 C 
ATOM      8  C   UNL     1       1.005   2.415   0.263  1.00  0.00    -0.010 C 
ATOM      9  C   UNL     1       2.234   2.603   1.164  1.00  0.00     0.003 C 
ATOM     10  C   UNL     1       0.027   3.596   0.405  1.00  0.00     0.020 C 
ATOM     11  C   UNL     1       2.842   3.998   1.052  1.00  0.00     0.001 C 
ATOM     12  C   UNL     1       1.795   5.102   1.251  1.00  0.00     0.017 C 
BRANCH   8  13
ATOM     13  C   UNL     1       0.270   1.099   0.603  1.00  0.00     0.000 C 
ATOM     14  C   UNL     1       0.943  -0.132   0.013  1.00  0.00     0.004 C 
ENDBRANCH   8  13
BRANCH   7  15
ATOM     15  C   UNL     1      -0.509   6.005   0.530  1.00  0.00     0.078 C 
BRANCH  15  16
ATOM     16  C   UNL     1      -0.305   7.522   0.411  1.00  0.00     0.263 C 
BRANCH  16  17
ATOM     17  N   UNL     1      -0.896   8.046  -0.832  1.00  0.00    -0.331 N 
ATOM     18  C   UNL     1       0.091   8.680  -1.723  1.00  0.00     0.291 C 
ATOM     19  C   UNL     1      -1.947   9.064  -0.595  1.00  0.00     0.291 C 
ATOM     20  H   UNL     1      -1.291   7.213  -1.268  1.00  0.00     0.348 HD
ATOM     21  C   UNL     1       0.653   9.995  -1.164  1.00  0.00     0.221 C 
ATOM     22  C   UNL     1      -1.407  10.422  -0.102  1.00  0.00     0.221 C 
ATOM     23  O   UNL     1      -0.393  10.948  -0.965  1.00  0.00    -0.370 OA
ENDBRANCH  16  17
ENDBRANCH  15  16
ENDBRANCH   7  15
ENDBRANCH   4   7
ENDBRANCH   2   3
ENDBRANCH   1   2
BRANCH   1  24
ATOM     24  C   UNL     1       4.061   7.664  -3.441  1.00  0.00     0.023 C 
BRANCH  24  25
ATOM     25  C   UNL     1       3.246   8.914  -3.759  1.00  0.00     0.116 C 
BRANCH  25  26
ATOM     26  N   UNL     1       3.655  10.119  -3.056  1.00  0.00    -0.352 N 
ATOM     27  C   UNL     1       3.646  11.430  -3.486  1.00  0.00     0.251 C 
ATOM     28  H   UNL     1       3.987   9.979  -2.139  1.00  0.00     0.163 HD
ATOM     29  O   UNL     1       3.997  12.319  -2.711  1.00  0.00    -0.269 OA
BRANCH  27  30
ATOM     30  C   UNL     1       3.301  11.768  -4.888  1.00  0.00     0.039 A 
ATOM     31  C   UNL     1       4.183  12.594  -5.595  1.00  0.00     0.014 A 
ATOM     32  C   UNL     1       2.174  11.246  -5.528  1.00  0.00     0.014 A 
ATOM     33  C   UNL     1       4.008  12.788  -6.968  1.00  0.00     0.010 A 
ATOM     34  C   UNL     1       2.030  11.397  -6.910  1.00  0.00     0.010 A 
ATOM     35  C   UNL     1       2.967  12.135  -7.648  1.00  0.00    -0.014 A 
BRANCH  35  36
ATOM     36  C   UNL     1       2.934  12.122  -9.134  1.00  0.00     0.031 A 
ATOM     37  C   UNL     1       1.840  12.807  -9.899  1.00  0.00     0.074 A 
ATOM     38  C   UNL     1       3.870  11.408  -9.795  1.00  0.00     0.049 A 
ATOM     39  N   UNL     1       1.680  12.900 -11.195  1.00  0.00    -0.248 NA
ATOM     40  C   UNL     1       0.780  13.456  -9.114  1.00  0.00     0.031 C 
ATOM     41  C   UNL     1       4.931  10.620  -9.161  1.00  0.00     0.029 A 
ATOM     42  N   UNL     1       4.070  11.208 -11.138  1.00  0.00    -0.354 N 
ATOM     43  C   UNL     1       0.494  13.597 -11.383  1.00  0.00     0.074 A 
ATOM     44  C   UNL     1      -0.039  13.881 -10.067  1.00  0.00     0.031 C 
ATOM     45  C   UNL     1       5.670  10.028 -10.113  1.00  0.00     0.029 A 
ATOM     46  C   UNL     1       5.131  10.379 -11.422  1.00  0.00     0.049 A 
ATOM     47  H   UNL     1       3.507  11.619 -11.833  1.00  0.00     0.167 HD
ATOM     48  C   UNL     1      -0.083  13.990 -12.544  1.00  0.00     0.034 A 
ATOM     49  C   UNL     1       5.621   9.952 -12.603  1.00  0.00     0.034 A 
ATOM     50  C   UNL     1       0.467  13.734 -13.850  1.00  0.00     0.049 A 
ATOM     51  C   UNL     1       4.992  10.448 -13.876  1.00  0.00     0.074 A 
ATOM     52  C   UNL     1       0.003  14.168 -15.079  1.00  0.00     0.029 A 
ATOM     53  N   UNL     1       1.596  12.969 -14.097  1.00  0.00    -0.354 N 
ATOM     54  N   UNL     1       3.980  11.267 -14.030  1.00  0.00    -0.248 NA
ATOM     55  C   UNL     1       5.596   9.996 -15.139  1.00  0.00     0.031 C 
ATOM     56  C   UNL     1       0.846  13.655 -16.072  1.00  0.00     0.029 A 
ATOM     57  C   UNL     1       1.841  12.911 -15.459  1.00  0.00     0.049 A 
ATOM     58  H   UNL     1       2.143  12.531 -13.406  1.00  0.00     0.167 HD
ATOM     59  C   UNL     1       3.844  11.453 -15.400  1.00  0.00     0.074 A 
ATOM     60  C   UNL     1       4.893  10.679 -16.033  1.00  0.00     0.031 C 
ATOM     61  C   UNL     1       2.922  12.184 -16.074  1.00  0.00     0.034 A 
BRANCH  48  62
ATOM     62  C   UNL     1      -1.348  14.803 -12.453  1.00  0.00     0.023 A 
ATOM     63  C   UNL     1      -1.270  16.149 -12.040  1.00  0.00     0.012 A 
ATOM     64  C   UNL     1      -2.594  14.266 -12.828  1.00  0.00     0.148 A 
ATOM     65  C   UNL     1      -2.417  16.939 -11.971  1.00  0.00     0.002 A 
ATOM     66  C   UNL     1      -3.728  15.070 -12.791  1.00  0.00     0.091 A 
ATOM     67  F   UNL     1      -2.652  12.979 -13.199  1.00  0.00    -0.205 F 
ATOM     68  C   UNL     1      -3.643  16.403 -12.355  1.00  0.00     0.022 A 
BRANCH  66  69
ATOM     69  S   UNL     1      -5.341  14.492 -13.331  1.00  0.00     0.127 S 
ATOM     70  O   UNL     1      -6.030  14.304 -12.055  1.00  0.00    -0.237 OA
ATOM     71  O   UNL     1      -5.828  15.621 -14.125  1.00  0.00    -0.237 OA
ATOM     72  O   UNL     1      -5.094  13.278 -14.097  1.00  0.00    -0.744 OA
ENDBRANCH  66  69
ENDBRANCH  48  62
BRANCH  49  73
ATOM     73  C   UNL     1       6.827   9.076 -12.633  1.00  0.00     0.023 A 
ATOM     74  C   UNL     1       8.053   9.608 -13.077  1.00  0.00     0.012 A 
ATOM     75  C   UNL     1       6.780   7.741 -12.187  1.00  0.00     0.148 A 
ATOM     76  C   UNL     1       9.204   8.820 -13.102  1.00  0.00     0.002 A 
ATOM     77  C   UNL     1       7.942   6.977 -12.165  1.00  0.00     0.091 A 
ATOM     78  F   UNL     1       5.601   7.245 -11.783  1.00  0.00    -0.205 F 
ATOM     79  C   UNL     1       9.152   7.509 -12.636  1.00  0.00     0.022 A 
BRANCH  77  80
ATOM     80  S   UNL     1       7.988   5.327 -11.453  1.00  0.00     0.127 S 
ATOM     81  O   UNL     1       8.012   4.486 -12.646  1.00  0.00    -0.237 OA
ATOM     82  O   UNL     1       9.238   5.355 -10.693  1.00  0.00    -0.237 OA
ATOM     83  O   UNL     1       6.792   5.231 -10.626  1.00  0.00    -0.744 OA
ENDBRANCH  77  80
ENDBRANCH  49  73
BRANCH  61  84
ATOM     84  C   UNL     1       3.009  12.203 -17.577  1.00  0.00     0.023 A 
ATOM     85  C   UNL     1       2.600  11.071 -18.310  1.00  0.00     0.012 A 
ATOM     86  C   UNL     1       3.417  13.363 -18.264  1.00  0.00     0.148 A 
ATOM     87  C   UNL     1       2.618  11.085 -19.704  1.00  0.00     0.002 A 
ATOM     88  C   UNL     1       3.392  13.384 -19.654  1.00  0.00     0.091 A 
ATOM     89  F   UNL     1       3.826  14.421 -17.549  1.00  0.00    -0.205 F 
ATOM     90  C   UNL     1       3.002  12.244 -20.375  1.00  0.00     0.022 A 
BRANCH  88  91
ATOM     91  S   UNL     1       3.784  14.863 -20.596  1.00  0.00     0.127 S 
ATOM     92  O   UNL     1       5.131  14.563 -21.077  1.00  0.00    -0.237 OA
ATOM     93  O   UNL     1       2.752  14.857 -21.634  1.00  0.00    -0.237 OA
ATOM     94  O   UNL     1       3.683  15.971 -19.656  1.00  0.00    -0.744 OA
ENDBRANCH  88  91
ENDBRANCH  61  84
ENDBRANCH  35  36
ENDBRANCH  27  30
ENDBRANCH  25  26
ENDBRANCH  24  25
ENDBRANCH   1  24
TORSDOF 18
