REMARK SMILES CC(C)Cc1cc2c(cc1Cl)C=C(C(=O)NCCCCNC(=O)c1ccc(-c3c4nc(c(-c5cccc(S(=O)(=O)[O-])c5F)c5ccc([nH]5)c(-c5cccc(S(=O)(=O)[O-])c5F)c5nc(c(-c6cccc(S(=O)(=O)[O-])c6F)c6ccc3[nH]6)C=C5)C=C4)cc1)[C@H](C(F)(F)F)O2
REMARK SMILES IDX 19 1 18 2 17 3 16 4 14 5 15 6 13 8 5 9 6 10 10 11 7 12 9 13
REMARK SMILES IDX 11 14 8 15 92 16 12 17 87 18 4 19 2 20 1 21 3 22 88 23 89 24
REMARK SMILES IDX 90 25 91 26 20 27 21 28 22 29 23 31 24 32 25 33 86 34 26 35
REMARK SMILES IDX 85 36 27 37 28 38 29 39 79 40 30 41 84 42 78 43 80 44 31 45
REMARK SMILES IDX 83 46 77 47 76 48 32 50 64 51 44 52 63 53 45 54 48 55 62 56
REMARK SMILES IDX 81 57 46 58 47 59 61 61 82 62 49 63 33 64 34 65 42 66 35 67
REMARK SMILES IDX 37 68 43 69 36 70 38 71 39 72 40 73 41 74 65 75 66 76 74 77
REMARK SMILES IDX 67 78 69 79 75 80 68 81 70 82 71 83 72 84 73 85 50 86 51 87
REMARK SMILES IDX 59 88 52 89 54 90 60 91 53 92 55 93 56 94 57 95 58 96
REMARK H PARENT 16 7 21 30 80 49 48 60
REMARK Flexibility Score: inf
ROOT
ATOM      1  C   UNL     1      -5.871  -5.655  -8.040  1.00  0.00     0.023 C 
ENDROOT
BRANCH   1   2
ATOM      2  C   UNL     1      -4.920  -5.391  -6.871  1.00  0.00     0.023 C 
BRANCH   2   3
ATOM      3  C   UNL     1      -3.643  -4.641  -7.247  1.00  0.00     0.116 C 
BRANCH   3   4
ATOM      4  N   UNL     1      -3.869  -3.211  -7.336  1.00  0.00    -0.352 N 
ATOM      5  C   UNL     1      -3.697  -2.140  -6.527  1.00  0.00     0.251 C 
ATOM      6  O   UNL     1      -3.949  -1.046  -7.043  1.00  0.00    -0.270 OA
ATOM      7  H   UNL     1      -4.244  -2.953  -8.209  1.00  0.00     0.163 HD
BRANCH   5   8
ATOM      8  C   UNL     1      -3.237  -2.190  -5.108  1.00  0.00     0.067 C 
ATOM      9  C   UNL     1      -1.544  -0.893  -0.527  1.00  0.00    -0.025 A 
ATOM     10  C   UNL     1      -1.704  -2.111  -1.212  1.00  0.00     0.052 A 
ATOM     11  C   UNL     1      -1.880   0.297  -1.195  1.00  0.00     0.045 A 
ATOM     12  C   UNL     1      -2.179  -2.133  -2.521  1.00  0.00     0.128 A 
ATOM     13  C   UNL     1      -2.328   0.270  -2.521  1.00  0.00     0.032 A 
ATOM     14  Cl  UNL     1      -1.742   1.846  -0.441  1.00  0.00    -0.084 Cl
ATOM     15  C   UNL     1      -2.468  -0.946  -3.190  1.00  0.00     0.019 A 
ATOM     16  O   UNL     1      -2.308  -3.357  -3.118  1.00  0.00    -0.475 OA
ATOM     17  C   UNL     1      -2.869  -1.003  -4.589  1.00  0.00     0.025 C 
ATOM     18  C   UNL     1      -3.263  -3.407  -4.222  1.00  0.00     0.314 C 
BRANCH   9  19
ATOM     19  C   UNL     1      -0.978  -0.933   0.875  1.00  0.00     0.040 C 
BRANCH  19  20
ATOM     20  C   UNL     1       0.544  -1.187   0.907  1.00  0.00    -0.013 C 
ATOM     21  C   UNL     1       1.340  -0.033   0.293  1.00  0.00     0.008 C 
ATOM     22  C   UNL     1       1.003  -1.420   2.348  1.00  0.00     0.008 C 
ENDBRANCH  19  20
ENDBRANCH   9  19
BRANCH  18  23
ATOM     23  C   UNL     1      -4.667  -3.754  -3.696  1.00  0.00     0.429 C 
ATOM     24  F   UNL     1      -4.909  -3.247  -2.465  1.00  0.00    -0.167 F 
ATOM     25  F   UNL     1      -5.652  -3.303  -4.505  1.00  0.00    -0.167 F 
ATOM     26  F   UNL     1      -4.813  -5.101  -3.608  1.00  0.00    -0.167 F 
ENDBRANCH  18  23
ENDBRANCH   5   8
ENDBRANCH   3   4
ENDBRANCH   2   3
ENDBRANCH   1   2
BRANCH   1  27
ATOM     27  C   UNL     1      -5.303  -6.531  -9.150  1.00  0.00     0.116 C 
BRANCH  27  28
ATOM     28  N   UNL     1      -4.800  -7.817  -8.688  1.00  0.00    -0.352 N 
ATOM     29  C   UNL     1      -4.715  -8.990  -9.404  1.00  0.00     0.251 C 
ATOM     30  H   UNL     1      -4.483  -7.852  -7.757  1.00  0.00     0.163 HD
ATOM     31  O   UNL     1      -4.327 -10.024  -8.868  1.00  0.00    -0.269 OA
BRANCH  29  32
ATOM     32  C   UNL     1      -5.158  -8.981 -10.811  1.00  0.00     0.039 A 
ATOM     33  C   UNL     1      -4.645  -8.030 -11.695  1.00  0.00     0.014 A 
ATOM     34  C   UNL     1      -6.184  -9.843 -11.203  1.00  0.00     0.014 A 
ATOM     35  C   UNL     1      -5.277  -7.827 -12.915  1.00  0.00     0.010 A 
ATOM     36  C   UNL     1      -6.767  -9.685 -12.462  1.00  0.00     0.010 A 
ATOM     37  C   UNL     1      -6.356  -8.639 -13.303  1.00  0.00    -0.014 A 
BRANCH  37  38
ATOM     38  C   UNL     1      -7.047  -8.364 -14.587  1.00  0.00     0.031 A 
ATOM     39  C   UNL     1      -8.480  -7.903 -14.610  1.00  0.00     0.074 A 
ATOM     40  C   UNL     1      -6.357  -8.482 -15.737  1.00  0.00     0.049 A 
ATOM     41  N   UNL     1      -9.229  -7.610 -15.642  1.00  0.00    -0.248 NA
ATOM     42  C   UNL     1      -9.165  -7.753 -13.315  1.00  0.00     0.031 C 
ATOM     43  C   UNL     1      -4.966  -8.927 -15.839  1.00  0.00     0.029 A 
ATOM     44  N   UNL     1      -6.720  -8.221 -17.033  1.00  0.00    -0.354 N 
ATOM     45  C   UNL     1     -10.480  -7.290 -15.129  1.00  0.00     0.074 A 
ATOM     46  C   UNL     1     -10.392  -7.415 -13.690  1.00  0.00     0.031 C 
ATOM     47  C   UNL     1      -4.576  -8.858 -17.120  1.00  0.00     0.029 A 
ATOM     48  C   UNL     1      -5.702  -8.415 -17.936  1.00  0.00     0.049 A 
ATOM     49  H   UNL     1      -7.622  -7.922 -17.291  1.00  0.00     0.167 HD
ATOM     50  C   UNL     1     -11.595  -6.910 -15.795  1.00  0.00     0.034 A 
ATOM     51  C   UNL     1      -5.675  -8.259 -19.273  1.00  0.00     0.034 A 
ATOM     52  C   UNL     1     -11.663  -6.721 -17.219  1.00  0.00     0.049 A 
ATOM     53  C   UNL     1      -6.915  -7.803 -19.982  1.00  0.00     0.074 A 
ATOM     54  C   UNL     1     -12.744  -6.306 -17.978  1.00  0.00     0.029 A 
ATOM     55  N   UNL     1     -10.608  -6.915 -18.095  1.00  0.00    -0.354 N 
ATOM     56  N   UNL     1      -8.072  -7.459 -19.471  1.00  0.00    -0.248 NA
ATOM     57  C   UNL     1      -6.848  -7.707 -21.447  1.00  0.00     0.031 C 
ATOM     58  C   UNL     1     -12.338  -6.242 -19.315  1.00  0.00     0.029 A 
ATOM     59  C   UNL     1     -11.008  -6.622 -19.386  1.00  0.00     0.049 A 
ATOM     60  H   UNL     1      -9.707  -7.217 -17.837  1.00  0.00     0.167 HD
ATOM     61  C   UNL     1      -8.872  -7.107 -20.550  1.00  0.00     0.074 A 
ATOM     62  C   UNL     1      -8.059  -7.249 -21.741  1.00  0.00     0.031 C 
ATOM     63  C   UNL     1     -10.172  -6.728 -20.553  1.00  0.00     0.034 A 
BRANCH  50  64
ATOM     64  C   UNL     1     -12.832  -6.616 -14.995  1.00  0.00     0.023 A 
ATOM     65  C   UNL     1     -12.978  -5.348 -14.401  1.00  0.00     0.012 A 
ATOM     66  C   UNL     1     -13.885  -7.548 -14.915  1.00  0.00     0.148 A 
ATOM     67  C   UNL     1     -14.155  -5.010 -13.735  1.00  0.00     0.002 A 
ATOM     68  C   UNL     1     -15.065  -7.196 -14.269  1.00  0.00     0.091 A 
ATOM     69  F   UNL     1     -13.713  -8.754 -15.475  1.00  0.00    -0.205 F 
ATOM     70  C   UNL     1     -15.200  -5.929 -13.677  1.00  0.00     0.022 A 
BRANCH  68  71
ATOM     71  S   UNL     1     -16.489  -8.287 -14.181  1.00  0.00     0.127 S 
ATOM     72  O   UNL     1     -16.528  -8.604 -12.753  1.00  0.00    -0.237 OA
ATOM     73  O   UNL     1     -17.572  -7.419 -14.642  1.00  0.00    -0.237 OA
ATOM     74  O   UNL     1     -16.192  -9.411 -15.058  1.00  0.00    -0.744 OA
ENDBRANCH  68  71
ENDBRANCH  50  64
BRANCH  51  75
ATOM     75  C   UNL     1      -4.399  -8.487 -20.000  1.00  0.00     0.023 A 
ATOM     76  C   UNL     1      -3.665  -7.378 -20.459  1.00  0.00     0.012 A 
ATOM     77  C   UNL     1      -3.860  -9.780 -20.142  1.00  0.00     0.148 A 
ATOM     78  C   UNL     1      -2.411  -7.552 -21.045  1.00  0.00     0.002 A 
ATOM     79  C   UNL     1      -2.591  -9.943 -20.682  1.00  0.00     0.091 A 
ATOM     80  F   UNL     1      -4.587 -10.821 -19.711  1.00  0.00    -0.205 F 
ATOM     81  C   UNL     1      -1.868  -8.831 -21.143  1.00  0.00     0.022 A 
BRANCH  79  82
ATOM     82  S   UNL     1      -1.759 -11.535 -20.718  1.00  0.00     0.127 S 
ATOM     83  O   UNL     1      -1.782 -11.851 -22.143  1.00  0.00    -0.237 OA
ATOM     84  O   UNL     1      -0.440 -11.199 -20.181  1.00  0.00    -0.237 OA
ATOM     85  O   UNL     1      -2.549 -12.409 -19.861  1.00  0.00    -0.744 OA
ENDBRANCH  79  82
ENDBRANCH  51  75
BRANCH  63  86
ATOM     86  C   UNL     1     -10.813  -6.450 -21.882  1.00  0.00     0.023 A 
ATOM     87  C   UNL     1     -11.288  -7.532 -22.648  1.00  0.00     0.012 A 
ATOM     88  C   UNL     1     -11.038  -5.132 -22.321  1.00  0.00     0.148 A 
ATOM     89  C   UNL     1     -11.974  -7.306 -23.839  1.00  0.00     0.002 A 
ATOM     90  C   UNL     1     -11.746  -4.913 -23.496  1.00  0.00     0.091 A 
ATOM     91  F   UNL     1     -10.560  -4.121 -21.580  1.00  0.00    -0.205 F 
ATOM     92  C   UNL     1     -12.212  -5.999 -24.257  1.00  0.00     0.022 A 
BRANCH  90  93
ATOM     93  S   UNL     1     -12.158  -3.265 -24.080  1.00  0.00     0.127 S 
ATOM     94  O   UNL     1     -11.254  -3.120 -25.220  1.00  0.00    -0.237 OA
ATOM     95  O   UNL     1     -13.571  -3.403 -24.434  1.00  0.00    -0.237 OA
ATOM     96  O   UNL     1     -11.901  -2.369 -22.961  1.00  0.00    -0.744 OA
ENDBRANCH  90  93
ENDBRANCH  63  86
ENDBRANCH  37  38
ENDBRANCH  29  32
ENDBRANCH  27  28
ENDBRANCH   1  27
TORSDOF 17
