REMARK SMILES COc1ccc(F)cc1[C@@H](C(=O)NCCCCNC(=O)c1ccc(-c2c3nc(c(-c4cccc(S(=O)(=O)[O-])c4F)c4ccc([nH]4)c(-c4cccc(S(=O)(=O)[O-])c4F)c4nc(c(-c5cccc(S(=O)(=O)[O-])c5F)c5ccc2[nH]5)C=C4)C=C3)cc1)[N@@H+](C)CCn1ccnc1C
REMARK SMILES IDX 15 1 14 2 13 3 11 4 12 5 10 7 9 8 3 9 4 10 5 11 8 12 6 13
REMARK SMILES IDX 7 14 2 15 1 16 84 17 85 18 86 20 87 21 88 22 89 23 92 24
REMARK SMILES IDX 90 25 91 26 93 27 16 28 17 29 18 30 19 31 20 33 21 34 22 35
REMARK SMILES IDX 83 36 23 37 82 38 24 39 25 40 26 41 76 42 27 43 81 44 75 45
REMARK SMILES IDX 77 46 28 47 80 48 74 49 73 50 29 52 61 53 41 54 60 55 42 56
REMARK SMILES IDX 45 57 59 58 78 59 43 60 44 61 58 63 79 64 46 65 30 66 31 67
REMARK SMILES IDX 39 68 32 69 34 70 40 71 33 72 35 73 36 74 37 75 38 76 62 77
REMARK SMILES IDX 63 78 71 79 64 80 66 81 72 82 65 83 67 84 68 85 69 86 70 87
REMARK SMILES IDX 47 88 48 89 56 90 49 91 51 92 57 93 50 94 52 95 53 96 54 97
REMARK SMILES IDX 55 98
REMARK H PARENT 13 6 84 19 18 32 77 51 45 62
REMARK Flexibility Score: inf
ROOT
ATOM      1  C   UNL     1      -0.904   2.608   0.659  1.00  0.00     0.023 C 
ENDROOT
BRANCH   1   2
ATOM      2  C   UNL     1      -2.046   1.770   0.070  1.00  0.00     0.116 C 
BRANCH   2   3
ATOM      3  N   UNL     1      -1.975   1.772  -1.381  1.00  0.00    -0.351 N 
ATOM      4  C   UNL     1      -2.235   0.660  -2.147  1.00  0.00     0.283 C 
ATOM      5  O   UNL     1      -3.069  -0.164  -1.754  1.00  0.00    -0.268 OA
ATOM      6  H   UNL     1      -1.729   2.610  -1.837  1.00  0.00     0.163 HD
BRANCH   4   7
ATOM      7  C   UNL     1      -1.504   0.465  -3.530  1.00  0.00     0.309 C 
BRANCH   7   8
ATOM      8  C   UNL     1       0.026   0.620  -3.618  1.00  0.00     0.064 A 
ATOM      9  C   UNL     1       0.877   0.077  -2.630  1.00  0.00     0.128 A 
ATOM     10  C   UNL     1       2.269   0.267  -2.704  1.00  0.00     0.050 A 
ATOM     11  C   UNL     1       2.838   1.001  -3.744  1.00  0.00     0.043 A 
ATOM     12  C   UNL     1       0.651   1.240  -4.721  1.00  0.00     0.053 A 
ATOM     13  C   UNL     1       2.023   1.469  -4.753  1.00  0.00     0.124 A 
ATOM     14  F   UNL     1       2.548   2.180  -5.759  1.00  0.00    -0.207 F 
BRANCH   9  15
ATOM     15  O   UNL     1       0.273  -0.679  -1.662  1.00  0.00    -0.496 OA
ATOM     16  C   UNL     1       0.991  -0.845  -0.445  1.00  0.00     0.278 C 
ENDBRANCH   9  15
ENDBRANCH   7   8
BRANCH   7  17
ATOM     17  N   UNL     1      -2.270   0.996  -4.683  1.00  0.00    -0.322 N 
ATOM     18  C   UNL     1      -3.499   0.238  -4.922  1.00  0.00     0.333 C 
ATOM     19  H   UNL     1      -1.573   0.813  -5.405  1.00  0.00     0.348 HD
BRANCH  17  20
ATOM     20  C   UNL     1      -2.337   2.427  -5.024  1.00  0.00     0.285 C 
BRANCH  20  21
ATOM     21  C   UNL     1      -2.835   3.496  -4.036  1.00  0.00     0.184 C 
BRANCH  21  22
ATOM     22  N   UNL     1      -2.006   4.588  -3.521  1.00  0.00    -0.330 N 
ATOM     23  C   UNL     1      -2.560   5.858  -3.435  1.00  0.00     0.107 A 
ATOM     24  C   UNL     1      -0.814   4.670  -2.813  1.00  0.00     0.105 A 
ATOM     25  C   UNL     1      -1.773   6.577  -2.579  1.00  0.00     0.131 A 
ATOM     26  N   UNL     1      -0.713   5.830  -2.193  1.00  0.00    -0.242 NA
ATOM     27  C   UNL     1       0.299   3.711  -2.683  1.00  0.00     0.087 C 
ENDBRANCH  21  22
ENDBRANCH  20  21
ENDBRANCH  17  20
ENDBRANCH   7  17
ENDBRANCH   4   7
ENDBRANCH   2   3
ENDBRANCH   1   2
BRANCH   1  28
ATOM     28  C   UNL     1      -1.302   4.013   1.133  1.00  0.00     0.023 C 
BRANCH  28  29
ATOM     29  C   UNL     1      -1.651   4.097   2.618  1.00  0.00     0.116 C 
BRANCH  29  30
ATOM     30  N   UNL     1      -0.601   3.597   3.503  1.00  0.00    -0.352 N 
ATOM     31  C   UNL     1      -0.321   3.911   4.816  1.00  0.00     0.251 C 
ATOM     32  H   UNL     1       0.001   2.931   3.098  1.00  0.00     0.163 HD
ATOM     33  O   UNL     1       0.611   3.377   5.386  1.00  0.00    -0.269 OA
BRANCH  31  34
ATOM     34  C   UNL     1      -1.120   4.955   5.494  1.00  0.00     0.039 A 
ATOM     35  C   UNL     1      -0.442   5.951   6.202  1.00  0.00     0.014 A 
ATOM     36  C   UNL     1      -2.508   4.996   5.369  1.00  0.00     0.014 A 
ATOM     37  C   UNL     1      -1.153   7.041   6.703  1.00  0.00     0.010 A 
ATOM     38  C   UNL     1      -3.197   6.128   5.779  1.00  0.00     0.010 A 
ATOM     39  C   UNL     1      -2.529   7.161   6.450  1.00  0.00    -0.014 A 
BRANCH  39  40
ATOM     40  C   UNL     1      -3.291   8.358   6.883  1.00  0.00     0.031 A 
ATOM     41  C   UNL     1      -4.431   8.204   7.851  1.00  0.00     0.074 A 
ATOM     42  C   UNL     1      -3.003   9.560   6.343  1.00  0.00     0.049 A 
ATOM     43  N   UNL     1      -5.247   9.114   8.310  1.00  0.00    -0.248 NA
ATOM     44  C   UNL     1      -4.720   6.843   8.341  1.00  0.00     0.031 C 
ATOM     45  C   UNL     1      -1.980   9.809   5.324  1.00  0.00     0.029 A 
ATOM     46  N   UNL     1      -3.549  10.799   6.569  1.00  0.00    -0.354 N 
ATOM     47  C   UNL     1      -6.159   8.436   9.108  1.00  0.00     0.074 A 
ATOM     48  C   UNL     1      -5.835   7.031   9.029  1.00  0.00     0.031 C 
ATOM     49  C   UNL     1      -1.946  11.122   5.042  1.00  0.00     0.029 A 
ATOM     50  C   UNL     1      -2.956  11.806   5.842  1.00  0.00     0.049 A 
ATOM     51  H   UNL     1      -4.294  10.953   7.193  1.00  0.00     0.167 HD
ATOM     52  C   UNL     1      -7.146   8.944   9.880  1.00  0.00     0.034 A 
ATOM     53  C   UNL     1      -3.188  13.134   5.842  1.00  0.00     0.034 A 
ATOM     54  C   UNL     1      -7.402  10.348  10.017  1.00  0.00     0.049 A 
ATOM     55  C   UNL     1      -4.234  13.681   6.778  1.00  0.00     0.074 A 
ATOM     56  C   UNL     1      -8.329  10.977  10.827  1.00  0.00     0.029 A 
ATOM     57  N   UNL     1      -6.708  11.343   9.345  1.00  0.00    -0.354 N 
ATOM     58  N   UNL     1      -5.000  13.033   7.622  1.00  0.00    -0.248 NA
ATOM     59  C   UNL     1      -4.422  15.139   6.795  1.00  0.00     0.031 C 
ATOM     60  C   UNL     1      -8.191  12.356  10.650  1.00  0.00     0.029 A 
ATOM     61  C   UNL     1      -7.172  12.583   9.736  1.00  0.00     0.049 A 
ATOM     62  H   UNL     1      -5.992  11.188   8.688  1.00  0.00     0.167 HD
ATOM     63  C   UNL     1      -5.728  14.003   8.300  1.00  0.00     0.074 A 
ATOM     64  C   UNL     1      -5.304  15.285   7.776  1.00  0.00     0.031 C 
ATOM     65  C   UNL     1      -6.673  13.846   9.258  1.00  0.00     0.034 A 
BRANCH  52  66
ATOM     66  C   UNL     1      -7.951   7.987  10.717  1.00  0.00     0.023 A 
ATOM     67  C   UNL     1      -7.349   7.395  11.847  1.00  0.00     0.012 A 
ATOM     68  C   UNL     1      -9.309   7.737  10.445  1.00  0.00     0.148 A 
ATOM     69  C   UNL     1      -8.078   6.549  12.680  1.00  0.00     0.002 A 
ATOM     70  C   UNL     1     -10.042   6.927  11.305  1.00  0.00     0.091 A 
ATOM     71  F   UNL     1      -9.856   8.296   9.357  1.00  0.00    -0.205 F 
ATOM     72  C   UNL     1      -9.426   6.325  12.416  1.00  0.00     0.022 A 
BRANCH  70  73
ATOM     73  S   UNL     1     -11.802   6.632  11.102  1.00  0.00     0.127 S 
ATOM     74  O   UNL     1     -11.829   5.202  10.798  1.00  0.00    -0.237 OA
ATOM     75  O   UNL     1     -12.325   6.984  12.422  1.00  0.00    -0.237 OA
ATOM     76  O   UNL     1     -12.236   7.504  10.020  1.00  0.00    -0.744 OA
ENDBRANCH  70  73
ENDBRANCH  52  66
BRANCH  53  77
ATOM     77  C   UNL     1      -2.325  14.042   5.032  1.00  0.00     0.023 A 
ATOM     78  C   UNL     1      -1.393  14.866   5.695  1.00  0.00     0.012 A 
ATOM     79  C   UNL     1      -2.375  14.063   3.624  1.00  0.00     0.148 A 
ATOM     80  C   UNL     1      -0.546  15.711   4.976  1.00  0.00     0.002 A 
ATOM     81  C   UNL     1      -1.494  14.871   2.911  1.00  0.00     0.091 A 
ATOM     82  F   UNL     1      -3.276  13.286   3.007  1.00  0.00    -0.205 F 
ATOM     83  C   UNL     1      -0.588  15.705   3.585  1.00  0.00     0.022 A 
BRANCH  81  84
ATOM     84  S   UNL     1      -1.393  14.827   1.117  1.00  0.00     0.127 S 
ATOM     85  O   UNL     1      -2.100  16.050   0.747  1.00  0.00    -0.237 OA
ATOM     86  O   UNL     1       0.052  14.859   0.888  1.00  0.00    -0.237 OA
ATOM     87  O   UNL     1      -2.031  13.577   0.726  1.00  0.00    -0.744 OA
ENDBRANCH  81  84
ENDBRANCH  53  77
BRANCH  65  88
ATOM     88  C   UNL     1      -7.299  15.078   9.850  1.00  0.00     0.023 A 
ATOM     89  C   UNL     1      -8.291  15.765   9.126  1.00  0.00     0.012 A 
ATOM     90  C   UNL     1      -7.022  15.447  11.181  1.00  0.00     0.148 A 
ATOM     91  C   UNL     1      -8.998  16.808   9.719  1.00  0.00     0.002 A 
ATOM     92  C   UNL     1      -7.762  16.458  11.779  1.00  0.00     0.091 A 
ATOM     93  F   UNL     1      -6.062  14.782  11.842  1.00  0.00    -0.205 F 
ATOM     94  C   UNL     1      -8.746  17.143  11.048  1.00  0.00     0.022 A 
BRANCH  92  95
ATOM     95  S   UNL     1      -7.582  16.887  13.514  1.00  0.00     0.127 S 
ATOM     96  O   UNL     1      -6.955  18.205  13.431  1.00  0.00    -0.237 OA
ATOM     97  O   UNL     1      -8.971  16.900  13.975  1.00  0.00    -0.237 OA
ATOM     98  O   UNL     1      -6.758  15.841  14.105  1.00  0.00    -0.744 OA
ENDBRANCH  92  95
ENDBRANCH  65  88
ENDBRANCH  39  40
ENDBRANCH  31  34
ENDBRANCH  29  30
ENDBRANCH  28  29
ENDBRANCH   1  28
TORSDOF 20
