REMARK SMILES CN(CC(=O)NCCCCNC(=O)c1ccc(-c2c3nc(c(-c4cccc(S(=O)(=O)[O-])c4F)c4ccc([nH]4)c(-c4cccc(S(=O)(=O)[O-])c4F)c4nc(c(-c5cccc(S(=O)(=O)[O-])c5F)c5ccc2[nH]5)C=C4)C=C3)cc1)C(=O)c1ccccn1
REMARK SMILES IDX 8 1 7 2 6 3 4 4 5 5 3 7 2 8 1 9 77 10 78 11 79 12 80 13
REMARK SMILES IDX 84 14 81 15 83 16 82 17 9 18 10 19 11 20 12 21 13 23 14 24
REMARK SMILES IDX 15 25 76 26 16 27 75 28 17 29 18 30 19 31 69 32 20 33 74 34
REMARK SMILES IDX 68 35 70 36 21 37 73 38 67 39 66 40 22 42 54 43 34 44 53 45
REMARK SMILES IDX 35 46 38 47 52 48 71 49 36 50 37 51 51 53 72 54 39 55 23 56
REMARK SMILES IDX 24 57 32 58 25 59 27 60 33 61 26 62 28 63 29 64 30 65 31 66
REMARK SMILES IDX 55 67 56 68 64 69 57 70 59 71 65 72 58 73 60 74 61 75 62 76
REMARK SMILES IDX 63 77 40 78 41 79 49 80 42 81 44 82 50 83 43 84 45 85 46 86
REMARK SMILES IDX 47 87 48 88
REMARK H PARENT 6 6 11 22 70 41 38 52
REMARK Flexibility Score: inf
ROOT
ATOM      1  C   UNL     1      -1.951  -1.423  -0.666  1.00  0.00     0.023 C 
ENDROOT
BRANCH   1   2
ATOM      2  C   UNL     1      -2.161   0.027  -0.235  1.00  0.00     0.116 C 
BRANCH   2   3
ATOM      3  N   UNL     1      -2.536   0.170   1.155  1.00  0.00    -0.355 N 
ATOM      4  C   UNL     1      -1.781   0.526   2.233  1.00  0.00     0.239 C 
ATOM      5  O   UNL     1      -2.386   0.859   3.258  1.00  0.00    -0.273 OA
ATOM      6  H   UNL     1      -3.482  -0.019   1.353  1.00  0.00     0.163 HD
BRANCH   4   7
ATOM      7  C   UNL     1      -0.249   0.667   2.161  1.00  0.00     0.219 C 
BRANCH   7   8
ATOM      8  N   UNL     1       0.491  -0.378   1.446  1.00  0.00    -0.331 N 
ATOM      9  C   UNL     1       1.234  -0.005   0.254  1.00  0.00     0.147 C 
BRANCH   8  10
ATOM     10  C   UNL     1       0.807  -1.633   1.995  1.00  0.00     0.272 C 
ATOM     11  O   UNL     1       1.523  -2.440   1.401  1.00  0.00    -0.267 OA
BRANCH  10  12
ATOM     12  C   UNL     1       0.297  -2.004   3.347  1.00  0.00     0.128 A 
ATOM     13  C   UNL     1      -1.053  -2.260   3.548  1.00  0.00     0.034 A 
ATOM     14  N   UNL     1       1.240  -2.109   4.320  1.00  0.00    -0.251 NA
ATOM     15  C   UNL     1      -1.470  -2.605   4.830  1.00  0.00     0.004 A 
ATOM     16  C   UNL     1       0.805  -2.490   5.540  1.00  0.00     0.112 A 
ATOM     17  C   UNL     1      -0.526  -2.731   5.844  1.00  0.00     0.020 A 
ENDBRANCH  10  12
ENDBRANCH   8  10
ENDBRANCH   7   8
ENDBRANCH   4   7
ENDBRANCH   2   3
ENDBRANCH   1   2
BRANCH   1  18
ATOM     18  C   UNL     1      -3.202  -2.304  -0.646  1.00  0.00     0.023 C 
BRANCH  18  19
ATOM     19  C   UNL     1      -4.407  -1.774  -1.415  1.00  0.00     0.116 C 
BRANCH  19  20
ATOM     20  N   UNL     1      -4.125  -1.478  -2.811  1.00  0.00    -0.352 N 
ATOM     21  C   UNL     1      -4.924  -1.671  -3.913  1.00  0.00     0.251 C 
ATOM     22  H   UNL     1      -3.241  -1.085  -2.992  1.00  0.00     0.163 HD
ATOM     23  O   UNL     1      -4.484  -1.433  -5.036  1.00  0.00    -0.269 OA
BRANCH  21  24
ATOM     24  C   UNL     1      -6.297  -2.201  -3.752  1.00  0.00     0.039 A 
ATOM     25  C   UNL     1      -6.718  -3.243  -4.583  1.00  0.00     0.014 A 
ATOM     26  C   UNL     1      -7.158  -1.692  -2.777  1.00  0.00     0.014 A 
ATOM     27  C   UNL     1      -7.975  -3.822  -4.388  1.00  0.00     0.010 A 
ATOM     28  C   UNL     1      -8.381  -2.316  -2.539  1.00  0.00     0.010 A 
ATOM     29  C   UNL     1      -8.803  -3.388  -3.340  1.00  0.00    -0.014 A 
BRANCH  29  30
ATOM     30  C   UNL     1     -10.102  -4.050  -3.054  1.00  0.00     0.031 A 
ATOM     31  C   UNL     1     -11.389  -3.278  -3.170  1.00  0.00     0.074 A 
ATOM     32  C   UNL     1     -10.118  -5.319  -2.599  1.00  0.00     0.049 A 
ATOM     33  N   UNL     1     -12.609  -3.662  -2.893  1.00  0.00    -0.248 NA
ATOM     34  C   UNL     1     -11.291  -1.884  -3.634  1.00  0.00     0.031 C 
ATOM     35  C   UNL     1      -8.935  -6.151  -2.370  1.00  0.00     0.029 A 
ATOM     36  N   UNL     1     -11.165  -6.123  -2.222  1.00  0.00    -0.354 N 
ATOM     37  C   UNL     1     -13.417  -2.553  -3.116  1.00  0.00     0.074 A 
ATOM     38  C   UNL     1     -12.545  -1.470  -3.517  1.00  0.00     0.031 C 
ATOM     39  C   UNL     1      -9.322  -7.347  -1.896  1.00  0.00     0.029 A 
ATOM     40  C   UNL     1     -10.775  -7.359  -1.760  1.00  0.00     0.049 A 
ATOM     41  H   UNL     1     -12.107  -5.842  -2.276  1.00  0.00     0.167 HD
ATOM     42  C   UNL     1     -14.765  -2.452  -3.030  1.00  0.00     0.034 A 
ATOM     43  C   UNL     1     -11.504  -8.385  -1.278  1.00  0.00     0.034 A 
ATOM     44  C   UNL     1     -15.634  -3.541  -2.676  1.00  0.00     0.049 A 
ATOM     45  C   UNL     1     -13.003  -8.258  -1.226  1.00  0.00     0.074 A 
ATOM     46  C   UNL     1     -17.018  -3.559  -2.634  1.00  0.00     0.029 A 
ATOM     47  N   UNL     1     -15.207  -4.806  -2.303  1.00  0.00    -0.354 N 
ATOM     48  N   UNL     1     -13.758  -7.249  -1.586  1.00  0.00    -0.248 NA
ATOM     49  C   UNL     1     -13.752  -9.423  -0.735  1.00  0.00     0.031 C 
ATOM     50  C   UNL     1     -17.427  -4.832  -2.222  1.00  0.00     0.029 A 
ATOM     51  C   UNL     1     -16.299  -5.612  -2.027  1.00  0.00     0.049 A 
ATOM     52  H   UNL     1     -14.267  -5.089  -2.243  1.00  0.00     0.167 HD
ATOM     53  C   UNL     1     -15.070  -7.671  -1.405  1.00  0.00     0.074 A 
ATOM     54  C   UNL     1     -15.007  -9.035  -0.921  1.00  0.00     0.031 C 
ATOM     55  C   UNL     1     -16.223  -6.987  -1.606  1.00  0.00     0.034 A 
BRANCH  42  56
ATOM     56  C   UNL     1     -15.390  -1.128  -3.388  1.00  0.00     0.023 A 
ATOM     57  C   UNL     1     -15.414  -0.720  -4.738  1.00  0.00     0.012 A 
ATOM     58  C   UNL     1     -16.001  -0.319  -2.411  1.00  0.00     0.148 A 
ATOM     59  C   UNL     1     -16.004   0.488  -5.106  1.00  0.00     0.002 A 
ATOM     60  C   UNL     1     -16.626   0.864  -2.791  1.00  0.00     0.091 A 
ATOM     61  F   UNL     1     -15.951  -0.713  -1.131  1.00  0.00    -0.205 F 
ATOM     62  C   UNL     1     -16.618   1.274  -4.135  1.00  0.00     0.022 A 
BRANCH  60  63
ATOM     63  S   UNL     1     -17.511   1.909  -1.629  1.00  0.00     0.127 S 
ATOM     64  O   UNL     1     -16.616   3.060  -1.526  1.00  0.00    -0.237 OA
ATOM     65  O   UNL     1     -18.762   2.172  -2.342  1.00  0.00    -0.237 OA
ATOM     66  O   UNL     1     -17.660   1.121  -0.414  1.00  0.00    -0.744 OA
ENDBRANCH  60  63
ENDBRANCH  42  56
BRANCH  43  67
ATOM     67  C   UNL     1     -10.833  -9.654  -0.875  1.00  0.00     0.023 A 
ATOM     68  C   UNL     1     -11.015 -10.808  -1.662  1.00  0.00     0.012 A 
ATOM     69  C   UNL     1     -10.009  -9.724   0.264  1.00  0.00     0.148 A 
ATOM     70  C   UNL     1     -10.418 -12.017  -1.303  1.00  0.00     0.002 A 
ATOM     71  C   UNL     1      -9.373 -10.918   0.586  1.00  0.00     0.091 A 
ATOM     72  F   UNL     1      -9.858  -8.620   1.009  1.00  0.00    -0.205 F 
ATOM     73  C   UNL     1      -9.590 -12.070  -0.186  1.00  0.00     0.022 A 
BRANCH  71  74
ATOM     74  S   UNL     1      -8.190 -11.043   1.933  1.00  0.00     0.127 S 
ATOM     75  O   UNL     1      -8.951 -11.788   2.932  1.00  0.00    -0.237 OA
ATOM     76  O   UNL     1      -7.096 -11.788   1.308  1.00  0.00    -0.237 OA
ATOM     77  O   UNL     1      -7.853  -9.669   2.284  1.00  0.00    -0.744 OA
ENDBRANCH  71  74
ENDBRANCH  43  67
BRANCH  55  78
ATOM     78  C   UNL     1     -17.520  -7.708  -1.346  1.00  0.00     0.023 A 
ATOM     79  C   UNL     1     -17.922  -7.971  -0.021  1.00  0.00     0.012 A 
ATOM     80  C   UNL     1     -18.375  -8.057  -2.410  1.00  0.00     0.148 A 
ATOM     81  C   UNL     1     -19.140  -8.598   0.238  1.00  0.00     0.002 A 
ATOM     82  C   UNL     1     -19.608  -8.637  -2.142  1.00  0.00     0.091 A 
ATOM     83  F   UNL     1     -17.965  -7.816  -3.665  1.00  0.00    -0.205 F 
ATOM     84  C   UNL     1     -19.988  -8.919  -0.820  1.00  0.00     0.022 A 
BRANCH  82  85
ATOM     85  S   UNL     1     -20.804  -8.997  -3.434  1.00  0.00     0.127 S 
ATOM     86  O   UNL     1     -20.719 -10.454  -3.521  1.00  0.00    -0.237 OA
ATOM     87  O   UNL     1     -22.049  -8.492  -2.855  1.00  0.00    -0.237 OA
ATOM     88  O   UNL     1     -20.349  -8.272  -4.613  1.00  0.00    -0.744 OA
ENDBRANCH  82  85
ENDBRANCH  55  78
ENDBRANCH  29  30
ENDBRANCH  21  24
ENDBRANCH  19  20
ENDBRANCH  18  19
ENDBRANCH   1  18
TORSDOF 17
