REMARK SMILES CCC(CC)(NC(=O)Nc1cc(Cl)cc(Cl)c1)C(=O)NCCCCNC(=O)c1ccc(-c2c3nc(c(-c4cccc(S(=O)(=O)[O-])c4F)c4ccc([nH]4)c(-c4cccc(S(=O)(=O)[O-])c4F)c4nc(c(-c5cccc(S(=O)(=O)[O-])c5F)c5ccc2[nH]5)C=C4)C=C3)cc1
REMARK SMILES IDX 23 1 22 2 21 3 20 4 18 5 19 6 3 8 2 9 1 10 4 11 5 12 6 13
REMARK SMILES IDX 7 14 8 16 9 17 10 19 11 20 17 21 12 22 15 23 13 24 14 25
REMARK SMILES IDX 16 26 24 27 25 28 26 29 27 31 28 32 29 33 90 34 30 35 89 36
REMARK SMILES IDX 31 37 32 38 33 39 83 40 34 41 88 42 82 43 84 44 35 45 87 46
REMARK SMILES IDX 81 47 80 48 36 50 68 51 48 52 67 53 49 54 52 55 66 56 85 57
REMARK SMILES IDX 50 58 51 59 65 61 86 62 53 63 37 64 38 65 46 66 39 67 41 68
REMARK SMILES IDX 47 69 40 70 42 71 43 72 44 73 45 74 69 75 70 76 78 77 71 78
REMARK SMILES IDX 73 79 79 80 72 81 74 82 75 83 76 84 77 85 54 86 55 87 63 88
REMARK SMILES IDX 56 89 58 90 64 91 57 92 59 93 60 94 61 95 62 96
REMARK H PARENT 20 7 6 15 9 18 25 30 84 49 52 60
REMARK Flexibility Score: inf
ROOT
ATOM      1  C   UNL     1       3.835   1.518   6.369  1.00  0.00     0.023 C 
ENDROOT
BRANCH   1   2
ATOM      2  C   UNL     1       2.303   1.539   6.316  1.00  0.00     0.023 C 
BRANCH   2   3
ATOM      3  C   UNL     1       1.668   2.234   5.097  1.00  0.00     0.116 C 
BRANCH   3   4
ATOM      4  N   UNL     1       2.309   1.829   3.853  1.00  0.00    -0.354 N 
ATOM      5  C   UNL     1       1.745   1.621   2.597  1.00  0.00     0.245 C 
ATOM      6  O   UNL     1       2.002   2.351   1.645  1.00  0.00    -0.272 OA
ATOM      7  H   UNL     1       3.281   1.680   3.908  1.00  0.00     0.163 HD
BRANCH   5   8
ATOM      8  C   UNL     1       0.685   0.489   2.531  1.00  0.00     0.120 C 
BRANCH   8   9
ATOM      9  C   UNL     1       0.556  -0.465   1.327  1.00  0.00     0.035 C 
ATOM     10  C   UNL     1       0.644   0.107  -0.070  1.00  0.00     0.007 C 
ENDBRANCH   8   9
BRANCH   8  11
ATOM     11  C   UNL     1      -0.595   1.414   2.643  1.00  0.00     0.035 C 
ATOM     12  C   UNL     1      -2.002   0.874   2.506  1.00  0.00     0.007 C 
ENDBRANCH   8  11
BRANCH   8  13
ATOM     13  N   UNL     1       0.970  -0.391   3.692  1.00  0.00    -0.323 N 
ATOM     14  C   UNL     1       2.022  -1.158   4.051  1.00  0.00     0.320 C 
ATOM     15  H   UNL     1       0.231  -0.423   4.342  1.00  0.00     0.166 HD
ATOM     16  O   UNL     1       1.813  -1.935   4.991  1.00  0.00    -0.248 OA
ATOM     17  N   UNL     1       3.286  -1.148   3.555  1.00  0.00    -0.308 N 
ATOM     18  H   UNL     1       3.899  -1.617   4.167  1.00  0.00     0.171 HD
BRANCH  17  19
ATOM     19  C   UNL     1       3.991  -0.667   2.421  1.00  0.00     0.045 A 
ATOM     20  C   UNL     1       4.494   0.633   2.279  1.00  0.00     0.046 A 
ATOM     21  C   UNL     1       4.488  -1.617   1.526  1.00  0.00     0.046 A 
ATOM     22  C   UNL     1       5.189   1.034   1.132  1.00  0.00     0.044 A 
ATOM     23  C   UNL     1       5.253  -1.231   0.415  1.00  0.00     0.044 A 
ATOM     24  Cl  UNL     1       5.617   2.690   0.926  1.00  0.00    -0.084 Cl
ATOM     25  C   UNL     1       5.554   0.104   0.177  1.00  0.00     0.041 A 
ATOM     26  Cl  UNL     1       5.843  -2.431  -0.668  1.00  0.00    -0.084 Cl
ENDBRANCH  17  19
ENDBRANCH   8  13
ENDBRANCH   5   8
ENDBRANCH   3   4
ENDBRANCH   2   3
ENDBRANCH   1   2
BRANCH   1  27
ATOM     27  C   UNL     1       4.501   2.863   6.119  1.00  0.00     0.116 C 
BRANCH  27  28
ATOM     28  N   UNL     1       4.044   3.861   7.069  1.00  0.00    -0.352 N 
ATOM     29  C   UNL     1       4.740   4.554   8.023  1.00  0.00     0.251 C 
ATOM     30  H   UNL     1       3.084   4.073   7.019  1.00  0.00     0.163 HD
ATOM     31  O   UNL     1       4.118   5.170   8.885  1.00  0.00    -0.269 OA
BRANCH  29  32
ATOM     32  C   UNL     1       6.219   4.559   8.028  1.00  0.00     0.039 A 
ATOM     33  C   UNL     1       6.881   4.513   9.259  1.00  0.00     0.014 A 
ATOM     34  C   UNL     1       6.956   4.662   6.845  1.00  0.00     0.014 A 
ATOM     35  C   UNL     1       8.277   4.535   9.300  1.00  0.00     0.010 A 
ATOM     36  C   UNL     1       8.348   4.606   6.883  1.00  0.00     0.010 A 
ATOM     37  C   UNL     1       9.024   4.557   8.111  1.00  0.00    -0.014 A 
BRANCH  37  38
ATOM     38  C   UNL     1      10.510   4.525   8.140  1.00  0.00     0.031 A 
ATOM     39  C   UNL     1      11.309   5.680   7.596  1.00  0.00     0.074 A 
ATOM     40  C   UNL     1      11.142   3.424   8.592  1.00  0.00     0.049 A 
ATOM     41  N   UNL     1      12.607   5.811   7.501  1.00  0.00    -0.248 NA
ATOM     42  C   UNL     1      10.553   6.829   7.070  1.00  0.00     0.031 C 
ATOM     43  C   UNL     1      10.481   2.212   9.082  1.00  0.00     0.029 A 
ATOM     44  N   UNL     1      12.480   3.134   8.689  1.00  0.00    -0.354 N 
ATOM     45  C   UNL     1      12.823   7.032   6.872  1.00  0.00     0.074 A 
ATOM     46  C   UNL     1      11.521   7.593   6.585  1.00  0.00     0.031 C 
ATOM     47  C   UNL     1      11.415   1.314   9.433  1.00  0.00     0.029 A 
ATOM     48  C   UNL     1      12.737   1.868   9.160  1.00  0.00     0.049 A 
ATOM     49  H   UNL     1      13.188   3.772   8.444  1.00  0.00     0.167 HD
ATOM     50  C   UNL     1      13.998   7.642   6.582  1.00  0.00     0.034 A 
ATOM     51  C   UNL     1      13.904   1.220   9.342  1.00  0.00     0.034 A 
ATOM     52  C   UNL     1      15.290   7.099   6.904  1.00  0.00     0.049 A 
ATOM     53  C   UNL     1      15.193   1.932   9.035  1.00  0.00     0.074 A 
ATOM     54  C   UNL     1      16.534   7.682   6.734  1.00  0.00     0.029 A 
ATOM     55  N   UNL     1      15.510   5.843   7.447  1.00  0.00    -0.354 N 
ATOM     56  N   UNL     1      15.377   3.151   8.590  1.00  0.00    -0.248 NA
ATOM     57  C   UNL     1      16.438   1.193   9.290  1.00  0.00     0.031 C 
ATOM     58  C   UNL     1      17.507   6.764   7.142  1.00  0.00     0.029 A 
ATOM     59  C   UNL     1      16.868   5.625   7.604  1.00  0.00     0.049 A 
ATOM     60  H   UNL     1      14.803   5.200   7.687  1.00  0.00     0.167 HD
ATOM     61  C   UNL     1      16.754   3.339   8.548  1.00  0.00     0.074 A 
ATOM     62  C   UNL     1      17.357   2.114   9.033  1.00  0.00     0.031 C 
ATOM     63  C   UNL     1      17.456   4.422   8.135  1.00  0.00     0.034 A 
BRANCH  50  64
ATOM     64  C   UNL     1      13.943   8.992   5.912  1.00  0.00     0.023 A 
ATOM     65  C   UNL     1      13.499  10.116   6.638  1.00  0.00     0.012 A 
ATOM     66  C   UNL     1      14.396   9.161   4.588  1.00  0.00     0.148 A 
ATOM     67  C   UNL     1      13.472  11.379   6.048  1.00  0.00     0.002 A 
ATOM     68  C   UNL     1      14.411  10.431   4.023  1.00  0.00     0.091 A 
ATOM     69  F   UNL     1      14.798   8.079   3.907  1.00  0.00    -0.205 F 
ATOM     70  C   UNL     1      13.938  11.538   4.746  1.00  0.00     0.022 A 
BRANCH  68  71
ATOM     71  S   UNL     1      15.070  10.755   2.383  1.00  0.00     0.127 S 
ATOM     72  O   UNL     1      13.857  11.086   1.638  1.00  0.00    -0.237 OA
ATOM     73  O   UNL     1      15.962  11.889   2.630  1.00  0.00    -0.237 OA
ATOM     74  O   UNL     1      15.742   9.531   1.970  1.00  0.00    -0.744 OA
ENDBRANCH  68  71
ENDBRANCH  50  64
BRANCH  51  75
ATOM     75  C   UNL     1      13.911  -0.164   9.896  1.00  0.00     0.023 A 
ATOM     76  C   UNL     1      14.411  -0.388  11.194  1.00  0.00     0.012 A 
ATOM     77  C   UNL     1      13.411  -1.253   9.156  1.00  0.00     0.148 A 
ATOM     78  C   UNL     1      14.448  -1.675  11.730  1.00  0.00     0.002 A 
ATOM     79  C   UNL     1      13.396  -2.524   9.718  1.00  0.00     0.091 A 
ATOM     80  F   UNL     1      12.948  -1.021   7.919  1.00  0.00    -0.205 F 
ATOM     81  C   UNL     1      13.932  -2.741  10.997  1.00  0.00     0.022 A 
BRANCH  79  82
ATOM     82  S   UNL     1      12.634  -3.931   8.903  1.00  0.00     0.127 S 
ATOM     83  O   UNL     1      13.796  -4.746   8.563  1.00  0.00    -0.237 OA
ATOM     84  O   UNL     1      11.787  -4.473   9.964  1.00  0.00    -0.237 OA
ATOM     85  O   UNL     1      11.897  -3.378   7.771  1.00  0.00    -0.744 OA
ENDBRANCH  79  82
ENDBRANCH  51  75
BRANCH  63  86
ATOM     86  C   UNL     1      18.959   4.361   8.228  1.00  0.00     0.023 A 
ATOM     87  C   UNL     1      19.688   3.539   7.345  1.00  0.00     0.012 A 
ATOM     88  C   UNL     1      19.653   5.175   9.145  1.00  0.00     0.148 A 
ATOM     89  C   UNL     1      21.081   3.502   7.398  1.00  0.00     0.002 A 
ATOM     90  C   UNL     1      21.043   5.172   9.156  1.00  0.00     0.091 A 
ATOM     91  F   UNL     1      18.942   5.937   9.989  1.00  0.00    -0.205 F 
ATOM     92  C   UNL     1      21.758   4.326   8.293  1.00  0.00     0.022 A 
BRANCH  90  93
ATOM     93  S   UNL     1      22.000   6.272  10.205  1.00  0.00     0.127 S 
ATOM     94  O   UNL     1      22.559   5.340  11.183  1.00  0.00    -0.237 OA
ATOM     95  O   UNL     1      22.975   6.826   9.264  1.00  0.00    -0.237 OA
ATOM     96  O   UNL     1      21.056   7.244  10.738  1.00  0.00    -0.744 OA
ENDBRANCH  90  93
ENDBRANCH  63  86
ENDBRANCH  37  38
ENDBRANCH  29  32
ENDBRANCH  27  28
ENDBRANCH   1  27
TORSDOF 18
