REMARK SMILES O=C(NCCCCNC(=O)[C@H](CO)NC(=O)[C@H]1CC(=O)N(CC(F)(F)F)C1)c1ccc(-c2c3nc(c(-c4cccc(S(=O)(=O)[O-])c4F)c4ccc([nH]4)c(-c4cccc(S(=O)(=O)[O-])c4F)c4nc(c(-c5cccc(S(=O)(=O)[O-])c5F)c5ccc2[nH]5)C=C4)C=C3)cc1
REMARK SMILES IDX 6 1 5 2 4 3 3 4 1 5 2 6 28 8 29 9 90 10 30 11 89 12 31 13
REMARK SMILES IDX 32 14 33 15 83 16 34 17 88 18 82 19 84 20 35 21 87 22 81 23
REMARK SMILES IDX 80 24 36 26 68 27 48 28 67 29 49 30 52 31 66 32 85 33 50 34
REMARK SMILES IDX 51 35 65 37 86 38 53 39 37 40 38 41 46 42 39 43 41 44 47 45
REMARK SMILES IDX 40 46 42 47 43 48 44 49 45 50 69 51 70 52 78 53 71 54 73 55
REMARK SMILES IDX 79 56 72 57 74 58 75 59 76 60 77 61 54 62 55 63 63 64 56 65
REMARK SMILES IDX 58 66 64 67 57 68 59 69 60 70 61 71 62 72 7 73 8 74 9 75
REMARK SMILES IDX 10 77 11 78 14 79 15 80 16 82 17 83 18 84 27 85 19 86 21 87
REMARK SMILES IDX 20 88 22 89 23 90 24 91 25 92 26 93 12 94 13 95
REMARK H PARENT 3 7 84 25 52 36 8 76 14 81 13 96
REMARK Flexibility Score: inf
ROOT
ATOM      1  C   UNL     1       4.806   9.091  -9.846  1.00  0.00     0.023 C 
ENDROOT
BRANCH   1   2
ATOM      2  C   UNL     1       3.712   8.622 -10.789  1.00  0.00     0.023 C 
BRANCH   2   3
ATOM      3  C   UNL     1       2.302   8.878 -10.285  1.00  0.00     0.116 C 
BRANCH   3   4
ATOM      4  N   UNL     1       1.967  10.292 -10.173  1.00  0.00    -0.352 N 
ATOM      5  O   UNL     1       0.751  12.156 -10.600  1.00  0.00    -0.269 OA
ATOM      6  C   UNL     1       0.849  10.937 -10.664  1.00  0.00     0.251 C 
ATOM      7  H   UNL     1       2.615  10.854  -9.690  1.00  0.00     0.163 HD
BRANCH   6   8
ATOM      8  C   UNL     1      -0.201  10.116 -11.305  1.00  0.00     0.039 A 
ATOM      9  C   UNL     1      -0.619   8.944 -10.677  1.00  0.00     0.014 A 
ATOM     10  C   UNL     1      -0.669  10.445 -12.579  1.00  0.00     0.014 A 
ATOM     11  C   UNL     1      -1.318   7.999 -11.407  1.00  0.00     0.010 A 
ATOM     12  C   UNL     1      -1.506   9.549 -13.255  1.00  0.00     0.010 A 
ATOM     13  C   UNL     1      -1.805   8.300 -12.692  1.00  0.00    -0.014 A 
BRANCH  13  14
ATOM     14  C   UNL     1      -2.706   7.312 -13.343  1.00  0.00     0.031 A 
ATOM     15  C   UNL     1      -2.387   6.677 -14.669  1.00  0.00     0.074 A 
ATOM     16  C   UNL     1      -3.818   6.951 -12.669  1.00  0.00     0.049 A 
ATOM     17  N   UNL     1      -3.054   5.751 -15.310  1.00  0.00    -0.248 NA
ATOM     18  C   UNL     1      -1.180   7.136 -15.374  1.00  0.00     0.031 C 
ATOM     19  C   UNL     1      -4.256   7.541 -11.398  1.00  0.00     0.029 A 
ATOM     20  N   UNL     1      -4.766   5.999 -12.931  1.00  0.00    -0.354 N 
ATOM     21  C   UNL     1      -2.375   5.539 -16.504  1.00  0.00     0.074 A 
ATOM     22  C   UNL     1      -1.243   6.442 -16.505  1.00  0.00     0.031 C 
ATOM     23  C   UNL     1      -5.347   6.902 -10.964  1.00  0.00     0.029 A 
ATOM     24  C   UNL     1      -5.742   5.921 -11.965  1.00  0.00     0.049 A 
ATOM     25  H   UNL     1      -4.752   5.427 -13.732  1.00  0.00     0.167 HD
ATOM     26  C   UNL     1      -2.662   4.663 -17.498  1.00  0.00     0.034 A 
ATOM     27  C   UNL     1      -6.856   5.170 -11.899  1.00  0.00     0.034 A 
ATOM     28  C   UNL     1      -3.782   3.755 -17.478  1.00  0.00     0.049 A 
ATOM     29  C   UNL     1      -7.132   4.201 -13.007  1.00  0.00     0.074 A 
ATOM     30  C   UNL     1      -4.137   2.805 -18.421  1.00  0.00     0.029 A 
ATOM     31  N   UNL     1      -4.733   3.685 -16.470  1.00  0.00    -0.354 N 
ATOM     32  N   UNL     1      -6.415   3.945 -14.074  1.00  0.00    -0.248 NA
ATOM     33  C   UNL     1      -8.355   3.399 -12.890  1.00  0.00     0.031 C 
ATOM     34  C   UNL     1      -5.314   2.180 -17.996  1.00  0.00     0.029 A 
ATOM     35  C   UNL     1      -5.675   2.714 -16.770  1.00  0.00     0.049 A 
ATOM     36  H   UNL     1      -4.737   4.244 -15.659  1.00  0.00     0.167 HD
ATOM     37  C   UNL     1      -7.093   2.941 -14.750  1.00  0.00     0.074 A 
ATOM     38  C   UNL     1      -8.250   2.604 -13.944  1.00  0.00     0.031 C 
ATOM     39  C   UNL     1      -6.801   2.366 -15.942  1.00  0.00     0.034 A 
BRANCH  26  40
ATOM     40  C   UNL     1      -1.734   4.605 -18.687  1.00  0.00     0.023 A 
ATOM     41  C   UNL     1      -0.460   4.019 -18.547  1.00  0.00     0.012 A 
ATOM     42  C   UNL     1      -2.156   5.037 -19.962  1.00  0.00     0.148 A 
ATOM     43  C   UNL     1       0.387   3.883 -19.647  1.00  0.00     0.002 A 
ATOM     44  C   UNL     1      -1.323   4.860 -21.062  1.00  0.00     0.091 A 
ATOM     45  F   UNL     1      -3.366   5.603 -20.075  1.00  0.00    -0.205 F 
ATOM     46  C   UNL     1      -0.049   4.293 -20.904  1.00  0.00     0.022 A 
BRANCH  44  47
ATOM     47  S   UNL     1      -1.817   5.281 -22.738  1.00  0.00     0.127 S 
ATOM     48  O   UNL     1      -0.905   6.382 -23.045  1.00  0.00    -0.237 OA
ATOM     49  O   UNL     1      -1.537   4.039 -23.459  1.00  0.00    -0.237 OA
ATOM     50  O   UNL     1      -3.225   5.642 -22.666  1.00  0.00    -0.744 OA
ENDBRANCH  44  47
ENDBRANCH  26  40
BRANCH  27  51
ATOM     51  C   UNL     1      -7.784   5.319 -10.744  1.00  0.00     0.023 A 
ATOM     52  C   UNL     1      -7.957   4.257  -9.837  1.00  0.00     0.012 A 
ATOM     53  C   UNL     1      -8.475   6.527 -10.527  1.00  0.00     0.148 A 
ATOM     54  C   UNL     1      -8.832   4.383  -8.757  1.00  0.00     0.002 A 
ATOM     55  C   UNL     1      -9.288   6.671  -9.412  1.00  0.00     0.091 A 
ATOM     56  F   UNL     1      -8.309   7.523 -11.410  1.00  0.00    -0.205 F 
ATOM     57  C   UNL     1      -9.486   5.593  -8.537  1.00  0.00     0.022 A 
BRANCH  55  58
ATOM     58  S   UNL     1     -10.032   8.246  -8.976  1.00  0.00     0.127 S 
ATOM     59  O   UNL     1     -11.425   8.032  -9.355  1.00  0.00    -0.237 OA
ATOM     60  O   UNL     1      -9.786   8.310  -7.535  1.00  0.00    -0.237 OA
ATOM     61  O   UNL     1      -9.305   9.245  -9.748  1.00  0.00    -0.744 OA
ENDBRANCH  55  58
ENDBRANCH  27  51
BRANCH  39  62
ATOM     62  C   UNL     1      -7.741   1.295 -16.428  1.00  0.00     0.023 A 
ATOM     63  C   UNL     1      -9.042   1.640 -16.849  1.00  0.00     0.012 A 
ATOM     64  C   UNL     1      -7.332  -0.051 -16.481  1.00  0.00     0.148 A 
ATOM     65  C   UNL     1      -9.937   0.656 -17.266  1.00  0.00     0.002 A 
ATOM     66  C   UNL     1      -8.211  -1.019 -16.950  1.00  0.00     0.091 A 
ATOM     67  F   UNL     1      -6.098  -0.362 -16.057  1.00  0.00    -0.205 F 
ATOM     68  C   UNL     1      -9.518  -0.671 -17.325  1.00  0.00     0.022 A 
BRANCH  66  69
ATOM     69  S   UNL     1      -7.729  -2.737 -17.148  1.00  0.00     0.127 S 
ATOM     70  O   UNL     1      -8.445  -3.376 -16.045  1.00  0.00    -0.237 OA
ATOM     71  O   UNL     1      -8.251  -3.053 -18.478  1.00  0.00    -0.237 OA
ATOM     72  O   UNL     1      -6.276  -2.760 -17.048  1.00  0.00    -0.744 OA
ENDBRANCH  66  69
ENDBRANCH  39  62
ENDBRANCH  13  14
ENDBRANCH   6   8
ENDBRANCH   3   4
ENDBRANCH   2   3
ENDBRANCH   1   2
BRANCH   1  73
ATOM     73  C   UNL     1       4.747   8.453  -8.463  1.00  0.00     0.116 C 
BRANCH  73  74
ATOM     74  N   UNL     1       5.128   7.042  -8.468  1.00  0.00    -0.354 N 
ATOM     75  C   UNL     1       6.178   6.424  -7.831  1.00  0.00     0.244 C 
ATOM     76  H   UNL     1       4.551   6.450  -9.004  1.00  0.00     0.163 HD
ATOM     77  O   UNL     1       6.320   5.205  -7.923  1.00  0.00    -0.273 OA
BRANCH  75  78
ATOM     78  C   UNL     1       7.170   7.298  -7.062  1.00  0.00     0.197 C 
BRANCH  78  79
ATOM     79  N   UNL     1       7.659   6.718  -5.813  1.00  0.00    -0.342 N 
ATOM     80  C   UNL     1       7.771   7.258  -4.567  1.00  0.00     0.226 C 
ATOM     81  H   UNL     1       7.957   5.782  -5.884  1.00  0.00     0.164 HD
ATOM     82  O   UNL     1       8.512   6.663  -3.776  1.00  0.00    -0.275 OA
BRANCH  80  83
ATOM     83  C   UNL     1       6.923   8.432  -4.061  1.00  0.00     0.107 C 
ATOM     84  C   UNL     1       7.667   9.254  -2.993  1.00  0.00     0.115 C 
ATOM     85  C   UNL     1       6.484   9.502  -5.031  1.00  0.00     0.133 C 
ATOM     86  C   UNL     1       7.066  10.640  -3.100  1.00  0.00     0.223 C 
ATOM     87  N   UNL     1       6.333  10.697  -4.264  1.00  0.00    -0.333 N 
ATOM     88  O   UNL     1       7.239  11.559  -2.315  1.00  0.00    -0.275 OA
BRANCH  87  89
ATOM     89  C   UNL     1       5.690  11.892  -4.828  1.00  0.00     0.234 C 
BRANCH  89  90
ATOM     90  C   UNL     1       6.237  12.343  -6.188  1.00  0.00     0.406 C 
ATOM     91  F   UNL     1       5.984  11.410  -7.140  1.00  0.00    -0.169 F 
ATOM     92  F   UNL     1       5.652  13.491  -6.593  1.00  0.00    -0.169 F 
ATOM     93  F   UNL     1       7.571  12.544  -6.154  1.00  0.00    -0.169 F 
ENDBRANCH  89  90
ENDBRANCH  87  89
ENDBRANCH  80  83
ENDBRANCH  78  79
BRANCH  78  94
ATOM     94  C   UNL     1       8.313   7.731  -7.987  1.00  0.00     0.191 C 
BRANCH  94  95
ATOM     95  O   UNL     1       8.005   8.987  -8.595  1.00  0.00    -0.394 OA
ATOM     96  H   UNL     1       7.192   8.902  -9.118  1.00  0.00     0.210 HD
ENDBRANCH  94  95
ENDBRANCH  78  94
ENDBRANCH  75  78
ENDBRANCH  73  74
ENDBRANCH   1  73
TORSDOF 20
