REMARK SMILES O=C(NCCCCNC(=O)[C@H]1CCCCN1S(=O)(=O)c1cc[nH]c1)c1ccc(-c2c3nc(c(-c4cccc(S(=O)(=O)[O-])c4F)c4ccc([nH]4)c(-c4cccc(S(=O)(=O)[O-])c4F)c4nc(c(-c5cccc(S(=O)(=O)[O-])c5F)c5ccc2[nH]5)C=C4)C=C3)cc1
REMARK SMILES IDX 5 1 4 2 3 3 1 4 2 5 25 7 26 8 87 9 27 10 86 11 28 12 29 13
REMARK SMILES IDX 30 14 80 15 31 16 85 17 79 18 81 19 32 20 84 21 78 22 77 23
REMARK SMILES IDX 33 25 65 26 45 27 64 28 46 29 49 30 63 31 82 32 47 33 48 34
REMARK SMILES IDX 62 36 83 37 50 38 34 39 35 40 43 41 36 42 38 43 44 44 37 45
REMARK SMILES IDX 39 46 40 47 41 48 42 49 66 50 67 51 75 52 68 53 70 54 76 55
REMARK SMILES IDX 69 56 71 57 72 58 73 59 74 60 51 61 52 62 60 63 53 64 55 65
REMARK SMILES IDX 61 66 54 67 56 68 57 69 58 70 59 71 6 72 7 73 8 74 9 75
REMARK SMILES IDX 10 77 11 78 12 79 16 80 13 81 15 82 14 83 17 84 18 85 19 86
REMARK SMILES IDX 20 87 21 88 24 89 22 90 23 91
REMARK H PARENT 3 6 81 24 49 35 8 76 23 92
REMARK Flexibility Score: inf
ROOT
ATOM      1  C   UNL     1       2.733  -5.978   3.162  1.00  0.00     0.023 C 
ENDROOT
BRANCH   1   2
ATOM      2  C   UNL     1       2.614  -6.000   1.641  1.00  0.00     0.116 C 
BRANCH   2   3
ATOM      3  N   UNL     1       3.487  -6.934   0.946  1.00  0.00    -0.352 N 
ATOM      4  O   UNL     1       4.490  -8.737   0.146  1.00  0.00    -0.269 OA
ATOM      5  C   UNL     1       3.619  -8.300   0.902  1.00  0.00     0.251 C 
ATOM      6  H   UNL     1       4.139  -6.476   0.368  1.00  0.00     0.163 HD
BRANCH   5   7
ATOM      7  C   UNL     1       2.823  -9.254   1.722  1.00  0.00     0.039 A 
ATOM      8  C   UNL     1       1.567  -8.957   2.248  1.00  0.00     0.014 A 
ATOM      9  C   UNL     1       3.347 -10.547   1.924  1.00  0.00     0.014 A 
ATOM     10  C   UNL     1       0.886  -9.887   3.027  1.00  0.00     0.010 A 
ATOM     11  C   UNL     1       2.645 -11.506   2.665  1.00  0.00     0.010 A 
ATOM     12  C   UNL     1       1.410 -11.170   3.222  1.00  0.00    -0.014 A 
BRANCH  12  13
ATOM     13  C   UNL     1       0.503 -12.167   3.842  1.00  0.00     0.031 A 
ATOM     14  C   UNL     1      -0.590 -12.613   2.870  1.00  0.00     0.074 A 
ATOM     15  C   UNL     1       0.635 -12.436   5.173  1.00  0.00     0.049 A 
ATOM     16  N   UNL     1      -1.872 -12.717   3.068  1.00  0.00    -0.248 NA
ATOM     17  C   UNL     1      -0.240 -12.785   1.438  1.00  0.00     0.031 C 
ATOM     18  C   UNL     1       1.730 -11.931   6.018  1.00  0.00     0.029 A 
ATOM     19  N   UNL     1      -0.116 -13.160   6.084  1.00  0.00    -0.354 N 
ATOM     20  C   UNL     1      -2.439 -13.144   1.848  1.00  0.00     0.074 A 
ATOM     21  C   UNL     1      -1.419 -13.008   0.852  1.00  0.00     0.031 C 
ATOM     22  C   UNL     1       1.548 -12.301   7.302  1.00  0.00     0.029 A 
ATOM     23  C   UNL     1       0.335 -13.096   7.420  1.00  0.00     0.049 A 
ATOM     24  H   UNL     1      -0.907 -13.681   5.819  1.00  0.00     0.167 HD
ATOM     25  C   UNL     1      -3.672 -13.721   1.759  1.00  0.00     0.034 A 
ATOM     26  C   UNL     1      -0.230 -13.598   8.562  1.00  0.00     0.034 A 
ATOM     27  C   UNL     1      -4.196 -13.953   3.066  1.00  0.00     0.049 A 
ATOM     28  C   UNL     1      -1.457 -14.313   8.170  1.00  0.00     0.074 A 
ATOM     29  C   UNL     1      -4.859 -13.200   3.996  1.00  0.00     0.029 A 
ATOM     30  N   UNL     1      -3.821 -15.146   3.637  1.00  0.00    -0.354 N 
ATOM     31  N   UNL     1      -1.500 -15.485   7.607  1.00  0.00    -0.248 NA
ATOM     32  C   UNL     1      -2.753 -13.641   8.356  1.00  0.00     0.031 C 
ATOM     33  C   UNL     1      -4.633 -13.860   5.225  1.00  0.00     0.029 A 
ATOM     34  C   UNL     1      -3.842 -14.993   4.999  1.00  0.00     0.049 A 
ATOM     35  H   UNL     1      -3.578 -15.967   3.151  1.00  0.00     0.167 HD
ATOM     36  C   UNL     1      -2.771 -15.508   7.078  1.00  0.00     0.074 A 
ATOM     37  C   UNL     1      -3.552 -14.572   7.846  1.00  0.00     0.031 C 
ATOM     38  C   UNL     1      -2.945 -15.828   5.770  1.00  0.00     0.034 A 
BRANCH  25  39
ATOM     39  C   UNL     1      -4.441 -14.364   0.626  1.00  0.00     0.023 A 
ATOM     40  C   UNL     1      -5.850 -14.452   0.826  1.00  0.00     0.012 A 
ATOM     41  C   UNL     1      -3.903 -15.092  -0.447  1.00  0.00     0.148 A 
ATOM     42  C   UNL     1      -6.668 -15.292   0.074  1.00  0.00     0.002 A 
ATOM     43  C   UNL     1      -4.738 -15.893  -1.237  1.00  0.00     0.091 A 
ATOM     44  F   UNL     1      -2.582 -15.091  -0.652  1.00  0.00    -0.205 F 
ATOM     45  C   UNL     1      -6.107 -16.021  -0.957  1.00  0.00     0.022 A 
BRANCH  43  46
ATOM     46  S   UNL     1      -4.125 -16.804  -2.660  1.00  0.00     0.127 S 
ATOM     47  O   UNL     1      -3.886 -18.130  -2.097  1.00  0.00    -0.237 OA
ATOM     48  O   UNL     1      -5.260 -16.736  -3.586  1.00  0.00    -0.237 OA
ATOM     49  O   UNL     1      -2.957 -16.061  -3.112  1.00  0.00    -0.744 OA
ENDBRANCH  43  46
ENDBRANCH  25  39
BRANCH  26  50
ATOM     50  C   UNL     1       0.061 -13.467  10.042  1.00  0.00     0.023 A 
ATOM     51  C   UNL     1       1.325 -13.136  10.551  1.00  0.00     0.012 A 
ATOM     52  C   UNL     1      -0.962 -13.664  11.019  1.00  0.00     0.148 A 
ATOM     53  C   UNL     1       1.531 -12.896  11.924  1.00  0.00     0.002 A 
ATOM     54  C   UNL     1      -0.784 -13.347  12.362  1.00  0.00     0.091 A 
ATOM     55  F   UNL     1      -2.127 -14.210  10.663  1.00  0.00    -0.205 F 
ATOM     56  C   UNL     1       0.470 -12.961  12.823  1.00  0.00     0.022 A 
BRANCH  54  57
ATOM     57  S   UNL     1      -2.160 -13.315  13.529  1.00  0.00     0.127 S 
ATOM     58  O   UNL     1      -1.702 -14.226  14.575  1.00  0.00    -0.237 OA
ATOM     59  O   UNL     1      -2.185 -11.903  13.912  1.00  0.00    -0.237 OA
ATOM     60  O   UNL     1      -3.337 -13.760  12.793  1.00  0.00    -0.744 OA
ENDBRANCH  54  57
ENDBRANCH  26  50
BRANCH  38  61
ATOM     61  C   UNL     1      -1.853 -16.729   5.214  1.00  0.00     0.023 A 
ATOM     62  C   UNL     1      -1.785 -18.051   5.688  1.00  0.00     0.012 A 
ATOM     63  C   UNL     1      -0.816 -16.282   4.363  1.00  0.00     0.148 A 
ATOM     64  C   UNL     1      -0.726 -18.893   5.336  1.00  0.00     0.002 A 
ATOM     65  C   UNL     1       0.244 -17.117   4.012  1.00  0.00     0.091 A 
ATOM     66  F   UNL     1      -0.867 -15.030   3.916  1.00  0.00    -0.205 F 
ATOM     67  C   UNL     1       0.287 -18.428   4.501  1.00  0.00     0.022 A 
BRANCH  65  68
ATOM     68  S   UNL     1       1.638 -16.587   2.996  1.00  0.00     0.127 S 
ATOM     69  O   UNL     1       2.790 -16.995   3.803  1.00  0.00    -0.237 OA
ATOM     70  O   UNL     1       1.447 -17.377   1.782  1.00  0.00    -0.237 OA
ATOM     71  O   UNL     1       1.512 -15.145   2.826  1.00  0.00    -0.744 OA
ENDBRANCH  65  68
ENDBRANCH  38  61
ENDBRANCH  12  13
ENDBRANCH   5   7
ENDBRANCH   2   3
ENDBRANCH   1   2
BRANCH   1  72
ATOM     72  C   UNL     1       4.153  -5.785   3.676  1.00  0.00     0.023 C 
BRANCH  72  73
ATOM     73  C   UNL     1       4.691  -4.347   3.659  1.00  0.00     0.116 C 
BRANCH  73  74
ATOM     74  N   UNL     1       4.278  -3.645   4.862  1.00  0.00    -0.355 N 
ATOM     75  C   UNL     1       4.933  -3.268   5.991  1.00  0.00     0.238 C 
ATOM     76  H   UNL     1       3.327  -3.390   4.859  1.00  0.00     0.163 HD
ATOM     77  O   UNL     1       4.184  -2.873   6.895  1.00  0.00    -0.273 OA
BRANCH  75  78
ATOM     78  C   UNL     1       6.477  -3.234   6.153  1.00  0.00     0.162 C 
ATOM     79  C   UNL     1       6.850  -2.102   7.150  1.00  0.00     0.030 C 
ATOM     80  N   UNL     1       7.200  -4.456   6.678  1.00  0.00    -0.185 NA
ATOM     81  C   UNL     1       6.504  -2.435   8.611  1.00  0.00     0.004 C 
ATOM     82  C   UNL     1       6.623  -4.901   7.960  1.00  0.00     0.103 C 
ATOM     83  C   UNL     1       6.941  -3.841   9.016  1.00  0.00     0.017 C 
BRANCH  80  84
ATOM     84  S   UNL     1       7.566  -5.593   5.494  1.00  0.00     0.245 S 
ATOM     85  O   UNL     1       6.319  -6.216   5.130  1.00  0.00    -0.207 OA
ATOM     86  O   UNL     1       8.394  -4.934   4.508  1.00  0.00    -0.207 OA
BRANCH  84  87
ATOM     87  C   UNL     1       8.454  -7.003   5.952  1.00  0.00     0.100 A 
ATOM     88  C   UNL     1       8.011  -7.984   6.880  1.00  0.00     0.041 A 
ATOM     89  C   UNL     1       9.463  -7.583   5.201  1.00  0.00     0.104 A 
ATOM     90  C   UNL     1       8.724  -9.138   6.632  1.00  0.00     0.083 A 
ATOM     91  N   UNL     1       9.592  -8.889   5.601  1.00  0.00    -0.366 N 
ATOM     92  H   UNL     1      10.212  -9.545   5.209  1.00  0.00     0.165 HD
ENDBRANCH  84  87
ENDBRANCH  80  84
ENDBRANCH  75  78
ENDBRANCH  73  74
ENDBRANCH  72  73
ENDBRANCH   1  72
TORSDOF 16
