REMARK SMILES CC(=O)O[C@@H]1CC[C@@]23C(=O)O[C@]4(CC[C@]2(O)C1)[C@H]3CC[C@]1(C)[C@H](C(=O)NCCCCNC(=O)c2ccc(-c3c5nc(c(-c6cccc(S(=O)(=O)[O-])c6F)c6ccc([nH]6)c(-c6cccc(S(=O)(=O)[O-])c6F)c6nc(c(-c7cccc(S(=O)(=O)[O-])c7F)c7ccc3[nH]7)C=C6)C=C5)cc2)CC[C@@H]14
REMARK SMILES IDX 29 1 28 2 27 3 26 4 24 5 25 6 23 8 5 9 6 10 17 11 7 12 15 13
REMARK SMILES IDX 8 14 14 15 9 16 18 17 13 18 10 19 11 20 12 21 19 22 99 23
REMARK SMILES IDX 20 24 21 25 98 26 22 27 97 28 4 29 2 30 1 31 3 32 16 33
REMARK SMILES IDX 30 35 31 36 32 37 33 39 34 40 35 41 96 42 36 43 95 44 37 45
REMARK SMILES IDX 38 46 39 47 89 48 40 49 94 50 88 51 90 52 41 53 93 54 87 55
REMARK SMILES IDX 86 56 42 58 74 59 54 60 73 61 55 62 58 63 72 64 91 65 56 66
REMARK SMILES IDX 57 67 71 69 92 70 59 71 43 72 44 73 52 74 45 75 47 76 53 77
REMARK SMILES IDX 46 78 48 79 49 80 50 81 51 82 75 83 76 84 84 85 77 86 79 87
REMARK SMILES IDX 85 88 78 89 80 90 81 91 82 92 83 93 60 94 61 95 69 96 62 97
REMARK SMILES IDX 64 98 70 99 63 100 65 101 66 102 67 103 68 104
REMARK H PARENT 26 7 16 34 31 38 90 57 58 68
REMARK Flexibility Score: inf
ROOT
ATOM      1  C   UNL     1      -7.420   0.490  -8.406  1.00  0.00     0.023 C 
ENDROOT
BRANCH   1   2
ATOM      2  C   UNL     1      -6.775   0.529  -7.036  1.00  0.00     0.023 C 
BRANCH   2   3
ATOM      3  C   UNL     1      -6.761   1.897  -6.329  1.00  0.00     0.116 C 
BRANCH   3   4
ATOM      4  N   UNL     1      -7.991   2.095  -5.580  1.00  0.00    -0.356 N 
ATOM      5  C   UNL     1      -8.373   1.889  -4.298  1.00  0.00     0.223 C 
ATOM      6  O   UNL     1      -9.586   2.047  -4.086  1.00  0.00    -0.275 OA
ATOM      7  H   UNL     1      -8.715   2.464  -6.135  1.00  0.00     0.163 HD
BRANCH   5   8
ATOM      8  C   UNL     1      -7.479   1.552  -3.091  1.00  0.00     0.085 C 
ATOM      9  C   UNL     1       0.604   0.238  -3.456  1.00  0.00     0.179 C 
ATOM     10  C   UNL     1      -0.284   1.332  -4.016  1.00  0.00     0.047 C 
ATOM     11  C   UNL     1      -0.054  -1.104  -3.778  1.00  0.00     0.081 C 
ATOM     12  C   UNL     1      -1.681   1.182  -3.421  1.00  0.00     0.026 C 
ATOM     13  C   UNL     1      -1.544  -1.273  -3.390  1.00  0.00     0.085 C 
ATOM     14  C   UNL     1      -2.476  -0.240  -3.924  1.00  0.00     0.103 C 
ATOM     15  C   UNL     1      -1.858  -1.163  -1.812  1.00  0.00     0.041 C 
ATOM     16  C   UNL     1      -3.410   0.586  -4.672  1.00  0.00     0.316 C 
ATOM     17  C   UNL     1      -3.949  -0.988  -3.316  1.00  0.00     0.054 C 
ATOM     18  C   UNL     1      -3.119  -0.145  -1.367  1.00  0.00     0.052 C 
ATOM     19  O   UNL     1      -3.426   0.946  -5.827  1.00  0.00    -0.251 OA
ATOM     20  O   UNL     1      -4.128   1.140  -3.587  1.00  0.00    -0.458 OA
ATOM     21  C   UNL     1      -4.240   0.169  -2.483  1.00  0.00     0.120 C 
ATOM     22  C   UNL     1      -5.130  -1.462  -4.183  1.00  0.00     0.009 C 
ATOM     23  C   UNL     1      -5.619   0.426  -1.883  1.00  0.00     0.040 C 
ATOM     24  C   UNL     1      -6.368  -0.562  -4.141  1.00  0.00     0.008 C 
ATOM     25  C   UNL     1      -6.811   0.142  -2.852  1.00  0.00    -0.014 C 
ATOM     26  C   UNL     1      -5.731   1.935  -1.540  1.00  0.00     0.009 C 
ATOM     27  C   UNL     1      -7.846  -0.748  -2.131  1.00  0.00     0.012 C 
ATOM     28  C   UNL     1      -6.423   2.587  -2.740  1.00  0.00     0.014 C 
BRANCH   9  29
ATOM     29  O   UNL     1       0.715   0.493  -2.038  1.00  0.00    -0.462 OA
BRANCH  29  30
ATOM     30  C   UNL     1       1.577  -0.253  -1.303  1.00  0.00     0.302 C 
ATOM     31  C   UNL     1       1.429   0.083   0.154  1.00  0.00     0.139 C 
ATOM     32  O   UNL     1       2.313  -1.125  -1.739  1.00  0.00    -0.253 OA
ENDBRANCH  29  30
ENDBRANCH   9  29
BRANCH  13  33
ATOM     33  O   UNL     1      -1.913  -2.573  -3.870  1.00  0.00    -0.389 OA
ATOM     34  H   UNL     1      -2.844  -2.743  -3.657  1.00  0.00     0.211 HD
ENDBRANCH  13  33
ENDBRANCH   5   8
ENDBRANCH   3   4
ENDBRANCH   2   3
ENDBRANCH   1   2
BRANCH   1  35
ATOM     35  C   UNL     1      -6.668   1.266  -9.465  1.00  0.00     0.116 C 
BRANCH  35  36
ATOM     36  N   UNL     1      -5.298   0.807  -9.678  1.00  0.00    -0.352 N 
ATOM     37  C   UNL     1      -4.654   0.609 -10.879  1.00  0.00     0.251 C 
ATOM     38  H   UNL     1      -4.774   0.616  -8.867  1.00  0.00     0.163 HD
ATOM     39  O   UNL     1      -3.527   0.131 -10.931  1.00  0.00    -0.269 OA
BRANCH  37  40
ATOM     40  C   UNL     1      -5.383   0.954 -12.117  1.00  0.00     0.039 A 
ATOM     41  C   UNL     1      -5.535  -0.012 -13.112  1.00  0.00     0.014 A 
ATOM     42  C   UNL     1      -6.033   2.186 -12.210  1.00  0.00     0.014 A 
ATOM     43  C   UNL     1      -6.419   0.230 -14.165  1.00  0.00     0.010 A 
ATOM     44  C   UNL     1      -6.995   2.373 -13.190  1.00  0.00     0.010 A 
ATOM     45  C   UNL     1      -7.192   1.403 -14.184  1.00  0.00    -0.014 A 
BRANCH  45  46
ATOM     46  C   UNL     1      -8.215   1.651 -15.232  1.00  0.00     0.031 A 
ATOM     47  C   UNL     1      -8.103   2.874 -16.102  1.00  0.00     0.074 A 
ATOM     48  C   UNL     1      -9.297   0.851 -15.320  1.00  0.00     0.049 A 
ATOM     49  N   UNL     1      -8.936   3.324 -17.003  1.00  0.00    -0.248 NA
ATOM     50  C   UNL     1      -6.920   3.731 -15.902  1.00  0.00     0.031 C 
ATOM     51  C   UNL     1      -9.575  -0.303 -14.461  1.00  0.00     0.029 A 
ATOM     52  N   UNL     1     -10.384   0.907 -16.156  1.00  0.00    -0.354 N 
ATOM     53  C   UNL     1      -8.409   4.535 -17.432  1.00  0.00     0.074 A 
ATOM     54  C   UNL     1      -7.207   4.773 -16.667  1.00  0.00     0.031 C 
ATOM     55  C   UNL     1     -10.750  -0.847 -14.819  1.00  0.00     0.029 A 
ATOM     56  C   UNL     1     -11.323  -0.068 -15.911  1.00  0.00     0.049 A 
ATOM     57  H   UNL     1     -10.483   1.583 -16.865  1.00  0.00     0.167 HD
ATOM     58  C   UNL     1      -8.861   5.359 -18.405  1.00  0.00     0.034 A 
ATOM     59  C   UNL     1     -12.513  -0.305 -16.499  1.00  0.00     0.034 A 
ATOM     60  C   UNL     1     -10.010   5.077 -19.219  1.00  0.00     0.049 A 
ATOM     61  C   UNL     1     -12.948   0.576 -17.640  1.00  0.00     0.074 A 
ATOM     62  C   UNL     1     -10.478   5.776 -20.316  1.00  0.00     0.029 A 
ATOM     63  N   UNL     1     -10.870   4.008 -19.024  1.00  0.00    -0.354 N 
ATOM     64  N   UNL     1     -12.337   1.613 -18.160  1.00  0.00    -0.248 NA
ATOM     65  C   UNL     1     -14.216   0.234 -18.301  1.00  0.00     0.031 C 
ATOM     66  C   UNL     1     -11.634   5.138 -20.776  1.00  0.00     0.029 A 
ATOM     67  C   UNL     1     -11.873   4.031 -19.976  1.00  0.00     0.049 A 
ATOM     68  H   UNL     1     -10.780   3.332 -18.314  1.00  0.00     0.167 HD
ATOM     69  C   UNL     1     -13.126   2.027 -19.227  1.00  0.00     0.074 A 
ATOM     70  C   UNL     1     -14.248   1.113 -19.294  1.00  0.00     0.031 C 
ATOM     71  C   UNL     1     -12.949   3.078 -20.064  1.00  0.00     0.034 A 
BRANCH  58  72
ATOM     72  C   UNL     1      -8.071   6.609 -18.690  1.00  0.00     0.023 A 
ATOM     73  C   UNL     1      -6.811   6.507 -19.313  1.00  0.00     0.012 A 
ATOM     74  C   UNL     1      -8.596   7.881 -18.393  1.00  0.00     0.148 A 
ATOM     75  C   UNL     1      -6.068   7.650 -19.605  1.00  0.00     0.002 A 
ATOM     76  C   UNL     1      -7.870   9.018 -18.729  1.00  0.00     0.091 A 
ATOM     77  F   UNL     1      -9.785   7.956 -17.778  1.00  0.00    -0.205 F 
ATOM     78  C   UNL     1      -6.602   8.904 -19.323  1.00  0.00     0.022 A 
BRANCH  76  79
ATOM     79  S   UNL     1      -8.505  10.680 -18.482  1.00  0.00     0.127 S 
ATOM     80  O   UNL     1      -7.661  11.159 -17.388  1.00  0.00    -0.237 OA
ATOM     81  O   UNL     1      -8.237  11.306 -19.777  1.00  0.00    -0.237 OA
ATOM     82  O   UNL     1      -9.917  10.528 -18.162  1.00  0.00    -0.744 OA
ENDBRANCH  76  79
ENDBRANCH  58  72
BRANCH  59  83
ATOM     83  C   UNL     1     -13.340  -1.470 -16.072  1.00  0.00     0.023 A 
ATOM     84  C   UNL     1     -13.469  -2.577 -16.933  1.00  0.00     0.012 A 
ATOM     85  C   UNL     1     -13.976  -1.501 -14.816  1.00  0.00     0.148 A 
ATOM     86  C   UNL     1     -14.243  -3.679 -16.567  1.00  0.00     0.002 A 
ATOM     87  C   UNL     1     -14.701  -2.625 -14.434  1.00  0.00     0.091 A 
ATOM     88  F   UNL     1     -13.853  -0.433 -14.015  1.00  0.00    -0.205 F 
ATOM     89  C   UNL     1     -14.850  -3.708 -15.315  1.00  0.00     0.022 A 
BRANCH  87  90
ATOM     90  S   UNL     1     -15.406  -2.801 -12.791  1.00  0.00     0.127 S 
ATOM     91  O   UNL     1     -16.830  -2.613 -13.055  1.00  0.00    -0.237 OA
ATOM     92  O   UNL     1     -15.019  -4.168 -12.439  1.00  0.00    -0.237 OA
ATOM     93  O   UNL     1     -14.767  -1.772 -11.982  1.00  0.00    -0.744 OA
ENDBRANCH  87  90
ENDBRANCH  59  83
BRANCH  71  94
ATOM     94  C   UNL     1     -13.970   3.290 -21.150  1.00  0.00     0.023 A 
ATOM     95  C   UNL     1     -15.242   3.796 -20.821  1.00  0.00     0.012 A 
ATOM     96  C   UNL     1     -13.635   3.076 -22.501  1.00  0.00     0.148 A 
ATOM     97  C   UNL     1     -16.177   4.063 -21.821  1.00  0.00     0.002 A 
ATOM     98  C   UNL     1     -14.554   3.390 -23.495  1.00  0.00     0.091 A 
ATOM     99  F   UNL     1     -12.424   2.577 -22.790  1.00  0.00    -0.205 F 
ATOM    100  C   UNL     1     -15.829   3.872 -23.156  1.00  0.00     0.022 A 
BRANCH  98 101
ATOM    101  S   UNL     1     -14.157   3.271 -25.243  1.00  0.00     0.127 S 
ATOM    102  O   UNL     1     -14.919   2.089 -25.642  1.00  0.00    -0.237 OA
ATOM    103  O   UNL     1     -14.674   4.536 -25.767  1.00  0.00    -0.237 OA
ATOM    104  O   UNL     1     -12.709   3.136 -25.317  1.00  0.00    -0.744 OA
ENDBRANCH  98 101
ENDBRANCH  71  94
ENDBRANCH  45  46
ENDBRANCH  37  40
ENDBRANCH  35  36
ENDBRANCH   1  35
TORSDOF 17
