REMARK SMILES CC[NH2+][C@]1(C(=O)NCCCCNC(=O)c2ccc(-c3c4nc(c(-c5cccc(S(=O)(=O)[O-])c5F)c5ccc([nH]5)c(-c5cccc(S(=O)(=O)[O-])c5F)c5nc(c(-c6cccc(S(=O)(=O)[O-])c6F)c6ccc3[nH]6)C=C5)C=C4)cc2)CCC[C@@H]([N@@H+](C)CC2CCCC2)C1
REMARK SMILES IDX 9 1 8 2 7 3 5 4 6 5 4 7 78 8 90 9 79 10 81 11 80 12 3 13
REMARK SMILES IDX 2 16 1 17 82 18 83 19 84 21 85 22 86 23 89 24 87 25 88 26
REMARK SMILES IDX 10 27 11 28 12 29 13 30 14 32 15 33 16 34 77 35 17 36 76 37
REMARK SMILES IDX 18 38 19 39 20 40 70 41 21 42 75 43 69 44 71 45 22 46 74 47
REMARK SMILES IDX 68 48 67 49 23 51 55 52 35 53 54 54 36 55 39 56 53 57 72 58
REMARK SMILES IDX 37 59 38 60 52 62 73 63 40 64 24 65 25 66 33 67 26 68 28 69
REMARK SMILES IDX 34 70 27 71 29 72 30 73 31 74 32 75 56 76 57 77 65 78 58 79
REMARK SMILES IDX 60 80 66 81 59 82 61 83 62 84 63 85 64 86 41 87 42 88 50 89
REMARK SMILES IDX 43 90 45 91 51 92 44 93 46 94 47 95 48 96 49 97
REMARK H PARENT 7 6 3 14 3 15 82 20 12 31 71 50 39 61
REMARK Flexibility Score: inf
ROOT
ATOM      1  C   UNL     1       3.550  -4.226   0.164  1.00  0.00     0.023 C 
ENDROOT
BRANCH   1   2
ATOM      2  C   UNL     1       2.101  -3.973   0.569  1.00  0.00     0.116 C 
BRANCH   2   3
ATOM      3  N   UNL     1       1.642  -2.652   0.201  1.00  0.00    -0.351 N 
ATOM      4  C   UNL     1       0.995  -2.137  -0.875  1.00  0.00     0.281 C 
ATOM      5  O   UNL     1       0.548  -0.996  -0.673  1.00  0.00    -0.268 OA
ATOM      6  H   UNL     1       1.846  -1.973   0.884  1.00  0.00     0.163 HD
BRANCH   4   7
ATOM      7  C   UNL     1       0.682  -2.886  -2.235  1.00  0.00     0.181 C 
ATOM      8  C   UNL     1       1.421  -4.215  -2.485  1.00  0.00     0.079 C 
ATOM      9  C   UNL     1      -0.839  -3.196  -2.192  1.00  0.00     0.144 C 
ATOM     10  C   UNL     1       1.013  -4.900  -3.791  1.00  0.00     0.013 C 
ATOM     11  C   UNL     1      -1.401  -4.053  -3.354  1.00  0.00     0.190 C 
ATOM     12  C   UNL     1      -0.473  -5.206  -3.770  1.00  0.00     0.065 C 
BRANCH   7  13
ATOM     13  N   UNL     1       1.098  -2.063  -3.411  1.00  0.00    -0.334 N 
ATOM     14  H   UNL     1       2.103  -2.195  -3.524  1.00  0.00     0.347 HD
ATOM     15  H   UNL     1       0.501  -2.403  -4.165  1.00  0.00     0.347 HD
BRANCH  13  16
ATOM     16  C   UNL     1       0.857  -0.628  -3.402  1.00  0.00     0.257 C 
ATOM     17  C   UNL     1       1.276  -0.085  -4.765  1.00  0.00     0.071 C 
ENDBRANCH  13  16
ENDBRANCH   7  13
BRANCH  11  18
ATOM     18  N   UNL     1      -2.811  -4.475  -3.154  1.00  0.00    -0.334 N 
ATOM     19  C   UNL     1      -3.469  -5.024  -4.326  1.00  0.00     0.332 C 
ATOM     20  H   UNL     1      -3.177  -3.533  -3.016  1.00  0.00     0.348 HD
BRANCH  18  21
ATOM     21  C   UNL     1      -3.272  -5.019  -1.873  1.00  0.00     0.265 C 
BRANCH  21  22
ATOM     22  C   UNL     1      -3.264  -6.519  -1.481  1.00  0.00     0.044 C 
ATOM     23  C   UNL     1      -4.470  -7.345  -1.929  1.00  0.00     0.009 C 
ATOM     24  C   UNL     1      -2.115  -7.407  -1.932  1.00  0.00     0.009 C 
ATOM     25  C   UNL     1      -4.082  -8.772  -1.533  1.00  0.00     0.001 C 
ATOM     26  C   UNL     1      -2.560  -8.833  -1.629  1.00  0.00     0.001 C 
ENDBRANCH  21  22
ENDBRANCH  18  21
ENDBRANCH  11  18
ENDBRANCH   4   7
ENDBRANCH   2   3
ENDBRANCH   1   2
BRANCH   1  27
ATOM     27  C   UNL     1       4.592  -3.627   1.111  1.00  0.00     0.023 C 
BRANCH  27  28
ATOM     28  C   UNL     1       4.514  -4.101   2.556  1.00  0.00     0.116 C 
BRANCH  28  29
ATOM     29  N   UNL     1       4.572  -5.550   2.707  1.00  0.00    -0.352 N 
ATOM     30  C   UNL     1       5.063  -6.256   3.782  1.00  0.00     0.251 C 
ATOM     31  H   UNL     1       4.222  -6.082   1.957  1.00  0.00     0.163 HD
ATOM     32  O   UNL     1       5.125  -7.482   3.760  1.00  0.00    -0.269 OA
BRANCH  30  33
ATOM     33  C   UNL     1       5.557  -5.495   4.945  1.00  0.00     0.039 A 
ATOM     34  C   UNL     1       6.889  -5.642   5.338  1.00  0.00     0.014 A 
ATOM     35  C   UNL     1       4.729  -4.553   5.557  1.00  0.00     0.014 A 
ATOM     36  C   UNL     1       7.419  -4.778   6.298  1.00  0.00     0.010 A 
ATOM     37  C   UNL     1       5.276  -3.651   6.460  1.00  0.00     0.010 A 
ATOM     38  C   UNL     1       6.627  -3.749   6.832  1.00  0.00    -0.014 A 
BRANCH  38  39
ATOM     39  C   UNL     1       7.177  -2.741   7.773  1.00  0.00     0.031 A 
ATOM     40  C   UNL     1       6.613  -2.641   9.162  1.00  0.00     0.074 A 
ATOM     41  C   UNL     1       8.076  -1.836   7.337  1.00  0.00     0.049 A 
ATOM     42  N   UNL     1       6.833  -1.737  10.079  1.00  0.00    -0.248 NA
ATOM     43  C   UNL     1       5.643  -3.676   9.559  1.00  0.00     0.031 C 
ATOM     44  C   UNL     1       8.642  -1.785   5.987  1.00  0.00     0.029 A 
ATOM     45  N   UNL     1       8.640  -0.758   7.972  1.00  0.00    -0.354 N 
ATOM     46  C   UNL     1       5.994  -2.062  11.138  1.00  0.00     0.074 A 
ATOM     47  C   UNL     1       5.242  -3.232  10.741  1.00  0.00     0.031 C 
ATOM     48  C   UNL     1       9.464  -0.727   5.893  1.00  0.00     0.029 A 
ATOM     49  C   UNL     1       9.459  -0.005   7.162  1.00  0.00     0.049 A 
ATOM     50  H   UNL     1       8.474  -0.543   8.919  1.00  0.00     0.167 HD
ATOM     51  C   UNL     1       5.879  -1.456  12.342  1.00  0.00     0.034 A 
ATOM     52  C   UNL     1      10.119   1.144   7.409  1.00  0.00     0.034 A 
ATOM     53  C   UNL     1       6.675  -0.334  12.755  1.00  0.00     0.049 A 
ATOM     54  C   UNL     1      10.018   1.764   8.778  1.00  0.00     0.074 A 
ATOM     55  C   UNL     1       6.706   0.291  13.988  1.00  0.00     0.029 A 
ATOM     56  N   UNL     1       7.583   0.330  11.944  1.00  0.00    -0.354 N 
ATOM     57  N   UNL     1       9.334   1.354   9.819  1.00  0.00    -0.248 NA
ATOM     58  C   UNL     1      10.802   2.984   9.018  1.00  0.00     0.031 C 
ATOM     59  C   UNL     1       7.628   1.340  13.921  1.00  0.00     0.029 A 
ATOM     60  C   UNL     1       8.181   1.358  12.650  1.00  0.00     0.049 A 
ATOM     61  H   UNL     1       7.774   0.102  11.006  1.00  0.00     0.167 HD
ATOM     62  C   UNL     1       9.637   2.239  10.847  1.00  0.00     0.074 A 
ATOM     63  C   UNL     1      10.575   3.201  10.308  1.00  0.00     0.031 C 
ATOM     64  C   UNL     1       9.169   2.261  12.119  1.00  0.00     0.034 A 
BRANCH  51  65
ATOM     65  C   UNL     1       4.899  -2.037  13.326  1.00  0.00     0.023 A 
ATOM     66  C   UNL     1       5.191  -3.266  13.950  1.00  0.00     0.012 A 
ATOM     67  C   UNL     1       3.720  -1.348  13.671  1.00  0.00     0.148 A 
ATOM     68  C   UNL     1       4.310  -3.819  14.878  1.00  0.00     0.002 A 
ATOM     69  C   UNL     1       2.867  -1.885  14.629  1.00  0.00     0.091 A 
ATOM     70  F   UNL     1       3.447  -0.192  13.049  1.00  0.00    -0.205 F 
ATOM     71  C   UNL     1       3.155  -3.124  15.225  1.00  0.00     0.022 A 
BRANCH  69  72
ATOM     72  S   UNL     1       1.395  -1.028  15.200  1.00  0.00     0.127 S 
ATOM     73  O   UNL     1       0.335  -1.807  14.561  1.00  0.00    -0.237 OA
ATOM     74  O   UNL     1       1.482  -1.194  16.651  1.00  0.00    -0.237 OA
ATOM     75  O   UNL     1       1.528   0.346  14.739  1.00  0.00    -0.744 OA
ENDBRANCH  69  72
ENDBRANCH  51  65
BRANCH  52  76
ATOM     76  C   UNL     1      10.992   1.744   6.360  1.00  0.00     0.023 A 
ATOM     77  C   UNL     1      12.390   1.695   6.521  1.00  0.00     0.012 A 
ATOM     78  C   UNL     1      10.456   2.329   5.196  1.00  0.00     0.148 A 
ATOM     79  C   UNL     1      13.239   2.243   5.558  1.00  0.00     0.002 A 
ATOM     80  C   UNL     1      11.308   2.827   4.216  1.00  0.00     0.091 A 
ATOM     81  F   UNL     1       9.122   2.378   5.066  1.00  0.00    -0.205 F 
ATOM     82  C   UNL     1      12.699   2.800   4.402  1.00  0.00     0.022 A 
BRANCH  80  83
ATOM     83  S   UNL     1      10.705   3.444   2.640  1.00  0.00     0.127 S 
ATOM     84  O   UNL     1      10.895   4.884   2.791  1.00  0.00    -0.237 OA
ATOM     85  O   UNL     1      11.614   2.798   1.693  1.00  0.00    -0.237 OA
ATOM     86  O   UNL     1       9.324   2.990   2.548  1.00  0.00    -0.744 OA
ENDBRANCH  80  83
ENDBRANCH  52  76
BRANCH  64  87
ATOM     87  C   UNL     1       9.692   3.324  13.046  1.00  0.00     0.023 A 
ATOM     88  C   UNL     1       9.226   4.647  12.926  1.00  0.00     0.012 A 
ATOM     89  C   UNL     1      10.553   2.983  14.109  1.00  0.00     0.148 A 
ATOM     90  C   UNL     1       9.622   5.620  13.843  1.00  0.00     0.002 A 
ATOM     91  C   UNL     1      10.907   3.948  15.044  1.00  0.00     0.091 A 
ATOM     92  F   UNL     1      10.997   1.720  14.192  1.00  0.00    -0.205 F 
ATOM     93  C   UNL     1      10.449   5.269  14.908  1.00  0.00     0.022 A 
BRANCH  91  94
ATOM     94  S   UNL     1      11.886   3.566  16.501  1.00  0.00     0.127 S 
ATOM     95  O   UNL     1      13.152   4.227  16.190  1.00  0.00    -0.237 OA
ATOM     96  O   UNL     1      11.113   4.199  17.569  1.00  0.00    -0.237 OA
ATOM     97  O   UNL     1      11.945   2.112  16.576  1.00  0.00    -0.744 OA
ENDBRANCH  91  94
ENDBRANCH  64  87
ENDBRANCH  38  39
ENDBRANCH  30  33
ENDBRANCH  28  29
ENDBRANCH  27  28
ENDBRANCH   1  27
TORSDOF 19
