REMARK SMILES CCC[NH+]1CCN(c2cc(C(=O)NCCCCNC(=O)c3ccc(-c4c5nc(c(-c6cccc(S(=O)(=O)[O-])c6F)c6ccc([nH]6)c(-c6cccc(S(=O)(=O)[O-])c6F)c6nc(c(-c7cccc(S(=O)(=O)[O-])c7F)c7ccc4[nH]7)C=C6)C=C5)cc3)c3cc(NC(=O)c4ccc(F)cc4)ccc3n2)CC1
REMARK SMILES IDX 15 1 14 2 13 3 11 4 12 5 10 7 8 8 9 9 100 10 99 11 84 12
REMARK SMILES IDX 98 13 85 14 97 15 86 16 7 17 4 18 5 19 102 20 6 22 101 23
REMARK SMILES IDX 3 24 2 25 1 26 87 27 88 28 89 30 90 31 91 32 96 33 92 34
REMARK SMILES IDX 95 35 93 36 94 37 16 38 17 39 18 40 19 41 20 43 21 44 22 45
REMARK SMILES IDX 83 46 23 47 82 48 24 49 25 50 26 51 76 52 27 53 81 54 75 55
REMARK SMILES IDX 77 56 28 57 80 58 74 59 73 60 29 62 61 63 41 64 60 65 42 66
REMARK SMILES IDX 45 67 59 68 78 69 43 70 44 71 58 73 79 74 46 75 30 76 31 77
REMARK SMILES IDX 39 78 32 79 34 80 40 81 33 82 35 83 36 84 37 85 38 86 62 87
REMARK SMILES IDX 63 88 71 89 64 90 66 91 72 92 65 93 67 94 68 95 69 96 70 97
REMARK SMILES IDX 47 98 48 99 56 100 49 101 51 102 57 103 50 104 52 105 53 106
REMARK SMILES IDX 54 107 55 108
REMARK H PARENT 13 6 4 21 87 29 18 42 77 61 45 72
REMARK Flexibility Score: inf
ROOT
ATOM      1  C   UNL     1       4.817   9.323   3.329  1.00  0.00     0.023 C 
ENDROOT
BRANCH   1   2
ATOM      2  C   UNL     1       3.936   8.451   2.435  1.00  0.00     0.116 C 
BRANCH   2   3
ATOM      3  N   UNL     1       4.569   7.285   1.824  1.00  0.00    -0.352 N 
ATOM      4  C   UNL     1       4.111   6.018   1.492  1.00  0.00     0.252 C 
ATOM      5  O   UNL     1       4.914   5.263   0.936  1.00  0.00    -0.269 OA
ATOM      6  H   UNL     1       5.518   7.428   1.601  1.00  0.00     0.163 HD
BRANCH   4   7
ATOM      7  C   UNL     1       2.743   5.458   1.784  1.00  0.00     0.052 A 
ATOM      8  C   UNL     1       1.450   3.448   2.242  1.00  0.00     0.130 A 
ATOM      9  C   UNL     1       2.678   4.069   2.037  1.00  0.00     0.061 A 
ATOM     10  N   UNL     1       0.333   4.192   2.346  1.00  0.00    -0.231 NA
ATOM     11  C   UNL     1       0.359   5.496   2.072  1.00  0.00     0.074 A 
ATOM     12  C   UNL     1       1.526   6.160   1.679  1.00  0.00     0.015 A 
ATOM     13  C   UNL     1      -0.841   6.191   2.117  1.00  0.00     0.031 A 
ATOM     14  C   UNL     1       1.373   7.439   1.122  1.00  0.00     0.037 A 
ATOM     15  C   UNL     1      -0.949   7.501   1.647  1.00  0.00     0.028 A 
ATOM     16  C   UNL     1       0.152   8.103   1.056  1.00  0.00     0.042 A 
BRANCH   8  17
ATOM     17  N   UNL     1       1.270   2.085   2.318  1.00  0.00    -0.345 N 
ATOM     18  N   UNL     1       0.624  -0.774   2.567  1.00  0.00    -0.332 N 
ATOM     19  C   UNL     1       1.698  -0.112   3.339  1.00  0.00     0.284 C 
ATOM     20  C   UNL     1      -0.390   0.213   2.181  1.00  0.00     0.284 C 
ATOM     21  H   UNL     1       0.091  -1.425   3.144  1.00  0.00     0.348 HD
ATOM     22  C   UNL     1       2.323   1.129   2.648  1.00  0.00     0.179 C 
ATOM     23  C   UNL     1       0.119   1.540   1.575  1.00  0.00     0.179 C 
BRANCH  18  24
ATOM     24  C   UNL     1       1.133  -1.731   1.584  1.00  0.00     0.262 C 
BRANCH  24  25
ATOM     25  C   UNL     1       0.522  -1.842   0.179  1.00  0.00     0.058 C 
ATOM     26  C   UNL     1       1.088  -0.841  -0.819  1.00  0.00     0.010 C 
ENDBRANCH  24  25
ENDBRANCH  18  24
ENDBRANCH   8  17
BRANCH  16  27
ATOM     27  N   UNL     1      -0.024   9.343   0.423  1.00  0.00    -0.322 N 
ATOM     28  C   UNL     1       0.752  10.028  -0.491  1.00  0.00     0.255 C 
ATOM     29  H   UNL     1      -0.853   9.810   0.676  1.00  0.00     0.170 HD
ATOM     30  O   UNL     1       0.477  11.192  -0.770  1.00  0.00    -0.269 OA
BRANCH  28  31
ATOM     31  C   UNL     1       1.899   9.389  -1.177  1.00  0.00     0.040 A 
ATOM     32  C   UNL     1       3.141  10.023  -1.094  1.00  0.00     0.017 A 
ATOM     33  C   UNL     1       1.786   8.151  -1.823  1.00  0.00     0.017 A 
ATOM     34  C   UNL     1       4.287   9.385  -1.576  1.00  0.00     0.040 A 
ATOM     35  C   UNL     1       2.938   7.506  -2.284  1.00  0.00     0.040 A 
ATOM     36  C   UNL     1       4.177   8.123  -2.144  1.00  0.00     0.123 A 
ATOM     37  F   UNL     1       5.282   7.488  -2.553  1.00  0.00    -0.207 F 
ENDBRANCH  28  31
ENDBRANCH  16  27
ENDBRANCH   4   7
ENDBRANCH   2   3
ENDBRANCH   1   2
BRANCH   1  38
ATOM     38  C   UNL     1       5.841  10.265   2.677  1.00  0.00     0.023 C 
BRANCH  38  39
ATOM     39  C   UNL     1       5.409  11.297   1.624  1.00  0.00     0.116 C 
BRANCH  39  40
ATOM     40  N   UNL     1       4.159  12.002   1.847  1.00  0.00    -0.352 N 
ATOM     41  C   UNL     1       3.749  13.204   1.289  1.00  0.00     0.251 C 
ATOM     42  H   UNL     1       3.527  11.576   2.470  1.00  0.00     0.163 HD
ATOM     43  O   UNL     1       2.670  13.687   1.598  1.00  0.00    -0.269 OA
BRANCH  41  44
ATOM     44  C   UNL     1       4.656  13.942   0.369  1.00  0.00     0.039 A 
ATOM     45  C   UNL     1       5.023  15.248   0.707  1.00  0.00     0.014 A 
ATOM     46  C   UNL     1       5.189  13.350  -0.778  1.00  0.00     0.014 A 
ATOM     47  C   UNL     1       6.020  15.902  -0.027  1.00  0.00     0.010 A 
ATOM     48  C   UNL     1       6.208  13.986  -1.488  1.00  0.00     0.010 A 
ATOM     49  C   UNL     1       6.668  15.248  -1.089  1.00  0.00    -0.014 A 
BRANCH  49  50
ATOM     50  C   UNL     1       7.924  15.794  -1.669  1.00  0.00     0.031 A 
ATOM     51  C   UNL     1       8.005  16.252  -3.097  1.00  0.00     0.074 A 
ATOM     52  C   UNL     1       9.040  15.767  -0.910  1.00  0.00     0.049 A 
ATOM     53  N   UNL     1       9.031  16.745  -3.743  1.00  0.00    -0.248 NA
ATOM     54  C   UNL     1       6.788  16.122  -3.913  1.00  0.00     0.031 C 
ATOM     55  C   UNL     1       9.114  15.243   0.457  1.00  0.00     0.029 A 
ATOM     56  N   UNL     1      10.326  16.162  -1.180  1.00  0.00    -0.354 N 
ATOM     57  C   UNL     1       8.595  16.970  -5.043  1.00  0.00     0.074 A 
ATOM     58  C   UNL     1       7.215  16.531  -5.101  1.00  0.00     0.031 C 
ATOM     59  C   UNL     1      10.373  15.356   0.906  1.00  0.00     0.029 A 
ATOM     60  C   UNL     1      11.202  15.941  -0.142  1.00  0.00     0.049 A 
ATOM     61  H   UNL     1      10.597  16.566  -2.037  1.00  0.00     0.167 HD
ATOM     62  C   UNL     1       9.272  17.517  -6.082  1.00  0.00     0.034 A 
ATOM     63  C   UNL     1      12.523  16.186  -0.039  1.00  0.00     0.034 A 
ATOM     64  C   UNL     1      10.636  17.973  -6.010  1.00  0.00     0.049 A 
ATOM     65  C   UNL     1      13.234  16.845  -1.189  1.00  0.00     0.074 A 
ATOM     66  C   UNL     1      11.381  18.616  -6.984  1.00  0.00     0.029 A 
ATOM     67  N   UNL     1      11.464  17.828  -4.907  1.00  0.00    -0.354 N 
ATOM     68  N   UNL     1      12.751  17.223  -2.347  1.00  0.00    -0.248 NA
ATOM     69  C   UNL     1      14.661  17.149  -1.004  1.00  0.00     0.031 C 
ATOM     70  C   UNL     1      12.664  18.846  -6.475  1.00  0.00     0.029 A 
ATOM     71  C   UNL     1      12.712  18.363  -5.177  1.00  0.00     0.049 A 
ATOM     72  H   UNL     1      11.202  17.406  -4.057  1.00  0.00     0.167 HD
ATOM     73  C   UNL     1      13.801  17.843  -3.014  1.00  0.00     0.074 A 
ATOM     74  C   UNL     1      14.942  17.807  -2.122  1.00  0.00     0.031 C 
ATOM     75  C   UNL     1      13.822  18.377  -4.259  1.00  0.00     0.034 A 
BRANCH  62  76
ATOM     76  C   UNL     1       8.527  17.717  -7.377  1.00  0.00     0.023 A 
ATOM     77  C   UNL     1       7.554  18.734  -7.459  1.00  0.00     0.012 A 
ATOM     78  C   UNL     1       8.834  16.962  -8.526  1.00  0.00     0.148 A 
ATOM     79  C   UNL     1       6.875  18.976  -8.652  1.00  0.00     0.002 A 
ATOM     80  C   UNL     1       8.181  17.235  -9.724  1.00  0.00     0.091 A 
ATOM     81  F   UNL     1       9.752  15.991  -8.427  1.00  0.00    -0.205 F 
ATOM     82  C   UNL     1       7.195  18.234  -9.786  1.00  0.00     0.022 A 
BRANCH  80  83
ATOM     83  S   UNL     1       8.570  16.386 -11.259  1.00  0.00     0.127 S 
ATOM     84  O   UNL     1       7.383  15.552 -11.444  1.00  0.00    -0.237 OA
ATOM     85  O   UNL     1       8.687  17.496 -12.205  1.00  0.00    -0.237 OA
ATOM     86  O   UNL     1       9.810  15.664 -11.015  1.00  0.00    -0.744 OA
ENDBRANCH  80  83
ENDBRANCH  62  76
BRANCH  63  87
ATOM     87  C   UNL     1      13.238  15.887   1.235  1.00  0.00     0.023 A 
ATOM     88  C   UNL     1      13.674  16.953   2.046  1.00  0.00     0.012 A 
ATOM     89  C   UNL     1      13.460  14.564   1.663  1.00  0.00     0.148 A 
ATOM     90  C   UNL     1      14.346  16.707   3.244  1.00  0.00     0.002 A 
ATOM     91  C   UNL     1      14.081  14.326   2.884  1.00  0.00     0.091 A 
ATOM     92  F   UNL     1      13.049  13.562   0.873  1.00  0.00    -0.205 F 
ATOM     93  C   UNL     1      14.541  15.396   3.668  1.00  0.00     0.022 A 
BRANCH  91  94
ATOM     94  S   UNL     1      14.245  12.673   3.567  1.00  0.00     0.127 S 
ATOM     95  O   UNL     1      15.658  12.390   3.334  1.00  0.00    -0.237 OA
ATOM     96  O   UNL     1      13.880  12.882   4.969  1.00  0.00    -0.237 OA
ATOM     97  O   UNL     1      13.298  11.852   2.824  1.00  0.00    -0.744 OA
ENDBRANCH  91  94
ENDBRANCH  63  87
BRANCH  75  98
ATOM     98  C   UNL     1      15.109  19.002  -4.730  1.00  0.00     0.023 A 
ATOM     99  C   UNL     1      16.195  18.179  -5.090  1.00  0.00     0.012 A 
ATOM    100  C   UNL     1      15.214  20.398  -4.893  1.00  0.00     0.148 A 
ATOM    101  C   UNL     1      17.374  18.738  -5.581  1.00  0.00     0.002 A 
ATOM    102  C   UNL     1      16.376  20.943  -5.426  1.00  0.00     0.091 A 
ATOM    103  F   UNL     1      14.179  21.165  -4.523  1.00  0.00    -0.205 F 
ATOM    104  C   UNL     1      17.461  20.116  -5.761  1.00  0.00     0.022 A 
BRANCH 102 105
ATOM    105  S   UNL     1      16.541  22.697  -5.778  1.00  0.00     0.127 S 
ATOM    106  O   UNL     1      17.437  23.134  -4.709  1.00  0.00    -0.237 OA
ATOM    107  O   UNL     1      17.141  22.692  -7.113  1.00  0.00    -0.237 OA
ATOM    108  O   UNL     1      15.191  23.244  -5.727  1.00  0.00    -0.744 OA
ENDBRANCH 102 105
ENDBRANCH  75  98
ENDBRANCH  49  50
ENDBRANCH  41  44
ENDBRANCH  39  40
ENDBRANCH  38  39
ENDBRANCH   1  38
TORSDOF 19
