REMARK SMILES CCC[N@H+]1CCC[C@H]([C@@H](C)Nc2cccc(C(=O)NCCCCNC(=O)c3ccc(-c4c5nc(c(-c6cccc(S(=O)(=O)[O-])c6F)c6ccc([nH]6)c(-c6cccc(S(=O)(=O)[O-])c6F)c6nc(c(-c7cccc(S(=O)(=O)[O-])c7F)c7ccc4[nH]7)C=C6)C=C5)cc3)c2)C1
REMARK SMILES IDX 20 1 19 2 17 3 18 4 16 6 12 7 13 8 90 9 14 10 15 11 11 12
REMARK SMILES IDX 9 14 10 15 8 16 4 17 5 18 91 19 6 21 7 22 3 23 2 24 1 25
REMARK SMILES IDX 21 26 22 27 23 28 24 29 25 30 26 32 27 33 28 34 89 35 29 36
REMARK SMILES IDX 88 37 30 38 31 39 32 40 82 41 33 42 87 43 81 44 83 45 34 46
REMARK SMILES IDX 86 47 80 48 79 49 35 51 67 52 47 53 66 54 48 55 51 56 65 57
REMARK SMILES IDX 84 58 49 59 50 60 64 62 85 63 52 64 36 65 37 66 45 67 38 68
REMARK SMILES IDX 40 69 46 70 39 71 41 72 42 73 43 74 44 75 68 76 69 77 77 78
REMARK SMILES IDX 70 79 72 80 78 81 71 82 73 83 74 84 75 85 76 86 53 87 54 88
REMARK SMILES IDX 62 89 55 90 57 91 63 92 56 93 58 94 59 95 60 96 61 97
REMARK H PARENT 19 5 11 13 4 20 24 31 83 50 51 61
REMARK Flexibility Score: inf
ROOT
ATOM      1  C   UNL     1      -4.751   3.909  -0.724  1.00  0.00     0.116 C 
ENDROOT
BRANCH   1   2
ATOM      2  N   UNL     1      -5.488   2.904   0.031  1.00  0.00    -0.352 N 
ATOM      3  C   UNL     1      -5.189   1.578   0.285  1.00  0.00     0.251 C 
ATOM      4  O   UNL     1      -5.955   0.901   0.968  1.00  0.00    -0.269 OA
ATOM      5  H   UNL     1      -6.334   3.220   0.423  1.00  0.00     0.163 HD
BRANCH   3   6
ATOM      6  C   UNL     1      -3.996   0.932  -0.321  1.00  0.00     0.041 A 
ATOM      7  C   UNL     1      -1.818   1.208  -1.366  1.00  0.00     0.035 A 
ATOM      8  C   UNL     1      -1.949  -0.084  -1.889  1.00  0.00     0.026 A 
ATOM      9  C   UNL     1      -2.792   1.623  -0.459  1.00  0.00     0.039 A 
ATOM     10  C   UNL     1      -3.060  -0.883  -1.591  1.00  0.00     0.003 A 
ATOM     11  C   UNL     1      -4.107  -0.358  -0.838  1.00  0.00     0.014 A 
BRANCH   7  12
ATOM     12  N   UNL     1      -0.767   2.015  -1.772  1.00  0.00    -0.382 N 
ATOM     13  H   UNL     1      -0.095   1.624  -2.375  1.00  0.00     0.160 HD
BRANCH  12  14
ATOM     14  C   UNL     1      -0.588   3.412  -1.363  1.00  0.00     0.084 C 
ATOM     15  C   UNL     1      -1.108   4.317  -2.485  1.00  0.00     0.031 C 
BRANCH  14  16
ATOM     16  C   UNL     1       0.900   3.701  -1.019  1.00  0.00     0.066 C 
ATOM     17  N   UNL     1       0.809   2.546   1.175  1.00  0.00    -0.335 N 
ATOM     18  C   UNL     1       1.019   3.802   1.915  1.00  0.00     0.262 C 
ATOM     19  C   UNL     1       1.510   2.613  -0.114  1.00  0.00     0.267 C 
ATOM     20  H   UNL     1      -0.185   2.426   0.982  1.00  0.00     0.348 HD
ATOM     21  C   UNL     1       0.536   5.025   1.125  1.00  0.00     0.062 C 
ATOM     22  C   UNL     1       1.085   5.054  -0.304  1.00  0.00     0.017 C 
BRANCH  17  23
ATOM     23  C   UNL     1       1.209   1.383   1.981  1.00  0.00     0.261 C 
BRANCH  23  24
ATOM     24  C   UNL     1       0.552   0.046   1.586  1.00  0.00     0.058 C 
ATOM     25  C   UNL     1       1.153  -0.670   0.386  1.00  0.00     0.010 C 
ENDBRANCH  23  24
ENDBRANCH  17  23
ENDBRANCH  14  16
ENDBRANCH  12  14
ENDBRANCH   7  12
ENDBRANCH   3   6
ENDBRANCH   1   2
BRANCH   1  26
ATOM     26  C   UNL     1      -5.559   4.675  -1.762  1.00  0.00     0.023 C 
BRANCH  26  27
ATOM     27  C   UNL     1      -6.647   5.594  -1.231  1.00  0.00     0.023 C 
BRANCH  27  28
ATOM     28  C   UNL     1      -6.239   6.543  -0.112  1.00  0.00     0.116 C 
BRANCH  28  29
ATOM     29  N   UNL     1      -5.101   7.397  -0.433  1.00  0.00    -0.352 N 
ATOM     30  C   UNL     1      -4.959   8.757  -0.278  1.00  0.00     0.251 C 
ATOM     31  H   UNL     1      -4.322   6.933  -0.815  1.00  0.00     0.163 HD
ATOM     32  O   UNL     1      -3.931   9.314  -0.656  1.00  0.00    -0.269 OA
BRANCH  30  33
ATOM     33  C   UNL     1      -6.065   9.553   0.300  1.00  0.00     0.039 A 
ATOM     34  C   UNL     1      -6.485  10.708  -0.366  1.00  0.00     0.014 A 
ATOM     35  C   UNL     1      -6.722   9.133   1.458  1.00  0.00     0.014 A 
ATOM     36  C   UNL     1      -7.626  11.384   0.075  1.00  0.00     0.010 A 
ATOM     37  C   UNL     1      -7.906   9.756   1.842  1.00  0.00     0.010 A 
ATOM     38  C   UNL     1      -8.376  10.883   1.152  1.00  0.00    -0.014 A 
BRANCH  38  39
ATOM     39  C   UNL     1      -9.670  11.497   1.549  1.00  0.00     0.031 A 
ATOM     40  C   UNL     1      -9.850  12.072   2.928  1.00  0.00     0.074 A 
ATOM     41  C   UNL     1     -10.721  11.437   0.706  1.00  0.00     0.049 A 
ATOM     42  N   UNL     1     -10.921  12.589   3.472  1.00  0.00    -0.248 NA
ATOM     43  C   UNL     1      -8.684  12.029   3.825  1.00  0.00     0.031 C 
ATOM     44  C   UNL     1     -10.708  10.814  -0.620  1.00  0.00     0.029 A 
ATOM     45  N   UNL     1     -12.014  11.876   0.851  1.00  0.00    -0.354 N 
ATOM     46  C   UNL     1     -10.573  12.893   4.782  1.00  0.00     0.074 A 
ATOM     47  C   UNL     1      -9.201  12.470   4.963  1.00  0.00     0.031 C 
ATOM     48  C   UNL     1     -11.930  10.916  -1.167  1.00  0.00     0.029 A 
ATOM     49  C   UNL     1     -12.820  11.588  -0.226  1.00  0.00     0.049 A 
ATOM     50  H   UNL     1     -12.334  12.354   1.650  1.00  0.00     0.167 HD
ATOM     51  C   UNL     1     -11.313  13.501   5.740  1.00  0.00     0.034 A 
ATOM     52  C   UNL     1     -14.129  11.834  -0.434  1.00  0.00     0.034 A 
ATOM     53  C   UNL     1     -12.657  13.972   5.541  1.00  0.00     0.049 A 
ATOM     54  C   UNL     1     -14.911  12.572   0.618  1.00  0.00     0.074 A 
ATOM     55  C   UNL     1     -13.451  14.699   6.409  1.00  0.00     0.029 A 
ATOM     56  N   UNL     1     -13.409  13.758   4.396  1.00  0.00    -0.354 N 
ATOM     57  N   UNL     1     -14.508  13.018   1.784  1.00  0.00    -0.248 NA
ATOM     58  C   UNL     1     -16.317  12.877   0.312  1.00  0.00     0.031 C 
ATOM     59  C   UNL     1     -14.690  14.912   5.794  1.00  0.00     0.029 A 
ATOM     60  C   UNL     1     -14.661  14.332   4.537  1.00  0.00     0.049 A 
ATOM     61  H   UNL     1     -13.098  13.270   3.600  1.00  0.00     0.167 HD
ATOM     62  C   UNL     1     -15.598  13.681   2.337  1.00  0.00     0.074 A 
ATOM     63  C   UNL     1     -16.672  13.598   1.367  1.00  0.00     0.031 C 
ATOM     64  C   UNL     1     -15.705  14.288   3.545  1.00  0.00     0.034 A 
BRANCH  51  65
ATOM     65  C   UNL     1     -10.657  13.750   7.072  1.00  0.00     0.023 A 
ATOM     66  C   UNL     1      -9.648  14.730   7.174  1.00  0.00     0.012 A 
ATOM     67  C   UNL     1     -11.060  13.053   8.227  1.00  0.00     0.148 A 
ATOM     68  C   UNL     1      -9.022  14.985   8.394  1.00  0.00     0.002 A 
ATOM     69  C   UNL     1     -10.462  13.343   9.449  1.00  0.00     0.091 A 
ATOM     70  F   UNL     1     -12.003  12.107   8.110  1.00  0.00    -0.205 F 
ATOM     71  C   UNL     1      -9.436  14.298   9.532  1.00  0.00     0.022 A 
BRANCH  69  72
ATOM     72  S   UNL     1     -10.980  12.568  10.985  1.00  0.00     0.127 S 
ATOM     73  O   UNL     1      -9.893  11.619  11.218  1.00  0.00    -0.237 OA
ATOM     74  O   UNL     1     -11.010  13.701  11.910  1.00  0.00    -0.237 OA
ATOM     75  O   UNL     1     -12.284  11.978  10.712  1.00  0.00    -0.744 OA
ENDBRANCH  69  72
ENDBRANCH  51  65
BRANCH  52  76
ATOM     76  C   UNL     1     -14.757  11.452  -1.730  1.00  0.00     0.023 A 
ATOM     77  C   UNL     1     -15.095  12.460  -2.653  1.00  0.00     0.012 A 
ATOM     78  C   UNL     1     -14.975  10.104  -2.074  1.00  0.00     0.148 A 
ATOM     79  C   UNL     1     -15.664  12.136  -3.885  1.00  0.00     0.002 A 
ATOM     80  C   UNL     1     -15.493   9.785  -3.325  1.00  0.00     0.091 A 
ATOM     81  F   UNL     1     -14.657   9.160  -1.178  1.00  0.00    -0.205 F 
ATOM     82  C   UNL     1     -15.852  10.800  -4.226  1.00  0.00     0.022 A 
BRANCH  80  83
ATOM     83  S   UNL     1     -15.647   8.090  -3.902  1.00  0.00     0.127 S 
ATOM     84  O   UNL     1     -17.095   7.903  -3.899  1.00  0.00    -0.237 OA
ATOM     85  O   UNL     1     -15.037   8.167  -5.230  1.00  0.00    -0.237 OA
ATOM     86  O   UNL     1     -14.901   7.282  -2.947  1.00  0.00    -0.744 OA
ENDBRANCH  80  83
ENDBRANCH  52  76
BRANCH  64  87
ATOM     87  C   UNL     1     -17.021  14.934   3.888  1.00  0.00     0.023 A 
ATOM     88  C   UNL     1     -18.130  14.127   4.211  1.00  0.00     0.012 A 
ATOM     89  C   UNL     1     -17.139  16.336   3.966  1.00  0.00     0.148 A 
ATOM     90  C   UNL     1     -19.345  14.706   4.579  1.00  0.00     0.002 A 
ATOM     91  C   UNL     1     -18.339  16.904   4.377  1.00  0.00     0.091 A 
ATOM     92  F   UNL     1     -16.079  17.087   3.635  1.00  0.00    -0.205 F 
ATOM     93  C   UNL     1     -19.445  16.092   4.674  1.00  0.00     0.022 A 
BRANCH  91  94
ATOM     94  S   UNL     1     -18.529  18.675   4.618  1.00  0.00     0.127 S 
ATOM     95  O   UNL     1     -19.306  19.055   3.440  1.00  0.00    -0.237 OA
ATOM     96  O   UNL     1     -19.264  18.742   5.882  1.00  0.00    -0.237 OA
ATOM     97  O   UNL     1     -17.177  19.215   4.679  1.00  0.00    -0.744 OA
ENDBRANCH  91  94
ENDBRANCH  64  87
ENDBRANCH  38  39
ENDBRANCH  30  33
ENDBRANCH  28  29
ENDBRANCH  27  28
ENDBRANCH  26  27
ENDBRANCH   1  26
TORSDOF 19
