REMARK SMILES CC(C)(C)OC(=O)N1C[C@@H](COCc2ccccc2)O[C@@H](C(=O)NCCCCNC(=O)c2ccc(-c3c4nc(c(-c5cccc(S(=O)(=O)[O-])c5F)c5ccc([nH]5)c(-c5cccc(S(=O)(=O)[O-])c5F)c5nc(c(-c6cccc(S(=O)(=O)[O-])c6F)c6ccc3[nH]6)C=C5)C=C4)cc2)C1
REMARK SMILES IDX 26 1 25 2 24 3 22 4 23 5 21 7 8 8 9 9 95 10 10 11 20 12 6 13
REMARK SMILES IDX 7 14 5 15 2 16 1 17 3 18 4 19 11 20 12 21 13 22 14 23 15 24
REMARK SMILES IDX 19 25 16 26 18 27 17 28 27 29 28 30 29 31 30 32 31 34 32 35
REMARK SMILES IDX 33 36 94 37 34 38 93 39 35 40 36 41 37 42 87 43 38 44 92 45
REMARK SMILES IDX 86 46 88 47 39 48 91 49 85 50 84 51 40 53 72 54 52 55 71 56
REMARK SMILES IDX 53 57 56 58 70 59 89 60 54 61 55 62 69 64 90 65 57 66 41 67
REMARK SMILES IDX 42 68 50 69 43 70 45 71 51 72 44 73 46 74 47 75 48 76 49 77
REMARK SMILES IDX 73 78 74 79 82 80 75 81 77 82 83 83 76 84 78 85 79 86 80 87
REMARK SMILES IDX 81 88 58 89 59 90 67 91 60 92 62 93 68 94 61 95 63 96 64 97
REMARK SMILES IDX 65 98 66 99
REMARK H PARENT 24 6 29 33 88 52 56 63
REMARK Flexibility Score: inf
ROOT
ATOM      1  C   UNL     1       0.701   6.287   6.971  1.00  0.00     0.023 C 
ENDROOT
BRANCH   1   2
ATOM      2  C   UNL     1       1.161   4.949   7.546  1.00  0.00     0.116 C 
BRANCH   2   3
ATOM      3  N   UNL     1       0.032   4.119   7.929  1.00  0.00    -0.354 N 
ATOM      4  C   UNL     1      -0.415   2.957   7.370  1.00  0.00     0.251 C 
ATOM      5  O   UNL     1      -1.423   2.426   7.842  1.00  0.00    -0.272 OA
ATOM      6  H   UNL     1      -0.484   4.441   8.704  1.00  0.00     0.163 HD
BRANCH   4   7
ATOM      7  C   UNL     1       0.300   2.347   6.163  1.00  0.00     0.227 C 
ATOM      8  N   UNL     1       0.761   2.632   3.774  1.00  0.00    -0.302 N 
ATOM      9  C   UNL     1       2.179   2.390   4.027  1.00  0.00     0.157 C 
ATOM     10  C   UNL     1       0.014   3.172   4.903  1.00  0.00     0.165 C 
ATOM     11  C   UNL     1       2.406   1.590   5.311  1.00  0.00     0.164 C 
ATOM     12  O   UNL     1       1.709   2.216   6.412  1.00  0.00    -0.359 OA
BRANCH   8  13
ATOM     13  C   UNL     1       0.184   2.574   2.527  1.00  0.00     0.410 C 
ATOM     14  O   UNL     1      -0.854   3.149   2.237  1.00  0.00    -0.224 OA
BRANCH  13  15
ATOM     15  O   UNL     1       0.879   1.756   1.698  1.00  0.00    -0.444 OA
BRANCH  15  16
ATOM     16  C   UNL     1       0.437   1.483   0.345  1.00  0.00     0.106 C 
ATOM     17  C   UNL     1       1.160   0.183  -0.037  1.00  0.00     0.056 C 
ATOM     18  C   UNL     1       0.910   2.619  -0.562  1.00  0.00     0.056 C 
ATOM     19  C   UNL     1      -1.073   1.242   0.211  1.00  0.00     0.056 C 
ENDBRANCH  15  16
ENDBRANCH  13  15
ENDBRANCH   8  13
BRANCH  11  20
ATOM     20  C   UNL     1       3.884   1.436   5.733  1.00  0.00     0.194 C 
BRANCH  20  21
ATOM     21  O   UNL     1       4.831   2.326   5.137  1.00  0.00    -0.374 OA
BRANCH  21  22
ATOM     22  C   UNL     1       5.351   2.002   3.844  1.00  0.00     0.195 C 
BRANCH  22  23
ATOM     23  C   UNL     1       5.599   0.539   3.578  1.00  0.00    -0.022 A 
ATOM     24  C   UNL     1       4.737  -0.196   2.750  1.00  0.00     0.006 A 
ATOM     25  C   UNL     1       6.659  -0.121   4.214  1.00  0.00     0.006 A 
ATOM     26  C   UNL     1       4.917  -1.569   2.583  1.00  0.00     0.000 A 
ATOM     27  C   UNL     1       6.842  -1.493   4.037  1.00  0.00     0.000 A 
ATOM     28  C   UNL     1       5.967  -2.217   3.228  1.00  0.00     0.000 A 
ENDBRANCH  22  23
ENDBRANCH  21  22
ENDBRANCH  20  21
ENDBRANCH  11  20
ENDBRANCH   4   7
ENDBRANCH   2   3
ENDBRANCH   1   2
BRANCH   1  29
ATOM     29  C   UNL     1       0.002   7.202   7.974  1.00  0.00     0.023 C 
BRANCH  29  30
ATOM     30  C   UNL     1       0.805   7.508   9.233  1.00  0.00     0.116 C 
BRANCH  30  31
ATOM     31  N   UNL     1       2.102   8.102   8.947  1.00  0.00    -0.352 N 
ATOM     32  C   UNL     1       2.731   9.144   9.584  1.00  0.00     0.251 C 
ATOM     33  H   UNL     1       2.597   7.702   8.196  1.00  0.00     0.163 HD
ATOM     34  O   UNL     1       3.772   9.604   9.124  1.00  0.00    -0.269 OA
BRANCH  32  35
ATOM     35  C   UNL     1       2.132   9.727  10.803  1.00  0.00     0.039 A 
ATOM     36  C   UNL     1       2.052  11.116  10.914  1.00  0.00     0.014 A 
ATOM     37  C   UNL     1       1.633   8.909  11.822  1.00  0.00     0.014 A 
ATOM     38  C   UNL     1       1.419  11.684  12.021  1.00  0.00     0.010 A 
ATOM     39  C   UNL     1       0.933   9.475  12.883  1.00  0.00     0.010 A 
ATOM     40  C   UNL     1       0.826  10.868  12.999  1.00  0.00    -0.014 A 
BRANCH  40  41
ATOM     41  C   UNL     1       0.075  11.463  14.134  1.00  0.00     0.031 A 
ATOM     42  C   UNL     1       0.545  11.268  15.550  1.00  0.00     0.074 A 
ATOM     43  C   UNL     1      -1.073  12.126  13.892  1.00  0.00     0.049 A 
ATOM     44  N   UNL     1       0.026  11.725  16.660  1.00  0.00    -0.248 NA
ATOM     45  C   UNL     1       1.737  10.427  15.750  1.00  0.00     0.031 C 
ATOM     46  C   UNL     1      -1.686  12.301  12.574  1.00  0.00     0.029 A 
ATOM     47  N   UNL     1      -1.936  12.763  14.747  1.00  0.00    -0.354 N 
ATOM     48  C   UNL     1       0.807  11.209  17.687  1.00  0.00     0.074 A 
ATOM     49  C   UNL     1       1.809  10.367  17.071  1.00  0.00     0.031 C 
ATOM     50  C   UNL     1      -2.815  13.016  12.705  1.00  0.00     0.029 A 
ATOM     51  C   UNL     1      -3.017  13.333  14.115  1.00  0.00     0.049 A 
ATOM     52  H   UNL     1      -1.796  12.809  15.720  1.00  0.00     0.167 HD
ATOM     53  C   UNL     1       0.723  11.442  19.019  1.00  0.00     0.034 A 
ATOM     54  C   UNL     1      -4.049  14.041  14.614  1.00  0.00     0.034 A 
ATOM     55  C   UNL     1      -0.251  12.311  19.625  1.00  0.00     0.049 A 
ATOM     56  C   UNL     1      -4.087  14.334  16.089  1.00  0.00     0.074 A 
ATOM     57  C   UNL     1      -0.367  12.682  20.953  1.00  0.00     0.029 A 
ATOM     58  N   UNL     1      -1.282  12.940  18.944  1.00  0.00    -0.354 N 
ATOM     59  N   UNL     1      -3.239  13.980  17.024  1.00  0.00    -0.248 NA
ATOM     60  C   UNL     1      -5.203  15.160  16.570  1.00  0.00     0.031 C 
ATOM     61  C   UNL     1      -1.480  13.522  21.077  1.00  0.00     0.029 A 
ATOM     62  C   UNL     1      -2.043  13.693  19.823  1.00  0.00     0.049 A 
ATOM     63  H   UNL     1      -1.448  12.864  17.977  1.00  0.00     0.167 HD
ATOM     64  C   UNL     1      -3.699  14.566  18.198  1.00  0.00     0.074 A 
ATOM     65  C   UNL     1      -4.886  15.321  17.848  1.00  0.00     0.031 C 
ATOM     66  C   UNL     1      -3.196  14.475  19.454  1.00  0.00     0.034 A 
BRANCH  53  67
ATOM     67  C   UNL     1       1.756  10.792  19.904  1.00  0.00     0.023 A 
ATOM     68  C   UNL     1       3.093  11.240  19.852  1.00  0.00     0.012 A 
ATOM     69  C   UNL     1       1.407   9.771  20.809  1.00  0.00     0.148 A 
ATOM     70  C   UNL     1       4.073  10.657  20.654  1.00  0.00     0.002 A 
ATOM     71  C   UNL     1       2.381   9.226  21.639  1.00  0.00     0.091 A 
ATOM     72  F   UNL     1       0.138   9.340  20.831  1.00  0.00    -0.205 F 
ATOM     73  C   UNL     1       3.715   9.657  21.553  1.00  0.00     0.022 A 
BRANCH  71  74
ATOM     74  S   UNL     1       2.005   7.989  22.887  1.00  0.00     0.127 S 
ATOM     75  O   UNL     1       2.568   6.781  22.285  1.00  0.00    -0.237 OA
ATOM     76  O   UNL     1       2.740   8.489  24.049  1.00  0.00    -0.237 OA
ATOM     77  O   UNL     1       0.557   8.000  23.037  1.00  0.00    -0.744 OA
ENDBRANCH  71  74
ENDBRANCH  53  67
BRANCH  54  78
ATOM     78  C   UNL     1      -5.076  14.604  13.693  1.00  0.00     0.023 A 
ATOM     79  C   UNL     1      -5.108  15.994  13.466  1.00  0.00     0.012 A 
ATOM     80  C   UNL     1      -5.990  13.776  13.015  1.00  0.00     0.148 A 
ATOM     81  C   UNL     1      -6.052  16.553  12.604  1.00  0.00     0.002 A 
ATOM     82  C   UNL     1      -6.893  14.333  12.116  1.00  0.00     0.091 A 
ATOM     83  F   UNL     1      -5.949  12.457  13.252  1.00  0.00    -0.205 F 
ATOM     84  C   UNL     1      -6.936  15.723  11.922  1.00  0.00     0.022 A 
BRANCH  82  85
ATOM     85  S   UNL     1      -7.980  13.332  11.096  1.00  0.00     0.127 S 
ATOM     86  O   UNL     1      -9.288  13.627  11.674  1.00  0.00    -0.237 OA
ATOM     87  O   UNL     1      -7.752  13.899   9.766  1.00  0.00    -0.237 OA
ATOM     88  O   UNL     1      -7.513  11.961  11.251  1.00  0.00    -0.744 OA
ENDBRANCH  82  85
ENDBRANCH  54  78
BRANCH  66  89
ATOM     89  C   UNL     1      -3.915  15.228  20.544  1.00  0.00     0.023 A 
ATOM     90  C   UNL     1      -5.178  14.784  20.986  1.00  0.00     0.012 A 
ATOM     91  C   UNL     1      -3.323  16.348  21.160  1.00  0.00     0.148 A 
ATOM     92  C   UNL     1      -5.858  15.468  21.993  1.00  0.00     0.002 A 
ATOM     93  C   UNL     1      -3.986  16.995  22.197  1.00  0.00     0.091 A 
ATOM     94  F   UNL     1      -2.131  16.771  20.714  1.00  0.00    -0.205 F 
ATOM     95  C   UNL     1      -5.259  16.565  22.605  1.00  0.00     0.022 A 
BRANCH  93  96
ATOM     96  S   UNL     1      -3.243  18.357  23.103  1.00  0.00     0.127 S 
ATOM     97  O   UNL     1      -3.924  19.511  22.520  1.00  0.00    -0.237 OA
ATOM     98  O   UNL     1      -3.621  18.059  24.485  1.00  0.00    -0.237 OA
ATOM     99  O   UNL     1      -1.812  18.271  22.842  1.00  0.00    -0.744 OA
ENDBRANCH  93  96
ENDBRANCH  66  89
ENDBRANCH  40  41
ENDBRANCH  32  35
ENDBRANCH  30  31
ENDBRANCH  29  30
ENDBRANCH   1  29
TORSDOF 21
