REMARK SMILES CCOC(=O)C1CCN(c2cc(NCC(=O)NCCCCNC(=O)c3ccc(-c4c5nc(c(-c6cccc(S(=O)(=O)[O-])c6F)c6ccc([nH]6)c(-c6cccc(S(=O)(=O)[O-])c6F)c6nc(c(-c7cccc(S(=O)(=O)[O-])c7F)c7ccc4[nH]7)C=C6)C=C5)cc3)c3c4c(onc24)-c2ccccc2C3=O)CC1
REMARK SMILES IDX 18 1 17 2 15 3 16 4 14 6 13 7 12 9 10 10 11 11 93 12 89 13
REMARK SMILES IDX 92 14 88 15 90 16 91 17 100 18 94 19 99 20 101 21 95 22
REMARK SMILES IDX 98 23 96 24 97 25 9 26 6 27 7 28 103 29 8 30 102 31 4 32
REMARK SMILES IDX 5 33 3 34 2 35 1 36 19 37 20 38 21 39 22 40 23 41 24 43
REMARK SMILES IDX 25 44 26 45 87 46 27 47 86 48 28 49 29 50 30 51 80 52 31 53
REMARK SMILES IDX 85 54 79 55 81 56 32 57 84 58 78 59 77 60 33 62 65 63 45 64
REMARK SMILES IDX 64 65 46 66 49 67 63 68 82 69 47 70 48 71 62 73 83 74 50 75
REMARK SMILES IDX 34 76 35 77 43 78 36 79 38 80 44 81 37 82 39 83 40 84 41 85
REMARK SMILES IDX 42 86 66 87 67 88 75 89 68 90 70 91 76 92 69 93 71 94 72 95
REMARK SMILES IDX 73 96 74 97 51 98 52 99 60 100 53 101 55 102 61 103 54 104
REMARK SMILES IDX 56 105 57 106 58 107 59 108
REMARK H PARENT 17 5 13 8 22 42 81 61 49 72
REMARK Flexibility Score: inf
ROOT
ATOM      1  C   UNL     1      -0.688   9.402  -0.967  1.00  0.00     0.116 C 
ENDROOT
BRANCH   1   2
ATOM      2  N   UNL     1      -2.034   9.911  -1.129  1.00  0.00    -0.355 N 
ATOM      3  C   UNL     1      -2.973   9.572  -2.063  1.00  0.00     0.239 C 
ATOM      4  O   UNL     1      -4.088  10.096  -1.988  1.00  0.00    -0.273 OA
ATOM      5  H   UNL     1      -2.311  10.595  -0.477  1.00  0.00     0.163 HD
BRANCH   3   6
ATOM      6  C   UNL     1      -2.669   8.497  -3.113  1.00  0.00     0.213 C 
BRANCH   6   7
ATOM      7  N   UNL     1      -1.641   8.907  -4.065  1.00  0.00    -0.375 N 
ATOM      8  H   UNL     1      -1.874   9.660  -4.655  1.00  0.00     0.161 HD
BRANCH   7   9
ATOM      9  C   UNL     1      -0.375   8.363  -4.238  1.00  0.00     0.049 A 
ATOM     10  C   UNL     1       1.304   6.500  -3.601  1.00  0.00     0.069 A 
ATOM     11  C   UNL     1      -0.005   7.095  -3.639  1.00  0.00     0.054 A 
ATOM     12  C   UNL     1       2.244   7.275  -4.326  1.00  0.00     0.138 A 
ATOM     13  C   UNL     1       1.819   8.470  -4.949  1.00  0.00     0.065 A 
ATOM     14  N   UNL     1       3.558   7.107  -4.611  1.00  0.00    -0.077 NA
ATOM     15  C   UNL     1       0.589   9.087  -4.972  1.00  0.00     0.059 A 
ATOM     16  C   UNL     1       2.871   8.996  -5.611  1.00  0.00     0.176 A 
ATOM     17  O   UNL     1       3.943   8.190  -5.422  1.00  0.00    -0.355 OA
ATOM     18  C   UNL     1       0.443  10.369  -5.710  1.00  0.00     0.196 C 
ATOM     19  C   UNL     1       2.878  10.196  -6.404  1.00  0.00     0.032 A 
ATOM     20  C   UNL     1       1.651  10.908  -6.443  1.00  0.00     0.034 A 
ATOM     21  O   UNL     1      -0.640  10.941  -5.741  1.00  0.00    -0.288 OA
ATOM     22  C   UNL     1       3.983  10.662  -7.113  1.00  0.00     0.013 A 
ATOM     23  C   UNL     1       1.554  12.091  -7.175  1.00  0.00     0.013 A 
ATOM     24  C   UNL     1       3.871  11.841  -7.853  1.00  0.00     0.001 A 
ATOM     25  C   UNL     1       2.667  12.555  -7.879  1.00  0.00     0.001 A 
BRANCH  10  26
ATOM     26  N   UNL     1       1.544   5.332  -2.905  1.00  0.00    -0.370 N 
ATOM     27  C   UNL     1       2.791   2.771  -2.631  1.00  0.00     0.103 C 
ATOM     28  C   UNL     1       3.587   4.073  -2.438  1.00  0.00     0.037 C 
ATOM     29  C   UNL     1       1.620   3.010  -3.598  1.00  0.00     0.037 C 
ATOM     30  C   UNL     1       2.686   5.226  -2.004  1.00  0.00     0.117 C 
ATOM     31  C   UNL     1       0.721   4.159  -3.138  1.00  0.00     0.117 C 
BRANCH  27  32
ATOM     32  C   UNL     1       2.379   2.200  -1.279  1.00  0.00     0.309 C 
ATOM     33  O   UNL     1       3.130   2.135  -0.314  1.00  0.00    -0.252 OA
BRANCH  32  34
ATOM     34  O   UNL     1       1.100   1.738  -1.287  1.00  0.00    -0.466 OA
BRANCH  34  35
ATOM     35  C   UNL     1       0.598   1.234  -0.041  1.00  0.00     0.229 C 
ATOM     36  C   UNL     1       0.887  -0.250   0.069  1.00  0.00     0.049 C 
ENDBRANCH  34  35
ENDBRANCH  32  34
ENDBRANCH  27  32
ENDBRANCH  10  26
ENDBRANCH   7   9
ENDBRANCH   6   7
ENDBRANCH   3   6
ENDBRANCH   1   2
BRANCH   1  37
ATOM     37  C   UNL     1       0.376  10.477  -1.191  1.00  0.00     0.023 C 
BRANCH  37  38
ATOM     38  C   UNL     1       0.346  11.598  -0.151  1.00  0.00     0.023 C 
BRANCH  38  39
ATOM     39  C   UNL     1       0.463  11.109   1.289  1.00  0.00     0.116 C 
BRANCH  39  40
ATOM     40  N   UNL     1       1.816  10.724   1.655  1.00  0.00    -0.352 N 
ATOM     41  C   UNL     1       2.775  11.468   2.312  1.00  0.00     0.251 C 
ATOM     42  H   UNL     1       2.083   9.811   1.401  1.00  0.00     0.163 HD
ATOM     43  O   UNL     1       3.896  11.025   2.485  1.00  0.00    -0.269 OA
BRANCH  41  44
ATOM     44  C   UNL     1       2.405  12.819   2.779  1.00  0.00     0.039 A 
ATOM     45  C   UNL     1       1.311  12.976   3.636  1.00  0.00     0.014 A 
ATOM     46  C   UNL     1       3.095  13.925   2.280  1.00  0.00     0.014 A 
ATOM     47  C   UNL     1       0.807  14.245   3.869  1.00  0.00     0.010 A 
ATOM     48  C   UNL     1       2.622  15.204   2.564  1.00  0.00     0.010 A 
ATOM     49  C   UNL     1       1.455  15.359   3.323  1.00  0.00    -0.014 A 
BRANCH  49  50
ATOM     50  C   UNL     1       0.903  16.669   3.681  1.00  0.00     0.031 A 
ATOM     51  C   UNL     1       1.759  17.442   4.621  1.00  0.00     0.074 A 
ATOM     52  C   UNL     1       0.047  17.337   2.884  1.00  0.00     0.049 A 
ATOM     53  N   UNL     1       2.772  18.146   4.215  1.00  0.00    -0.248 NA
ATOM     54  C   UNL     1       1.708  17.245   6.068  1.00  0.00     0.031 C 
ATOM     55  C   UNL     1       0.057  17.267   1.417  1.00  0.00     0.029 A 
ATOM     56  N   UNL     1      -0.808  18.373   3.172  1.00  0.00    -0.354 N 
ATOM     57  C   UNL     1       3.537  18.432   5.327  1.00  0.00     0.074 A 
ATOM     58  C   UNL     1       2.829  17.870   6.458  1.00  0.00     0.031 C 
ATOM     59  C   UNL     1      -0.595  18.345   0.934  1.00  0.00     0.029 A 
ATOM     60  C   UNL     1      -1.208  19.073   2.038  1.00  0.00     0.049 A 
ATOM     61  H   UNL     1      -1.107  18.595   4.084  1.00  0.00     0.167 HD
ATOM     62  C   UNL     1       4.717  19.103   5.262  1.00  0.00     0.034 A 
ATOM     63  C   UNL     1      -1.563  20.387   2.030  1.00  0.00     0.034 A 
ATOM     64  C   UNL     1       5.115  19.535   3.955  1.00  0.00     0.049 A 
ATOM     65  C   UNL     1      -0.212  21.039   2.221  1.00  0.00     0.074 A 
ATOM     66  C   UNL     1       5.924  19.064   2.943  1.00  0.00     0.029 A 
ATOM     67  N   UNL     1       4.500  20.644   3.423  1.00  0.00    -0.354 N 
ATOM     68  N   UNL     1       0.705  21.183   1.298  1.00  0.00    -0.248 NA
ATOM     69  C   UNL     1       0.281  21.183   3.592  1.00  0.00     0.031 C 
ATOM     70  C   UNL     1       5.415  19.646   1.738  1.00  0.00     0.029 A 
ATOM     71  C   UNL     1       4.300  20.407   2.085  1.00  0.00     0.049 A 
ATOM     72  H   UNL     1       4.248  21.460   3.913  1.00  0.00     0.167 HD
ATOM     73  C   UNL     1       1.925  21.108   1.977  1.00  0.00     0.074 A 
ATOM     74  C   UNL     1       1.590  21.135   3.387  1.00  0.00     0.031 C 
ATOM     75  C   UNL     1       3.123  20.855   1.370  1.00  0.00     0.034 A 
BRANCH  62  76
ATOM     76  C   UNL     1       5.451  19.546   6.465  1.00  0.00     0.023 A 
ATOM     77  C   UNL     1       5.068  20.781   7.022  1.00  0.00     0.012 A 
ATOM     78  C   UNL     1       6.573  18.869   6.972  1.00  0.00     0.148 A 
ATOM     79  C   UNL     1       5.808  21.358   8.048  1.00  0.00     0.002 A 
ATOM     80  C   UNL     1       7.308  19.450   8.002  1.00  0.00     0.091 A 
ATOM     81  F   UNL     1       6.916  17.694   6.426  1.00  0.00    -0.205 F 
ATOM     82  C   UNL     1       6.931  20.697   8.533  1.00  0.00     0.022 A 
BRANCH  80  83
ATOM     83  S   UNL     1       8.774  18.695   8.716  1.00  0.00     0.127 S 
ATOM     84  O   UNL     1       9.822  19.632   8.314  1.00  0.00    -0.237 OA
ATOM     85  O   UNL     1       8.457  18.711  10.144  1.00  0.00    -0.237 OA
ATOM     86  O   UNL     1       8.867  17.365   8.131  1.00  0.00    -0.744 OA
ENDBRANCH  80  83
ENDBRANCH  62  76
BRANCH  63  87
ATOM     87  C   UNL     1      -2.776  20.696   2.867  1.00  0.00     0.023 A 
ATOM     88  C   UNL     1      -3.896  19.839   2.708  1.00  0.00     0.012 A 
ATOM     89  C   UNL     1      -2.894  21.744   3.797  1.00  0.00     0.148 A 
ATOM     90  C   UNL     1      -5.030  19.941   3.516  1.00  0.00     0.002 A 
ATOM     91  C   UNL     1      -4.006  21.813   4.638  1.00  0.00     0.091 A 
ATOM     92  F   UNL     1      -1.921  22.659   3.874  1.00  0.00    -0.205 F 
ATOM     93  C   UNL     1      -5.072  20.912   4.503  1.00  0.00     0.022 A 
BRANCH  91  94
ATOM     94  S   UNL     1      -4.118  22.988   5.995  1.00  0.00     0.127 S 
ATOM     95  O   UNL     1      -5.477  23.505   5.845  1.00  0.00    -0.237 OA
ATOM     96  O   UNL     1      -3.914  22.114   7.148  1.00  0.00    -0.237 OA
ATOM     97  O   UNL     1      -3.063  23.964   5.757  1.00  0.00    -0.744 OA
ENDBRANCH  91  94
ENDBRANCH  63  87
BRANCH  75  98
ATOM     98  C   UNL     1       3.128  20.879  -0.128  1.00  0.00     0.023 A 
ATOM     99  C   UNL     1       2.999  22.126  -0.769  1.00  0.00     0.012 A 
ATOM    100  C   UNL     1       3.332  19.722  -0.908  1.00  0.00     0.148 A 
ATOM    101  C   UNL     1       3.094  22.230  -2.155  1.00  0.00     0.002 A 
ATOM    102  C   UNL     1       3.457  19.836  -2.290  1.00  0.00     0.091 A 
ATOM    103  F   UNL     1       3.425  18.534  -0.293  1.00  0.00    -0.205 F 
ATOM    104  C   UNL     1       3.336  21.089  -2.914  1.00  0.00     0.022 A 
BRANCH 102 105
ATOM    105  S   UNL     1       3.824  18.439  -3.361  1.00  0.00     0.127 S 
ATOM    106  O   UNL     1       2.732  18.500  -4.334  1.00  0.00    -0.237 OA
ATOM    107  O   UNL     1       5.134  18.807  -3.899  1.00  0.00    -0.237 OA
ATOM    108  O   UNL     1       3.817  17.256  -2.512  1.00  0.00    -0.744 OA
ENDBRANCH 102 105
ENDBRANCH  75  98
ENDBRANCH  49  50
ENDBRANCH  41  44
ENDBRANCH  39  40
ENDBRANCH  38  39
ENDBRANCH  37  38
ENDBRANCH   1  37
TORSDOF 20
