REMARK SMILES C[C@@H]1C[N@@H+](CC(C)(C)C(=O)NCCCCNC(=O)c2ccc(-c3c4nc(c(-c5cccc(S(=O)(=O)[O-])c5F)c5ccc([nH]5)c(-c5cccc(S(=O)(=O)[O-])c5F)c5nc(c(-c6cccc(S(=O)(=O)[O-])c6F)c6ccc3[nH]6)C=C5)C=C4)cc2)CC[C@@H]1[NH3+]
REMARK SMILES IDX 13 1 12 2 11 3 9 4 10 5 6 7 7 8 8 9 5 10 4 11 1 12 2 13 3 14
REMARK SMILES IDX 84 15 83 16 82 17 85 19 14 23 15 24 16 25 17 26 18 28 19 29
REMARK SMILES IDX 20 30 81 31 21 32 80 33 22 34 23 35 24 36 74 37 25 38 79 39
REMARK SMILES IDX 73 40 75 41 26 42 78 43 72 44 71 45 27 47 59 48 39 49 58 50
REMARK SMILES IDX 40 51 43 52 57 53 76 54 41 55 42 56 56 58 77 59 44 60 28 61
REMARK SMILES IDX 29 62 37 63 30 64 32 65 38 66 31 67 33 68 34 69 35 70 36 71
REMARK SMILES IDX 60 72 61 73 69 74 62 75 64 76 70 77 63 78 65 79 66 80 67 81
REMARK SMILES IDX 68 82 45 83 46 84 54 85 47 86 49 87 55 88 48 89 50 90 51 91
REMARK SMILES IDX 52 92 53 93
REMARK H PARENT 11 6 4 18 85 20 85 21 85 22 16 27 75 46 43 57
REMARK Flexibility Score: inf
ROOT
ATOM      1  C   UNL     1      -0.724  -8.031   3.210  1.00  0.00     0.023 C 
ENDROOT
BRANCH   1   2
ATOM      2  C   UNL     1      -1.304  -6.704   2.730  1.00  0.00     0.116 C 
BRANCH   2   3
ATOM      3  N   UNL     1      -0.254  -5.732   2.522  1.00  0.00    -0.355 N 
ATOM      4  C   UNL     1       0.235  -5.162   1.393  1.00  0.00     0.231 C 
ATOM      5  O   UNL     1       1.392  -4.738   1.484  1.00  0.00    -0.274 OA
ATOM      6  H   UNL     1       0.185  -5.429   3.349  1.00  0.00     0.163 HD
BRANCH   4   7
ATOM      7  C   UNL     1      -0.535  -5.119   0.059  1.00  0.00     0.092 C 
ATOM      8  C   UNL     1      -2.063  -5.014   0.180  1.00  0.00     0.027 C 
ATOM      9  C   UNL     1      -0.198  -6.447  -0.659  1.00  0.00     0.027 C 
BRANCH   7  10
ATOM     10  C   UNL     1       0.023  -3.936  -0.831  1.00  0.00     0.278 C 
BRANCH  10  11
ATOM     11  N   UNL     1      -0.163  -2.500  -0.501  1.00  0.00    -0.333 N 
ATOM     12  C   UNL     1       1.368   0.188  -0.068  1.00  0.00     0.020 C 
ATOM     13  C   UNL     1       0.509  -0.563   0.959  1.00  0.00     0.099 C 
ATOM     14  C   UNL     1       0.555  -2.084   0.711  1.00  0.00     0.271 C 
ATOM     15  C   UNL     1      -0.968  -0.126   0.994  1.00  0.00     0.194 C 
ATOM     16  C   UNL     1      -1.671  -0.517  -0.307  1.00  0.00     0.126 C 
ATOM     17  C   UNL     1      -1.545  -2.026  -0.534  1.00  0.00     0.268 C 
ATOM     18  H   UNL     1       0.283  -2.017  -1.281  1.00  0.00     0.348 HD
BRANCH  15  19
ATOM     19  N   UNL     1      -1.149   1.301   1.271  1.00  0.00    -0.355 N 
ATOM     20  H   UNL     1      -0.737   1.849   0.516  1.00  0.00     0.344 HD
ATOM     21  H   UNL     1      -0.692   1.537   2.151  1.00  0.00     0.344 HD
ATOM     22  H   UNL     1      -2.146   1.510   1.338  1.00  0.00     0.344 HD
ENDBRANCH  15  19
ENDBRANCH  10  11
ENDBRANCH   7  10
ENDBRANCH   4   7
ENDBRANCH   2   3
ENDBRANCH   1   2
BRANCH   1  23
ATOM     23  C   UNL     1      -0.091  -7.986   4.601  1.00  0.00     0.023 C 
BRANCH  23  24
ATOM     24  C   UNL     1      -0.991  -7.438   5.703  1.00  0.00     0.116 C 
BRANCH  24  25
ATOM     25  N   UNL     1      -2.268  -8.132   5.785  1.00  0.00    -0.352 N 
ATOM     26  C   UNL     1      -2.910  -8.636   6.892  1.00  0.00     0.251 C 
ATOM     27  H   UNL     1      -2.738  -8.258   4.929  1.00  0.00     0.163 HD
ATOM     28  O   UNL     1      -3.920  -9.315   6.763  1.00  0.00    -0.269 OA
BRANCH  26  29
ATOM     29  C   UNL     1      -2.350  -8.369   8.233  1.00  0.00     0.039 A 
ATOM     30  C   UNL     1      -2.189  -9.434   9.121  1.00  0.00     0.014 A 
ATOM     31  C   UNL     1      -1.957  -7.078   8.594  1.00  0.00     0.014 A 
ATOM     32  C   UNL     1      -1.573  -9.213  10.354  1.00  0.00     0.010 A 
ATOM     33  C   UNL     1      -1.274  -6.876   9.788  1.00  0.00     0.010 A 
ATOM     34  C   UNL     1      -1.081  -7.938  10.683  1.00  0.00    -0.014 A 
BRANCH  34  35
ATOM     35  C   UNL     1      -0.361  -7.697  11.958  1.00  0.00     0.031 A 
ATOM     36  C   UNL     1      -0.928  -6.745  12.976  1.00  0.00     0.074 A 
ATOM     37  C   UNL     1       0.842  -8.268  12.162  1.00  0.00     0.049 A 
ATOM     38  N   UNL     1      -0.427  -6.372  14.125  1.00  0.00    -0.248 NA
ATOM     39  C   UNL     1      -2.213  -6.104  12.648  1.00  0.00     0.031 C 
ATOM     40  C   UNL     1       1.537  -9.141  11.213  1.00  0.00     0.029 A 
ATOM     41  N   UNL     1       1.705  -8.182  13.226  1.00  0.00    -0.354 N 
ATOM     42  C   UNL     1      -1.312  -5.432  14.638  1.00  0.00     0.074 A 
ATOM     43  C   UNL     1      -2.360  -5.258  13.657  1.00  0.00     0.031 C 
ATOM     44  C   UNL     1       2.712  -9.519  11.742  1.00  0.00     0.029 A 
ATOM     45  C   UNL     1       2.868  -8.897  13.053  1.00  0.00     0.049 A 
ATOM     46  H   UNL     1       1.511  -7.658  14.036  1.00  0.00     0.167 HD
ATOM     47  C   UNL     1      -1.277  -4.796  15.833  1.00  0.00     0.034 A 
ATOM     48  C   UNL     1       3.936  -9.037  13.862  1.00  0.00     0.034 A 
ATOM     49  C   UNL     1      -0.259  -5.008  16.826  1.00  0.00     0.049 A 
ATOM     50  C   UNL     1       3.926  -8.360  15.206  1.00  0.00     0.074 A 
ATOM     51  C   UNL     1      -0.178  -4.481  18.102  1.00  0.00     0.029 A 
ATOM     52  N   UNL     1       0.856  -5.813  16.653  1.00  0.00    -0.354 N 
ATOM     53  N   UNL     1       3.000  -7.601  15.741  1.00  0.00    -0.248 NA
ATOM     54  C   UNL     1       5.089  -8.590  16.074  1.00  0.00     0.031 C 
ATOM     55  C   UNL     1       0.997  -4.955  18.696  1.00  0.00     0.029 A 
ATOM     56  C   UNL     1       1.635  -5.795  17.797  1.00  0.00     0.049 A 
ATOM     57  H   UNL     1       1.064  -6.322  15.837  1.00  0.00     0.167 HD
ATOM     58  C   UNL     1       3.450  -7.296  17.021  1.00  0.00     0.074 A 
ATOM     59  C   UNL     1       4.722  -7.969  17.187  1.00  0.00     0.031 C 
ATOM     60  C   UNL     1       2.870  -6.517  17.967  1.00  0.00     0.034 A 
BRANCH  47  61
ATOM     61  C   UNL     1      -2.411  -3.857  16.156  1.00  0.00     0.023 A 
ATOM     62  C   UNL     1      -3.692  -4.384  16.419  1.00  0.00     0.012 A 
ATOM     63  C   UNL     1      -2.206  -2.467  16.242  1.00  0.00     0.148 A 
ATOM     64  C   UNL     1      -4.760  -3.542  16.725  1.00  0.00     0.002 A 
ATOM     65  C   UNL     1      -3.265  -1.636  16.593  1.00  0.00     0.091 A 
ATOM     66  F   UNL     1      -0.987  -1.980  15.966  1.00  0.00    -0.205 F 
ATOM     67  C   UNL     1      -4.544  -2.170  16.821  1.00  0.00     0.022 A 
BRANCH  65  68
ATOM     68  S   UNL     1      -3.071   0.135  16.820  1.00  0.00     0.127 S 
ATOM     69  O   UNL     1      -3.752   0.660  15.637  1.00  0.00    -0.237 OA
ATOM     70  O   UNL     1      -3.778   0.363  18.081  1.00  0.00    -0.237 OA
ATOM     71  O   UNL     1      -1.637   0.377  16.877  1.00  0.00    -0.744 OA
ENDBRANCH  65  68
ENDBRANCH  47  61
BRANCH  48  72
ATOM     72  C   UNL     1       5.065  -9.923  13.460  1.00  0.00     0.023 A 
ATOM     73  C   UNL     1       5.254 -11.145  14.134  1.00  0.00     0.012 A 
ATOM     74  C   UNL     1       5.930  -9.582  12.402  1.00  0.00     0.148 A 
ATOM     75  C   UNL     1       6.303 -11.996  13.787  1.00  0.00     0.002 A 
ATOM     76  C   UNL     1       6.941 -10.459  12.025  1.00  0.00     0.091 A 
ATOM     77  F   UNL     1       5.740  -8.410  11.779  1.00  0.00    -0.205 F 
ATOM     78  C   UNL     1       7.140 -11.659  12.727  1.00  0.00     0.022 A 
BRANCH  76  79
ATOM     79  S   UNL     1       7.984 -10.168  10.592  1.00  0.00     0.127 S 
ATOM     80  O   UNL     1       9.266  -9.851  11.214  1.00  0.00    -0.237 OA
ATOM     81  O   UNL     1       7.931 -11.463   9.912  1.00  0.00    -0.237 OA
ATOM     82  O   UNL     1       7.348  -9.082   9.859  1.00  0.00    -0.744 OA
ENDBRANCH  76  79
ENDBRANCH  48  72
BRANCH  60  83
ATOM     83  C   UNL     1       3.583  -6.375  19.286  1.00  0.00     0.023 A 
ATOM     84  C   UNL     1       4.754  -5.596  19.370  1.00  0.00     0.012 A 
ATOM     85  C   UNL     1       3.051  -6.953  20.456  1.00  0.00     0.148 A 
ATOM     86  C   UNL     1       5.403  -5.423  20.591  1.00  0.00     0.002 A 
ATOM     87  C   UNL     1       3.676  -6.735  21.678  1.00  0.00     0.091 A 
ATOM     88  F   UNL     1       1.947  -7.707  20.353  1.00  0.00    -0.205 F 
ATOM     89  C   UNL     1       4.859  -5.980  21.746  1.00  0.00     0.022 A 
BRANCH  87  90
ATOM     90  S   UNL     1       2.991  -7.333  23.227  1.00  0.00     0.127 S 
ATOM     91  O   UNL     1       3.881  -8.451  23.535  1.00  0.00    -0.237 OA
ATOM     92  O   UNL     1       3.142  -6.172  24.105  1.00  0.00    -0.237 OA
ATOM     93  O   UNL     1       1.609  -7.694  22.939  1.00  0.00    -0.744 OA
ENDBRANCH  87  90
ENDBRANCH  60  83
ENDBRANCH  34  35
ENDBRANCH  26  29
ENDBRANCH  24  25
ENDBRANCH  23  24
ENDBRANCH   1  23
TORSDOF 17
