REMARK SMILES N#CCCn1cc(C(=O)NCCCCNC(=O)c2ccc(-c3c4nc(c(-c5cccc(S(=O)(=O)[O-])c5F)c5ccc([nH]5)c(-c5cccc(S(=O)(=O)[O-])c5F)c5nc(c(-c6cccc(S(=O)(=O)[O-])c6F)c6ccc3[nH]6)C=C5)C=C4)cc2)c(-c2cccc([N+](=O)[O-])c2)n1
REMARK SMILES IDX 12 1 11 2 10 3 8 4 9 5 7 7 5 8 6 9 91 10 81 11 4 12 3 13
REMARK SMILES IDX 2 14 1 15 82 16 83 17 90 18 84 19 86 20 85 21 87 22 88 23
REMARK SMILES IDX 89 24 13 25 14 26 15 27 16 28 17 30 18 31 19 32 80 33 20 34
REMARK SMILES IDX 79 35 21 36 22 37 23 38 73 39 24 40 78 41 72 42 74 43 25 44
REMARK SMILES IDX 77 45 71 46 70 47 26 49 58 50 38 51 57 52 39 53 42 54 56 55
REMARK SMILES IDX 75 56 40 57 41 58 55 60 76 61 43 62 27 63 28 64 36 65 29 66
REMARK SMILES IDX 31 67 37 68 30 69 32 70 33 71 34 72 35 73 59 74 60 75 68 76
REMARK SMILES IDX 61 77 63 78 69 79 62 80 64 81 65 82 66 83 67 84 44 85 45 86
REMARK SMILES IDX 53 87 46 88 48 89 54 90 47 91 49 92 50 93 51 94 52 95
REMARK H PARENT 10 6 15 29 74 48 42 59
REMARK Flexibility Score: inf
ROOT
ATOM      1  C   UNL     1       3.231  -6.863  -1.630  1.00  0.00     0.023 C 
ENDROOT
BRANCH   1   2
ATOM      2  C   UNL     1       4.244  -6.226  -2.587  1.00  0.00     0.116 C 
BRANCH   2   3
ATOM      3  N   UNL     1       3.592  -5.731  -3.777  1.00  0.00    -0.352 N 
ATOM      4  C   UNL     1       3.096  -4.503  -4.130  1.00  0.00     0.255 C 
ATOM      5  O   UNL     1       2.524  -4.452  -5.217  1.00  0.00    -0.269 OA
ATOM      6  H   UNL     1       3.482  -6.415  -4.477  1.00  0.00     0.163 HD
BRANCH   4   7
ATOM      7  C   UNL     1       3.251  -3.329  -3.277  1.00  0.00     0.085 A 
ATOM      8  N   UNL     1       3.760  -1.933  -1.655  1.00  0.00    -0.270 N 
ATOM      9  C   UNL     1       3.564  -3.248  -1.935  1.00  0.00     0.123 A 
ATOM     10  N   UNL     1       3.447  -1.115  -2.666  1.00  0.00    -0.172 NA
ATOM     11  C   UNL     1       3.072  -1.948  -3.656  1.00  0.00     0.105 A 
BRANCH   8  12
ATOM     12  C   UNL     1       4.253  -1.417  -0.393  1.00  0.00     0.159 C 
BRANCH  12  13
ATOM     13  C   UNL     1       3.703  -0.062   0.002  1.00  0.00     0.144 C 
BRANCH  13  14
ATOM     14  C   UNL     1       2.183  -0.062   0.002  1.00  0.00     0.064 C 
ATOM     15  N   UNL     1       0.922  -0.062   0.002  1.00  0.00    -0.198 NA
ENDBRANCH  13  14
ENDBRANCH  12  13
ENDBRANCH   8  12
BRANCH  11  16
ATOM     16  C   UNL     1       2.545  -1.417  -4.914  1.00  0.00     0.010 A 
ATOM     17  C   UNL     1       1.288  -1.845  -5.375  1.00  0.00     0.011 A 
ATOM     18  C   UNL     1       3.271  -0.489  -5.668  1.00  0.00     0.096 A 
ATOM     19  C   UNL     1       0.786  -1.416  -6.604  1.00  0.00     0.008 A 
ATOM     20  C   UNL     1       2.753  -0.045  -6.895  1.00  0.00     0.270 A 
ATOM     21  C   UNL     1       1.521  -0.519  -7.373  1.00  0.00     0.085 A 
BRANCH  20  22
ATOM     22  N   UNL     1       3.482   0.961  -7.677  1.00  0.00     0.062 N 
ATOM     23  O   UNL     1       3.027   1.265  -8.791  1.00  0.00    -0.258 OA
ATOM     24  O   UNL     1       4.462   1.506  -7.150  1.00  0.00    -0.258 OA
ENDBRANCH  20  22
ENDBRANCH  11  16
ENDBRANCH   4   7
ENDBRANCH   2   3
ENDBRANCH   1   2
BRANCH   1  25
ATOM     25  C   UNL     1       2.694  -8.227  -2.093  1.00  0.00     0.023 C 
BRANCH  25  26
ATOM     26  C   UNL     1       3.741  -9.335  -2.159  1.00  0.00     0.116 C 
BRANCH  26  27
ATOM     27  N   UNL     1       4.336  -9.626  -0.854  1.00  0.00    -0.352 N 
ATOM     28  C   UNL     1       5.494 -10.335  -0.586  1.00  0.00     0.251 C 
ATOM     29  H   UNL     1       3.853  -9.274  -0.071  1.00  0.00     0.163 HD
ATOM     30  O   UNL     1       5.689 -10.839   0.506  1.00  0.00    -0.269 OA
BRANCH  28  31
ATOM     31  C   UNL     1       6.502 -10.440  -1.655  1.00  0.00     0.039 A 
ATOM     32  C   UNL     1       7.093 -11.661  -1.985  1.00  0.00     0.014 A 
ATOM     33  C   UNL     1       6.802  -9.279  -2.361  1.00  0.00     0.014 A 
ATOM     34  C   UNL     1       7.928 -11.718  -3.099  1.00  0.00     0.010 A 
ATOM     35  C   UNL     1       7.510  -9.363  -3.532  1.00  0.00     0.010 A 
ATOM     36  C   UNL     1       8.114 -10.568  -3.881  1.00  0.00    -0.014 A 
BRANCH  36  37
ATOM     37  C   UNL     1       8.836 -10.634  -5.146  1.00  0.00     0.031 A 
ATOM     38  C   UNL     1       8.286 -11.608  -6.132  1.00  0.00     0.074 A 
ATOM     39  C   UNL     1       9.765  -9.717  -5.495  1.00  0.00     0.049 A 
ATOM     40  N   UNL     1       8.849 -12.683  -6.575  1.00  0.00    -0.248 NA
ATOM     41  C   UNL     1       6.892 -11.444  -6.576  1.00  0.00     0.031 C 
ATOM     42  C   UNL     1      10.162  -8.508  -4.762  1.00  0.00     0.029 A 
ATOM     43  N   UNL     1      10.432  -9.583  -6.672  1.00  0.00    -0.354 N 
ATOM     44  C   UNL     1       7.981 -13.198  -7.539  1.00  0.00     0.074 A 
ATOM     45  C   UNL     1       6.724 -12.528  -7.338  1.00  0.00     0.031 C 
ATOM     46  C   UNL     1      10.761  -7.646  -5.612  1.00  0.00     0.029 A 
ATOM     47  C   UNL     1      10.945  -8.306  -6.889  1.00  0.00     0.049 A 
ATOM     48  H   UNL     1      10.543 -10.322  -7.313  1.00  0.00     0.167 HD
ATOM     49  C   UNL     1       8.444 -13.942  -8.584  1.00  0.00     0.034 A 
ATOM     50  C   UNL     1      11.427  -7.815  -8.057  1.00  0.00     0.034 A 
ATOM     51  C   UNL     1       9.803 -14.370  -8.356  1.00  0.00     0.049 A 
ATOM     52  C   UNL     1      11.773  -8.980  -8.905  1.00  0.00     0.074 A 
ATOM     53  C   UNL     1      10.451 -15.079  -7.364  1.00  0.00     0.029 A 
ATOM     54  N   UNL     1      10.790 -13.707  -9.047  1.00  0.00    -0.354 N 
ATOM     55  N   UNL     1      12.730  -9.816  -8.615  1.00  0.00    -0.248 NA
ATOM     56  C   UNL     1      10.764  -9.473  -9.828  1.00  0.00     0.031 C 
ATOM     57  C   UNL     1      11.694 -14.401  -7.192  1.00  0.00     0.029 A 
ATOM     58  C   UNL     1      11.763 -13.380  -8.142  1.00  0.00     0.049 A 
ATOM     59  H   UNL     1      10.796 -13.505 -10.011  1.00  0.00     0.167 HD
ATOM     60  C   UNL     1      12.199 -11.061  -8.924  1.00  0.00     0.074 A 
ATOM     61  C   UNL     1      11.036 -10.780  -9.767  1.00  0.00     0.031 C 
ATOM     62  C   UNL     1      12.562 -12.178  -8.226  1.00  0.00     0.034 A 
BRANCH  49  63
ATOM     63  C   UNL     1       7.848 -13.980  -9.978  1.00  0.00     0.023 A 
ATOM     64  C   UNL     1       8.422 -14.890 -10.897  1.00  0.00     0.012 A 
ATOM     65  C   UNL     1       6.981 -13.001 -10.514  1.00  0.00     0.148 A 
ATOM     66  C   UNL     1       8.216 -14.779 -12.277  1.00  0.00     0.002 A 
ATOM     67  C   UNL     1       6.716 -12.942 -11.879  1.00  0.00     0.091 A 
ATOM     68  F   UNL     1       6.503 -12.027  -9.737  1.00  0.00    -0.205 F 
ATOM     69  C   UNL     1       7.359 -13.804 -12.769  1.00  0.00     0.022 A 
BRANCH  67  70
ATOM     70  S   UNL     1       5.577 -11.732 -12.565  1.00  0.00     0.127 S 
ATOM     71  O   UNL     1       6.497 -10.803 -13.213  1.00  0.00    -0.237 OA
ATOM     72  O   UNL     1       4.780 -12.556 -13.475  1.00  0.00    -0.237 OA
ATOM     73  O   UNL     1       4.831 -11.209 -11.427  1.00  0.00    -0.744 OA
ENDBRANCH  67  70
ENDBRANCH  49  63
BRANCH  50  74
ATOM     74  C   UNL     1      11.392  -6.435  -8.594  1.00  0.00     0.023 A 
ATOM     75  C   UNL     1      12.258  -6.073  -9.645  1.00  0.00     0.012 A 
ATOM     76  C   UNL     1      10.329  -5.559  -8.278  1.00  0.00     0.148 A 
ATOM     77  C   UNL     1      12.051  -4.901 -10.382  1.00  0.00     0.002 A 
ATOM     78  C   UNL     1      10.131  -4.390  -9.009  1.00  0.00     0.091 A 
ATOM     79  F   UNL     1       9.456  -5.917  -7.327  1.00  0.00    -0.205 F 
ATOM     80  C   UNL     1      10.983  -4.064 -10.071  1.00  0.00     0.022 A 
BRANCH  78  81
ATOM     81  S   UNL     1       8.758  -3.279  -8.673  1.00  0.00     0.127 S 
ATOM     82  O   UNL     1       9.416  -1.972  -8.689  1.00  0.00    -0.237 OA
ATOM     83  O   UNL     1       7.877  -3.539  -9.807  1.00  0.00    -0.237 OA
ATOM     84  O   UNL     1       8.244  -3.672  -7.366  1.00  0.00    -0.744 OA
ENDBRANCH  78  81
ENDBRANCH  50  74
BRANCH  62  85
ATOM     85  C   UNL     1      13.722 -12.087  -7.265  1.00  0.00     0.023 A 
ATOM     86  C   UNL     1      13.709 -11.236  -6.140  1.00  0.00     0.012 A 
ATOM     87  C   UNL     1      14.759 -13.027  -7.391  1.00  0.00     0.148 A 
ATOM     88  C   UNL     1      14.717 -11.308  -5.174  1.00  0.00     0.002 A 
ATOM     89  C   UNL     1      15.731 -13.129  -6.405  1.00  0.00     0.091 A 
ATOM     90  F   UNL     1      14.756 -13.832  -8.464  1.00  0.00    -0.205 F 
ATOM     91  C   UNL     1      15.720 -12.266  -5.298  1.00  0.00     0.022 A 
BRANCH  89  92
ATOM     92  S   UNL     1      16.967 -14.429  -6.444  1.00  0.00     0.127 S 
ATOM     93  O   UNL     1      18.162 -13.700  -6.863  1.00  0.00    -0.237 OA
ATOM     94  O   UNL     1      16.986 -14.889  -5.054  1.00  0.00    -0.237 OA
ATOM     95  O   UNL     1      16.473 -15.422  -7.390  1.00  0.00    -0.744 OA
ENDBRANCH  89  92
ENDBRANCH  62  85
ENDBRANCH  36  37
ENDBRANCH  28  31
ENDBRANCH  26  27
ENDBRANCH  25  26
ENDBRANCH   1  25
TORSDOF 19
