REMARK SMILES O=C(NCCCCNC(=O)c1cc(-c2ccoc2)n[nH]1)c1ccc(-c2c3nc(c(-c4cccc(S(=O)(=O)[O-])c4F)c4ccc([nH]4)c(-c4cccc(S(=O)(=O)[O-])c4F)c4nc(c(-c5cccc(S(=O)(=O)[O-])c5F)c5ccc2[nH]5)C=C4)C=C3)cc1
REMARK SMILES IDX 4 1 3 2 1 3 2 4 21 6 22 7 83 8 23 9 82 10 24 11 25 12 26 13
REMARK SMILES IDX 76 14 27 15 81 16 75 17 77 18 28 19 80 20 74 21 73 22 29 24
REMARK SMILES IDX 61 25 41 26 60 27 42 28 45 29 59 30 78 31 43 32 44 33 58 35
REMARK SMILES IDX 79 36 46 37 30 38 31 39 39 40 32 41 34 42 40 43 33 44 35 45
REMARK SMILES IDX 36 46 37 47 38 48 62 49 63 50 71 51 64 52 66 53 72 54 65 55
REMARK SMILES IDX 67 56 68 57 69 58 70 59 47 60 48 61 56 62 49 63 51 64 57 65
REMARK SMILES IDX 50 66 52 67 53 68 54 69 55 70 5 71 6 72 7 73 8 74 9 75 10 77
REMARK SMILES IDX 11 78 12 79 20 80 13 81 19 82 14 84 15 85 18 86 16 87 17 88
REMARK H PARENT 3 5 77 23 45 34 8 76 20 83
REMARK Flexibility Score: inf
ROOT
ATOM      1  C   UNL     1       4.532  -0.868  -1.091  1.00  0.00     0.116 C 
ENDROOT
BRANCH   1   2
ATOM      2  N   UNL     1       3.108  -0.575  -1.048  1.00  0.00    -0.352 N 
ATOM      3  O   UNL     1       1.138  -0.006  -0.115  1.00  0.00    -0.269 OA
ATOM      4  C   UNL     1       2.358  -0.071  -0.009  1.00  0.00     0.251 C 
ATOM      5  H   UNL     1       2.611  -0.763  -1.877  1.00  0.00     0.163 HD
BRANCH   4   6
ATOM      6  C   UNL     1       3.029   0.352   1.240  1.00  0.00     0.039 A 
ATOM      7  C   UNL     1       4.190   1.126   1.198  1.00  0.00     0.014 A 
ATOM      8  C   UNL     1       2.501  -0.055   2.469  1.00  0.00     0.014 A 
ATOM      9  C   UNL     1       4.909   1.355   2.367  1.00  0.00     0.010 A 
ATOM     10  C   UNL     1       3.181   0.252   3.652  1.00  0.00     0.010 A 
ATOM     11  C   UNL     1       4.413   0.921   3.608  1.00  0.00    -0.014 A 
BRANCH  11  12
ATOM     12  C   UNL     1       5.181   1.228   4.843  1.00  0.00     0.031 A 
ATOM     13  C   UNL     1       5.770   0.134   5.692  1.00  0.00     0.074 A 
ATOM     14  C   UNL     1       5.364   2.518   5.184  1.00  0.00     0.049 A 
ATOM     15  N   UNL     1       6.521   0.239   6.759  1.00  0.00    -0.248 NA
ATOM     16  C   UNL     1       5.476  -1.255   5.305  1.00  0.00     0.031 C 
ATOM     17  C   UNL     1       4.802   3.664   4.465  1.00  0.00     0.029 A 
ATOM     18  N   UNL     1       6.077   3.087   6.208  1.00  0.00    -0.354 N 
ATOM     19  C   UNL     1       6.756  -1.059   7.194  1.00  0.00     0.074 A 
ATOM     20  C   UNL     1       6.062  -1.940   6.279  1.00  0.00     0.031 C 
ATOM     21  C   UNL     1       5.223   4.797   5.044  1.00  0.00     0.029 A 
ATOM     22  C   UNL     1       6.047   4.461   6.200  1.00  0.00     0.049 A 
ATOM     23  H   UNL     1       6.564   2.561   6.883  1.00  0.00     0.167 HD
ATOM     24  C   UNL     1       7.499  -1.481   8.247  1.00  0.00     0.034 A 
ATOM     25  C   UNL     1       6.616   5.356   7.030  1.00  0.00     0.034 A 
ATOM     26  C   UNL     1       8.227  -0.604   9.126  1.00  0.00     0.049 A 
ATOM     27  C   UNL     1       7.465   4.858   8.164  1.00  0.00     0.074 A 
ATOM     28  C   UNL     1       9.064  -0.940  10.177  1.00  0.00     0.029 A 
ATOM     29  N   UNL     1       8.204   0.781   9.063  1.00  0.00    -0.354 N 
ATOM     30  N   UNL     1       7.786   3.626   8.473  1.00  0.00    -0.248 NA
ATOM     31  C   UNL     1       8.052   5.875   9.047  1.00  0.00     0.031 C 
ATOM     32  C   UNL     1       9.539   0.243  10.755  1.00  0.00     0.029 A 
ATOM     33  C   UNL     1       9.006   1.315  10.058  1.00  0.00     0.049 A 
ATOM     34  H   UNL     1       7.694   1.307   8.406  1.00  0.00     0.167 HD
ATOM     35  C   UNL     1       8.629   3.717   9.573  1.00  0.00     0.074 A 
ATOM     36  C   UNL     1       8.793   5.129   9.857  1.00  0.00     0.031 C 
ATOM     37  C   UNL     1       9.198   2.723  10.297  1.00  0.00     0.034 A 
BRANCH  24  38
ATOM     38  C   UNL     1       7.607  -2.966   8.482  1.00  0.00     0.023 A 
ATOM     39  C   UNL     1       8.429  -3.742   7.640  1.00  0.00     0.012 A 
ATOM     40  C   UNL     1       6.956  -3.581   9.569  1.00  0.00     0.148 A 
ATOM     41  C   UNL     1       8.582  -5.110   7.861  1.00  0.00     0.002 A 
ATOM     42  C   UNL     1       7.142  -4.939   9.805  1.00  0.00     0.091 A 
ATOM     43  F   UNL     1       6.158  -2.833  10.345  1.00  0.00    -0.205 F 
ATOM     44  C   UNL     1       7.948  -5.706   8.948  1.00  0.00     0.022 A 
BRANCH  42  45
ATOM     45  S   UNL     1       6.421  -5.776  11.223  1.00  0.00     0.127 S 
ATOM     46  O   UNL     1       5.289  -6.470  10.612  1.00  0.00    -0.237 OA
ATOM     47  O   UNL     1       7.511  -6.653  11.656  1.00  0.00    -0.237 OA
ATOM     48  O   UNL     1       6.082  -4.724  12.171  1.00  0.00    -0.744 OA
ENDBRANCH  42  45
ENDBRANCH  24  38
BRANCH  25  49
ATOM     49  C   UNL     1       6.455   6.812   6.764  1.00  0.00     0.023 A 
ATOM     50  C   UNL     1       7.561   7.558   6.315  1.00  0.00     0.012 A 
ATOM     51  C   UNL     1       5.204   7.446   6.891  1.00  0.00     0.148 A 
ATOM     52  C   UNL     1       7.429   8.913   6.013  1.00  0.00     0.002 A 
ATOM     53  C   UNL     1       5.066   8.782   6.532  1.00  0.00     0.091 A 
ATOM     54  F   UNL     1       4.167   6.725   7.340  1.00  0.00    -0.205 F 
ATOM     55  C   UNL     1       6.180   9.521   6.107  1.00  0.00     0.022 A 
BRANCH  53  56
ATOM     56  S   UNL     1       3.463   9.591   6.481  1.00  0.00     0.127 S 
ATOM     57  O   UNL     1       3.488  10.383   7.707  1.00  0.00    -0.237 OA
ATOM     58  O   UNL     1       3.548  10.366   5.243  1.00  0.00    -0.237 OA
ATOM     59  O   UNL     1       2.488   8.509   6.438  1.00  0.00    -0.744 OA
ENDBRANCH  53  56
ENDBRANCH  25  49
BRANCH  37  60
ATOM     60  C   UNL     1      10.064   3.125  11.461  1.00  0.00     0.023 A 
ATOM     61  C   UNL     1       9.460   3.606  12.639  1.00  0.00     0.012 A 
ATOM     62  C   UNL     1      11.463   2.975  11.410  1.00  0.00     0.148 A 
ATOM     63  C   UNL     1      10.239   3.962  13.740  1.00  0.00     0.002 A 
ATOM     64  C   UNL     1      12.229   3.292  12.526  1.00  0.00     0.091 A 
ATOM     65  F   UNL     1      12.021   2.539  10.271  1.00  0.00    -0.205 F 
ATOM     66  C   UNL     1      11.621   3.795  13.687  1.00  0.00     0.022 A 
BRANCH  64  67
ATOM     67  S   UNL     1      14.005   3.024  12.568  1.00  0.00     0.127 S 
ATOM     68  O   UNL     1      14.517   4.372  12.326  1.00  0.00    -0.237 OA
ATOM     69  O   UNL     1      14.218   2.526  13.928  1.00  0.00    -0.237 OA
ATOM     70  O   UNL     1      14.280   2.047  11.523  1.00  0.00    -0.744 OA
ENDBRANCH  64  67
ENDBRANCH  37  60
ENDBRANCH  11  12
ENDBRANCH   4   6
ENDBRANCH   1   2
BRANCH   1  71
ATOM     71  C   UNL     1       4.843  -2.254  -1.642  1.00  0.00     0.023 C 
BRANCH  71  72
ATOM     72  C   UNL     1       4.366  -2.510  -3.070  1.00  0.00     0.023 C 
BRANCH  72  73
ATOM     73  C   UNL     1       4.833  -1.484  -4.101  1.00  0.00     0.116 C 
BRANCH  73  74
ATOM     74  N   UNL     1       6.280  -1.488  -4.260  1.00  0.00    -0.351 N 
ATOM     75  C   UNL     1       7.028  -1.918  -5.324  1.00  0.00     0.269 C 
ATOM     76  H   UNL     1       6.792  -1.132  -3.497  1.00  0.00     0.163 HD
ATOM     77  O   UNL     1       8.231  -2.127  -5.164  1.00  0.00    -0.268 OA
BRANCH  75  78
ATOM     78  C   UNL     1       6.374  -2.155  -6.574  1.00  0.00     0.123 A 
ATOM     79  C   UNL     1       5.430  -1.433  -7.278  1.00  0.00     0.064 A 
ATOM     80  N   UNL     1       6.650  -3.238  -7.362  1.00  0.00    -0.272 N 
ATOM     81  C   UNL     1       5.082  -2.255  -8.367  1.00  0.00     0.096 A 
ATOM     82  N   UNL     1       5.811  -3.374  -8.408  1.00  0.00    -0.175 NA
ATOM     83  H   UNL     1       7.391  -3.861  -7.181  1.00  0.00     0.190 HD
BRANCH  81  84
ATOM     84  C   UNL     1       3.997  -1.965  -9.289  1.00  0.00     0.040 A 
ATOM     85  C   UNL     1       3.651  -0.691  -9.801  1.00  0.00     0.052 A 
ATOM     86  C   UNL     1       3.086  -2.854  -9.807  1.00  0.00     0.205 A 
ATOM     87  C   UNL     1       2.545  -0.892 -10.595  1.00  0.00     0.195 A 
ATOM     88  O   UNL     1       2.192  -2.205 -10.600  1.00  0.00    -0.472 OA
ENDBRANCH  81  84
ENDBRANCH  75  78
ENDBRANCH  73  74
ENDBRANCH  72  73
ENDBRANCH  71  72
ENDBRANCH   1  71
TORSDOF 15
