REMARK SMILES CC[C@H](C(=O)NCCCCNC(=O)c1ccc(-c2c3nc(c(-c4cccc(S(=O)(=O)[O-])c4F)c4ccc([nH]4)c(-c4cccc(S(=O)(=O)[O-])c4F)c4nc(c(-c5cccc(S(=O)(=O)[O-])c5F)c5ccc2[nH]5)C=C4)C=C3)cc1)N(C)c1cc(C)ccc1[N+](=O)[O-]
REMARK SMILES IDX 8 1 7 2 6 3 4 4 5 5 3 7 2 8 1 9 77 10 78 11 79 12 80 13
REMARK SMILES IDX 85 14 81 15 84 16 82 17 83 18 86 19 87 20 88 21 9 22 10 23
REMARK SMILES IDX 11 24 12 25 13 27 14 28 15 29 76 30 16 31 75 32 17 33 18 34
REMARK SMILES IDX 19 35 69 36 20 37 74 38 68 39 70 40 21 41 73 42 67 43 66 44
REMARK SMILES IDX 22 46 54 47 34 48 53 49 35 50 38 51 52 52 71 53 36 54 37 55
REMARK SMILES IDX 51 57 72 58 39 59 23 60 24 61 32 62 25 63 27 64 33 65 26 66
REMARK SMILES IDX 28 67 29 68 30 69 31 70 55 71 56 72 64 73 57 74 59 75 65 76
REMARK SMILES IDX 58 77 60 78 61 79 62 80 63 81 40 82 41 83 49 84 42 85 44 86
REMARK SMILES IDX 50 87 43 88 45 89 46 90 47 91 48 92
REMARK H PARENT 6 6 11 26 70 45 38 56
REMARK Flexibility Score: inf
ROOT
ATOM      1  C   UNL     1       3.857  -0.015   0.235  1.00  0.00     0.023 C 
ENDROOT
BRANCH   1   2
ATOM      2  C   UNL     1       2.630  -0.831  -0.186  1.00  0.00     0.116 C 
BRANCH   2   3
ATOM      3  N   UNL     1       1.423  -0.034  -0.108  1.00  0.00    -0.354 N 
ATOM      4  C   UNL     1       1.067   0.869  -1.072  1.00  0.00     0.242 C 
ATOM      5  O   UNL     1       0.994   2.049  -0.728  1.00  0.00    -0.273 OA
ATOM      6  H   UNL     1       0.833  -0.148   0.672  1.00  0.00     0.163 HD
BRANCH   4   7
ATOM      7  C   UNL     1       0.934   0.410  -2.542  1.00  0.00     0.171 C 
BRANCH   7   8
ATOM      8  C   UNL     1       0.371  -1.004  -2.800  1.00  0.00     0.032 C 
ATOM      9  C   UNL     1      -1.126  -1.233  -2.688  1.00  0.00     0.006 C 
ENDBRANCH   7   8
BRANCH   7  10
ATOM     10  N   UNL     1       0.377   1.473  -3.436  1.00  0.00    -0.357 N 
ATOM     11  C   UNL     1       1.355   2.194  -4.254  1.00  0.00     0.144 C 
BRANCH  10  12
ATOM     12  C   UNL     1      -0.966   1.746  -3.662  1.00  0.00     0.116 A 
ATOM     13  C   UNL     1      -1.435   1.713  -4.998  1.00  0.00     0.036 A 
ATOM     14  C   UNL     1      -1.958   2.051  -2.711  1.00  0.00     0.292 A 
ATOM     15  C   UNL     1      -2.784   1.923  -5.355  1.00  0.00    -0.049 A 
ATOM     16  C   UNL     1      -3.321   2.217  -3.038  1.00  0.00     0.088 A 
ATOM     17  C   UNL     1      -3.185   1.915  -6.800  1.00  0.00     0.044 C 
ATOM     18  C   UNL     1      -3.732   2.141  -4.359  1.00  0.00     0.010 A 
BRANCH  14  19
ATOM     19  N   UNL     1      -1.664   2.381  -1.335  1.00  0.00     0.064 N 
ATOM     20  O   UNL     1      -1.844   1.482  -0.498  1.00  0.00    -0.258 OA
ATOM     21  O   UNL     1      -1.448   3.577  -1.089  1.00  0.00    -0.258 OA
ENDBRANCH  14  19
ENDBRANCH  10  12
ENDBRANCH   7  10
ENDBRANCH   4   7
ENDBRANCH   2   3
ENDBRANCH   1   2
BRANCH   1  22
ATOM     22  C   UNL     1       3.806   0.537   1.665  1.00  0.00     0.023 C 
BRANCH  22  23
ATOM     23  C   UNL     1       3.518  -0.495   2.750  1.00  0.00     0.116 C 
BRANCH  23  24
ATOM     24  N   UNL     1       4.486  -1.580   2.760  1.00  0.00    -0.352 N 
ATOM     25  C   UNL     1       5.133  -2.153   3.828  1.00  0.00     0.251 C 
ATOM     26  H   UNL     1       4.709  -1.957   1.878  1.00  0.00     0.163 HD
ATOM     27  O   UNL     1       6.027  -2.968   3.635  1.00  0.00    -0.269 OA
BRANCH  25  28
ATOM     28  C   UNL     1       4.762  -1.762   5.206  1.00  0.00     0.039 A 
ATOM     29  C   UNL     1       5.778  -1.464   6.118  1.00  0.00     0.014 A 
ATOM     30  C   UNL     1       3.422  -1.682   5.593  1.00  0.00     0.014 A 
ATOM     31  C   UNL     1       5.447  -1.032   7.405  1.00  0.00     0.010 A 
ATOM     32  C   UNL     1       3.095  -1.184   6.851  1.00  0.00     0.010 A 
ATOM     33  C   UNL     1       4.103  -0.861   7.772  1.00  0.00    -0.014 A 
BRANCH  33  34
ATOM     34  C   UNL     1       3.725  -0.349   9.115  1.00  0.00     0.031 A 
ATOM     35  C   UNL     1       2.929  -1.215  10.054  1.00  0.00     0.074 A 
ATOM     36  C   UNL     1       4.018   0.922   9.453  1.00  0.00     0.049 A 
ATOM     37  N   UNL     1       2.435  -0.922  11.229  1.00  0.00    -0.248 NA
ATOM     38  C   UNL     1       2.624  -2.583   9.602  1.00  0.00     0.031 C 
ATOM     39  C   UNL     1       4.722   1.884   8.602  1.00  0.00     0.029 A 
ATOM     40  N   UNL     1       3.731   1.635  10.591  1.00  0.00    -0.354 N 
ATOM     41  C   UNL     1       1.730  -2.048  11.637  1.00  0.00     0.074 A 
ATOM     42  C   UNL     1       1.833  -3.020  10.571  1.00  0.00     0.031 C 
ATOM     43  C   UNL     1       4.811   3.059   9.246  1.00  0.00     0.029 A 
ATOM     44  C   UNL     1       4.144   2.946  10.540  1.00  0.00     0.049 A 
ATOM     45  H   UNL     1       3.272   1.245  11.370  1.00  0.00     0.167 HD
ATOM     46  C   UNL     1       1.079  -2.265  12.805  1.00  0.00     0.034 A 
ATOM     47  C   UNL     1       3.993   3.948  11.429  1.00  0.00     0.034 A 
ATOM     48  C   UNL     1       1.017  -1.313  13.880  1.00  0.00     0.049 A 
ATOM     49  C   UNL     1       3.297   3.668  12.734  1.00  0.00     0.074 A 
ATOM     50  C   UNL     1       0.455  -1.468  15.135  1.00  0.00     0.029 A 
ATOM     51  N   UNL     1       1.529  -0.026  13.827  1.00  0.00    -0.354 N 
ATOM     52  N   UNL     1       2.769   2.547  13.164  1.00  0.00    -0.248 NA
ATOM     53  C   UNL     1       3.208   4.779  13.693  1.00  0.00     0.031 C 
ATOM     54  C   UNL     1       0.608  -0.267  15.833  1.00  0.00     0.029 A 
ATOM     55  C   UNL     1       1.292   0.627  15.025  1.00  0.00     0.049 A 
ATOM     56  H   UNL     1       1.993   0.366  13.053  1.00  0.00     0.167 HD
ATOM     57  C   UNL     1       2.325   2.806  14.456  1.00  0.00     0.074 A 
ATOM     58  C   UNL     1       2.660   4.185  14.745  1.00  0.00     0.031 C 
ATOM     59  C   UNL     1       1.688   1.979  15.322  1.00  0.00     0.034 A 
BRANCH  46  60
ATOM     60  C   UNL     1       0.425  -3.608  13.003  1.00  0.00     0.023 A 
ATOM     61  C   UNL     1       1.228  -4.752  13.191  1.00  0.00     0.012 A 
ATOM     62  C   UNL     1      -0.977  -3.732  13.062  1.00  0.00     0.148 A 
ATOM     63  C   UNL     1       0.648  -6.003  13.398  1.00  0.00     0.002 A 
ATOM     64  C   UNL     1      -1.548  -4.974  13.316  1.00  0.00     0.091 A 
ATOM     65  F   UNL     1      -1.726  -2.638  12.862  1.00  0.00    -0.205 F 
ATOM     66  C   UNL     1      -0.738  -6.112  13.471  1.00  0.00     0.022 A 
BRANCH  64  67
ATOM     67  S   UNL     1      -3.318  -5.207  13.510  1.00  0.00     0.127 S 
ATOM     68  O   UNL     1      -3.654  -5.944  12.292  1.00  0.00    -0.237 OA
ATOM     69  O   UNL     1      -3.392  -5.997  14.739  1.00  0.00    -0.237 OA
ATOM     70  O   UNL     1      -3.891  -3.873  13.611  1.00  0.00    -0.744 OA
ENDBRANCH  64  67
ENDBRANCH  46  60
BRANCH  47  71
ATOM     71  C   UNL     1       4.571   5.293  11.146  1.00  0.00     0.023 A 
ATOM     72  C   UNL     1       5.679   5.739  11.893  1.00  0.00     0.012 A 
ATOM     73  C   UNL     1       4.046   6.121  10.136  1.00  0.00     0.148 A 
ATOM     74  C   UNL     1       6.231   7.000  11.665  1.00  0.00     0.002 A 
ATOM     75  C   UNL     1       4.635   7.354   9.877  1.00  0.00     0.091 A 
ATOM     76  F   UNL     1       2.986   5.684   9.443  1.00  0.00    -0.205 F 
ATOM     77  C   UNL     1       5.716   7.803  10.652  1.00  0.00     0.022 A 
BRANCH  75  78
ATOM     78  S   UNL     1       4.122   8.401   8.511  1.00  0.00     0.127 S 
ATOM     79  O   UNL     1       3.481   9.511   9.210  1.00  0.00    -0.237 OA
ATOM     80  O   UNL     1       5.403   8.725   7.881  1.00  0.00    -0.237 OA
ATOM     81  O   UNL     1       3.243   7.575   7.693  1.00  0.00    -0.744 OA
ENDBRANCH  75  78
ENDBRANCH  47  71
BRANCH  59  82
ATOM     82  C   UNL     1       1.353   2.515  16.689  1.00  0.00     0.023 A 
ATOM     83  C   UNL     1       0.315   3.455  16.844  1.00  0.00     0.012 A 
ATOM     84  C   UNL     1       2.014   2.019  17.831  1.00  0.00     0.148 A 
ATOM     85  C   UNL     1      -0.040   3.915  18.111  1.00  0.00     0.002 A 
ATOM     86  C   UNL     1       1.621   2.444  19.094  1.00  0.00     0.091 A 
ATOM     87  F   UNL     1       3.012   1.140  17.660  1.00  0.00    -0.205 F 
ATOM     88  C   UNL     1       0.603   3.400  19.235  1.00  0.00     0.022 A 
BRANCH  86  89
ATOM     89  S   UNL     1       2.322   1.762  20.600  1.00  0.00     0.127 S 
ATOM     90  O   UNL     1       3.130   2.880  21.086  1.00  0.00    -0.237 OA
ATOM     91  O   UNL     1       1.129   1.480  21.398  1.00  0.00    -0.237 OA
ATOM     92  O   UNL     1       3.072   0.580  20.196  1.00  0.00    -0.744 OA
ENDBRANCH  86  89
ENDBRANCH  59  82
ENDBRANCH  33  34
ENDBRANCH  25  28
ENDBRANCH  23  24
ENDBRANCH  22  23
ENDBRANCH   1  22
TORSDOF 18
