REMARK SMILES C[C@@H](C(=O)NCCCCNC(=O)c1ccc(-c2c3nc(c(-c4cccc(S(=O)(=O)[O-])c4F)c4ccc([nH]4)c(-c4cccc(S(=O)(=O)[O-])c4F)c4nc(c(-c5cccc(S(=O)(=O)[O-])c5F)c5ccc2[nH]5)C=C4)C=C3)cc1)c1ccc(C[C@H]2CCC[C@H]2O)cc1
REMARK SMILES IDX 7 1 6 2 5 3 3 4 4 5 2 7 1 8 76 9 77 10 88 11 78 12 87 13
REMARK SMILES IDX 79 14 80 15 81 16 82 17 85 18 83 19 84 20 86 21 8 23 9 24
REMARK SMILES IDX 10 25 11 26 12 28 13 29 14 30 75 31 15 32 74 33 16 34 17 35
REMARK SMILES IDX 18 36 68 37 19 38 73 39 67 40 69 41 20 42 72 43 66 44 65 45
REMARK SMILES IDX 21 47 53 48 33 49 52 50 34 51 37 52 51 53 70 54 35 55 36 56
REMARK SMILES IDX 50 58 71 59 38 60 22 61 23 62 31 63 24 64 26 65 32 66 25 67
REMARK SMILES IDX 27 68 28 69 29 70 30 71 54 72 55 73 63 74 56 75 58 76 64 77
REMARK SMILES IDX 57 78 59 79 60 80 61 81 62 82 39 83 40 84 48 85 41 86 43 87
REMARK SMILES IDX 49 88 42 89 44 90 45 91 46 92 47 93
REMARK H PARENT 5 6 86 22 10 27 69 46 37 57
REMARK Flexibility Score: inf
ROOT
ATOM      1  C   UNL     1       4.363  -0.442  -1.193  1.00  0.00     0.023 C 
ENDROOT
BRANCH   1   2
ATOM      2  C   UNL     1       3.546   0.695  -1.810  1.00  0.00     0.116 C 
BRANCH   2   3
ATOM      3  N   UNL     1       2.523   0.184  -2.698  1.00  0.00    -0.356 N 
ATOM      4  C   UNL     1       1.187  -0.003  -2.484  1.00  0.00     0.227 C 
ATOM      5  O   UNL     1       0.547  -0.561  -3.377  1.00  0.00    -0.274 OA
ATOM      6  H   UNL     1       2.839  -0.068  -3.595  1.00  0.00     0.163 HD
BRANCH   4   7
ATOM      7  C   UNL     1       0.544   0.513  -1.191  1.00  0.00     0.105 C 
ATOM      8  C   UNL     1       0.961  -0.305   0.037  1.00  0.00     0.023 C 
BRANCH   7   9
ATOM      9  C   UNL     1      -0.975   0.593  -1.299  1.00  0.00    -0.036 A 
ATOM     10  C   UNL     1      -1.583   1.800  -1.667  1.00  0.00     0.005 A 
ATOM     11  C   UNL     1      -1.793  -0.515  -1.033  1.00  0.00     0.005 A 
ATOM     12  C   UNL     1      -2.972   1.923  -1.661  1.00  0.00     0.004 A 
ATOM     13  C   UNL     1      -3.180  -0.382  -1.002  1.00  0.00     0.004 A 
ATOM     14  C   UNL     1      -3.780   0.856  -1.255  1.00  0.00    -0.048 A 
BRANCH  14  15
ATOM     15  C   UNL     1      -5.259   1.043  -1.040  1.00  0.00     0.041 C 
BRANCH  15  16
ATOM     16  C   UNL     1      -5.698   1.521   0.359  1.00  0.00     0.022 C 
ATOM     17  C   UNL     1      -5.134   0.744   1.562  1.00  0.00     0.007 C 
ATOM     18  C   UNL     1      -5.472   2.999   0.717  1.00  0.00     0.117 C 
ATOM     19  C   UNL     1      -5.074   1.742   2.724  1.00  0.00     0.003 C 
ATOM     20  C   UNL     1      -5.737   3.019   2.218  1.00  0.00     0.032 C 
BRANCH  18  21
ATOM     21  O   UNL     1      -4.158   3.478   0.490  1.00  0.00    -0.393 OA
ATOM     22  H   UNL     1      -3.529   2.955   1.011  1.00  0.00     0.210 HD
ENDBRANCH  18  21
ENDBRANCH  15  16
ENDBRANCH  14  15
ENDBRANCH   7   9
ENDBRANCH   4   7
ENDBRANCH   2   3
ENDBRANCH   1   2
BRANCH   1  23
ATOM     23  C   UNL     1       5.173  -1.265  -2.199  1.00  0.00     0.023 C 
BRANCH  23  24
ATOM     24  C   UNL     1       6.153  -0.467  -3.051  1.00  0.00     0.116 C 
BRANCH  24  25
ATOM     25  N   UNL     1       7.134   0.257  -2.256  1.00  0.00    -0.352 N 
ATOM     26  C   UNL     1       8.489   0.384  -2.468  1.00  0.00     0.251 C 
ATOM     27  H   UNL     1       6.782   0.719  -1.461  1.00  0.00     0.163 HD
ATOM     28  O   UNL     1       9.198   0.927  -1.636  1.00  0.00    -0.269 OA
BRANCH  26  29
ATOM     29  C   UNL     1       9.076  -0.182  -3.702  1.00  0.00     0.039 A 
ATOM     30  C   UNL     1      10.161  -1.055  -3.595  1.00  0.00     0.014 A 
ATOM     31  C   UNL     1       8.518   0.108  -4.950  1.00  0.00     0.014 A 
ATOM     32  C   UNL     1      10.636  -1.708  -4.735  1.00  0.00     0.010 A 
ATOM     33  C   UNL     1       8.955  -0.586  -6.074  1.00  0.00     0.010 A 
ATOM     34  C   UNL     1      10.007  -1.511  -5.975  1.00  0.00    -0.014 A 
BRANCH  34  35
ATOM     35  C   UNL     1      10.380  -2.305  -7.173  1.00  0.00     0.031 A 
ATOM     36  C   UNL     1      10.943  -1.625  -8.389  1.00  0.00     0.074 A 
ATOM     37  C   UNL     1      10.074  -3.618  -7.213  1.00  0.00     0.049 A 
ATOM     38  N   UNL     1      11.210  -2.131  -9.564  1.00  0.00    -0.248 NA
ATOM     39  C   UNL     1      11.217  -0.182  -8.280  1.00  0.00     0.031 C 
ATOM     40  C   UNL     1       9.441  -4.373  -6.128  1.00  0.00     0.029 A 
ATOM     41  N   UNL     1      10.207  -4.540  -8.223  1.00  0.00    -0.354 N 
ATOM     42  C   UNL     1      11.634  -1.066 -10.349  1.00  0.00     0.074 A 
ATOM     43  C   UNL     1      11.582   0.118  -9.519  1.00  0.00     0.031 C 
ATOM     44  C   UNL     1       9.220  -5.632  -6.538  1.00  0.00     0.029 A 
ATOM     45  C   UNL     1       9.665  -5.769  -7.921  1.00  0.00     0.049 A 
ATOM     46  H   UNL     1      10.647  -4.341  -9.080  1.00  0.00     0.167 HD
ATOM     47  C   UNL     1      12.049  -1.079 -11.637  1.00  0.00     0.034 A 
ATOM     48  C   UNL     1       9.521  -6.875  -8.678  1.00  0.00     0.034 A 
ATOM     49  C   UNL     1      12.162  -2.268 -12.436  1.00  0.00     0.049 A 
ATOM     50  C   UNL     1      10.037  -6.868 -10.091  1.00  0.00     0.074 A 
ATOM     51  C   UNL     1      12.715  -2.404 -13.698  1.00  0.00     0.029 A 
ATOM     52  N   UNL     1      11.703  -3.520 -12.062  1.00  0.00    -0.354 N 
ATOM     53  N   UNL     1      10.633  -5.902 -10.746  1.00  0.00    -0.248 NA
ATOM     54  C   UNL     1       9.888  -8.112 -10.862  1.00  0.00     0.031 C 
ATOM     55  C   UNL     1      12.568  -3.736 -14.097  1.00  0.00     0.029 A 
ATOM     56  C   UNL     1      11.935  -4.430 -13.079  1.00  0.00     0.049 A 
ATOM     57  H   UNL     1      11.274  -3.731 -11.202  1.00  0.00     0.167 HD
ATOM     58  C   UNL     1      10.951  -6.426 -11.993  1.00  0.00     0.074 A 
ATOM     59  C   UNL     1      10.507  -7.804 -11.994  1.00  0.00     0.031 C 
ATOM     60  C   UNL     1      11.539  -5.814 -13.050  1.00  0.00     0.034 A 
BRANCH  47  61
ATOM     61  C   UNL     1      12.475   0.223 -12.257  1.00  0.00     0.023 A 
ATOM     62  C   UNL     1      13.720   0.782 -11.908  1.00  0.00     0.012 A 
ATOM     63  C   UNL     1      11.692   0.840 -13.253  1.00  0.00     0.148 A 
ATOM     64  C   UNL     1      14.173   1.946 -12.527  1.00  0.00     0.002 A 
ATOM     65  C   UNL     1      12.166   1.979 -13.891  1.00  0.00     0.091 A 
ATOM     66  F   UNL     1      10.501   0.302 -13.553  1.00  0.00    -0.205 F 
ATOM     67  C   UNL     1      13.403   2.537 -13.525  1.00  0.00     0.022 A 
BRANCH  65  68
ATOM     68  S   UNL     1      11.284   2.775 -15.239  1.00  0.00     0.127 S 
ATOM     69  O   UNL     1      10.838   4.016 -14.606  1.00  0.00    -0.237 OA
ATOM     70  O   UNL     1      12.338   2.946 -16.239  1.00  0.00    -0.237 OA
ATOM     71  O   UNL     1      10.223   1.855 -15.624  1.00  0.00    -0.744 OA
ENDBRANCH  65  68
ENDBRANCH  47  61
BRANCH  48  72
ATOM     72  C   UNL     1       8.896  -8.098  -8.100  1.00  0.00     0.023 A 
ATOM     73  C   UNL     1       9.696  -9.228  -7.845  1.00  0.00     0.012 A 
ATOM     74  C   UNL     1       7.524  -8.143  -7.782  1.00  0.00     0.148 A 
ATOM     75  C   UNL     1       9.137 -10.390  -7.313  1.00  0.00     0.002 A 
ATOM     76  C   UNL     1       6.985  -9.286  -7.202  1.00  0.00     0.091 A 
ATOM     77  F   UNL     1       6.771  -7.067  -8.051  1.00  0.00    -0.205 F 
ATOM     78  C   UNL     1       7.785 -10.416  -6.981  1.00  0.00     0.022 A 
BRANCH  76  79
ATOM     79  S   UNL     1       5.286  -9.341  -6.620  1.00  0.00     0.127 S 
ATOM     80  O   UNL     1       4.618 -10.048  -7.708  1.00  0.00    -0.237 OA
ATOM     81  O   UNL     1       5.409 -10.100  -5.375  1.00  0.00    -0.237 OA
ATOM     82  O   UNL     1       4.905  -7.947  -6.429  1.00  0.00    -0.744 OA
ENDBRANCH  76  79
ENDBRANCH  48  72
BRANCH  60  83
ATOM     83  C   UNL     1      11.753  -6.624 -14.300  1.00  0.00     0.023 A 
ATOM     84  C   UNL     1      10.654  -6.917 -15.131  1.00  0.00     0.012 A 
ATOM     85  C   UNL     1      13.048  -7.011 -14.699  1.00  0.00     0.148 A 
ATOM     86  C   UNL     1      10.837  -7.602 -16.331  1.00  0.00     0.002 A 
ATOM     87  C   UNL     1      13.228  -7.654 -15.918  1.00  0.00     0.091 A 
ATOM     88  F   UNL     1      14.077  -6.736 -13.885  1.00  0.00    -0.205 F 
ATOM     89  C   UNL     1      12.123  -7.958 -16.731  1.00  0.00     0.022 A 
BRANCH  87  90
ATOM     90  S   UNL     1      14.854  -8.069 -16.558  1.00  0.00     0.127 S 
ATOM     91  O   UNL     1      14.867  -9.525 -16.419  1.00  0.00    -0.237 OA
ATOM     92  O   UNL     1      14.778  -7.589 -17.938  1.00  0.00    -0.237 OA
ATOM     93  O   UNL     1      15.809  -7.354 -15.722  1.00  0.00    -0.744 OA
ENDBRANCH  87  90
ENDBRANCH  60  83
ENDBRANCH  34  35
ENDBRANCH  26  29
ENDBRANCH  24  25
ENDBRANCH  23  24
ENDBRANCH   1  23
TORSDOF 18
