REMARK SMILES CCc1cccc(-c2ccc([C@@H](C)C(=O)NCCCCNC(=O)c3ccc(-c4c5nc(c(-c6cccc(S(=O)(=O)[O-])c6F)c6ccc([nH]6)c(-c6cccc(S(=O)(=O)[O-])c6F)c6nc(c(-c7cccc(S(=O)(=O)[O-])c7F)c7ccc4[nH]7)C=C6)C=C5)cc3)cc2)c1
REMARK SMILES IDX 18 1 17 2 16 3 14 4 15 5 12 7 13 8 11 9 8 10 9 11 88 12
REMARK SMILES IDX 10 13 87 14 7 15 3 16 4 17 89 18 5 19 6 20 2 21 1 22 19 23
REMARK SMILES IDX 20 24 21 25 22 26 23 28 24 29 25 30 86 31 26 32 85 33 27 34
REMARK SMILES IDX 28 35 29 36 79 37 30 38 84 39 78 40 80 41 31 42 83 43 77 44
REMARK SMILES IDX 76 45 32 47 64 48 44 49 63 50 45 51 48 52 62 53 81 54 46 55
REMARK SMILES IDX 47 56 61 58 82 59 49 60 33 61 34 62 42 63 35 64 37 65 43 66
REMARK SMILES IDX 36 67 38 68 39 69 40 70 41 71 65 72 66 73 74 74 67 75 69 76
REMARK SMILES IDX 75 77 68 78 70 79 71 80 72 81 73 82 50 83 51 84 59 85 52 86
REMARK SMILES IDX 54 87 60 88 53 89 55 90 56 91 57 92 58 93
REMARK H PARENT 16 6 21 27 80 46 48 57
REMARK Flexibility Score: inf
ROOT
ATOM      1  C   UNL     1      -2.664   8.372  -2.763  1.00  0.00     0.023 C 
ENDROOT
BRANCH   1   2
ATOM      2  C   UNL     1      -2.665   9.835  -2.320  1.00  0.00     0.116 C 
BRANCH   2   3
ATOM      3  N   UNL     1      -3.136  10.000  -0.960  1.00  0.00    -0.356 N 
ATOM      4  C   UNL     1      -2.466  10.090   0.221  1.00  0.00     0.227 C 
ATOM      5  O   UNL     1      -3.153  10.179   1.246  1.00  0.00    -0.274 OA
ATOM      6  H   UNL     1      -4.115  10.056  -0.875  1.00  0.00     0.163 HD
BRANCH   4   7
ATOM      7  C   UNL     1      -0.933  10.109   0.334  1.00  0.00     0.105 C 
ATOM      8  C   UNL     1      -0.280  11.317  -0.339  1.00  0.00     0.023 C 
BRANCH   7   9
ATOM      9  C   UNL     1      -0.287   8.758   0.066  1.00  0.00    -0.036 A 
ATOM     10  C   UNL     1       0.740   6.124  -0.394  1.00  0.00    -0.018 A 
ATOM     11  C   UNL     1       0.685   7.090  -1.413  1.00  0.00     0.009 A 
ATOM     12  C   UNL     1       0.298   6.527   0.875  1.00  0.00     0.009 A 
ATOM     13  C   UNL     1       0.217   8.389  -1.182  1.00  0.00     0.005 A 
ATOM     14  C   UNL     1      -0.225   7.810   1.097  1.00  0.00     0.005 A 
BRANCH  10  15
ATOM     15  C   UNL     1       1.228   4.748  -0.665  1.00  0.00    -0.018 A 
ATOM     16  C   UNL     1       1.152   2.312  -0.250  1.00  0.00    -0.048 A 
ATOM     17  C   UNL     1       2.118   2.121  -1.241  1.00  0.00     0.004 A 
ATOM     18  C   UNL     1       0.716   3.627   0.018  1.00  0.00     0.012 A 
ATOM     19  C   UNL     1       2.643   3.209  -1.933  1.00  0.00     0.001 A 
ATOM     20  C   UNL     1       2.211   4.503  -1.640  1.00  0.00     0.009 A 
BRANCH  16  21
ATOM     21  C   UNL     1       0.557   1.181   0.560  1.00  0.00     0.032 C 
ATOM     22  C   UNL     1       0.967  -0.234   0.169  1.00  0.00     0.009 C 
ENDBRANCH  16  21
ENDBRANCH  10  15
ENDBRANCH   7   9
ENDBRANCH   4   7
ENDBRANCH   2   3
ENDBRANCH   1   2
BRANCH   1  23
ATOM     23  C   UNL     1      -3.975   7.878  -3.372  1.00  0.00     0.023 C 
BRANCH  23  24
ATOM     24  C   UNL     1      -4.414   8.588  -4.649  1.00  0.00     0.116 C 
BRANCH  24  25
ATOM     25  N   UNL     1      -3.431   8.546  -5.723  1.00  0.00    -0.352 N 
ATOM     26  C   UNL     1      -3.658   8.544  -7.083  1.00  0.00     0.251 C 
ATOM     27  H   UNL     1      -2.488   8.515  -5.444  1.00  0.00     0.163 HD
ATOM     28  O   UNL     1      -2.727   8.435  -7.869  1.00  0.00    -0.269 OA
BRANCH  26  29
ATOM     29  C   UNL     1      -5.051   8.627  -7.575  1.00  0.00     0.039 A 
ATOM     30  C   UNL     1      -5.506   7.667  -8.483  1.00  0.00     0.014 A 
ATOM     31  C   UNL     1      -5.920   9.603  -7.083  1.00  0.00     0.014 A 
ATOM     32  C   UNL     1      -6.858   7.638  -8.834  1.00  0.00     0.010 A 
ATOM     33  C   UNL     1      -7.277   9.525  -7.375  1.00  0.00     0.010 A 
ATOM     34  C   UNL     1      -7.762   8.540  -8.249  1.00  0.00    -0.014 A 
BRANCH  34  35
ATOM     35  C   UNL     1      -9.221   8.462  -8.514  1.00  0.00     0.031 A 
ATOM     36  C   UNL     1      -9.931   9.614  -9.172  1.00  0.00     0.074 A 
ATOM     37  C   UNL     1      -9.925   7.405  -8.060  1.00  0.00     0.049 A 
ATOM     38  N   UNL     1     -11.206   9.765  -9.415  1.00  0.00    -0.248 NA
ATOM     39  C   UNL     1      -9.103  10.762  -9.580  1.00  0.00     0.031 C 
ATOM     40  C   UNL     1      -9.368   6.267  -7.324  1.00  0.00     0.029 A 
ATOM     41  N   UNL     1     -11.268   7.129  -8.125  1.00  0.00    -0.354 N 
ATOM     42  C   UNL     1     -11.341  11.038  -9.956  1.00  0.00     0.074 A 
ATOM     43  C   UNL     1     -10.021  11.629  -9.981  1.00  0.00     0.031 C 
ATOM     44  C   UNL     1     -10.358   5.415  -7.014  1.00  0.00     0.029 A 
ATOM     45  C   UNL     1     -11.623   5.952  -7.506  1.00  0.00     0.049 A 
ATOM     46  H   UNL     1     -11.918   7.718  -8.573  1.00  0.00     0.167 HD
ATOM     47  C   UNL     1     -12.457  11.648 -10.420  1.00  0.00     0.034 A 
ATOM     48  C   UNL     1     -12.829   5.372  -7.354  1.00  0.00     0.034 A 
ATOM     49  C   UNL     1     -13.752  11.028 -10.464  1.00  0.00     0.049 A 
ATOM     50  C   UNL     1     -14.041   6.040  -7.949  1.00  0.00     0.074 A 
ATOM     51  C   UNL     1     -14.919  11.514 -11.026  1.00  0.00     0.029 A 
ATOM     52  N   UNL     1     -14.053   9.787  -9.926  1.00  0.00    -0.354 N 
ATOM     53  N   UNL     1     -14.117   7.162  -8.621  1.00  0.00    -0.248 NA
ATOM     54  C   UNL     1     -15.326   5.343  -7.797  1.00  0.00     0.031 C 
ATOM     55  C   UNL     1     -15.929  10.569 -10.819  1.00  0.00     0.029 A 
ATOM     56  C   UNL     1     -15.388   9.491 -10.137  1.00  0.00     0.049 A 
ATOM     57  H   UNL     1     -13.411   9.202  -9.462  1.00  0.00     0.167 HD
ATOM     58  C   UNL     1     -15.447   7.287  -9.005  1.00  0.00     0.074 A 
ATOM     59  C   UNL     1     -16.138   6.116  -8.507  1.00  0.00     0.031 C 
ATOM     60  C   UNL     1     -16.046   8.290  -9.694  1.00  0.00     0.034 A 
BRANCH  47  61
ATOM     61  C   UNL     1     -12.312  13.035 -10.987  1.00  0.00     0.023 A 
ATOM     62  C   UNL     1     -11.689  13.209 -12.240  1.00  0.00     0.012 A 
ATOM     63  C   UNL     1     -12.842  14.154 -10.317  1.00  0.00     0.148 A 
ATOM     64  C   UNL     1     -11.567  14.478 -12.802  1.00  0.00     0.002 A 
ATOM     65  C   UNL     1     -12.753  15.412 -10.903  1.00  0.00     0.091 A 
ATOM     66  F   UNL     1     -13.409  13.972  -9.116  1.00  0.00    -0.205 F 
ATOM     67  C   UNL     1     -12.107  15.577 -12.140  1.00  0.00     0.022 A 
BRANCH  65  68
ATOM     68  S   UNL     1     -13.483  16.877 -10.164  1.00  0.00     0.127 S 
ATOM     69  O   UNL     1     -12.298  17.587  -9.683  1.00  0.00    -0.237 OA
ATOM     70  O   UNL     1     -14.146  17.504 -11.308  1.00  0.00    -0.237 OA
ATOM     71  O   UNL     1     -14.388  16.395  -9.130  1.00  0.00    -0.744 OA
ENDBRANCH  65  68
ENDBRANCH  47  61
BRANCH  48  72
ATOM     72  C   UNL     1     -12.941   4.041  -6.692  1.00  0.00     0.023 A 
ATOM     73  C   UNL     1     -13.243   2.911  -7.478  1.00  0.00     0.012 A 
ATOM     74  C   UNL     1     -12.732   3.879  -5.310  1.00  0.00     0.148 A 
ATOM     75  C   UNL     1     -13.366   1.650  -6.896  1.00  0.00     0.002 A 
ATOM     76  C   UNL     1     -12.806   2.610  -4.743  1.00  0.00     0.091 A 
ATOM     77  F   UNL     1     -12.461   4.966  -4.575  1.00  0.00    -0.205 F 
ATOM     78  C   UNL     1     -13.138   1.497  -5.531  1.00  0.00     0.022 A 
BRANCH  76  79
ATOM     79  S   UNL     1     -12.403   2.307  -3.019  1.00  0.00     0.127 S 
ATOM     80  O   UNL     1     -13.726   2.136  -2.427  1.00  0.00    -0.237 OA
ATOM     81  O   UNL     1     -11.602   1.085  -3.101  1.00  0.00    -0.237 OA
ATOM     82  O   UNL     1     -11.655   3.481  -2.586  1.00  0.00    -0.744 OA
ENDBRANCH  76  79
ENDBRANCH  48  72
BRANCH  60  83
ATOM     83  C   UNL     1     -17.517   8.158  -9.984  1.00  0.00     0.023 A 
ATOM     84  C   UNL     1     -18.451   8.357  -8.949  1.00  0.00     0.012 A 
ATOM     85  C   UNL     1     -17.974   7.924 -11.296  1.00  0.00     0.148 A 
ATOM     86  C   UNL     1     -19.820   8.300  -9.211  1.00  0.00     0.002 A 
ATOM     87  C   UNL     1     -19.339   7.913 -11.557  1.00  0.00     0.091 A 
ATOM     88  F   UNL     1     -17.068   7.716 -12.263  1.00  0.00    -0.205 F 
ATOM     89  C   UNL     1     -20.263   8.092 -10.515  1.00  0.00     0.022 A 
BRANCH  87  90
ATOM     90  S   UNL     1     -19.993   7.747 -13.223  1.00  0.00     0.127 S 
ATOM     91  O   UNL     1     -20.442   6.357 -13.230  1.00  0.00    -0.237 OA
ATOM     92  O   UNL     1     -21.071   8.737 -13.237  1.00  0.00    -0.237 OA
ATOM     93  O   UNL     1     -18.884   8.055 -14.117  1.00  0.00    -0.744 OA
ENDBRANCH  87  90
ENDBRANCH  60  83
ENDBRANCH  34  35
ENDBRANCH  26  29
ENDBRANCH  24  25
ENDBRANCH  23  24
ENDBRANCH   1  23
TORSDOF 17
