REMARK SMILES O=C(NCCCCNC(=O)c1ccc(-c2c3nc(c(-c4cccc(S(=O)(=O)[O-])c4F)c4ccc([nH]4)c(-c4cccc(S(=O)(=O)[O-])c4F)c4nc(c(-c5cccc(S(=O)(=O)[O-])c5F)c5ccc2[nH]5)C=C4)C=C3)cc1)C1=Cc2cc(C(F)(F)F)ccc2O[C@@H]1C(F)(F)F
REMARK SMILES IDX 6 1 5 2 4 3 3 4 1 5 2 6 74 8 75 9 87 10 76 11 86 12 77 13
REMARK SMILES IDX 85 14 78 15 84 16 83 17 88 18 89 19 90 20 91 21 79 22 80 23
REMARK SMILES IDX 81 24 82 25 7 26 8 27 9 28 10 30 11 31 12 32 73 33 13 34
REMARK SMILES IDX 72 35 14 36 15 37 16 38 66 39 17 40 71 41 65 42 67 43 18 44
REMARK SMILES IDX 70 45 64 46 63 47 19 49 51 50 31 51 50 52 32 53 35 54 49 55
REMARK SMILES IDX 68 56 33 57 34 58 48 60 69 61 36 62 20 63 21 64 29 65 22 66
REMARK SMILES IDX 24 67 30 68 23 69 25 70 26 71 27 72 28 73 52 74 53 75 61 76
REMARK SMILES IDX 54 77 56 78 62 79 55 80 57 81 58 82 59 83 60 84 37 85 38 86
REMARK SMILES IDX 46 87 39 88 41 89 47 90 40 91 42 92 43 93 44 94 45 95
REMARK H PARENT 3 7 8 29 67 48 35 59
REMARK Flexibility Score: inf
ROOT
ATOM      1  C   UNL     1       4.192   0.969  -4.197  1.00  0.00     0.023 C 
ENDROOT
BRANCH   1   2
ATOM      2  C   UNL     1       4.190  -0.005  -3.010  1.00  0.00     0.023 C 
BRANCH   2   3
ATOM      3  C   UNL     1       3.375   0.479  -1.802  1.00  0.00     0.116 C 
BRANCH   3   4
ATOM      4  N   UNL     1       2.405  -0.511  -1.315  1.00  0.00    -0.352 N 
ATOM      5  O   UNL     1       1.204  -1.668   0.229  1.00  0.00    -0.270 OA
ATOM      6  C   UNL     1       2.229  -1.071  -0.073  1.00  0.00     0.251 C 
ATOM      7  H   UNL     1       1.770  -0.829  -1.997  1.00  0.00     0.163 HD
BRANCH   6   8
ATOM      8  C   UNL     1       3.301  -0.882   0.917  1.00  0.00     0.067 C 
ATOM      9  C   UNL     1       4.479  -1.472   0.691  1.00  0.00     0.025 C 
ATOM     10  C   UNL     1       3.124   0.180   1.958  1.00  0.00     0.314 C 
ATOM     11  C   UNL     1       5.585  -0.518   0.807  1.00  0.00     0.018 A 
ATOM     12  O   UNL     1       4.205   1.146   1.962  1.00  0.00    -0.475 OA
ATOM     13  C   UNL     1       6.719  -0.755   0.024  1.00  0.00     0.025 A 
ATOM     14  C   UNL     1       5.370   0.763   1.345  1.00  0.00     0.128 A 
ATOM     15  C   UNL     1       7.604   0.290  -0.285  1.00  0.00     0.056 A 
ATOM     16  C   UNL     1       6.285   1.786   1.106  1.00  0.00     0.048 A 
ATOM     17  C   UNL     1       7.387   1.556   0.279  1.00  0.00     0.017 A 
BRANCH  10  18
ATOM     18  C   UNL     1       2.976  -0.453   3.354  1.00  0.00     0.429 C 
ATOM     19  F   UNL     1       2.692   0.485   4.292  1.00  0.00    -0.167 F 
ATOM     20  F   UNL     1       1.977  -1.365   3.402  1.00  0.00    -0.167 F 
ATOM     21  F   UNL     1       4.108  -1.082   3.758  1.00  0.00    -0.167 F 
ENDBRANCH  10  18
BRANCH  15  22
ATOM     22  C   UNL     1       8.738   0.054  -1.253  1.00  0.00     0.416 C 
ATOM     23  F   UNL     1       9.862  -0.392  -0.633  1.00  0.00    -0.166 F 
ATOM     24  F   UNL     1       8.432  -0.880  -2.198  1.00  0.00    -0.166 F 
ATOM     25  F   UNL     1       9.093   1.170  -1.938  1.00  0.00    -0.166 F 
ENDBRANCH  15  22
ENDBRANCH   6   8
ENDBRANCH   3   4
ENDBRANCH   2   3
ENDBRANCH   1   2
BRANCH   1  26
ATOM     26  C   UNL     1       4.724   2.377  -3.932  1.00  0.00     0.116 C 
BRANCH  26  27
ATOM     27  N   UNL     1       6.161   2.453  -3.705  1.00  0.00    -0.352 N 
ATOM     28  C   UNL     1       7.067   3.378  -4.201  1.00  0.00     0.251 C 
ATOM     29  H   UNL     1       6.539   1.755  -3.123  1.00  0.00     0.163 HD
ATOM     30  O   UNL     1       8.245   3.313  -3.926  1.00  0.00    -0.269 OA
BRANCH  28  31
ATOM     31  C   UNL     1       6.576   4.424  -5.133  1.00  0.00     0.039 A 
ATOM     32  C   UNL     1       7.130   4.487  -6.414  1.00  0.00     0.014 A 
ATOM     33  C   UNL     1       5.502   5.243  -4.782  1.00  0.00     0.014 A 
ATOM     34  C   UNL     1       6.516   5.277  -7.389  1.00  0.00     0.010 A 
ATOM     35  C   UNL     1       4.852   5.975  -5.771  1.00  0.00     0.010 A 
ATOM     36  C   UNL     1       5.329   5.966  -7.092  1.00  0.00    -0.014 A 
BRANCH  36  37
ATOM     37  C   UNL     1       4.505   6.580  -8.166  1.00  0.00     0.031 A 
ATOM     38  C   UNL     1       4.232   8.056  -8.178  1.00  0.00     0.074 A 
ATOM     39  C   UNL     1       3.884   5.775  -9.053  1.00  0.00     0.049 A 
ATOM     40  N   UNL     1       3.466   8.743  -8.984  1.00  0.00    -0.248 NA
ATOM     41  C   UNL     1       4.878   8.859  -7.128  1.00  0.00     0.031 C 
ATOM     42  C   UNL     1       3.979   4.313  -9.077  1.00  0.00     0.029 A 
ATOM     43  N   UNL     1       3.016   6.065 -10.078  1.00  0.00    -0.354 N 
ATOM     44  C   UNL     1       3.509  10.052  -8.523  1.00  0.00     0.074 A 
ATOM     45  C   UNL     1       4.353  10.057  -7.346  1.00  0.00     0.031 C 
ATOM     46  C   UNL     1       3.195   3.836 -10.056  1.00  0.00     0.029 A 
ATOM     47  C   UNL     1       2.521   4.950 -10.714  1.00  0.00     0.049 A 
ATOM     48  H   UNL     1       2.772   6.984 -10.333  1.00  0.00     0.167 HD
ATOM     49  C   UNL     1       2.926  11.156  -9.048  1.00  0.00     0.034 A 
ATOM     50  C   UNL     1       1.617   4.832 -11.707  1.00  0.00     0.034 A 
ATOM     51  C   UNL     1       2.125  11.155 -10.242  1.00  0.00     0.049 A 
ATOM     52  C   UNL     1       1.028   6.075 -12.311  1.00  0.00     0.074 A 
ATOM     53  C   UNL     1       1.591  12.236 -10.921  1.00  0.00     0.029 A 
ATOM     54  N   UNL     1       1.732  10.018 -10.930  1.00  0.00    -0.354 N 
ATOM     55  N   UNL     1       1.241   7.327 -11.985  1.00  0.00    -0.248 NA
ATOM     56  C   UNL     1       0.104   5.897 -13.440  1.00  0.00     0.031 C 
ATOM     57  C   UNL     1       0.863  11.750 -12.013  1.00  0.00     0.029 A 
ATOM     58  C   UNL     1       0.950  10.367 -12.018  1.00  0.00     0.049 A 
ATOM     59  H   UNL     1       1.974   9.096 -10.681  1.00  0.00     0.167 HD
ATOM     60  C   UNL     1       0.493   8.087 -12.877  1.00  0.00     0.074 A 
ATOM     61  C   UNL     1      -0.156   7.154 -13.776  1.00  0.00     0.031 C 
ATOM     62  C   UNL     1       0.343   9.433 -12.932  1.00  0.00     0.034 A 
BRANCH  49  63
ATOM     63  C   UNL     1       3.196  12.470  -8.365  1.00  0.00     0.023 A 
ATOM     64  C   UNL     1       4.470  13.061  -8.491  1.00  0.00     0.012 A 
ATOM     65  C   UNL     1       2.195  13.133  -7.629  1.00  0.00     0.148 A 
ATOM     66  C   UNL     1       4.756  14.273  -7.865  1.00  0.00     0.002 A 
ATOM     67  C   UNL     1       2.478  14.360  -7.039  1.00  0.00     0.091 A 
ATOM     68  F   UNL     1       0.999  12.544  -7.495  1.00  0.00    -0.205 F 
ATOM     69  C   UNL     1       3.759  14.926  -7.147  1.00  0.00     0.022 A 
BRANCH  67  70
ATOM     70  S   UNL     1       1.232  15.302  -6.150  1.00  0.00     0.127 S 
ATOM     71  O   UNL     1       1.559  14.988  -4.761  1.00  0.00    -0.237 OA
ATOM     72  O   UNL     1       1.534  16.678  -6.550  1.00  0.00    -0.237 OA
ATOM     73  O   UNL     1      -0.050  14.806  -6.629  1.00  0.00    -0.744 OA
ENDBRANCH  67  70
ENDBRANCH  49  63
BRANCH  50  74
ATOM     74  C   UNL     1       1.272   3.479 -12.226  1.00  0.00     0.023 A 
ATOM     75  C   UNL     1       1.752   3.079 -13.488  1.00  0.00     0.012 A 
ATOM     76  C   UNL     1       0.531   2.564 -11.452  1.00  0.00     0.148 A 
ATOM     77  C   UNL     1       1.487   1.800 -13.977  1.00  0.00     0.002 A 
ATOM     78  C   UNL     1       0.317   1.273 -11.922  1.00  0.00     0.091 A 
ATOM     79  F   UNL     1       0.070   2.968 -10.260  1.00  0.00    -0.205 F 
ATOM     80  C   UNL     1       0.782   0.893 -13.190  1.00  0.00     0.022 A 
BRANCH  78  81
ATOM     81  S   UNL     1      -0.455   0.002 -10.913  1.00  0.00     0.127 S 
ATOM     82  O   UNL     1      -1.771  -0.116 -11.534  1.00  0.00    -0.237 OA
ATOM     83  O   UNL     1       0.434  -1.140 -11.129  1.00  0.00    -0.237 OA
ATOM     84  O   UNL     1      -0.437   0.521  -9.552  1.00  0.00    -0.744 OA
ENDBRANCH  78  81
ENDBRANCH  50  74
BRANCH  62  85
ATOM     85  C   UNL     1      -0.562   9.991 -13.998  1.00  0.00     0.023 A 
ATOM     86  C   UNL     1      -1.958   9.882 -13.843  1.00  0.00     0.012 A 
ATOM     87  C   UNL     1      -0.040  10.694 -15.100  1.00  0.00     0.148 A 
ATOM     88  C   UNL     1      -2.821  10.448 -14.780  1.00  0.00     0.002 A 
ATOM     89  C   UNL     1      -0.907  11.291 -16.009  1.00  0.00     0.091 A 
ATOM     90  F   UNL     1       1.292  10.767 -15.240  1.00  0.00    -0.205 F 
ATOM     91  C   UNL     1      -2.297  11.163 -15.854  1.00  0.00     0.022 A 
BRANCH  89  92
ATOM     92  S   UNL     1      -0.322  12.305 -17.373  1.00  0.00     0.127 S 
ATOM     93  O   UNL     1      -0.547  11.423 -18.517  1.00  0.00    -0.237 OA
ATOM     94  O   UNL     1      -1.216  13.461 -17.308  1.00  0.00    -0.237 OA
ATOM     95  O   UNL     1       1.073  12.605 -17.078  1.00  0.00    -0.744 OA
ENDBRANCH  89  92
ENDBRANCH  62  85
ENDBRANCH  36  37
ENDBRANCH  28  31
ENDBRANCH  26  27
ENDBRANCH   1  26
TORSDOF 16
