REMARK SMILES Cc1ccc(S(=O)(=O)n2cc(C(=O)C(=O)N[C@@H](Cc3c[nH]c4ccccc34)C(=O)NCC(=O)NCCCCNC(=O)c3ccc(-c4c5nc(c(-c6cccc(S(=O)(=O)[O-])c6F)c6ccc([nH]6)c(-c6cccc(S(=O)(=O)[O-])c6F)c6nc(c(-c7cccc(S(=O)(=O)[O-])c7F)c7ccc4[nH]7)C=C6)C=C5)cc3)c3ccccc32)cc1
REMARK SMILES IDX 32 1 33 2 34 3 31 5 30 6 28 7 29 8 17 10 16 11 14 12 15 13
REMARK SMILES IDX 12 15 13 16 11 17 9 18 10 19 110 20 105 21 109 22 106 23
REMARK SMILES IDX 108 24 107 25 6 26 7 27 8 28 5 29 1 30 2 31 3 32 112 33 4 34
REMARK SMILES IDX 111 35 18 36 19 37 20 38 27 39 21 40 22 41 26 42 23 44 25 45
REMARK SMILES IDX 24 46 35 47 36 48 37 49 38 50 39 51 40 52 41 54 42 55 43 56
REMARK SMILES IDX 104 57 44 58 103 59 45 60 46 61 47 62 97 63 48 64 102 65
REMARK SMILES IDX 96 66 98 67 49 68 101 69 95 70 94 71 50 73 82 74 62 75 81 76
REMARK SMILES IDX 63 77 66 78 80 79 99 80 64 81 65 82 79 84 100 85 67 86 51 87
REMARK SMILES IDX 52 88 60 89 53 90 55 91 61 92 54 93 56 94 57 95 58 96 59 97
REMARK SMILES IDX 83 98 84 99 92 100 85 101 87 102 93 103 86 104 88 105 89 106
REMARK SMILES IDX 90 107 91 108 68 109 69 110 77 111 70 112 72 113 78 114
REMARK SMILES IDX 71 115 73 116 74 117 75 118 76 119
REMARK H PARENT 34 4 30 9 16 14 21 43 39 53 98 72 66 83
REMARK Flexibility Score: inf
ROOT
ATOM      1  C   UNL     1     -12.392   5.221  -2.291  1.00  0.00     0.239 C 
ATOM      2  O   UNL     1     -13.169   6.159  -2.474  1.00  0.00    -0.273 OA
ATOM      3  N   UNL     1     -11.103   5.324  -2.727  1.00  0.00    -0.355 N 
ATOM      4  H   UNL     1     -10.838   6.184  -3.126  1.00  0.00     0.163 HD
ENDROOT
BRANCH   1   5
ATOM      5  C   UNL     1     -12.754   4.036  -1.396  1.00  0.00     0.216 C 
BRANCH   5   6
ATOM      6  N   UNL     1     -12.565   2.671  -1.853  1.00  0.00    -0.345 N 
ATOM      7  C   UNL     1     -12.027   1.580  -1.232  1.00  0.00     0.243 C 
ATOM      8  O   UNL     1     -12.282   0.498  -1.780  1.00  0.00    -0.273 OA
ATOM      9  H   UNL     1     -12.880   2.502  -2.770  1.00  0.00     0.164 HD
BRANCH   7  10
ATOM     10  C   UNL     1     -11.180   1.591   0.099  1.00  0.00     0.176 C 
BRANCH  10  11
ATOM     11  N   UNL     1      -9.892   2.334   0.080  1.00  0.00    -0.337 N 
ATOM     12  C   UNL     1      -8.569   1.931  -0.146  1.00  0.00     0.293 C 
ATOM     13  O   UNL     1      -7.670   2.761  -0.029  1.00  0.00    -0.265 OA
ATOM     14  H   UNL     1      -9.988   3.297   0.262  1.00  0.00     0.164 HD
BRANCH  12  15
ATOM     15  C   UNL     1      -8.212   0.494  -0.589  1.00  0.00     0.252 C 
ATOM     16  O   UNL     1      -9.069  -0.054  -1.286  1.00  0.00    -0.283 OA
BRANCH  15  17
ATOM     17  C   UNL     1      -6.967  -0.246  -0.203  1.00  0.00     0.054 A 
ATOM     18  N   UNL     1      -4.916  -0.907   0.629  1.00  0.00    -0.240 N 
ATOM     19  C   UNL     1      -5.726   0.183   0.292  1.00  0.00     0.117 A 
ATOM     20  C   UNL     1      -5.770  -2.028   0.540  1.00  0.00     0.065 A 
ATOM     21  C   UNL     1      -6.828  -1.665  -0.295  1.00  0.00     0.012 A 
ATOM     22  C   UNL     1      -5.550  -3.370   0.905  1.00  0.00     0.028 A 
ATOM     23  C   UNL     1      -7.543  -2.693  -0.944  1.00  0.00     0.011 A 
ATOM     24  C   UNL     1      -6.217  -4.361   0.197  1.00  0.00     0.002 A 
ATOM     25  C   UNL     1      -7.171  -4.027  -0.751  1.00  0.00     0.001 A 
BRANCH  18  26
ATOM     26  S   UNL     1      -3.237  -1.397   0.290  1.00  0.00     0.268 S 
ATOM     27  O   UNL     1      -3.398  -1.984  -1.035  1.00  0.00    -0.201 OA
ATOM     28  O   UNL     1      -3.041  -2.256   1.458  1.00  0.00    -0.201 OA
BRANCH  26  29
ATOM     29  C   UNL     1      -1.587  -0.753   0.211  1.00  0.00     0.088 A 
ATOM     30  C   UNL     1       2.729  -0.099  -0.088  1.00  0.00     0.044 C 
ATOM     31  C   UNL     1       1.245  -0.314   0.006  1.00  0.00    -0.051 A 
ATOM     32  C   UNL     1       0.736  -1.601  -0.066  1.00  0.00     0.005 A 
ATOM     33  C   UNL     1       0.338   0.739   0.195  1.00  0.00     0.005 A 
ATOM     34  C   UNL     1      -0.645  -1.802   0.007  1.00  0.00     0.022 A 
ATOM     35  C   UNL     1      -1.058   0.510   0.353  1.00  0.00     0.022 A 
ENDBRANCH  26  29
ENDBRANCH  18  26
ENDBRANCH  15  17
ENDBRANCH  12  15
ENDBRANCH  10  11
BRANCH  10  36
ATOM     36  C   UNL     1     -12.010   1.817   1.404  1.00  0.00     0.072 C 
BRANCH  36  37
ATOM     37  C   UNL     1     -12.686   3.148   1.635  1.00  0.00    -0.020 A 
ATOM     38  C   UNL     1     -14.057   3.362   1.619  1.00  0.00     0.087 A 
ATOM     39  C   UNL     1     -12.084   4.442   1.843  1.00  0.00     0.003 A 
ATOM     40  N   UNL     1     -14.291   4.711   1.676  1.00  0.00    -0.361 N 
ATOM     41  C   UNL     1     -13.098   5.393   1.692  1.00  0.00     0.046 A 
ATOM     42  C   UNL     1     -10.760   4.907   1.984  1.00  0.00     0.010 A 
ATOM     43  H   UNL     1     -15.182   5.130   1.700  1.00  0.00     0.166 HD
ATOM     44  C   UNL     1     -12.844   6.762   1.542  1.00  0.00     0.026 A 
ATOM     45  C   UNL     1     -10.485   6.270   1.815  1.00  0.00     0.001 A 
ATOM     46  C   UNL     1     -11.511   7.178   1.568  1.00  0.00     0.002 A 
ENDBRANCH  36  37
ENDBRANCH  10  36
ENDBRANCH   7  10
ENDBRANCH   5   6
ENDBRANCH   1   5
BRANCH   3  47
ATOM     47  C   UNL     1     -10.088   4.299  -2.661  1.00  0.00     0.116 C 
BRANCH  47  48
ATOM     48  C   UNL     1      -9.973   3.545  -3.983  1.00  0.00     0.023 C 
BRANCH  48  49
ATOM     49  C   UNL     1      -9.545   4.430  -5.155  1.00  0.00     0.023 C 
BRANCH  49  50
ATOM     50  C   UNL     1      -8.223   5.120  -4.893  1.00  0.00     0.116 C 
BRANCH  50  51
ATOM     51  N   UNL     1      -7.089   4.241  -5.018  1.00  0.00    -0.352 N 
ATOM     52  C   UNL     1      -5.746   4.523  -4.945  1.00  0.00     0.251 C 
ATOM     53  H   UNL     1      -7.309   3.295  -5.181  1.00  0.00     0.163 HD
ATOM     54  O   UNL     1      -4.980   3.652  -5.369  1.00  0.00    -0.269 OA
BRANCH  52  55
ATOM     55  C   UNL     1      -5.215   5.718  -4.226  1.00  0.00     0.039 A 
ATOM     56  C   UNL     1      -3.852   5.701  -3.896  1.00  0.00     0.014 A 
ATOM     57  C   UNL     1      -6.043   6.638  -3.591  1.00  0.00     0.014 A 
ATOM     58  C   UNL     1      -3.418   6.329  -2.736  1.00  0.00     0.010 A 
ATOM     59  C   UNL     1      -5.657   7.159  -2.386  1.00  0.00     0.010 A 
ATOM     60  C   UNL     1      -4.376   6.898  -1.917  1.00  0.00    -0.014 A 
BRANCH  60  61
ATOM     61  C   UNL     1      -4.185   7.280  -0.538  1.00  0.00     0.031 A 
ATOM     62  C   UNL     1      -3.690   8.622  -0.250  1.00  0.00     0.074 A 
ATOM     63  C   UNL     1      -4.782   6.479   0.372  1.00  0.00     0.049 A 
ATOM     64  N   UNL     1      -3.404   9.049   0.925  1.00  0.00    -0.248 NA
ATOM     65  C   UNL     1      -3.479   9.608  -1.306  1.00  0.00     0.031 C 
ATOM     66  C   UNL     1      -5.146   6.734   1.761  1.00  0.00     0.029 A 
ATOM     67  N   UNL     1      -4.878   5.084   0.261  1.00  0.00    -0.354 N 
ATOM     68  C   UNL     1      -3.365  10.423   0.828  1.00  0.00     0.074 A 
ATOM     69  C   UNL     1      -3.228  10.697  -0.577  1.00  0.00     0.031 C 
ATOM     70  C   UNL     1      -5.052   5.573   2.442  1.00  0.00     0.029 A 
ATOM     71  C   UNL     1      -4.417   4.644   1.517  1.00  0.00     0.049 A 
ATOM     72  H   UNL     1      -5.189   4.547  -0.503  1.00  0.00     0.167 HD
ATOM     73  C   UNL     1      -3.696  11.136   1.938  1.00  0.00     0.034 A 
ATOM     74  C   UNL     1      -3.124   4.197   1.625  1.00  0.00     0.034 A 
ATOM     75  C   UNL     1      -3.715  10.253   3.114  1.00  0.00     0.049 A 
ATOM     76  C   UNL     1      -2.353   4.850   2.730  1.00  0.00     0.074 A 
ATOM     77  C   UNL     1      -4.731   9.666   3.850  1.00  0.00     0.029 A 
ATOM     78  N   UNL     1      -2.539   9.607   3.477  1.00  0.00    -0.354 N 
ATOM     79  N   UNL     1      -2.532   6.091   3.074  1.00  0.00    -0.248 NA
ATOM     80  C   UNL     1      -1.425   4.147   3.610  1.00  0.00     0.031 C 
ATOM     81  C   UNL     1      -4.168   8.569   4.564  1.00  0.00     0.029 A 
ATOM     82  C   UNL     1      -2.812   8.520   4.284  1.00  0.00     0.049 A 
ATOM     83  H   UNL     1      -1.637   9.885   3.197  1.00  0.00     0.167 HD
ATOM     84  C   UNL     1      -1.766   6.378   4.168  1.00  0.00     0.074 A 
ATOM     85  C   UNL     1      -1.105   5.122   4.480  1.00  0.00     0.031 C 
ATOM     86  C   UNL     1      -1.730   7.636   4.697  1.00  0.00     0.034 A 
BRANCH  73  87
ATOM     87  C   UNL     1      -4.278  12.540   1.960  1.00  0.00     0.023 A 
ATOM     88  C   UNL     1      -4.791  12.986   3.200  1.00  0.00     0.012 A 
ATOM     89  C   UNL     1      -4.464  13.422   0.867  1.00  0.00     0.148 A 
ATOM     90  C   UNL     1      -5.484  14.193   3.344  1.00  0.00     0.002 A 
ATOM     91  C   UNL     1      -5.133  14.641   1.012  1.00  0.00     0.091 A 
ATOM     92  F   UNL     1      -4.023  13.100  -0.346  1.00  0.00    -0.205 F 
ATOM     93  C   UNL     1      -5.657  15.022   2.248  1.00  0.00     0.022 A 
BRANCH  91  94
ATOM     94  S   UNL     1      -5.384  15.784  -0.361  1.00  0.00     0.127 S 
ATOM     95  O   UNL     1      -6.843  15.887  -0.409  1.00  0.00    -0.237 OA
ATOM     96  O   UNL     1      -4.704  16.989   0.114  1.00  0.00    -0.237 OA
ATOM     97  O   UNL     1      -4.783  15.165  -1.536  1.00  0.00    -0.744 OA
ENDBRANCH  91  94
ENDBRANCH  73  87
BRANCH  74  98
ATOM     98  C   UNL     1      -2.582   3.663   0.333  1.00  0.00     0.023 A 
ATOM     99  C   UNL     1      -3.388   2.662  -0.250  1.00  0.00     0.012 A 
ATOM    100  C   UNL     1      -1.543   4.167  -0.449  1.00  0.00     0.148 A 
ATOM    101  C   UNL     1      -3.291   2.234  -1.567  1.00  0.00     0.002 A 
ATOM    102  C   UNL     1      -1.397   3.707  -1.771  1.00  0.00     0.091 A 
ATOM    103  F   UNL     1      -0.722   5.081   0.081  1.00  0.00    -0.205 F 
ATOM    104  C   UNL     1      -2.295   2.783  -2.342  1.00  0.00     0.022 A 
BRANCH 102 105
ATOM    105  S   UNL     1      -0.080   4.295  -2.843  1.00  0.00     0.127 S 
ATOM    106  O   UNL     1       0.939   3.271  -2.627  1.00  0.00    -0.237 OA
ATOM    107  O   UNL     1      -0.700   4.277  -4.168  1.00  0.00    -0.237 OA
ATOM    108  O   UNL     1       0.233   5.628  -2.351  1.00  0.00    -0.744 OA
ENDBRANCH 102 105
ENDBRANCH  74  98
BRANCH  86 109
ATOM    109  C   UNL     1      -0.638   8.176   5.592  1.00  0.00     0.023 A 
ATOM    110  C   UNL     1       0.614   7.544   5.713  1.00  0.00     0.012 A 
ATOM    111  C   UNL     1      -0.758   9.470   6.158  1.00  0.00     0.148 A 
ATOM    112  C   UNL     1       1.686   8.151   6.374  1.00  0.00     0.002 A 
ATOM    113  C   UNL     1       0.346  10.120   6.698  1.00  0.00     0.091 A 
ATOM    114  F   UNL     1      -1.948  10.089   6.179  1.00  0.00    -0.205 F 
ATOM    115  C   UNL     1       1.564   9.454   6.834  1.00  0.00     0.022 A 
BRANCH 113 116
ATOM    116  S   UNL     1       0.286  11.884   7.039  1.00  0.00     0.127 S 
ATOM    117  O   UNL     1      -0.089  11.907   8.450  1.00  0.00    -0.237 OA
ATOM    118  O   UNL     1       1.662  12.305   6.766  1.00  0.00    -0.237 OA
ATOM    119  O   UNL     1      -0.694  12.415   6.101  1.00  0.00    -0.744 OA
ENDBRANCH 113 116
ENDBRANCH  86 109
ENDBRANCH  60  61
ENDBRANCH  52  55
ENDBRANCH  50  51
ENDBRANCH  49  50
ENDBRANCH  48  49
ENDBRANCH  47  48
ENDBRANCH   3  47
TORSDOF 23
