REMARK SMILES O=C(NCCCCNC(=O)[C@H]1C[C@H]2CCCC[C@@H]2[N@@H+]1CC[C@@H]1CCCO1)c1ccc(-c2c3nc(c(-c4cccc(S(=O)(=O)[O-])c4F)c4ccc([nH]4)c(-c4cccc(S(=O)(=O)[O-])c4F)c4nc(c(-c5cccc(S(=O)(=O)[O-])c5F)c5ccc2[nH]5)C=C4)C=C3)cc1
REMARK SMILES IDX 5 1 4 2 3 3 1 4 2 5 27 7 28 8 89 9 29 10 88 11 30 12 31 13
REMARK SMILES IDX 32 14 82 15 33 16 87 17 81 18 83 19 34 20 86 21 80 22 79 23
REMARK SMILES IDX 35 25 67 26 47 27 66 28 48 29 51 30 65 31 84 32 49 33 50 34
REMARK SMILES IDX 64 36 85 37 52 38 36 39 37 40 45 41 38 42 40 43 46 44 39 45
REMARK SMILES IDX 41 46 42 47 43 48 44 49 68 50 69 51 77 52 70 53 72 54 78 55
REMARK SMILES IDX 71 56 73 57 74 58 75 59 76 60 53 61 54 62 62 63 55 64 57 65
REMARK SMILES IDX 63 66 56 67 58 68 59 69 60 70 61 71 6 72 7 73 8 74 9 75
REMARK SMILES IDX 10 77 11 78 12 79 19 80 13 81 18 82 14 84 17 85 15 86 16 87
REMARK SMILES IDX 20 88 21 89 22 90 23 91 26 92 24 93 25 94
REMARK H PARENT 3 6 83 24 51 35 8 76 19 83
REMARK Flexibility Score: inf
ROOT
ATOM      1  C   UNL     1       6.828  10.427  -5.117  1.00  0.00     0.023 C 
ENDROOT
BRANCH   1   2
ATOM      2  C   UNL     1       5.639  11.298  -5.458  1.00  0.00     0.116 C 
BRANCH   2   3
ATOM      3  N   UNL     1       5.333  12.360  -4.507  1.00  0.00    -0.352 N 
ATOM      4  O   UNL     1       4.591  14.441  -3.953  1.00  0.00    -0.269 OA
ATOM      5  C   UNL     1       4.785  13.594  -4.817  1.00  0.00     0.251 C 
ATOM      6  H   UNL     1       5.534  12.185  -3.559  1.00  0.00     0.163 HD
BRANCH   5   7
ATOM      7  C   UNL     1       4.498  13.865  -6.242  1.00  0.00     0.039 A 
ATOM      8  C   UNL     1       3.766  12.924  -6.968  1.00  0.00     0.014 A 
ATOM      9  C   UNL     1       5.139  14.924  -6.888  1.00  0.00     0.014 A 
ATOM     10  C   UNL     1       3.868  12.913  -8.349  1.00  0.00     0.010 A 
ATOM     11  C   UNL     1       5.116  14.988  -8.285  1.00  0.00     0.010 A 
ATOM     12  C   UNL     1       4.521  13.956  -9.029  1.00  0.00    -0.014 A 
BRANCH  12  13
ATOM     13  C   UNL     1       4.467  13.978 -10.514  1.00  0.00     0.031 A 
ATOM     14  C   UNL     1       5.707  13.946 -11.365  1.00  0.00     0.074 A 
ATOM     15  C   UNL     1       3.247  14.005 -11.088  1.00  0.00     0.049 A 
ATOM     16  N   UNL     1       5.801  13.952 -12.671  1.00  0.00    -0.248 NA
ATOM     17  C   UNL     1       7.008  13.914 -10.677  1.00  0.00     0.031 C 
ATOM     18  C   UNL     1       1.979  14.080 -10.354  1.00  0.00     0.029 A 
ATOM     19  N   UNL     1       2.864  13.960 -12.401  1.00  0.00    -0.354 N 
ATOM     20  C   UNL     1       7.160  13.978 -12.963  1.00  0.00     0.074 A 
ATOM     21  C   UNL     1       7.859  13.978 -11.695  1.00  0.00     0.031 C 
ATOM     22  C   UNL     1       0.961  14.020 -11.219  1.00  0.00     0.029 A 
ATOM     23  C   UNL     1       1.499  13.993 -12.571  1.00  0.00     0.049 A 
ATOM     24  H   UNL     1       3.501  13.909 -13.149  1.00  0.00     0.167 HD
ATOM     25  C   UNL     1       7.763  13.993 -14.177  1.00  0.00     0.034 A 
ATOM     26  C   UNL     1       0.754  14.029 -13.690  1.00  0.00     0.034 A 
ATOM     27  C   UNL     1       7.053  13.947 -15.430  1.00  0.00     0.049 A 
ATOM     28  C   UNL     1       1.453  14.007 -15.014  1.00  0.00     0.074 A 
ATOM     29  C   UNL     1       7.574  13.901 -16.713  1.00  0.00     0.029 A 
ATOM     30  N   UNL     1       5.673  13.943 -15.562  1.00  0.00    -0.354 N 
ATOM     31  N   UNL     1       2.737  13.929 -15.263  1.00  0.00    -0.248 NA
ATOM     32  C   UNL     1       0.604  14.061 -16.209  1.00  0.00     0.031 C 
ATOM     33  C   UNL     1       6.507  13.885 -17.619  1.00  0.00     0.029 A 
ATOM     34  C   UNL     1       5.322  13.903 -16.902  1.00  0.00     0.049 A 
ATOM     35  H   UNL     1       5.034  13.966 -14.813  1.00  0.00     0.167 HD
ATOM     36  C   UNL     1       2.853  13.915 -16.645  1.00  0.00     0.074 A 
ATOM     37  C   UNL     1       1.504  13.951 -17.177  1.00  0.00     0.031 C 
ATOM     38  C   UNL     1       3.973  13.900 -17.408  1.00  0.00     0.034 A 
BRANCH  25  39
ATOM     39  C   UNL     1       9.271  14.025 -14.225  1.00  0.00     0.023 A 
ATOM     40  C   UNL     1      10.002  12.856 -13.932  1.00  0.00     0.012 A 
ATOM     41  C   UNL     1       9.960  15.179 -14.651  1.00  0.00     0.148 A 
ATOM     42  C   UNL     1      11.393  12.840 -14.043  1.00  0.00     0.002 A 
ATOM     43  C   UNL     1      11.343  15.146 -14.794  1.00  0.00     0.091 A 
ATOM     44  F   UNL     1       9.251  16.288 -14.909  1.00  0.00    -0.205 F 
ATOM     45  C   UNL     1      12.062  13.980 -14.483  1.00  0.00     0.022 A 
BRANCH  43  46
ATOM     46  S   UNL     1      12.289  16.538 -15.424  1.00  0.00     0.127 S 
ATOM     47  O   UNL     1      12.973  17.000 -14.217  1.00  0.00    -0.237 OA
ATOM     48  O   UNL     1      13.161  15.899 -16.411  1.00  0.00    -0.237 OA
ATOM     49  O   UNL     1      11.315  17.464 -15.985  1.00  0.00    -0.744 OA
ENDBRANCH  43  46
ENDBRANCH  25  39
BRANCH  26  50
ATOM     50  C   UNL     1      -0.730  14.062 -13.582  1.00  0.00     0.023 A 
ATOM     51  C   UNL     1      -1.480  12.940 -13.978  1.00  0.00     0.012 A 
ATOM     52  C   UNL     1      -1.394  15.167 -13.014  1.00  0.00     0.148 A 
ATOM     53  C   UNL     1      -2.867  12.925 -13.826  1.00  0.00     0.002 A 
ATOM     54  C   UNL     1      -2.766  15.119 -12.803  1.00  0.00     0.091 A 
ATOM     55  F   UNL     1      -0.665  16.236 -12.659  1.00  0.00    -0.205 F 
ATOM     56  C   UNL     1      -3.507  14.006 -13.225  1.00  0.00     0.022 A 
BRANCH  54  57
ATOM     57  S   UNL     1      -3.625  16.398 -11.880  1.00  0.00     0.127 S 
ATOM     58  O   UNL     1      -4.227  17.187 -12.950  1.00  0.00    -0.237 OA
ATOM     59  O   UNL     1      -4.571  15.620 -11.079  1.00  0.00    -0.237 OA
ATOM     60  O   UNL     1      -2.591  17.062 -11.096  1.00  0.00    -0.744 OA
ENDBRANCH  54  57
ENDBRANCH  26  50
BRANCH  38  61
ATOM     61  C   UNL     1       3.780  13.914 -18.899  1.00  0.00     0.023 A 
ATOM     62  C   UNL     1       3.367  15.102 -19.534  1.00  0.00     0.012 A 
ATOM     63  C   UNL     1       4.043  12.768 -19.673  1.00  0.00     0.148 A 
ATOM     64  C   UNL     1       3.184  15.140 -20.915  1.00  0.00     0.002 A 
ATOM     65  C   UNL     1       3.902  12.826 -21.054  1.00  0.00     0.091 A 
ATOM     66  F   UNL     1       4.411  11.641 -19.045  1.00  0.00    -0.205 F 
ATOM     67  C   UNL     1       3.462  14.006 -21.675  1.00  0.00     0.022 A 
BRANCH  65  68
ATOM     68  S   UNL     1       4.321  11.439 -22.115  1.00  0.00     0.127 S 
ATOM     69  O   UNL     1       2.999  10.923 -22.466  1.00  0.00    -0.237 OA
ATOM     70  O   UNL     1       5.033  12.091 -23.215  1.00  0.00    -0.237 OA
ATOM     71  O   UNL     1       5.147  10.554 -21.305  1.00  0.00    -0.744 OA
ENDBRANCH  65  68
ENDBRANCH  38  61
ENDBRANCH  12  13
ENDBRANCH   5   7
ENDBRANCH   2   3
ENDBRANCH   1   2
BRANCH   1  72
ATOM     72  C   UNL     1       6.694   9.633  -3.835  1.00  0.00     0.023 C 
BRANCH  72  73
ATOM     73  C   UNL     1       5.500   8.676  -3.712  1.00  0.00     0.116 C 
BRANCH  73  74
ATOM     74  N   UNL     1       5.844   7.263  -3.680  1.00  0.00    -0.351 N 
ATOM     75  C   UNL     1       6.184   6.394  -2.685  1.00  0.00     0.278 C 
ATOM     76  H   UNL     1       5.827   6.843  -4.570  1.00  0.00     0.163 HD
ATOM     77  O   UNL     1       6.071   5.195  -2.983  1.00  0.00    -0.268 OA
BRANCH  75  78
ATOM     78  C   UNL     1       6.762   6.782  -1.290  1.00  0.00     0.274 C 
ATOM     79  C   UNL     1       7.021   8.239  -0.974  1.00  0.00     0.085 C 
ATOM     80  N   UNL     1       5.866   6.343  -0.177  1.00  0.00    -0.322 N 
ATOM     81  C   UNL     1       5.899   8.672  -0.057  1.00  0.00     0.054 C 
ATOM     82  C   UNL     1       4.984   7.476   0.087  1.00  0.00     0.188 C 
ATOM     83  H   UNL     1       5.283   5.548  -0.438  1.00  0.00     0.349 HD
ATOM     84  C   UNL     1       5.106   9.950  -0.260  1.00  0.00     0.010 C 
ATOM     85  C   UNL     1       4.217   7.614   1.404  1.00  0.00     0.065 C 
ATOM     86  C   UNL     1       4.297  10.185   1.026  1.00  0.00     0.001 C 
ATOM     87  C   UNL     1       3.463   8.960   1.450  1.00  0.00     0.006 C 
BRANCH  80  88
ATOM     88  C   UNL     1       6.535   5.673   0.949  1.00  0.00     0.265 C 
BRANCH  88  89
ATOM     89  C   UNL     1       7.891   6.112   1.576  1.00  0.00     0.093 C 
BRANCH  89  90
ATOM     90  C   UNL     1       7.885   7.039   2.808  1.00  0.00     0.123 C 
ATOM     91  C   UNL     1       7.915   8.539   2.550  1.00  0.00     0.034 C 
ATOM     92  O   UNL     1       9.089   6.805   3.579  1.00  0.00    -0.378 OA
ATOM     93  C   UNL     1       8.978   9.133   3.434  1.00  0.00     0.031 C 
ATOM     94  C   UNL     1       9.347   7.993   4.338  1.00  0.00     0.160 C 
ENDBRANCH  89  90
ENDBRANCH  88  89
ENDBRANCH  80  88
ENDBRANCH  75  78
ENDBRANCH  73  74
ENDBRANCH  72  73
ENDBRANCH   1  72
TORSDOF 17
