REMARK SMILES O=C(NCCc1ccsc1)N[C@H]1CCCCC[C@@H]1C(=O)NCCCCNC(=O)c1ccc(-c2c3nc(c(-c4cccc(S(=O)(=O)[O-])c4F)c4ccc([nH]4)c(-c4cccc(S(=O)(=O)[O-])c4F)c4nc(c(-c5cccc(S(=O)(=O)[O-])c5F)c5ccc2[nH]5)C=C4)C=C3)cc1
REMARK SMILES IDX 22 1 21 2 19 3 20 4 18 6 12 7 11 8 1 9 2 10 3 11 4 14 5 15
REMARK SMILES IDX 6 16 7 17 10 18 8 19 9 20 13 21 14 22 17 24 16 25 15 26
REMARK SMILES IDX 23 28 24 29 25 30 26 31 27 32 28 34 29 35 30 36 91 37 31 38
REMARK SMILES IDX 90 39 32 40 33 41 34 42 84 43 35 44 89 45 83 46 85 47 36 48
REMARK SMILES IDX 88 49 82 50 81 51 37 53 69 54 49 55 68 56 50 57 53 58 67 59
REMARK SMILES IDX 86 60 51 61 52 62 66 64 87 65 54 66 38 67 39 68 47 69 40 70
REMARK SMILES IDX 42 71 48 72 41 73 43 74 44 75 45 76 46 77 70 78 71 79 79 80
REMARK SMILES IDX 72 81 74 82 80 83 73 84 75 85 76 86 77 87 78 88 55 89 56 90
REMARK SMILES IDX 64 91 57 92 59 93 65 94 58 95 60 96 61 97 62 98 63 99
REMARK H PARENT 21 5 3 12 11 13 26 33 85 52 53 63
REMARK Flexibility Score: 90.00
ROOT
ATOM      1  C   UNL     1       4.659  -0.705   4.132  1.00  0.00     0.116 C 
ENDROOT
BRANCH   1   2
ATOM      2  N   UNL     1       3.395  -0.946   3.462  1.00  0.00    -0.356 N 
ATOM      3  C   UNL     1       2.319  -0.162   3.212  1.00  0.00     0.225 C 
ATOM      4  O   UNL     1       1.352  -0.716   2.667  1.00  0.00    -0.275 OA
ATOM      5  H   UNL     1       3.300  -1.865   3.122  1.00  0.00     0.163 HD
BRANCH   3   6
ATOM      6  C   UNL     1       2.228   1.351   3.471  1.00  0.00     0.101 C 
BRANCH   6   7
ATOM      7  C   UNL     1       2.228   2.058   2.081  1.00  0.00     0.096 C 
BRANCH   7   8
ATOM      8  N   UNL     1       0.831   2.096   1.588  1.00  0.00    -0.335 N 
ATOM      9  O   UNL     1       0.917   3.786   0.040  1.00  0.00    -0.249 OA
ATOM     10  C   UNL     1       0.305   2.910   0.642  1.00  0.00     0.315 C 
ATOM     11  N   UNL     1      -1.014   2.766   0.372  1.00  0.00    -0.338 N 
ATOM     12  H   UNL     1      -1.347   3.381  -0.321  1.00  0.00     0.165 HD
ATOM     13  H   UNL     1       0.210   1.450   1.997  1.00  0.00     0.165 HD
BRANCH  11  14
ATOM     14  C   UNL     1      -2.036   1.878   0.909  1.00  0.00     0.122 C 
BRANCH  14  15
ATOM     15  C   UNL     1      -3.106   2.620   1.718  1.00  0.00     0.057 C 
BRANCH  15  16
ATOM     16  C   UNL     1      -3.962   3.617   0.966  1.00  0.00    -0.036 A 
ATOM     17  C   UNL     1      -4.050   3.792  -0.457  1.00  0.00     0.015 A 
ATOM     18  C   UNL     1      -4.815   4.502   1.606  1.00  0.00     0.068 A 
ATOM     19  C   UNL     1      -4.907   4.807  -0.822  1.00  0.00     0.065 A 
ATOM     20  S   UNL     1      -5.653   5.532   0.530  1.00  0.00    -0.152 S 
ENDBRANCH  15  16
ENDBRANCH  14  15
ENDBRANCH  11  14
ENDBRANCH   7   8
BRANCH   7  21
ATOM     21  C   UNL     1       2.966   3.408   2.043  1.00  0.00     0.026 C 
BRANCH  21  22
ATOM     22  C   UNL     1       2.358   4.498   2.924  1.00  0.00     0.002 CG0
ATOM     23  G   UNL     1       2.927   4.503   4.336  1.00  0.00     0.000 G0
ENDBRANCH  21  22
ENDBRANCH   7  21
ENDBRANCH   6   7
BRANCH   6  24
ATOM     24  C   UNL     1       3.110   1.956   4.567  1.00  0.00     0.015 C 
BRANCH  24  25
ATOM     25  C   UNL     1       2.580   3.266   5.152  1.00  0.00     0.001 C 
BRANCH  25  26
ATOM     26  C   UNL     1       2.927   4.503   4.336  1.00  0.00     0.000 CG0
ATOM     27  G   UNL     1       2.358   4.498   2.924  1.00  0.00     0.000 G0
ENDBRANCH  25  26
ENDBRANCH  24  25
ENDBRANCH   6  24
ENDBRANCH   3   6
ENDBRANCH   1   2
BRANCH   1  28
ATOM     28  C   UNL     1       4.545  -0.931   5.643  1.00  0.00     0.023 C 
BRANCH  28  29
ATOM     29  C   UNL     1       4.923  -2.335   6.119  1.00  0.00     0.023 C 
BRANCH  29  30
ATOM     30  C   UNL     1       6.370  -2.741   5.865  1.00  0.00     0.116 C 
BRANCH  30  31
ATOM     31  N   UNL     1       7.349  -1.821   6.427  1.00  0.00    -0.352 N 
ATOM     32  C   UNL     1       8.652  -2.090   6.775  1.00  0.00     0.251 C 
ATOM     33  H   UNL     1       7.042  -0.897   6.574  1.00  0.00     0.163 HD
ATOM     34  O   UNL     1       9.343  -1.231   7.315  1.00  0.00    -0.269 OA
BRANCH  32  35
ATOM     35  C   UNL     1       9.188  -3.446   6.539  1.00  0.00     0.039 A 
ATOM     36  C   UNL     1       9.759  -4.141   7.608  1.00  0.00     0.014 A 
ATOM     37  C   UNL     1       9.056  -4.053   5.288  1.00  0.00     0.014 A 
ATOM     38  C   UNL     1      10.130  -5.476   7.439  1.00  0.00     0.010 A 
ATOM     39  C   UNL     1       9.360  -5.402   5.143  1.00  0.00     0.010 A 
ATOM     40  C   UNL     1       9.897  -6.127   6.217  1.00  0.00    -0.014 A 
BRANCH  40  41
ATOM     41  C   UNL     1      10.184  -7.574   6.048  1.00  0.00     0.031 A 
ATOM     42  C   UNL     1      11.222  -8.029   5.060  1.00  0.00     0.074 A 
ATOM     43  C   UNL     1       9.439  -8.479   6.713  1.00  0.00     0.049 A 
ATOM     44  N   UNL     1      11.578  -9.246   4.743  1.00  0.00    -0.248 NA
ATOM     45  C   UNL     1      11.931  -6.981   4.307  1.00  0.00     0.031 C 
ATOM     46  C   UNL     1       8.335  -8.163   7.623  1.00  0.00     0.029 A 
ATOM     47  N   UNL     1       9.478  -9.851   6.704  1.00  0.00    -0.354 N 
ATOM     48  C   UNL     1      12.521  -9.114   3.732  1.00  0.00     0.074 A 
ATOM     49  C   UNL     1      12.656  -7.700   3.462  1.00  0.00     0.031 C 
ATOM     50  C   UNL     1       7.807  -9.307   8.088  1.00  0.00     0.029 A 
ATOM     51  C   UNL     1       8.520 -10.436   7.499  1.00  0.00     0.049 A 
ATOM     52  H   UNL     1      10.131 -10.367   6.179  1.00  0.00     0.167 HD
ATOM     53  C   UNL     1      13.238 -10.080   3.109  1.00  0.00     0.034 A 
ATOM     54  C   UNL     1       8.250 -11.736   7.730  1.00  0.00     0.034 A 
ATOM     55  C   UNL     1      13.143 -11.479   3.422  1.00  0.00     0.049 A 
ATOM     56  C   UNL     1       9.111 -12.786   7.081  1.00  0.00     0.074 A 
ATOM     57  C   UNL     1      13.897 -12.526   2.924  1.00  0.00     0.029 A 
ATOM     58  N   UNL     1      12.236 -12.028   4.316  1.00  0.00    -0.354 N 
ATOM     59  N   UNL     1      10.123 -12.631   6.262  1.00  0.00    -0.248 NA
ATOM     60  C   UNL     1       8.822 -14.187   7.420  1.00  0.00     0.031 C 
ATOM     61  C   UNL     1      13.441 -13.711   3.512  1.00  0.00     0.029 A 
ATOM     62  C   UNL     1      12.409 -13.400   4.383  1.00  0.00     0.049 A 
ATOM     63  H   UNL     1      11.568 -11.518   4.827  1.00  0.00     0.167 HD
ATOM     64  C   UNL     1      10.611 -13.908   6.013  1.00  0.00     0.074 A 
ATOM     65  C   UNL     1       9.798 -14.824   6.787  1.00  0.00     0.031 C 
ATOM     66  C   UNL     1      11.629 -14.291   5.202  1.00  0.00     0.034 A 
BRANCH  53  67
ATOM     67  C   UNL     1      14.242  -9.643   2.076  1.00  0.00     0.023 A 
ATOM     68  C   UNL     1      15.427  -9.002   2.495  1.00  0.00     0.012 A 
ATOM     69  C   UNL     1      14.044  -9.904   0.707  1.00  0.00     0.148 A 
ATOM     70  C   UNL     1      16.382  -8.595   1.565  1.00  0.00     0.002 A 
ATOM     71  C   UNL     1      15.021  -9.533  -0.211  1.00  0.00     0.091 A 
ATOM     72  F   UNL     1      12.902 -10.492   0.325  1.00  0.00    -0.205 F 
ATOM     73  C   UNL     1      16.184  -8.869   0.215  1.00  0.00     0.022 A 
BRANCH  71  74
ATOM     74  S   UNL     1      14.891  -9.907  -1.963  1.00  0.00     0.127 S 
ATOM     75  O   UNL     1      14.568  -8.596  -2.522  1.00  0.00    -0.237 OA
ATOM     76  O   UNL     1      16.237 -10.389  -2.278  1.00  0.00    -0.237 OA
ATOM     77  O   UNL     1      13.846 -10.915  -2.078  1.00  0.00    -0.744 OA
ENDBRANCH  71  74
ENDBRANCH  53  67
BRANCH  54  78
ATOM     78  C   UNL     1       7.174 -12.111   8.690  1.00  0.00     0.023 A 
ATOM     79  C   UNL     1       7.530 -12.646   9.944  1.00  0.00     0.012 A 
ATOM     80  C   UNL     1       5.814 -11.908   8.391  1.00  0.00     0.148 A 
ATOM     81  C   UNL     1       6.549 -12.998  10.872  1.00  0.00     0.002 A 
ATOM     82  C   UNL     1       4.844 -12.213   9.341  1.00  0.00     0.091 A 
ATOM     83  F   UNL     1       5.494 -11.411   7.188  1.00  0.00    -0.205 F 
ATOM     84  C   UNL     1       5.208 -12.773  10.575  1.00  0.00     0.022 A 
BRANCH  82  85
ATOM     85  S   UNL     1       3.106 -11.830   9.092  1.00  0.00     0.127 S 
ATOM     86  O   UNL     1       2.543 -13.150   8.825  1.00  0.00    -0.237 OA
ATOM     87  O   UNL     1       2.733 -11.250  10.383  1.00  0.00    -0.237 OA
ATOM     88  O   UNL     1       3.072 -10.885   7.983  1.00  0.00    -0.744 OA
ENDBRANCH  82  85
ENDBRANCH  54  78
BRANCH  66  89
ATOM     89  C   UNL     1      11.941 -15.762   5.122  1.00  0.00     0.023 A 
ATOM     90  C   UNL     1      11.079 -16.617   4.407  1.00  0.00     0.012 A 
ATOM     91  C   UNL     1      13.122 -16.281   5.687  1.00  0.00     0.148 A 
ATOM     92  C   UNL     1      11.375 -17.973   4.278  1.00  0.00     0.002 A 
ATOM     93  C   UNL     1      13.432 -17.626   5.516  1.00  0.00     0.091 A 
ATOM     94  F   UNL     1      13.917 -15.456   6.383  1.00  0.00    -0.205 F 
ATOM     95  C   UNL     1      12.556 -18.475   4.821  1.00  0.00     0.022 A 
BRANCH  93  96
ATOM     96  S   UNL     1      14.976 -18.331   6.103  1.00  0.00     0.127 S 
ATOM     97  O   UNL     1      14.543 -19.038   7.308  1.00  0.00    -0.237 OA
ATOM     98  O   UNL     1      15.367 -19.202   4.993  1.00  0.00    -0.237 OA
ATOM     99  O   UNL     1      15.870 -17.202   6.322  1.00  0.00    -0.744 OA
ENDBRANCH  93  96
ENDBRANCH  66  89
ENDBRANCH  40  41
ENDBRANCH  32  35
ENDBRANCH  30  31
ENDBRANCH  29  30
ENDBRANCH  28  29
ENDBRANCH   1  28
TORSDOF 18
