REMARK SMILES C[C@H](CC(=O)N1CCC2(CC1)CN(CCCC(=O)NCCCCNC(=O)c1ccc(-c3c4nc(c(-c5cccc(S(=O)(=O)[O-])c5F)c5ccc([nH]5)c(-c5cccc(S(=O)(=O)[O-])c5F)c5nc(c(-c6cccc(S(=O)(=O)[O-])c6F)c6ccc3[nH]6)C=C5)C=C4)cc1)C(=O)O2)n1ccnc1
REMARK SMILES IDX 20 1 19 2 17 3 18 4 16 6 15 7 14 8 13 9 4 10 5 11 6 12 7 13
REMARK SMILES IDX 11 14 8 15 10 16 9 17 12 18 92 19 90 20 91 21 3 22 2 23 1 24
REMARK SMILES IDX 93 25 94 26 97 27 95 28 96 29 21 30 22 31 23 32 24 33 25 34
REMARK SMILES IDX 26 36 27 37 28 38 89 39 29 40 88 41 30 42 31 43 32 44 82 45
REMARK SMILES IDX 33 46 87 47 81 48 83 49 34 50 86 51 80 52 79 53 35 55 67 56
REMARK SMILES IDX 47 57 66 58 48 59 51 60 65 61 84 62 49 63 50 64 64 66 85 67
REMARK SMILES IDX 52 68 36 69 37 70 45 71 38 72 40 73 46 74 39 75 41 76 42 77
REMARK SMILES IDX 43 78 44 79 68 80 69 81 77 82 70 83 72 84 78 85 71 86 73 87
REMARK SMILES IDX 74 88 75 89 76 90 53 91 54 92 62 93 55 94 57 95 63 96 56 97
REMARK SMILES IDX 58 98 59 99 60 100 61 101
REMARK H PARENT 19 5 24 35 83 54 51 65
REMARK Flexibility Score: inf
ROOT
ATOM      1  C   UNL     1      -5.020   0.959  -4.165  1.00  0.00     0.116 C 
ENDROOT
BRANCH   1   2
ATOM      2  N   UNL     1      -6.129   0.036  -4.187  1.00  0.00    -0.356 N 
ATOM      3  C   UNL     1      -6.250  -1.190  -4.756  1.00  0.00     0.220 C 
ATOM      4  O   UNL     1      -7.308  -1.800  -4.582  1.00  0.00    -0.275 OA
ATOM      5  H   UNL     1      -6.932   0.348  -3.710  1.00  0.00     0.163 HD
BRANCH   3   6
ATOM      6  C   UNL     1      -5.105  -1.863  -5.493  1.00  0.00     0.102 C 
BRANCH   6   7
ATOM      7  C   UNL     1      -4.694  -1.372  -6.881  1.00  0.00     0.031 C 
BRANCH   7   8
ATOM      8  C   UNL     1      -3.823  -0.131  -7.085  1.00  0.00     0.124 C 
BRANCH   8   9
ATOM      9  N   UNL     1      -2.553   0.034  -6.387  1.00  0.00    -0.304 N 
ATOM     10  C   UNL     1       1.733   0.380  -1.499  1.00  0.00     0.224 C 
ATOM     11  O   UNL     1       2.920   0.035  -1.569  1.00  0.00    -0.275 OA
ATOM     12  N   UNL     1       0.994   0.589  -2.648  1.00  0.00    -0.342 N 
ATOM     13  C   UNL     1       1.505   0.065  -3.913  1.00  0.00     0.123 C 
ATOM     14  C   UNL     1      -0.159   1.463  -2.812  1.00  0.00     0.123 C 
ATOM     15  C   UNL     1       0.419  -0.767  -4.591  1.00  0.00     0.072 C 
ATOM     16  C   UNL     1      -1.308   0.745  -3.503  1.00  0.00     0.072 C 
ATOM     17  C   UNL     1      -0.858   0.048  -4.806  1.00  0.00     0.135 C 
ATOM     18  C   UNL     1      -1.975  -0.814  -5.388  1.00  0.00     0.172 C 
ATOM     19  O   UNL     1      -0.625   1.043  -5.820  1.00  0.00    -0.441 OA
ATOM     20  C   UNL     1      -1.703   1.084  -6.664  1.00  0.00     0.410 C 
ATOM     21  O   UNL     1      -1.857   1.933  -7.519  1.00  0.00    -0.224 OA
BRANCH  10  22
ATOM     22  C   UNL     1       1.066   0.321  -0.127  1.00  0.00     0.125 C 
BRANCH  22  23
ATOM     23  C   UNL     1       0.431   1.546   0.554  1.00  0.00     0.094 C 
ATOM     24  C   UNL     1       1.159   2.846   0.185  1.00  0.00     0.032 C 
BRANCH  23  25
ATOM     25  N   UNL     1      -1.032   1.573   0.466  1.00  0.00    -0.334 N 
ATOM     26  C   UNL     1      -1.869   0.490   0.593  1.00  0.00     0.107 A 
ATOM     27  C   UNL     1      -1.840   2.671   0.338  1.00  0.00     0.199 A 
ATOM     28  C   UNL     1      -3.141   0.984   0.433  1.00  0.00     0.130 A 
ATOM     29  N   UNL     1      -3.107   2.335   0.240  1.00  0.00    -0.245 NA
ENDBRANCH  23  25
ENDBRANCH  22  23
ENDBRANCH  10  22
ENDBRANCH   8   9
ENDBRANCH   7   8
ENDBRANCH   6   7
ENDBRANCH   3   6
ENDBRANCH   1   2
BRANCH   1  30
ATOM     30  C   UNL     1      -5.315   2.223  -4.970  1.00  0.00     0.023 C 
BRANCH  30  31
ATOM     31  C   UNL     1      -5.946   3.340  -4.151  1.00  0.00     0.023 C 
BRANCH  31  32
ATOM     32  C   UNL     1      -5.055   3.881  -3.042  1.00  0.00     0.116 C 
BRANCH  32  33
ATOM     33  N   UNL     1      -3.821   4.495  -3.519  1.00  0.00    -0.352 N 
ATOM     34  C   UNL     1      -3.225   5.647  -3.057  1.00  0.00     0.251 C 
ATOM     35  H   UNL     1      -3.361   4.032  -4.257  1.00  0.00     0.163 HD
ATOM     36  O   UNL     1      -2.200   6.079  -3.574  1.00  0.00    -0.269 OA
BRANCH  34  37
ATOM     37  C   UNL     1      -3.875   6.380  -1.952  1.00  0.00     0.039 A 
ATOM     38  C   UNL     1      -4.204   7.724  -2.128  1.00  0.00     0.014 A 
ATOM     39  C   UNL     1      -4.266   5.697  -0.798  1.00  0.00     0.014 A 
ATOM     40  C   UNL     1      -4.990   8.366  -1.170  1.00  0.00     0.010 A 
ATOM     41  C   UNL     1      -5.135   6.307   0.096  1.00  0.00     0.010 A 
ATOM     42  C   UNL     1      -5.497   7.651  -0.070  1.00  0.00    -0.014 A 
BRANCH  42  43
ATOM     43  C   UNL     1      -6.402   8.294   0.916  1.00  0.00     0.031 A 
ATOM     44  C   UNL     1      -5.998   8.379   2.364  1.00  0.00     0.074 A 
ATOM     45  C   UNL     1      -7.613   8.742   0.526  1.00  0.00     0.049 A 
ATOM     46  N   UNL     1      -6.648   8.898   3.373  1.00  0.00    -0.248 NA
ATOM     47  C   UNL     1      -4.706   7.776   2.735  1.00  0.00     0.031 C 
ATOM     48  C   UNL     1      -8.160   8.641  -0.829  1.00  0.00     0.029 A 
ATOM     49  N   UNL     1      -8.610   9.362   1.238  1.00  0.00    -0.354 N 
ATOM     50  C   UNL     1      -5.862   8.660   4.494  1.00  0.00     0.074 A 
ATOM     51  C   UNL     1      -4.715   7.900   4.052  1.00  0.00     0.031 C 
ATOM     52  C   UNL     1      -9.378   9.205  -0.857  1.00  0.00     0.029 A 
ATOM     53  C   UNL     1      -9.715   9.678   0.482  1.00  0.00     0.049 A 
ATOM     54  H   UNL     1      -8.540   9.562   2.199  1.00  0.00     0.167 HD
ATOM     55  C   UNL     1      -6.053   9.067   5.771  1.00  0.00     0.034 A 
ATOM     56  C   UNL     1     -10.868  10.282   0.830  1.00  0.00     0.034 A 
ATOM     57  C   UNL     1      -7.182   9.843   6.203  1.00  0.00     0.049 A 
ATOM     58  C   UNL     1     -11.049  10.741   2.252  1.00  0.00     0.074 A 
ATOM     59  C   UNL     1      -7.437  10.369   7.457  1.00  0.00     0.029 A 
ATOM     60  N   UNL     1      -8.255  10.194   5.397  1.00  0.00    -0.354 N 
ATOM     61  N   UNL     1     -10.222  10.645   3.265  1.00  0.00    -0.248 NA
ATOM     62  C   UNL     1     -12.309  11.428   2.569  1.00  0.00     0.031 C 
ATOM     63  C   UNL     1      -8.682  11.006   7.418  1.00  0.00     0.029 A 
ATOM     64  C   UNL     1      -9.181  10.918   6.128  1.00  0.00     0.049 A 
ATOM     65  H   UNL     1      -8.344   9.962   4.444  1.00  0.00     0.167 HD
ATOM     66  C   UNL     1     -10.842  11.294   4.327  1.00  0.00     0.074 A 
ATOM     67  C   UNL     1     -12.104  11.800   3.824  1.00  0.00     0.031 C 
ATOM     68  C   UNL     1     -10.413  11.451   5.604  1.00  0.00     0.034 A 
BRANCH  55  69
ATOM     69  C   UNL     1      -4.988   8.711   6.779  1.00  0.00     0.023 A 
ATOM     70  C   UNL     1      -3.710   9.302   6.684  1.00  0.00     0.012 A 
ATOM     71  C   UNL     1      -5.256   7.815   7.832  1.00  0.00     0.148 A 
ATOM     72  C   UNL     1      -2.703   8.971   7.588  1.00  0.00     0.002 A 
ATOM     73  C   UNL     1      -4.262   7.530   8.761  1.00  0.00     0.091 A 
ATOM     74  F   UNL     1      -6.468   7.246   7.896  1.00  0.00    -0.205 F 
ATOM     75  C   UNL     1      -2.981   8.093   8.632  1.00  0.00     0.022 A 
BRANCH  73  76
ATOM     76  S   UNL     1      -4.542   6.478  10.189  1.00  0.00     0.127 S 
ATOM     77  O   UNL     1      -3.736   5.304   9.853  1.00  0.00    -0.237 OA
ATOM     78  O   UNL     1      -4.006   7.292  11.279  1.00  0.00    -0.237 OA
ATOM     79  O   UNL     1      -5.979   6.252  10.247  1.00  0.00    -0.744 OA
ENDBRANCH  73  76
ENDBRANCH  55  69
BRANCH  56  80
ATOM     80  C   UNL     1     -11.913  10.558  -0.199  1.00  0.00     0.023 A 
ATOM     81  C   UNL     1     -12.174  11.889  -0.580  1.00  0.00     0.012 A 
ATOM     82  C   UNL     1     -12.640   9.516  -0.805  1.00  0.00     0.148 A 
ATOM     83  C   UNL     1     -13.168  12.181  -1.515  1.00  0.00     0.002 A 
ATOM     84  C   UNL     1     -13.589   9.810  -1.777  1.00  0.00     0.091 A 
ATOM     85  F   UNL     1     -12.382   8.257  -0.425  1.00  0.00    -0.205 F 
ATOM     86  C   UNL     1     -13.869  11.142  -2.119  1.00  0.00     0.022 A 
BRANCH  84  87
ATOM     87  S   UNL     1     -14.456   8.535  -2.699  1.00  0.00     0.127 S 
ATOM     88  O   UNL     1     -15.828   8.706  -2.229  1.00  0.00    -0.237 OA
ATOM     89  O   UNL     1     -14.220   8.952  -4.081  1.00  0.00    -0.237 OA
ATOM     90  O   UNL     1     -13.817   7.278  -2.331  1.00  0.00    -0.744 OA
ENDBRANCH  84  87
ENDBRANCH  56  80
BRANCH  68  91
ATOM     91  C   UNL     1     -11.291  12.241   6.541  1.00  0.00     0.023 A 
ATOM     92  C   UNL     1     -12.525  11.712   6.971  1.00  0.00     0.012 A 
ATOM     93  C   UNL     1     -10.867  13.491   7.033  1.00  0.00     0.148 A 
ATOM     94  C   UNL     1     -13.344  12.438   7.835  1.00  0.00     0.002 A 
ATOM     95  C   UNL     1     -11.662  14.182   7.939  1.00  0.00     0.091 A 
ATOM     96  F   UNL     1      -9.698  13.986   6.601  1.00  0.00    -0.205 F 
ATOM     97  C   UNL     1     -12.909  13.666   8.327  1.00  0.00     0.022 A 
BRANCH  95  98
ATOM     98  S   UNL     1     -11.136  15.719   8.704  1.00  0.00     0.127 S 
ATOM     99  O   UNL     1     -11.999  16.694   8.039  1.00  0.00    -0.237 OA
ATOM    100  O   UNL     1     -11.450  15.487  10.114  1.00  0.00    -0.237 OA
ATOM    101  O   UNL     1      -9.713  15.845   8.416  1.00  0.00    -0.744 OA
ENDBRANCH  95  98
ENDBRANCH  68  91
ENDBRANCH  42  43
ENDBRANCH  34  37
ENDBRANCH  32  33
ENDBRANCH  31  32
ENDBRANCH  30  31
ENDBRANCH   1  30
TORSDOF 20
