REMARK SMILES NS(=O)(=O)c1ccc(-n2ccnc2-c2ccc(O)c(C(=O)NCCCCNC(=O)c3ccc(-c4c5nc(c(-c6cccc(S(=O)(=O)[O-])c6F)c6ccc([nH]6)c(-c6cccc(S(=O)(=O)[O-])c6F)c6nc(c(-c7cccc(S(=O)(=O)[O-])c7F)c7ccc4[nH]7)C=C6)C=C5)cc3)c2)cc1
REMARK SMILES IDX 24 1 23 2 22 3 20 4 21 5 19 7 14 8 15 9 93 10 16 11 17 12
REMARK SMILES IDX 13 13 9 14 10 15 11 16 12 17 8 18 5 19 6 20 95 21 7 22 94 23
REMARK SMILES IDX 2 24 3 25 4 26 1 27 18 30 25 32 26 33 27 34 28 35 29 37
REMARK SMILES IDX 30 38 31 39 92 40 32 41 91 42 33 43 34 44 35 45 85 46 36 47
REMARK SMILES IDX 90 48 84 49 86 50 37 51 89 52 83 53 82 54 38 56 70 57 50 58
REMARK SMILES IDX 69 59 51 60 54 61 68 62 87 63 52 64 53 65 67 67 88 68 55 69
REMARK SMILES IDX 39 70 40 71 48 72 41 73 43 74 49 75 42 76 44 77 45 78 46 79
REMARK SMILES IDX 47 80 71 81 72 82 80 83 73 84 75 85 81 86 74 87 76 88 77 89
REMARK SMILES IDX 78 90 79 91 56 92 57 93 65 94 58 95 60 96 66 97 59 98 61 99
REMARK SMILES IDX 62 100 63 101 64 102
REMARK H PARENT 22 6 1 28 1 29 18 31 27 36 86 55 54 66
REMARK Flexibility Score: inf
ROOT
ATOM      1  C   UNL     1       5.926   6.596   3.545  1.00  0.00     0.023 C 
ENDROOT
BRANCH   1   2
ATOM      2  C   UNL     1       5.303   5.263   3.131  1.00  0.00     0.116 C 
BRANCH   2   3
ATOM      3  N   UNL     1       6.252   4.186   2.869  1.00  0.00    -0.352 N 
ATOM      4  C   UNL     1       6.478   2.945   3.431  1.00  0.00     0.255 C 
ATOM      5  O   UNL     1       7.429   2.282   3.010  1.00  0.00    -0.269 OA
ATOM      6  H   UNL     1       6.867   4.389   2.127  1.00  0.00     0.163 HD
BRANCH   4   7
ATOM      7  C   UNL     1       5.707   2.375   4.573  1.00  0.00     0.082 A 
ATOM      8  C   UNL     1       3.784   2.461   6.081  1.00  0.00     0.019 A 
ATOM      9  C   UNL     1       4.421   1.569   6.945  1.00  0.00     0.016 A 
ATOM     10  C   UNL     1       4.407   2.773   4.861  1.00  0.00     0.029 A 
ATOM     11  C   UNL     1       5.649   1.007   6.588  1.00  0.00     0.048 A 
ATOM     12  C   UNL     1       6.293   1.422   5.419  1.00  0.00     0.128 A 
BRANCH   8  13
ATOM     13  C   UNL     1       2.588   3.212   6.505  1.00  0.00     0.144 A 
ATOM     14  N   UNL     1       1.581   3.692   5.662  1.00  0.00    -0.300 N 
ATOM     15  C   UNL     1       0.995   4.749   6.324  1.00  0.00     0.113 A 
ATOM     16  C   UNL     1       1.517   4.728   7.592  1.00  0.00     0.132 A 
ATOM     17  N   UNL     1       2.468   3.754   7.709  1.00  0.00    -0.236 NA
BRANCH  14  18
ATOM     18  C   UNL     1       1.241   3.235   4.363  1.00  0.00     0.047 A 
ATOM     19  C   UNL     1       0.710   2.333   1.785  1.00  0.00     0.082 A 
ATOM     20  C   UNL     1       1.077   1.416   2.770  1.00  0.00     0.024 A 
ATOM     21  C   UNL     1       0.603   3.698   2.079  1.00  0.00     0.024 A 
ATOM     22  C   UNL     1       1.348   1.869   4.061  1.00  0.00     0.028 A 
ATOM     23  C   UNL     1       0.847   4.150   3.377  1.00  0.00     0.028 A 
BRANCH  19  24
ATOM     24  S   UNL     1       0.405   1.792   0.125  1.00  0.00     0.238 S 
ATOM     25  O   UNL     1       1.018   2.764  -0.762  1.00  0.00    -0.207 OA
ATOM     26  O   UNL     1      -0.977   1.420   0.041  1.00  0.00    -0.207 OA
BRANCH  24  27
ATOM     27  N   UNL     1       1.305   0.389  -0.019  1.00  0.00    -0.225 NA
ATOM     28  H   UNL     1       1.188   0.004  -0.956  1.00  0.00     0.137 HD
ATOM     29  H   UNL     1       0.987  -0.292   0.671  1.00  0.00     0.137 HD
ENDBRANCH  24  27
ENDBRANCH  19  24
ENDBRANCH  14  18
ENDBRANCH   8  13
BRANCH  12  30
ATOM     30  O   UNL     1       7.513   0.849   5.169  1.00  0.00    -0.507 OA
ATOM     31  H   UNL     1       7.864   0.216   5.764  1.00  0.00     0.293 HD
ENDBRANCH  12  30
ENDBRANCH   4   7
ENDBRANCH   2   3
ENDBRANCH   1   2
BRANCH   1  32
ATOM     32  C   UNL     1       6.660   7.399   2.472  1.00  0.00     0.023 C 
BRANCH  32  33
ATOM     33  C   UNL     1       5.844   7.734   1.230  1.00  0.00     0.116 C 
BRANCH  33  34
ATOM     34  N   UNL     1       4.633   8.511   1.506  1.00  0.00    -0.352 N 
ATOM     35  C   UNL     1       3.644   8.862   0.602  1.00  0.00     0.251 C 
ATOM     36  H   UNL     1       4.509   8.816   2.434  1.00  0.00     0.163 HD
ATOM     37  O   UNL     1       2.868   9.781   0.836  1.00  0.00    -0.269 OA
BRANCH  35  38
ATOM     38  C   UNL     1       3.549   8.097  -0.653  1.00  0.00     0.039 A 
ATOM     39  C   UNL     1       3.479   8.735  -1.893  1.00  0.00     0.014 A 
ATOM     40  C   UNL     1       3.628   6.709  -0.564  1.00  0.00     0.014 A 
ATOM     41  C   UNL     1       3.600   7.965  -3.048  1.00  0.00     0.010 A 
ATOM     42  C   UNL     1       3.888   5.972  -1.694  1.00  0.00     0.010 A 
ATOM     43  C   UNL     1       3.840   6.584  -2.942  1.00  0.00    -0.014 A 
BRANCH  43  44
ATOM     44  C   UNL     1       4.134   5.793  -4.133  1.00  0.00     0.031 A 
ATOM     45  C   UNL     1       5.232   6.308  -4.995  1.00  0.00     0.074 A 
ATOM     46  C   UNL     1       3.598   4.578  -4.376  1.00  0.00     0.049 A 
ATOM     47  N   UNL     1       5.118   6.890  -6.144  1.00  0.00    -0.248 NA
ATOM     48  C   UNL     1       6.605   6.286  -4.473  1.00  0.00     0.031 C 
ATOM     49  C   UNL     1       2.760   3.760  -3.493  1.00  0.00     0.029 A 
ATOM     50  N   UNL     1       3.800   3.756  -5.442  1.00  0.00    -0.354 N 
ATOM     51  C   UNL     1       6.420   7.085  -6.602  1.00  0.00     0.074 A 
ATOM     52  C   UNL     1       7.276   6.885  -5.462  1.00  0.00     0.031 C 
ATOM     53  C   UNL     1       2.741   2.486  -3.939  1.00  0.00     0.029 A 
ATOM     54  C   UNL     1       3.389   2.447  -5.234  1.00  0.00     0.049 A 
ATOM     55  H   UNL     1       4.202   4.064  -6.287  1.00  0.00     0.167 HD
ATOM     56  C   UNL     1       6.698   7.152  -7.936  1.00  0.00     0.034 A 
ATOM     57  C   UNL     1       3.585   1.397  -6.062  1.00  0.00     0.034 A 
ATOM     58  C   UNL     1       5.491   7.283  -8.715  1.00  0.00     0.049 A 
ATOM     59  C   UNL     1       3.801   1.951  -7.415  1.00  0.00     0.074 A 
ATOM     60  C   UNL     1       4.451   8.187  -8.787  1.00  0.00     0.029 A 
ATOM     61  N   UNL     1       5.047   6.145  -9.343  1.00  0.00    -0.354 N 
ATOM     62  N   UNL     1       2.885   2.591  -8.087  1.00  0.00    -0.248 NA
ATOM     63  C   UNL     1       5.165   2.144  -7.875  1.00  0.00     0.031 C 
ATOM     64  C   UNL     1       3.291   7.392  -9.030  1.00  0.00     0.029 A 
ATOM     65  C   UNL     1       3.696   6.060  -9.150  1.00  0.00     0.049 A 
ATOM     66  H   UNL     1       5.603   5.504  -9.842  1.00  0.00     0.167 HD
ATOM     67  C   UNL     1       3.578   3.605  -8.733  1.00  0.00     0.074 A 
ATOM     68  C   UNL     1       4.978   3.194  -8.678  1.00  0.00     0.031 C 
ATOM     69  C   UNL     1       2.985   4.809  -8.992  1.00  0.00     0.034 A 
BRANCH  56  70
ATOM     70  C   UNL     1       7.990   6.718  -8.600  1.00  0.00     0.023 A 
ATOM     71  C   UNL     1       8.122   6.987  -9.985  1.00  0.00     0.012 A 
ATOM     72  C   UNL     1       8.932   5.831  -8.034  1.00  0.00     0.148 A 
ATOM     73  C   UNL     1       9.089   6.353 -10.774  1.00  0.00     0.002 A 
ATOM     74  C   UNL     1       9.942   5.265  -8.807  1.00  0.00     0.091 A 
ATOM     75  F   UNL     1       8.789   5.415  -6.774  1.00  0.00    -0.205 F 
ATOM     76  C   UNL     1      10.004   5.494 -10.183  1.00  0.00     0.022 A 
BRANCH  74  77
ATOM     77  S   UNL     1      11.188   4.187  -8.087  1.00  0.00     0.127 S 
ATOM     78  O   UNL     1      10.759   2.880  -8.576  1.00  0.00    -0.237 OA
ATOM     79  O   UNL     1      12.416   4.704  -8.692  1.00  0.00    -0.237 OA
ATOM     80  O   UNL     1      11.098   4.397  -6.648  1.00  0.00    -0.744 OA
ENDBRANCH  74  77
ENDBRANCH  56  70
BRANCH  57  81
ATOM     81  C   UNL     1       3.829  -0.024  -5.739  1.00  0.00     0.023 A 
ATOM     82  C   UNL     1       3.605  -1.009  -6.720  1.00  0.00     0.012 A 
ATOM     83  C   UNL     1       4.556  -0.382  -4.582  1.00  0.00     0.148 A 
ATOM     84  C   UNL     1       4.133  -2.297  -6.578  1.00  0.00     0.002 A 
ATOM     85  C   UNL     1       5.075  -1.665  -4.444  1.00  0.00     0.091 A 
ATOM     86  F   UNL     1       4.814   0.560  -3.664  1.00  0.00    -0.205 F 
ATOM     87  C   UNL     1       4.880  -2.621  -5.448  1.00  0.00     0.022 A 
BRANCH  85  88
ATOM     88  S   UNL     1       6.051  -2.150  -3.015  1.00  0.00     0.127 S 
ATOM     89  O   UNL     1       5.442  -3.431  -2.655  1.00  0.00    -0.237 OA
ATOM     90  O   UNL     1       7.393  -2.244  -3.583  1.00  0.00    -0.237 OA
ATOM     91  O   UNL     1       5.847  -1.098  -2.026  1.00  0.00    -0.744 OA
ENDBRANCH  85  88
ENDBRANCH  57  81
BRANCH  69  92
ATOM     92  C   UNL     1       1.486   4.910  -8.849  1.00  0.00     0.023 A 
ATOM     93  C   UNL     1       0.826   4.730  -7.615  1.00  0.00     0.012 A 
ATOM     94  C   UNL     1       0.745   5.362  -9.954  1.00  0.00     0.148 A 
ATOM     95  C   UNL     1      -0.545   4.974  -7.495  1.00  0.00     0.002 A 
ATOM     96  C   UNL     1      -0.608   5.649  -9.819  1.00  0.00     0.091 A 
ATOM     97  F   UNL     1       1.387   5.532 -11.120  1.00  0.00    -0.205 F 
ATOM     98  C   UNL     1      -1.260   5.447  -8.593  1.00  0.00     0.022 A 
BRANCH  96  99
ATOM     99  S   UNL     1      -1.549   6.379 -11.161  1.00  0.00     0.127 S 
ATOM    100  O   UNL     1      -2.333   5.242 -11.639  1.00  0.00    -0.237 OA
ATOM    101  O   UNL     1      -2.325   7.414 -10.477  1.00  0.00    -0.237 OA
ATOM    102  O   UNL     1      -0.564   6.902 -12.101  1.00  0.00    -0.744 OA
ENDBRANCH  96  99
ENDBRANCH  69  92
ENDBRANCH  43  44
ENDBRANCH  35  38
ENDBRANCH  33  34
ENDBRANCH  32  33
ENDBRANCH   1  32
TORSDOF 19
