REMARK SMILES CCn1ccnc1[C@H](F)C(=O)NCCCCNC(=O)c1ccc(-c2c3nc(c(-c4cccc(S(=O)(=O)[O-])c4F)c4ccc([nH]4)c(-c4cccc(S(=O)(=O)[O-])c4F)c4nc(c(-c5cccc(S(=O)(=O)[O-])c5F)c5ccc2[nH]5)C=C4)C=C3)cc1
REMARK SMILES IDX 15 1 14 2 13 3 12 4 10 5 11 6 8 8 9 9 7 10 3 11 4 12 5 13
REMARK SMILES IDX 6 14 2 15 1 16 16 17 17 18 18 19 19 21 20 22 21 23 82 24
REMARK SMILES IDX 22 25 81 26 23 27 24 28 25 29 75 30 26 31 80 32 74 33 76 34
REMARK SMILES IDX 27 35 79 36 73 37 72 38 28 40 60 41 40 42 59 43 41 44 44 45
REMARK SMILES IDX 58 46 77 47 42 48 43 49 57 51 78 52 45 53 29 54 30 55 38 56
REMARK SMILES IDX 31 57 33 58 39 59 32 60 34 61 35 62 36 63 37 64 61 65 62 66
REMARK SMILES IDX 70 67 63 68 65 69 71 70 64 71 66 72 67 73 68 74 69 75 46 76
REMARK SMILES IDX 47 77 55 78 48 79 50 80 56 81 49 82 51 83 52 84 53 85 54 86
REMARK H PARENT 12 7 17 20 76 39 44 50
REMARK Flexibility Score: inf
ROOT
ATOM      1  C   UNL     1       0.219  -1.791   7.845  1.00  0.00     0.023 C 
ENDROOT
BRANCH   1   2
ATOM      2  C   UNL     1       1.090  -1.386   6.648  1.00  0.00     0.023 C 
BRANCH   2   3
ATOM      3  C   UNL     1       1.672  -2.526   5.806  1.00  0.00     0.116 C 
BRANCH   3   4
ATOM      4  N   UNL     1       0.647  -3.351   5.201  1.00  0.00    -0.353 N 
ATOM      5  C   UNL     1       0.553  -3.770   3.899  1.00  0.00     0.262 C 
ATOM      6  O   UNL     1      -0.433  -4.454   3.601  1.00  0.00    -0.271 OA
ATOM      7  H   UNL     1      -0.074  -3.650   5.801  1.00  0.00     0.163 HD
BRANCH   5   8
ATOM      8  C   UNL     1       1.534  -3.303   2.821  1.00  0.00     0.321 C 
ATOM      9  F   UNL     1       1.518  -1.936   2.682  1.00  0.00    -0.228 F 
BRANCH   8  10
ATOM     10  C   UNL     1       2.943  -3.778   3.033  1.00  0.00     0.153 A 
ATOM     11  N   UNL     1       3.938  -3.628   2.084  1.00  0.00    -0.332 N 
ATOM     12  C   UNL     1       5.112  -4.072   2.636  1.00  0.00     0.107 A 
ATOM     13  C   UNL     1       4.774  -4.536   3.881  1.00  0.00     0.131 A 
ATOM     14  N   UNL     1       3.452  -4.311   4.132  1.00  0.00    -0.238 NA
BRANCH  11  15
ATOM     15  C   UNL     1       3.815  -3.041   0.763  1.00  0.00     0.120 C 
ATOM     16  C   UNL     1       4.451  -3.871  -0.343  1.00  0.00     0.027 C 
ENDBRANCH  11  15
ENDBRANCH   8  10
ENDBRANCH   5   8
ENDBRANCH   3   4
ENDBRANCH   2   3
ENDBRANCH   1   2
BRANCH   1  17
ATOM     17  C   UNL     1       0.923  -2.648   8.886  1.00  0.00     0.116 C 
BRANCH  17  18
ATOM     18  N   UNL     1       2.018  -1.950   9.565  1.00  0.00    -0.352 N 
ATOM     19  C   UNL     1       2.877  -2.453  10.532  1.00  0.00     0.251 C 
ATOM     20  H   UNL     1       2.162  -1.012   9.304  1.00  0.00     0.163 HD
ATOM     21  O   UNL     1       3.488  -1.711  11.281  1.00  0.00    -0.269 OA
BRANCH  19  22
ATOM     22  C   UNL     1       3.036  -3.917  10.626  1.00  0.00     0.039 A 
ATOM     23  C   UNL     1       3.084  -4.579  11.857  1.00  0.00     0.014 A 
ATOM     24  C   UNL     1       3.086  -4.629   9.433  1.00  0.00     0.014 A 
ATOM     25  C   UNL     1       3.091  -5.973  11.868  1.00  0.00     0.010 A 
ATOM     26  C   UNL     1       2.904  -5.985   9.449  1.00  0.00     0.010 A 
ATOM     27  C   UNL     1       2.978  -6.671  10.656  1.00  0.00    -0.014 A 
BRANCH  27  28
ATOM     28  C   UNL     1       2.826  -8.121  10.623  1.00  0.00     0.031 A 
ATOM     29  C   UNL     1       1.704  -8.651  11.444  1.00  0.00     0.074 A 
ATOM     30  C   UNL     1       3.494  -8.898   9.740  1.00  0.00     0.049 A 
ATOM     31  N   UNL     1       1.789  -9.383  12.505  1.00  0.00    -0.248 NA
ATOM     32  C   UNL     1       0.336  -8.202  11.142  1.00  0.00     0.031 C 
ATOM     33  C   UNL     1       4.397  -8.470   8.662  1.00  0.00     0.029 A 
ATOM     34  N   UNL     1       3.373 -10.234   9.509  1.00  0.00    -0.354 N 
ATOM     35  C   UNL     1       0.477  -9.695  12.855  1.00  0.00     0.074 A 
ATOM     36  C   UNL     1      -0.357  -8.776  12.129  1.00  0.00     0.031 C 
ATOM     37  C   UNL     1       4.504  -9.455   7.746  1.00  0.00     0.029 A 
ATOM     38  C   UNL     1       3.837 -10.635   8.258  1.00  0.00     0.049 A 
ATOM     39  H   UNL     1       2.993 -10.860  10.167  1.00  0.00     0.167 HD
ATOM     40  C   UNL     1       0.181 -10.855  13.507  1.00  0.00     0.034 A 
ATOM     41  C   UNL     1       3.645 -11.838   7.665  1.00  0.00     0.034 A 
ATOM     42  C   UNL     1       1.375 -11.480  14.025  1.00  0.00     0.049 A 
ATOM     43  C   UNL     1       3.315 -12.800   8.742  1.00  0.00     0.074 A 
ATOM     44  C   UNL     1       2.391 -11.094  14.877  1.00  0.00     0.029 A 
ATOM     45  N   UNL     1       1.856 -12.566  13.332  1.00  0.00    -0.354 N 
ATOM     46  N   UNL     1       4.161 -13.156   9.667  1.00  0.00    -0.248 NA
ATOM     47  C   UNL     1       1.913 -13.021   9.054  1.00  0.00     0.031 C 
ATOM     48  C   UNL     1       3.574 -11.643  14.302  1.00  0.00     0.029 A 
ATOM     49  C   UNL     1       3.205 -12.396  13.185  1.00  0.00     0.049 A 
ATOM     50  H   UNL     1       1.325 -13.326  13.001  1.00  0.00     0.167 HD
ATOM     51  C   UNL     1       3.402 -13.180  10.830  1.00  0.00     0.074 A 
ATOM     52  C   UNL     1       2.013 -13.212  10.373  1.00  0.00     0.031 C 
ATOM     53  C   UNL     1       3.954 -12.865  12.039  1.00  0.00     0.034 A 
BRANCH  40  54
ATOM     54  C   UNL     1      -1.103 -11.647  13.365  1.00  0.00     0.023 A 
ATOM     55  C   UNL     1      -1.262 -12.767  14.216  1.00  0.00     0.012 A 
ATOM     56  C   UNL     1      -2.003 -11.540  12.281  1.00  0.00     0.148 A 
ATOM     57  C   UNL     1      -2.208 -13.764  13.957  1.00  0.00     0.002 A 
ATOM     58  C   UNL     1      -2.994 -12.494  12.072  1.00  0.00     0.091 A 
ATOM     59  F   UNL     1      -1.835 -10.592  11.358  1.00  0.00    -0.205 F 
ATOM     60  C   UNL     1      -3.078 -13.626  12.885  1.00  0.00     0.022 A 
BRANCH  58  61
ATOM     61  S   UNL     1      -4.178 -12.343  10.728  1.00  0.00     0.127 S 
ATOM     62  O   UNL     1      -3.697 -13.363   9.800  1.00  0.00    -0.237 OA
ATOM     63  O   UNL     1      -5.437 -12.661  11.402  1.00  0.00    -0.237 OA
ATOM     64  O   UNL     1      -4.078 -10.962  10.272  1.00  0.00    -0.744 OA
ENDBRANCH  58  61
ENDBRANCH  40  54
BRANCH  41  65
ATOM     65  C   UNL     1       3.521 -12.183   6.230  1.00  0.00     0.023 A 
ATOM     66  C   UNL     1       3.720 -13.513   5.812  1.00  0.00     0.012 A 
ATOM     67  C   UNL     1       2.941 -11.277   5.312  1.00  0.00     0.148 A 
ATOM     68  C   UNL     1       3.322 -13.938   4.538  1.00  0.00     0.002 A 
ATOM     69  C   UNL     1       2.555 -11.701   4.044  1.00  0.00     0.091 A 
ATOM     70  F   UNL     1       2.684 -10.025   5.716  1.00  0.00    -0.205 F 
ATOM     71  C   UNL     1       2.732 -13.035   3.658  1.00  0.00     0.022 A 
BRANCH  69  72
ATOM     72  S   UNL     1       1.764 -10.601   2.861  1.00  0.00     0.127 S 
ATOM     73  O   UNL     1       2.523 -10.871   1.639  1.00  0.00    -0.237 OA
ATOM     74  O   UNL     1       0.393 -11.103   2.853  1.00  0.00    -0.237 OA
ATOM     75  O   UNL     1       1.945  -9.256   3.391  1.00  0.00    -0.744 OA
ENDBRANCH  69  72
ENDBRANCH  41  65
BRANCH  53  76
ATOM     76  C   UNL     1       5.455 -12.733  12.131  1.00  0.00     0.023 A 
ATOM     77  C   UNL     1       6.177 -11.760  11.408  1.00  0.00     0.012 A 
ATOM     78  C   UNL     1       6.128 -13.482  13.112  1.00  0.00     0.148 A 
ATOM     79  C   UNL     1       7.540 -11.554  11.642  1.00  0.00     0.002 A 
ATOM     80  C   UNL     1       7.470 -13.241  13.377  1.00  0.00     0.091 A 
ATOM     81  F   UNL     1       5.429 -14.401  13.797  1.00  0.00    -0.205 F 
ATOM     82  C   UNL     1       8.183 -12.285  12.637  1.00  0.00     0.022 A 
BRANCH  80  83
ATOM     83  S   UNL     1       8.316 -14.054  14.734  1.00  0.00     0.127 S 
ATOM     84  O   UNL     1       9.134 -15.043  14.035  1.00  0.00    -0.237 OA
ATOM     85  O   UNL     1       9.070 -12.955  15.340  1.00  0.00    -0.237 OA
ATOM     86  O   UNL     1       7.269 -14.598  15.590  1.00  0.00    -0.744 OA
ENDBRANCH  80  83
ENDBRANCH  53  76
ENDBRANCH  27  28
ENDBRANCH  19  22
ENDBRANCH  17  18
ENDBRANCH   1  17
TORSDOF 16
