REMARK SMILES O=C(NCCCCNC(=O)[C@@H]1C=C[C@@H]([NH+]2CC3(CCOCC3)C2)C1)c1ccc(-c2c3nc(c(-c4cccc(S(=O)(=O)[O-])c4F)c4ccc([nH]4)c(-c4cccc(S(=O)(=O)[O-])c4F)c4nc(c(-c5cccc(S(=O)(=O)[O-])c5F)c5ccc2[nH]5)C=C4)C=C3)cc1
REMARK SMILES IDX 4 1 3 2 1 3 2 4 25 6 26 7 87 8 27 9 86 10 28 11 29 12 30 13
REMARK SMILES IDX 80 14 31 15 85 16 79 17 81 18 32 19 84 20 78 21 77 22 33 24
REMARK SMILES IDX 65 25 45 26 64 27 46 28 49 29 63 30 82 31 47 32 48 33 62 35
REMARK SMILES IDX 83 36 50 37 34 38 35 39 43 40 36 41 38 42 44 43 37 44 39 45
REMARK SMILES IDX 40 46 41 47 42 48 66 49 67 50 75 51 68 52 70 53 76 54 69 55
REMARK SMILES IDX 71 56 72 57 73 58 74 59 51 60 52 61 60 62 53 63 55 64 61 65
REMARK SMILES IDX 54 66 56 67 57 68 58 69 59 70 5 71 6 72 7 73 8 74 9 75 10 77
REMARK SMILES IDX 11 78 12 79 24 80 13 81 14 82 15 83 16 84 23 85 17 87 18 88
REMARK SMILES IDX 22 89 19 90 21 91 20 92
REMARK H PARENT 3 5 81 23 49 34 8 76 15 86
REMARK Flexibility Score: inf
ROOT
ATOM      1  C   UNL     1       1.209   7.487   3.056  1.00  0.00     0.116 C 
ENDROOT
BRANCH   1   2
ATOM      2  N   UNL     1       1.510   8.905   3.079  1.00  0.00    -0.352 N 
ATOM      3  O   UNL     1       0.977  11.103   3.091  1.00  0.00    -0.269 OA
ATOM      4  C   UNL     1       0.605   9.946   3.190  1.00  0.00     0.251 C 
ATOM      5  H   UNL     1       2.460   9.154   3.007  1.00  0.00     0.163 HD
BRANCH   4   6
ATOM      6  C   UNL     1      -0.821   9.607   3.386  1.00  0.00     0.039 A 
ATOM      7  C   UNL     1      -1.197   8.726   4.401  1.00  0.00     0.014 A 
ATOM      8  C   UNL     1      -1.772  10.131   2.510  1.00  0.00     0.014 A 
ATOM      9  C   UNL     1      -2.508   8.270   4.466  1.00  0.00     0.010 A 
ATOM     10  C   UNL     1      -3.106   9.729   2.624  1.00  0.00     0.010 A 
ATOM     11  C   UNL     1      -3.478   8.779   3.588  1.00  0.00    -0.014 A 
BRANCH  11  12
ATOM     12  C   UNL     1      -4.899   8.402   3.783  1.00  0.00     0.031 A 
ATOM     13  C   UNL     1      -5.654   7.609   2.756  1.00  0.00     0.074 A 
ATOM     14  C   UNL     1      -5.510   8.822   4.909  1.00  0.00     0.049 A 
ATOM     15  N   UNL     1      -6.899   7.209   2.787  1.00  0.00    -0.248 NA
ATOM     16  C   UNL     1      -4.930   7.217   1.536  1.00  0.00     0.031 C 
ATOM     17  C   UNL     1      -4.881   9.647   5.945  1.00  0.00     0.029 A 
ATOM     18  N   UNL     1      -6.788   8.635   5.364  1.00  0.00    -0.354 N 
ATOM     19  C   UNL     1      -7.124   6.559   1.581  1.00  0.00     0.074 A 
ATOM     20  C   UNL     1      -5.882   6.607   0.838  1.00  0.00     0.031 C 
ATOM     21  C   UNL     1      -5.773   9.892   6.914  1.00  0.00     0.029 A 
ATOM     22  C   UNL     1      -7.047   9.287   6.547  1.00  0.00     0.049 A 
ATOM     23  H   UNL     1      -7.456   8.086   4.892  1.00  0.00     0.167 HD
ATOM     24  C   UNL     1      -8.262   5.968   1.144  1.00  0.00     0.034 A 
ATOM     25  C   UNL     1      -8.190   9.415   7.245  1.00  0.00     0.034 A 
ATOM     26  C   UNL     1      -9.475   5.885   1.914  1.00  0.00     0.049 A 
ATOM     27  C   UNL     1      -9.425   8.730   6.740  1.00  0.00     0.074 A 
ATOM     28  C   UNL     1     -10.640   5.202   1.610  1.00  0.00     0.029 A 
ATOM     29  N   UNL     1      -9.690   6.519   3.128  1.00  0.00    -0.354 N 
ATOM     30  N   UNL     1      -9.567   7.968   5.683  1.00  0.00    -0.248 NA
ATOM     31  C   UNL     1     -10.651   8.904   7.529  1.00  0.00     0.031 C 
ATOM     32  C   UNL     1     -11.569   5.444   2.628  1.00  0.00     0.029 A 
ATOM     33  C   UNL     1     -10.978   6.269   3.571  1.00  0.00     0.049 A 
ATOM     34  H   UNL     1      -9.025   7.066   3.604  1.00  0.00     0.167 HD
ATOM     35  C   UNL     1     -10.896   7.567   5.682  1.00  0.00     0.074 A 
ATOM     36  C   UNL     1     -11.505   8.136   6.867  1.00  0.00     0.031 C 
ATOM     37  C   UNL     1     -11.559   6.817   4.768  1.00  0.00     0.034 A 
BRANCH  24  38
ATOM     38  C   UNL     1      -8.258   5.317  -0.213  1.00  0.00     0.023 A 
ATOM     39  C   UNL     1      -7.670   4.048  -0.372  1.00  0.00     0.012 A 
ATOM     40  C   UNL     1      -8.947   5.902  -1.295  1.00  0.00     0.148 A 
ATOM     41  C   UNL     1      -7.760   3.371  -1.588  1.00  0.00     0.002 A 
ATOM     42  C   UNL     1      -9.059   5.209  -2.495  1.00  0.00     0.091 A 
ATOM     43  F   UNL     1      -9.485   7.119  -1.126  1.00  0.00    -0.205 F 
ATOM     44  C   UNL     1      -8.463   3.945  -2.644  1.00  0.00     0.022 A 
BRANCH  42  45
ATOM     45  S   UNL     1      -9.999   5.830  -3.895  1.00  0.00     0.127 S 
ATOM     46  O   UNL     1      -8.938   6.109  -4.861  1.00  0.00    -0.237 OA
ATOM     47  O   UNL     1     -10.844   4.684  -4.231  1.00  0.00    -0.237 OA
ATOM     48  O   UNL     1     -10.721   6.998  -3.409  1.00  0.00    -0.744 OA
ENDBRANCH  42  45
ENDBRANCH  24  38
BRANCH  25  49
ATOM     49  C   UNL     1      -8.199  10.211   8.502  1.00  0.00     0.023 A 
ATOM     50  C   UNL     1      -8.355   9.558   9.739  1.00  0.00     0.012 A 
ATOM     51  C   UNL     1      -7.995  11.605   8.482  1.00  0.00     0.148 A 
ATOM     52  C   UNL     1      -8.326  10.282  10.931  1.00  0.00     0.002 A 
ATOM     53  C   UNL     1      -7.905  12.310   9.676  1.00  0.00     0.091 A 
ATOM     54  F   UNL     1      -7.872  12.217   7.295  1.00  0.00    -0.205 F 
ATOM     55  C   UNL     1      -8.087  11.654  10.902  1.00  0.00     0.022 A 
BRANCH  53  56
ATOM     56  S   UNL     1      -7.438  14.044   9.699  1.00  0.00     0.127 S 
ATOM     57  O   UNL     1      -8.738  14.708   9.718  1.00  0.00    -0.237 OA
ATOM     58  O   UNL     1      -6.675  14.149  10.944  1.00  0.00    -0.237 OA
ATOM     59  O   UNL     1      -6.634  14.229   8.498  1.00  0.00    -0.744 OA
ENDBRANCH  53  56
ENDBRANCH  25  49
BRANCH  37  60
ATOM     60  C   UNL     1     -13.025   6.586   5.006  1.00  0.00     0.023 A 
ATOM     61  C   UNL     1     -13.933   7.637   4.770  1.00  0.00     0.012 A 
ATOM     62  C   UNL     1     -13.510   5.325   5.402  1.00  0.00     0.148 A 
ATOM     63  C   UNL     1     -15.301   7.445   4.951  1.00  0.00     0.002 A 
ATOM     64  C   UNL     1     -14.879   5.129   5.540  1.00  0.00     0.091 A 
ATOM     65  F   UNL     1     -12.626   4.345   5.641  1.00  0.00    -0.205 F 
ATOM     66  C   UNL     1     -15.775   6.189   5.324  1.00  0.00     0.022 A 
BRANCH  64  67
ATOM     67  S   UNL     1     -15.583   3.525   5.937  1.00  0.00     0.127 S 
ATOM     68  O   UNL     1     -15.978   3.709   7.332  1.00  0.00    -0.237 OA
ATOM     69  O   UNL     1     -16.699   3.432   4.994  1.00  0.00    -0.237 OA
ATOM     70  O   UNL     1     -14.520   2.555   5.709  1.00  0.00    -0.744 OA
ENDBRANCH  64  67
ENDBRANCH  37  60
ENDBRANCH  11  12
ENDBRANCH   4   6
ENDBRANCH   1   2
BRANCH   1  71
ATOM     71  C   UNL     1       2.259   6.642   2.347  1.00  0.00     0.023 C 
BRANCH  71  72
ATOM     72  C   UNL     1       3.676   6.763   2.906  1.00  0.00     0.023 C 
BRANCH  72  73
ATOM     73  C   UNL     1       3.815   6.462   4.400  1.00  0.00     0.116 C 
BRANCH  73  74
ATOM     74  N   UNL     1       3.966   5.054   4.703  1.00  0.00    -0.356 N 
ATOM     75  C   UNL     1       5.028   4.313   5.118  1.00  0.00     0.227 C 
ATOM     76  H   UNL     1       3.140   4.532   4.585  1.00  0.00     0.163 HD
ATOM     77  O   UNL     1       4.760   3.187   5.559  1.00  0.00    -0.274 OA
BRANCH  75  78
ATOM     78  C   UNL     1       6.505   4.753   5.063  1.00  0.00     0.107 C 
ATOM     79  C   UNL     1       7.124   5.220   6.346  1.00  0.00    -0.012 C 
ATOM     80  C   UNL     1       6.935   5.838   4.085  1.00  0.00     0.087 C 
ATOM     81  C   UNL     1       7.636   6.456   6.241  1.00  0.00     0.033 C 
ATOM     82  C   UNL     1       7.284   7.086   4.925  1.00  0.00     0.208 C 
BRANCH  82  83
ATOM     83  N   UNL     1       8.203   8.118   4.442  1.00  0.00    -0.328 N 
ATOM     84  C   UNL     1       7.537   9.054   3.510  1.00  0.00     0.275 C 
ATOM     85  C   UNL     1       9.169   7.726   3.415  1.00  0.00     0.275 C 
ATOM     86  H   UNL     1       8.578   8.422   5.340  1.00  0.00     0.348 HD
ATOM     87  C   UNL     1       8.357   8.485   2.322  1.00  0.00     0.073 C 
ATOM     88  C   UNL     1       9.238   9.487   1.559  1.00  0.00     0.047 C 
ATOM     89  C   UNL     1       7.580   7.607   1.330  1.00  0.00     0.047 C 
ATOM     90  C   UNL     1       8.420  10.214   0.499  1.00  0.00     0.161 C 
ATOM     91  C   UNL     1       6.888   8.452   0.270  1.00  0.00     0.161 C 
ATOM     92  O   UNL     1       7.837   9.273  -0.402  1.00  0.00    -0.381 OA
ENDBRANCH  82  83
ENDBRANCH  75  78
ENDBRANCH  73  74
ENDBRANCH  72  73
ENDBRANCH  71  72
ENDBRANCH   1  71
TORSDOF 15
