REMARK SMILES CC(C)C[C@H](NC(=O)[C@H](C)NC(=O)[C@@H](NC(=O)CNC(=O)OCc1ccccc1)C(C)C)C(=O)NCCCCNC(=O)c1ccc(-c2c3nc(c(-c4cccc(S(=O)(=O)[O-])c4F)c4ccc([nH]4)c(-c4cccc(S(=O)(=O)[O-])c4F)c4nc(c(-c5cccc(S(=O)(=O)[O-])c5F)c5ccc2[nH]5)C=C4)C=C3)cc1
REMARK SMILES IDX 5 1 4 2 2 3 1 4 3 5 33 6 34 7 35 8 36 10 37 11 38 12 39 13
REMARK SMILES IDX 40 14 41 15 42 17 43 18 44 19 105 20 45 21 104 22 46 23
REMARK SMILES IDX 47 24 48 25 98 26 49 27 103 28 97 29 99 30 50 31 102 32
REMARK SMILES IDX 96 33 95 34 51 36 83 37 63 38 82 39 64 40 67 41 81 42 100 43
REMARK SMILES IDX 65 44 66 45 80 47 101 48 68 49 52 50 53 51 61 52 54 53 56 54
REMARK SMILES IDX 62 55 55 56 57 57 58 58 59 59 60 60 84 61 85 62 93 63 86 64
REMARK SMILES IDX 88 65 94 66 87 67 89 68 90 69 91 70 92 71 69 72 70 73 78 74
REMARK SMILES IDX 71 75 73 76 79 77 72 78 74 79 75 80 76 81 77 82 6 83 7 84
REMARK SMILES IDX 8 86 9 87 10 88 11 89 12 90 13 92 14 93 15 94 16 95 17 97
REMARK SMILES IDX 18 98 19 99 20 100 21 102 22 103 23 104 24 105 25 106 29 107
REMARK SMILES IDX 26 108 28 109 27 110 30 111 31 112 32 113
REMARK H PARENT 35 9 40 16 99 35 67 46 6 85 11 91 15 96 19 101
REMARK Flexibility Score: inf
ROOT
ATOM      1  C   UNL     1       2.371   1.450  -1.758  1.00  0.00     0.171 C 
ENDROOT
BRANCH   1   2
ATOM      2  C   UNL     1       2.405   0.136  -2.554  1.00  0.00     0.038 C 
BRANCH   2   3
ATOM      3  C   UNL     1       3.334  -0.901  -1.877  1.00  0.00    -0.015 C 
ATOM      4  C   UNL     1       2.675  -1.564  -0.664  1.00  0.00     0.007 C 
ATOM      5  C   UNL     1       3.747  -1.979  -2.874  1.00  0.00     0.007 C 
ENDBRANCH   2   3
ENDBRANCH   1   2
BRANCH   1   6
ATOM      6  C   UNL     1       3.627   2.294  -2.071  1.00  0.00     0.242 C 
ATOM      7  O   UNL     1       4.465   2.532  -1.198  1.00  0.00    -0.273 OA
ATOM      8  N   UNL     1       3.958   2.696  -3.316  1.00  0.00    -0.354 N 
ATOM      9  H   UNL     1       4.922   2.680  -3.513  1.00  0.00     0.163 HD
BRANCH   8  10
ATOM     10  C   UNL     1       3.125   3.144  -4.401  1.00  0.00     0.116 C 
BRANCH  10  11
ATOM     11  C   UNL     1       2.960   4.666  -4.345  1.00  0.00     0.023 C 
BRANCH  11  12
ATOM     12  C   UNL     1       4.247   5.494  -4.176  1.00  0.00     0.023 C 
BRANCH  12  13
ATOM     13  C   UNL     1       5.456   5.112  -5.027  1.00  0.00     0.116 C 
BRANCH  13  14
ATOM     14  N   UNL     1       5.151   4.875  -6.424  1.00  0.00    -0.352 N 
ATOM     15  C   UNL     1       5.979   5.000  -7.512  1.00  0.00     0.251 C 
ATOM     16  H   UNL     1       4.230   4.587  -6.618  1.00  0.00     0.163 HD
ATOM     17  O   UNL     1       5.554   4.746  -8.636  1.00  0.00    -0.269 OA
BRANCH  15  18
ATOM     18  C   UNL     1       7.355   5.508  -7.332  1.00  0.00     0.039 A 
ATOM     19  C   UNL     1       7.753   6.598  -8.109  1.00  0.00     0.014 A 
ATOM     20  C   UNL     1       8.227   4.954  -6.390  1.00  0.00     0.014 A 
ATOM     21  C   UNL     1       9.006   7.174  -7.901  1.00  0.00     0.010 A 
ATOM     22  C   UNL     1       9.453   5.568  -6.143  1.00  0.00     0.010 A 
ATOM     23  C   UNL     1       9.854   6.683  -6.895  1.00  0.00    -0.014 A 
BRANCH  23  24
ATOM     24  C   UNL     1      11.154   7.342  -6.617  1.00  0.00     0.031 A 
ATOM     25  C   UNL     1      12.443   6.608  -6.862  1.00  0.00     0.074 A 
ATOM     26  C   UNL     1      11.169   8.580  -6.084  1.00  0.00     0.049 A 
ATOM     27  N   UNL     1      13.670   7.011  -6.664  1.00  0.00    -0.248 NA
ATOM     28  C   UNL     1      12.339   5.232  -7.375  1.00  0.00     0.031 C 
ATOM     29  C   UNL     1       9.982   9.359  -5.725  1.00  0.00     0.029 A 
ATOM     30  N   UNL     1      12.218   9.391  -5.730  1.00  0.00    -0.354 N 
ATOM     31  C   UNL     1      14.482   5.935  -6.998  1.00  0.00     0.074 A 
ATOM     32  C   UNL     1      13.607   4.847  -7.377  1.00  0.00     0.031 C 
ATOM     33  C   UNL     1      10.368  10.535  -5.204  1.00  0.00     0.029 A 
ATOM     34  C   UNL     1      11.826  10.586  -5.171  1.00  0.00     0.049 A 
ATOM     35  H   UNL     1      13.161   9.142  -5.863  1.00  0.00     0.167 HD
ATOM     36  C   UNL     1      15.835   5.867  -7.020  1.00  0.00     0.034 A 
ATOM     37  C   UNL     1      12.561  11.606  -4.685  1.00  0.00     0.034 A 
ATOM     38  C   UNL     1      16.699   6.966  -6.682  1.00  0.00     0.049 A 
ATOM     39  C   UNL     1      14.061  11.526  -4.769  1.00  0.00     0.074 A 
ATOM     40  C   UNL     1      18.079   7.027  -6.749  1.00  0.00     0.029 A 
ATOM     41  N   UNL     1      16.266   8.195  -6.209  1.00  0.00    -0.354 N 
ATOM     42  N   UNL     1      14.810  10.559  -5.242  1.00  0.00    -0.248 NA
ATOM     43  C   UNL     1      14.818  12.692  -4.291  1.00  0.00     0.031 C 
ATOM     44  C   UNL     1      18.482   8.290  -6.301  1.00  0.00     0.029 A 
ATOM     45  C   UNL     1      17.351   9.022  -5.976  1.00  0.00     0.049 A 
ATOM     46  H   UNL     1      15.325   8.443  -6.061  1.00  0.00     0.167 HD
ATOM     47  C   UNL     1      16.121  11.011  -5.150  1.00  0.00     0.074 A 
ATOM     48  C   UNL     1      16.062  12.349  -4.597  1.00  0.00     0.031 C 
ATOM     49  C   UNL     1      17.271  10.371  -5.477  1.00  0.00     0.034 A 
BRANCH  36  50
ATOM     50  C   UNL     1      16.461   4.578  -7.484  1.00  0.00     0.023 A 
ATOM     51  C   UNL     1      16.385   4.223  -8.847  1.00  0.00     0.012 A 
ATOM     52  C   UNL     1      17.163   3.745  -6.592  1.00  0.00     0.148 A 
ATOM     53  C   UNL     1      16.965   3.042  -9.308  1.00  0.00     0.002 A 
ATOM     54  C   UNL     1      17.777   2.591  -7.067  1.00  0.00     0.091 A 
ATOM     55  F   UNL     1      17.207   4.087  -5.296  1.00  0.00    -0.205 F 
ATOM     56  C   UNL     1      17.669   2.233  -8.421  1.00  0.00     0.022 A 
BRANCH  54  57
ATOM     57  S   UNL     1      18.770   1.520  -6.022  1.00  0.00     0.127 S 
ATOM     58  O   UNL     1      17.908   0.346  -5.899  1.00  0.00    -0.237 OA
ATOM     59  O   UNL     1      19.966   1.314  -6.840  1.00  0.00    -0.237 OA
ATOM     60  O   UNL     1      18.998   2.261  -4.790  1.00  0.00    -0.744 OA
ENDBRANCH  54  57
ENDBRANCH  36  50
BRANCH  37  61
ATOM     61  C   UNL     1      11.883  12.819  -4.144  1.00  0.00     0.023 A 
ATOM     62  C   UNL     1      11.946  14.027  -4.865  1.00  0.00     0.012 A 
ATOM     63  C   UNL     1      11.151  12.775  -2.942  1.00  0.00     0.148 A 
ATOM     64  C   UNL     1      11.319  15.177  -4.384  1.00  0.00     0.002 A 
ATOM     65  C   UNL     1      10.482  13.909  -2.497  1.00  0.00     0.091 A 
ATOM     66  F   UNL     1      11.112  11.620  -2.264  1.00  0.00    -0.205 F 
ATOM     67  C   UNL     1      10.579  15.116  -3.207  1.00  0.00     0.022 A 
BRANCH  65  68
ATOM     68  S   UNL     1       9.398  13.886  -1.064  1.00  0.00     0.127 S 
ATOM     69  O   UNL     1      10.183  14.628  -0.082  1.00  0.00    -0.237 OA
ATOM     70  O   UNL     1       8.216  14.587  -1.566  1.00  0.00    -0.237 OA
ATOM     71  O   UNL     1       9.174  12.477  -0.766  1.00  0.00    -0.744 OA
ENDBRANCH  65  68
ENDBRANCH  37  61
BRANCH  49  72
ATOM     72  C   UNL     1      18.565  11.115  -5.276  1.00  0.00     0.023 A 
ATOM     73  C   UNL     1      19.061  11.315  -3.973  1.00  0.00     0.012 A 
ATOM     74  C   UNL     1      19.327  11.543  -6.381  1.00  0.00     0.148 A 
ATOM     75  C   UNL     1      20.282  11.957  -3.772  1.00  0.00     0.002 A 
ATOM     76  C   UNL     1      20.565  12.138  -6.175  1.00  0.00     0.091 A 
ATOM     77  F   UNL     1      18.827  11.360  -7.613  1.00  0.00    -0.205 F 
ATOM     78  C   UNL     1      21.039  12.357  -4.871  1.00  0.00     0.022 A 
BRANCH  76  79
ATOM     79  S   UNL     1      21.649  12.597  -7.532  1.00  0.00     0.127 S 
ATOM     80  O   UNL     1      21.528  14.053  -7.531  1.00  0.00    -0.237 OA
ATOM     81  O   UNL     1      22.946  12.092  -7.078  1.00  0.00    -0.237 OA
ATOM     82  O   UNL     1      21.121  11.925  -8.711  1.00  0.00    -0.744 OA
ENDBRANCH  76  79
ENDBRANCH  49  72
ENDBRANCH  23  24
ENDBRANCH  15  18
ENDBRANCH  13  14
ENDBRANCH  12  13
ENDBRANCH  11  12
ENDBRANCH  10  11
ENDBRANCH   8  10
ENDBRANCH   1   6
BRANCH   1  83
ATOM     83  N   UNL     1       1.077   2.129  -1.841  1.00  0.00    -0.343 N 
ATOM     84  C   UNL     1      -0.048   1.950  -1.072  1.00  0.00     0.242 C 
ATOM     85  H   UNL     1       1.001   2.809  -2.548  1.00  0.00     0.164 HD
ATOM     86  O   UNL     1      -1.072   2.572  -1.369  1.00  0.00    -0.273 OA
BRANCH  84  87
ATOM     87  C   UNL     1      -0.048   0.938   0.107  1.00  0.00     0.168 C 
ATOM     88  C   UNL     1      -0.754  -0.330  -0.375  1.00  0.00     0.041 C 
BRANCH  87  89
ATOM     89  N   UNL     1      -0.786   1.478   1.251  1.00  0.00    -0.343 N 
ATOM     90  C   UNL     1      -0.567   1.537   2.587  1.00  0.00     0.243 C 
ATOM     91  H   UNL     1      -1.639   1.895   0.989  1.00  0.00     0.164 HD
ATOM     92  O   UNL     1      -1.594   1.630   3.277  1.00  0.00    -0.273 OA
BRANCH  90  93
ATOM     93  C   UNL     1       0.825   1.689   3.292  1.00  0.00     0.174 C 
BRANCH  93  94
ATOM     94  N   UNL     1       1.954   0.928   2.716  1.00  0.00    -0.343 N 
ATOM     95  C   UNL     1       3.179   1.222   2.188  1.00  0.00     0.240 C 
ATOM     96  H   UNL     1       1.778  -0.040   2.712  1.00  0.00     0.164 HD
ATOM     97  O   UNL     1       3.973   0.278   2.124  1.00  0.00    -0.273 OA
BRANCH  95  98
ATOM     98  C   UNL     1       3.592   2.633   1.744  1.00  0.00     0.219 C 
BRANCH  98  99
ATOM     99  N   UNL     1       2.510   3.164   0.952  1.00  0.00    -0.312 N 
ATOM    100  C   UNL     1       2.076   4.417   0.728  1.00  0.00     0.407 C 
ATOM    101  H   UNL     1       1.988   2.474   0.483  1.00  0.00     0.167 HD
ATOM    102  O   UNL     1       0.976   4.531   0.197  1.00  0.00    -0.225 OA
BRANCH 100 103
ATOM    103  O   UNL     1       2.819   5.400   1.264  1.00  0.00    -0.445 OA
BRANCH 103 104
ATOM    104  C   UNL     1       2.081   6.612   1.492  1.00  0.00     0.270 C 
BRANCH 104 105
ATOM    105  C   UNL     1       1.894   7.499   0.282  1.00  0.00    -0.011 A 
ATOM    106  C   UNL     1       2.767   8.565   0.042  1.00  0.00     0.007 A 
ATOM    107  C   UNL     1       0.820   7.306  -0.604  1.00  0.00     0.007 A 
ATOM    108  C   UNL     1       2.569   9.411  -1.053  1.00  0.00     0.000 A 
ATOM    109  C   UNL     1       0.641   8.129  -1.715  1.00  0.00     0.000 A 
ATOM    110  C   UNL     1       1.513   9.187  -1.936  1.00  0.00     0.000 A 
ENDBRANCH 104 105
ENDBRANCH 103 104
ENDBRANCH 100 103
ENDBRANCH  98  99
ENDBRANCH  95  98
ENDBRANCH  93  94
BRANCH  93 111
ATOM    111  C   UNL     1       1.102   3.155   3.740  1.00  0.00     0.015 C 
ATOM    112  C   UNL     1      -0.100   3.863   4.377  1.00  0.00     0.010 C 
ATOM    113  C   UNL     1       2.304   3.300   4.684  1.00  0.00     0.010 C 
ENDBRANCH  93 111
ENDBRANCH  90  93
ENDBRANCH  87  89
ENDBRANCH  84  87
ENDBRANCH   1  83
TORSDOF 27
