REMARK SMILES CC(C)Cc1ccc([C@H](C)C(=O)NCCCCNC(=O)c2ccc(-c3c4nc(c(-c5cccc(S(=O)(=O)[O-])c5F)c5ccc([nH]5)c(-c5cccc(S(=O)(=O)[O-])c5F)c5nc(c(-c6cccc(S(=O)(=O)[O-])c6F)c6ccc3[nH]6)C=C5)C=C4)cc2)cc1
REMARK SMILES IDX 15 1 14 2 13 3 11 4 12 5 9 7 10 8 8 9 5 10 6 11 85 12 7 13
REMARK SMILES IDX 84 14 4 15 2 16 1 17 3 18 16 19 17 20 18 21 19 22 20 24
REMARK SMILES IDX 21 25 22 26 83 27 23 28 82 29 24 30 25 31 26 32 76 33 27 34
REMARK SMILES IDX 81 35 75 36 77 37 28 38 80 39 74 40 73 41 29 43 61 44 41 45
REMARK SMILES IDX 60 46 42 47 45 48 59 49 78 50 43 51 44 52 58 54 79 55 46 56
REMARK SMILES IDX 30 57 31 58 39 59 32 60 34 61 40 62 33 63 35 64 36 65 37 66
REMARK SMILES IDX 38 67 62 68 63 69 71 70 64 71 66 72 72 73 65 74 67 75 68 76
REMARK SMILES IDX 69 77 70 78 47 79 48 80 56 81 49 82 51 83 57 84 50 85 52 86
REMARK SMILES IDX 53 87 54 88 55 89
REMARK H PARENT 13 6 18 23 77 42 45 53
REMARK Flexibility Score: inf
ROOT
ATOM      1  C   UNL     1      -2.205   4.333  -3.038  1.00  0.00     0.023 C 
ENDROOT
BRANCH   1   2
ATOM      2  C   UNL     1      -1.846   4.987  -1.712  1.00  0.00     0.116 C 
BRANCH   2   3
ATOM      3  N   UNL     1      -2.997   5.388  -0.923  1.00  0.00    -0.356 N 
ATOM      4  C   UNL     1      -3.164   5.486   0.429  1.00  0.00     0.227 C 
ATOM      5  O   UNL     1      -4.172   6.085   0.820  1.00  0.00    -0.274 OA
ATOM      6  H   UNL     1      -3.792   5.630  -1.452  1.00  0.00     0.163 HD
BRANCH   4   7
ATOM      7  C   UNL     1      -2.194   4.877   1.453  1.00  0.00     0.105 C 
ATOM      8  C   UNL     1      -1.996   3.373   1.255  1.00  0.00     0.023 C 
BRANCH   7   9
ATOM      9  C   UNL     1      -0.892   5.627   1.699  1.00  0.00    -0.036 A 
ATOM     10  C   UNL     1       1.538   7.006   2.199  1.00  0.00    -0.048 A 
ATOM     11  C   UNL     1       0.894   7.107   0.967  1.00  0.00     0.004 A 
ATOM     12  C   UNL     1       0.984   6.169   3.173  1.00  0.00     0.004 A 
ATOM     13  C   UNL     1      -0.328   6.482   0.754  1.00  0.00     0.005 A 
ATOM     14  C   UNL     1      -0.208   5.474   2.918  1.00  0.00     0.005 A 
BRANCH  10  15
ATOM     15  C   UNL     1       2.768   7.843   2.467  1.00  0.00     0.038 C 
BRANCH  15  16
ATOM     16  C   UNL     1       2.576   9.333   2.092  1.00  0.00    -0.013 C 
ATOM     17  C   UNL     1       1.476   9.994   2.927  1.00  0.00     0.008 C 
ATOM     18  C   UNL     1       3.887  10.103   2.234  1.00  0.00     0.008 C 
ENDBRANCH  15  16
ENDBRANCH  10  15
ENDBRANCH   7   9
ENDBRANCH   4   7
ENDBRANCH   2   3
ENDBRANCH   1   2
BRANCH   1  19
ATOM     19  C   UNL     1      -2.896   5.250  -4.051  1.00  0.00     0.023 C 
BRANCH  19  20
ATOM     20  C   UNL     1      -2.243   6.610  -4.302  1.00  0.00     0.116 C 
BRANCH  20  21
ATOM     21  N   UNL     1      -0.848   6.528  -4.719  1.00  0.00    -0.352 N 
ATOM     22  C   UNL     1      -0.231   7.087  -5.814  1.00  0.00     0.251 C 
ATOM     23  H   UNL     1      -0.264   5.995  -4.132  1.00  0.00     0.163 HD
ATOM     24  O   UNL     1       0.951   6.849  -6.046  1.00  0.00    -0.269 OA
BRANCH  22  25
ATOM     25  C   UNL     1      -1.011   7.939  -6.736  1.00  0.00     0.039 A 
ATOM     26  C   UNL     1      -1.023   7.624  -8.097  1.00  0.00     0.014 A 
ATOM     27  C   UNL     1      -1.777   9.001  -6.249  1.00  0.00     0.014 A 
ATOM     28  C   UNL     1      -1.887   8.307  -8.955  1.00  0.00     0.010 A 
ATOM     29  C   UNL     1      -2.686   9.634  -7.093  1.00  0.00     0.010 A 
ATOM     30  C   UNL     1      -2.767   9.279  -8.449  1.00  0.00    -0.014 A 
BRANCH  30  31
ATOM     31  C   UNL     1      -3.826   9.882  -9.300  1.00  0.00     0.031 A 
ATOM     32  C   UNL     1      -3.840  11.360  -9.572  1.00  0.00     0.074 A 
ATOM     33  C   UNL     1      -4.844   9.109  -9.731  1.00  0.00     0.049 A 
ATOM     34  N   UNL     1      -4.727  12.069 -10.221  1.00  0.00    -0.248 NA
ATOM     35  C   UNL     1      -2.726  12.150  -9.022  1.00  0.00     0.031 C 
ATOM     36  C   UNL     1      -4.993   7.677  -9.459  1.00  0.00     0.029 A 
ATOM     37  N   UNL     1      -5.964   9.424 -10.460  1.00  0.00    -0.354 N 
ATOM     38  C   UNL     1      -4.301  13.388 -10.129  1.00  0.00     0.074 A 
ATOM     39  C   UNL     1      -3.090  13.385  -9.336  1.00  0.00     0.031 C 
ATOM     40  C   UNL     1      -6.136   7.240 -10.012  1.00  0.00     0.029 A 
ATOM     41  C   UNL     1      -6.816   8.361 -10.652  1.00  0.00     0.049 A 
ATOM     42  H   UNL     1      -6.141  10.326 -10.813  1.00  0.00     0.167 HD
ATOM     43  C   UNL     1      -4.851  14.497 -10.679  1.00  0.00     0.034 A 
ATOM     44  C   UNL     1      -8.015   8.294 -11.265  1.00  0.00     0.034 A 
ATOM     45  C   UNL     1      -6.027  14.491 -11.505  1.00  0.00     0.049 A 
ATOM     46  C   UNL     1      -8.582   9.535 -11.899  1.00  0.00     0.074 A 
ATOM     47  C   UNL     1      -6.601  15.548 -12.191  1.00  0.00     0.029 A 
ATOM     48  N   UNL     1      -6.816  13.379 -11.753  1.00  0.00    -0.354 N 
ATOM     49  N   UNL     1      -8.072  10.741 -11.951  1.00  0.00    -0.248 NA
ATOM     50  C   UNL     1      -9.874   9.399 -12.589  1.00  0.00     0.031 C 
ATOM     51  C   UNL     1      -7.747  15.077 -12.840  1.00  0.00     0.029 A 
ATOM     52  C   UNL     1      -7.878  13.724 -12.572  1.00  0.00     0.049 A 
ATOM     53  H   UNL     1      -6.646  12.476 -11.400  1.00  0.00     0.167 HD
ATOM     54  C   UNL     1      -8.963  11.500 -12.700  1.00  0.00     0.074 A 
ATOM     55  C   UNL     1     -10.033  10.611 -13.104  1.00  0.00     0.031 C 
ATOM     56  C   UNL     1      -8.909  12.819 -13.011  1.00  0.00     0.034 A 
BRANCH  43  57
ATOM     57  C   UNL     1      -4.144  15.808 -10.459  1.00  0.00     0.023 A 
ATOM     58  C   UNL     1      -2.930  16.059 -11.132  1.00  0.00     0.012 A 
ATOM     59  C   UNL     1      -4.701  16.811  -9.643  1.00  0.00     0.148 A 
ATOM     60  C   UNL     1      -2.267  17.274 -10.973  1.00  0.00     0.002 A 
ATOM     61  C   UNL     1      -4.054  18.036  -9.521  1.00  0.00     0.091 A 
ATOM     62  F   UNL     1      -5.844  16.547  -8.993  1.00  0.00    -0.205 F 
ATOM     63  C   UNL     1      -2.833  18.265 -10.177  1.00  0.00     0.022 A 
BRANCH  61  64
ATOM     64  S   UNL     1      -4.740  19.403  -8.578  1.00  0.00     0.127 S 
ATOM     65  O   UNL     1      -3.869  19.417  -7.404  1.00  0.00    -0.237 OA
ATOM     66  O   UNL     1      -4.551  20.533  -9.489  1.00  0.00    -0.237 OA
ATOM     67  O   UNL     1      -6.131  19.056  -8.324  1.00  0.00    -0.744 OA
ENDBRANCH  61  64
ENDBRANCH  43  57
BRANCH  44  68
ATOM     68  C   UNL     1      -8.726   6.988 -11.368  1.00  0.00     0.023 A 
ATOM     69  C   UNL     1      -8.813   6.351 -12.621  1.00  0.00     0.012 A 
ATOM     70  C   UNL     1      -9.282   6.359 -10.238  1.00  0.00     0.148 A 
ATOM     71  C   UNL     1      -9.466   5.125 -12.753  1.00  0.00     0.002 A 
ATOM     72  C   UNL     1      -9.884   5.112 -10.367  1.00  0.00     0.091 A 
ATOM     73  F   UNL     1      -9.203   6.988  -9.057  1.00  0.00    -0.205 F 
ATOM     74  C   UNL     1      -9.991   4.501 -11.625  1.00  0.00     0.022 A 
BRANCH  72  75
ATOM     75  S   UNL     1     -10.465   4.176  -8.947  1.00  0.00     0.127 S 
ATOM     76  O   UNL     1     -11.914   4.308  -9.075  1.00  0.00    -0.237 OA
ATOM     77  O   UNL     1      -9.940   2.839  -9.228  1.00  0.00    -0.237 OA
ATOM     78  O   UNL     1      -9.867   4.820  -7.785  1.00  0.00    -0.744 OA
ENDBRANCH  72  75
ENDBRANCH  44  68
BRANCH  56  79
ATOM     79  C   UNL     1     -10.028  13.387 -13.844  1.00  0.00     0.023 A 
ATOM     80  C   UNL     1     -11.291  13.600 -13.259  1.00  0.00     0.012 A 
ATOM     81  C   UNL     1      -9.806  13.785 -15.177  1.00  0.00     0.148 A 
ATOM     82  C   UNL     1     -12.326  14.176 -13.995  1.00  0.00     0.002 A 
ATOM     83  C   UNL     1     -10.828  14.399 -15.891  1.00  0.00     0.091 A 
ATOM     84  F   UNL     1      -8.602  13.556 -15.722  1.00  0.00    -0.205 F 
ATOM     85  C   UNL     1     -12.091  14.586 -15.306  1.00  0.00     0.022 A 
BRANCH  83  86
ATOM     86  S   UNL     1     -10.591  15.043 -17.552  1.00  0.00     0.127 S 
ATOM     87  O   UNL     1     -11.327  14.069 -18.357  1.00  0.00    -0.237 OA
ATOM     88  O   UNL     1     -11.218  16.362 -17.468  1.00  0.00    -0.237 OA
ATOM     89  O   UNL     1      -9.151  15.072 -17.768  1.00  0.00    -0.744 OA
ENDBRANCH  83  86
ENDBRANCH  56  79
ENDBRANCH  30  31
ENDBRANCH  22  25
ENDBRANCH  20  21
ENDBRANCH  19  20
ENDBRANCH   1  19
TORSDOF 17
