REMARK SMILES O=C(NCCCCNC(=O)c1ccc(C(F)(F)F)nc1NC[C@@H]1CCOC1)c1ccc(-c2c3nc(c(-c4cccc(S(=O)(=O)[O-])c4F)c4ccc([nH]4)c(-c4cccc(S(=O)(=O)[O-])c4F)c4nc(c(-c5cccc(S(=O)(=O)[O-])c5F)c5ccc2[nH]5)C=C4)C=C3)cc1
REMARK SMILES IDX 5 1 4 2 3 3 1 4 2 5 28 7 29 8 90 9 30 10 89 11 31 12 32 13
REMARK SMILES IDX 33 14 83 15 34 16 88 17 82 18 84 19 35 20 87 21 81 22 80 23
REMARK SMILES IDX 36 25 68 26 48 27 67 28 49 29 52 30 66 31 85 32 50 33 51 34
REMARK SMILES IDX 65 36 86 37 53 38 37 39 38 40 46 41 39 42 41 43 47 44 40 45
REMARK SMILES IDX 42 46 43 47 44 48 45 49 69 50 70 51 78 52 71 53 73 54 79 55
REMARK SMILES IDX 72 56 74 57 75 58 76 59 77 60 54 61 55 62 63 63 56 64 58 65
REMARK SMILES IDX 64 66 57 67 59 68 60 69 61 70 62 71 6 72 7 73 8 74 9 75
REMARK SMILES IDX 10 77 11 78 12 79 20 80 13 81 19 82 14 83 21 84 22 86 23 87
REMARK SMILES IDX 24 88 27 89 25 90 26 91 15 92 16 93 17 94 18 95
REMARK H PARENT 3 6 84 24 52 35 8 76 21 85
REMARK Flexibility Score: inf
ROOT
ATOM      1  C   UNL     1       4.820  -1.717  -2.053  1.00  0.00     0.023 C 
ENDROOT
BRANCH   1   2
ATOM      2  C   UNL     1       4.489  -0.479  -1.229  1.00  0.00     0.116 C 
BRANCH   2   3
ATOM      3  N   UNL     1       3.060  -0.240  -1.107  1.00  0.00    -0.352 N 
ATOM      4  O   UNL     1       1.087   0.032  -0.057  1.00  0.00    -0.269 OA
ATOM      5  C   UNL     1       2.311  -0.025   0.026  1.00  0.00     0.251 C 
ATOM      6  H   UNL     1       2.559  -0.231  -1.954  1.00  0.00     0.163 HD
BRANCH   5   7
ATOM      7  C   UNL     1       2.982   0.100   1.339  1.00  0.00     0.039 A 
ATOM      8  C   UNL     1       4.119   0.899   1.486  1.00  0.00     0.014 A 
ATOM      9  C   UNL     1       2.473  -0.604   2.434  1.00  0.00     0.014 A 
ATOM     10  C   UNL     1       4.830   0.874   2.681  1.00  0.00     0.010 A 
ATOM     11  C   UNL     1       3.144  -0.560   3.660  1.00  0.00     0.010 A 
ATOM     12  C   UNL     1       4.348   0.150   3.784  1.00  0.00    -0.014 A 
BRANCH  12  13
ATOM     13  C   UNL     1       5.084   0.211   5.073  1.00  0.00     0.031 A 
ATOM     14  C   UNL     1       5.715  -1.013   5.677  1.00  0.00     0.074 A 
ATOM     15  C   UNL     1       5.179   1.399   5.702  1.00  0.00     0.049 A 
ATOM     16  N   UNL     1       6.418  -1.114   6.776  1.00  0.00    -0.248 NA
ATOM     17  C   UNL     1       5.530  -2.289   4.968  1.00  0.00     0.031 C 
ATOM     18  C   UNL     1       4.560   2.644   5.239  1.00  0.00     0.029 A 
ATOM     19  N   UNL     1       5.822   1.758   6.858  1.00  0.00    -0.354 N 
ATOM     20  C   UNL     1       6.724  -2.463   6.915  1.00  0.00     0.074 A 
ATOM     21  C   UNL     1       6.127  -3.146   5.787  1.00  0.00     0.031 C 
ATOM     22  C   UNL     1       4.873   3.633   6.088  1.00  0.00     0.029 A 
ATOM     23  C   UNL     1       5.674   3.087   7.178  1.00  0.00     0.049 A 
ATOM     24  H   UNL     1       6.340   1.125   7.406  1.00  0.00     0.167 HD
ATOM     25  C   UNL     1       7.451  -3.071   7.883  1.00  0.00     0.034 A 
ATOM     26  C   UNL     1       6.122   3.790   8.235  1.00  0.00     0.034 A 
ATOM     27  C   UNL     1       8.082  -2.380   8.977  1.00  0.00     0.049 A 
ATOM     28  C   UNL     1       6.962   3.097   9.267  1.00  0.00     0.074 A 
ATOM     29  C   UNL     1       8.905  -2.900   9.961  1.00  0.00     0.029 A 
ATOM     30  N   UNL     1       7.958  -1.024   9.236  1.00  0.00    -0.354 N 
ATOM     31  N   UNL     1       7.360   1.848   9.300  1.00  0.00    -0.248 NA
ATOM     32  C   UNL     1       7.441   3.913  10.391  1.00  0.00     0.031 C 
ATOM     33  C   UNL     1       9.266  -1.860  10.825  1.00  0.00     0.029 A 
ATOM     34  C   UNL     1       8.680  -0.690  10.370  1.00  0.00     0.049 A 
ATOM     35  H   UNL     1       7.434  -0.391   8.694  1.00  0.00     0.167 HD
ATOM     36  C   UNL     1       8.149   1.731  10.437  1.00  0.00     0.074 A 
ATOM     37  C   UNL     1       8.199   3.044  11.048  1.00  0.00     0.031 C 
ATOM     38  C   UNL     1       8.758   0.630  10.942  1.00  0.00     0.034 A 
BRANCH  25  39
ATOM     39  C   UNL     1       7.650  -4.562   7.785  1.00  0.00     0.023 A 
ATOM     40  C   UNL     1       8.561  -5.079   6.842  1.00  0.00     0.012 A 
ATOM     41  C   UNL     1       7.005  -5.441   8.677  1.00  0.00     0.148 A 
ATOM     42  C   UNL     1       8.811  -6.449   6.773  1.00  0.00     0.002 A 
ATOM     43  C   UNL     1       7.287  -6.803   8.626  1.00  0.00     0.091 A 
ATOM     44  F   UNL     1       6.126  -4.934   9.553  1.00  0.00    -0.205 F 
ATOM     45  C   UNL     1       8.183  -7.309   7.671  1.00  0.00     0.022 A 
BRANCH  43  46
ATOM     46  S   UNL     1       6.582  -7.979   9.789  1.00  0.00     0.127 S 
ATOM     47  O   UNL     1       5.588  -8.655   8.957  1.00  0.00    -0.237 OA
ATOM     48  O   UNL     1       7.741  -8.800  10.141  1.00  0.00    -0.237 OA
ATOM     49  O   UNL     1       6.049  -7.184  10.886  1.00  0.00    -0.744 OA
ENDBRANCH  43  46
ENDBRANCH  25  39
BRANCH  26  50
ATOM     50  C   UNL     1       5.820   5.245   8.324  1.00  0.00     0.023 A 
ATOM     51  C   UNL     1       6.854   6.181   8.129  1.00  0.00     0.012 A 
ATOM     52  C   UNL     1       4.504   5.706   8.527  1.00  0.00     0.148 A 
ATOM     53  C   UNL     1       6.585   7.549   8.149  1.00  0.00     0.002 A 
ATOM     54  C   UNL     1       4.234   7.068   8.485  1.00  0.00     0.091 A 
ATOM     55  F   UNL     1       3.537   4.800   8.730  1.00  0.00    -0.205 F 
ATOM     56  C   UNL     1       5.274   7.992   8.312  1.00  0.00     0.022 A 
BRANCH  54  57
ATOM     57  S   UNL     1       2.555   7.707   8.531  1.00  0.00     0.127 S 
ATOM     58  O   UNL     1       2.463   8.210   9.898  1.00  0.00    -0.237 OA
ATOM     59  O   UNL     1       2.592   8.740   7.495  1.00  0.00    -0.237 OA
ATOM     60  O   UNL     1       1.701   6.572   8.208  1.00  0.00    -0.744 OA
ENDBRANCH  54  57
ENDBRANCH  26  50
BRANCH  38  61
ATOM     61  C   UNL     1       9.540   0.797  12.216  1.00  0.00     0.023 A 
ATOM     62  C   UNL     1       8.852   0.947  13.437  1.00  0.00     0.012 A 
ATOM     63  C   UNL     1      10.947   0.740  12.217  1.00  0.00     0.148 A 
ATOM     64  C   UNL     1       9.553   1.067  14.635  1.00  0.00     0.002 A 
ATOM     65  C   UNL     1      11.638   0.817  13.421  1.00  0.00     0.091 A 
ATOM     66  F   UNL     1      11.584   0.620  11.043  1.00  0.00    -0.205 F 
ATOM     67  C   UNL     1      10.944   0.991  14.629  1.00  0.00     0.022 A 
BRANCH  65  68
ATOM     68  S   UNL     1      13.424   0.641  13.511  1.00  0.00     0.127 S 
ATOM     69  O   UNL     1      13.852   2.028  13.685  1.00  0.00    -0.237 OA
ATOM     70  O   UNL     1      13.597  -0.204  14.693  1.00  0.00    -0.237 OA
ATOM     71  O   UNL     1      13.823   0.011  12.259  1.00  0.00    -0.744 OA
ENDBRANCH  65  68
ENDBRANCH  38  61
ENDBRANCH  12  13
ENDBRANCH   5   7
ENDBRANCH   2   3
ENDBRANCH   1   2
BRANCH   1  72
ATOM     72  C   UNL     1       4.315  -1.702  -3.495  1.00  0.00     0.023 C 
BRANCH  72  73
ATOM     73  C   UNL     1       4.656  -0.447  -4.294  1.00  0.00     0.116 C 
BRANCH  73  74
ATOM     74  N   UNL     1       6.088  -0.214  -4.383  1.00  0.00    -0.352 N 
ATOM     75  C   UNL     1       6.902  -0.223  -5.486  1.00  0.00     0.255 C 
ATOM     76  H   UNL     1       6.537  -0.022  -3.528  1.00  0.00     0.163 HD
ATOM     77  O   UNL     1       8.121  -0.168  -5.356  1.00  0.00    -0.269 OA
BRANCH  75  78
ATOM     78  C   UNL     1       6.318  -0.318  -6.835  1.00  0.00     0.082 A 
ATOM     79  C   UNL     1       5.385   0.636  -7.247  1.00  0.00     0.020 A 
ATOM     80  C   UNL     1       6.724  -1.331  -7.713  1.00  0.00     0.139 A 
ATOM     81  C   UNL     1       4.793   0.504  -8.494  1.00  0.00     0.034 A 
ATOM     82  N   UNL     1       6.146  -1.451  -8.932  1.00  0.00    -0.226 NA
ATOM     83  C   UNL     1       5.172  -0.564  -9.307  1.00  0.00     0.146 A 
BRANCH  80  84
ATOM     84  N   UNL     1       7.647  -2.275  -7.316  1.00  0.00    -0.369 N 
ATOM     85  H   UNL     1       7.954  -2.246  -6.381  1.00  0.00     0.162 HD
BRANCH  84  86
ATOM     86  C   UNL     1       8.197  -3.303  -8.168  1.00  0.00     0.120 C 
BRANCH  86  87
ATOM     87  C   UNL     1       9.607  -2.963  -8.695  1.00  0.00     0.036 C 
ATOM     88  C   UNL     1      10.431  -4.235  -8.848  1.00  0.00     0.036 C 
ATOM     89  C   UNL     1      10.512  -2.197  -7.739  1.00  0.00     0.165 C 
ATOM     90  C   UNL     1      10.970  -4.454  -7.443  1.00  0.00     0.160 C 
ATOM     91  O   UNL     1      11.058  -3.162  -6.829  1.00  0.00    -0.381 OA
ENDBRANCH  86  87
ENDBRANCH  84  86
ENDBRANCH  80  84
BRANCH  83  92
ATOM     92  C   UNL     1       4.477  -0.763 -10.648  1.00  0.00     0.433 C 
ATOM     93  F   UNL     1       5.290  -0.525 -11.716  1.00  0.00    -0.165 F 
ATOM     94  F   UNL     1       3.983  -2.022 -10.819  1.00  0.00    -0.165 F 
ATOM     95  F   UNL     1       3.402   0.068 -10.822  1.00  0.00    -0.165 F 
ENDBRANCH  83  92
ENDBRANCH  75  78
ENDBRANCH  73  74
ENDBRANCH  72  73
ENDBRANCH   1  72
TORSDOF 18
