REMARK SMILES C=Cc1cc(Cl)cc2c1O[C@H](C(F)(F)F)C(C(=O)NCCCCNC(=O)c1ccc(-c3c4nc(c(-c5cccc(S(=O)(=O)[O-])c5F)c5ccc([nH]5)c(-c5cccc(S(=O)(=O)[O-])c5F)c5nc(c(-c6cccc(S(=O)(=O)[O-])c6F)c6ccc3[nH]6)C=C5)C=C4)cc1)=C2
REMARK SMILES IDX 22 1 21 2 20 3 19 4 17 5 18 6 16 8 3 9 4 10 9 11 5 12 8 13
REMARK SMILES IDX 10 14 6 15 7 16 90 17 11 18 2 19 1 20 12 21 13 22 14 23
REMARK SMILES IDX 15 24 23 25 24 26 25 27 26 29 27 30 28 31 89 32 29 33 88 34
REMARK SMILES IDX 30 35 31 36 32 37 82 38 33 39 87 40 81 41 83 42 34 43 86 44
REMARK SMILES IDX 80 45 79 46 35 48 67 49 47 50 66 51 48 52 51 53 65 54 84 55
REMARK SMILES IDX 49 56 50 57 64 59 85 60 52 61 36 62 37 63 45 64 38 65 40 66
REMARK SMILES IDX 46 67 39 68 41 69 42 70 43 71 44 72 68 73 69 74 77 75 70 76
REMARK SMILES IDX 72 77 78 78 71 79 73 80 74 81 75 82 76 83 53 84 54 85 62 86
REMARK SMILES IDX 55 87 57 88 63 89 56 90 58 91 59 92 60 93 61 94
REMARK H PARENT 19 7 24 28 83 47 51 58
REMARK Flexibility Score: inf
ROOT
ATOM      1  C   UNL     1      -1.791   4.749  -7.692  1.00  0.00     0.023 C 
ENDROOT
BRANCH   1   2
ATOM      2  C   UNL     1      -1.393   4.268  -6.294  1.00  0.00     0.023 C 
BRANCH   2   3
ATOM      3  C   UNL     1      -1.958   5.112  -5.155  1.00  0.00     0.116 C 
BRANCH   3   4
ATOM      4  N   UNL     1      -3.302   4.704  -4.785  1.00  0.00    -0.352 N 
ATOM      5  C   UNL     1      -3.870   3.925  -3.835  1.00  0.00     0.251 C 
ATOM      6  O   UNL     1      -5.102   3.845  -3.881  1.00  0.00    -0.270 OA
ATOM      7  H   UNL     1      -3.978   5.097  -5.383  1.00  0.00     0.163 HD
BRANCH   5   8
ATOM      8  C   UNL     1      -3.129   3.183  -2.771  1.00  0.00     0.067 C 
ATOM      9  C   UNL     1      -1.184   0.824   0.134  1.00  0.00     0.018 A 
ATOM     10  C   UNL     1      -1.960   0.153   1.088  1.00  0.00     0.032 A 
ATOM     11  C   UNL     1      -1.835   1.574  -0.862  1.00  0.00     0.135 A 
ATOM     12  C   UNL     1      -3.352   0.209   1.025  1.00  0.00     0.042 A 
ATOM     13  C   UNL     1      -3.232   1.619  -0.930  1.00  0.00     0.019 A 
ATOM     14  O   UNL     1      -1.060   2.207  -1.798  1.00  0.00    -0.475 OA
ATOM     15  Cl  UNL     1      -4.290  -0.626   2.203  1.00  0.00    -0.084 Cl
ATOM     16  C   UNL     1      -3.993   0.930   0.019  1.00  0.00     0.032 A 
ATOM     17  C   UNL     1      -3.874   2.355  -2.013  1.00  0.00     0.025 C 
ATOM     18  C   UNL     1      -1.664   3.339  -2.482  1.00  0.00     0.314 C 
BRANCH   9  19
ATOM     19  C   UNL     1       0.285   0.797   0.207  1.00  0.00     0.004 C 
ATOM     20  C   UNL     1       1.001  -0.322   0.371  1.00  0.00     0.009 C 
ENDBRANCH   9  19
BRANCH  18  21
ATOM     21  C   UNL     1      -1.345   4.631  -1.706  1.00  0.00     0.429 C 
ATOM     22  F   UNL     1      -0.010   4.874  -1.720  1.00  0.00    -0.167 F 
ATOM     23  F   UNL     1      -1.942   5.721  -2.241  1.00  0.00    -0.167 F 
ATOM     24  F   UNL     1      -1.728   4.567  -0.410  1.00  0.00    -0.167 F 
ENDBRANCH  18  21
ENDBRANCH   5   8
ENDBRANCH   3   4
ENDBRANCH   2   3
ENDBRANCH   1   2
BRANCH   1  25
ATOM     25  C   UNL     1      -1.443   6.201  -8.014  1.00  0.00     0.116 C 
BRANCH  25  26
ATOM     26  N   UNL     1      -0.050   6.553  -7.771  1.00  0.00    -0.352 N 
ATOM     27  C   UNL     1       0.681   7.546  -8.389  1.00  0.00     0.251 C 
ATOM     28  H   UNL     1       0.422   6.023  -7.090  1.00  0.00     0.163 HD
ATOM     29  O   UNL     1       1.865   7.714  -8.126  1.00  0.00    -0.269 OA
BRANCH  27  30
ATOM     30  C   UNL     1       0.004   8.359  -9.418  1.00  0.00     0.039 A 
ATOM     31  C   UNL     1      -1.169   9.044  -9.097  1.00  0.00     0.014 A 
ATOM     32  C   UNL     1       0.462   8.295 -10.736  1.00  0.00     0.014 A 
ATOM     33  C   UNL     1      -1.979   9.517 -10.121  1.00  0.00     0.010 A 
ATOM     34  C   UNL     1      -0.325   8.829 -11.758  1.00  0.00     0.010 A 
ATOM     35  C   UNL     1      -1.580   9.384 -11.463  1.00  0.00    -0.014 A 
BRANCH  35  36
ATOM     36  C   UNL     1      -2.516   9.782 -12.543  1.00  0.00     0.031 A 
ATOM     37  C   UNL     1      -3.120   8.747 -13.455  1.00  0.00     0.074 A 
ATOM     38  C   UNL     1      -2.869  11.075 -12.664  1.00  0.00     0.049 A 
ATOM     39  N   UNL     1      -3.965   8.914 -14.439  1.00  0.00    -0.248 NA
ATOM     40  C   UNL     1      -2.730   7.343 -13.236  1.00  0.00     0.031 C 
ATOM     41  C   UNL     1      -2.349  12.168 -11.840  1.00  0.00     0.029 A 
ATOM     42  N   UNL     1      -3.758  11.686 -13.510  1.00  0.00    -0.354 N 
ATOM     43  C   UNL     1      -4.174   7.653 -14.983  1.00  0.00     0.074 A 
ATOM     44  C   UNL     1      -3.372   6.724 -14.218  1.00  0.00     0.031 C 
ATOM     45  C   UNL     1      -2.959  13.309 -12.192  1.00  0.00     0.029 A 
ATOM     46  C   UNL     1      -3.879  13.037 -13.293  1.00  0.00     0.049 A 
ATOM     47  H   UNL     1      -4.261  11.203 -14.205  1.00  0.00     0.167 HD
ATOM     48  C   UNL     1      -4.979   7.298 -16.012  1.00  0.00     0.034 A 
ATOM     49  C   UNL     1      -4.643  13.958 -13.911  1.00  0.00     0.034 A 
ATOM     50  C   UNL     1      -5.824   8.209 -16.734  1.00  0.00     0.049 A 
ATOM     51  C   UNL     1      -5.551  13.533 -15.026  1.00  0.00     0.074 A 
ATOM     52  C   UNL     1      -6.682   7.935 -17.784  1.00  0.00     0.029 A 
ATOM     53  N   UNL     1      -5.932   9.565 -16.469  1.00  0.00    -0.354 N 
ATOM     54  N   UNL     1      -5.763  12.328 -15.496  1.00  0.00    -0.248 NA
ATOM     55  C   UNL     1      -6.333  14.586 -15.689  1.00  0.00     0.031 C 
ATOM     56  C   UNL     1      -7.321   9.125 -18.146  1.00  0.00     0.029 A 
ATOM     57  C   UNL     1      -6.853  10.139 -17.326  1.00  0.00     0.049 A 
ATOM     58  H   UNL     1      -5.428  10.047 -15.774  1.00  0.00     0.167 HD
ATOM     59  C   UNL     1      -6.700  12.476 -16.511  1.00  0.00     0.074 A 
ATOM     60  C   UNL     1      -7.039  13.883 -16.567  1.00  0.00     0.031 C 
ATOM     61  C   UNL     1      -7.211  11.533 -17.339  1.00  0.00     0.034 A 
BRANCH  48  62
ATOM     62  C   UNL     1      -5.038   5.844 -16.389  1.00  0.00     0.023 A 
ATOM     63  C   UNL     1      -5.887   4.985 -15.664  1.00  0.00     0.012 A 
ATOM     64  C   UNL     1      -4.332   5.348 -17.502  1.00  0.00     0.148 A 
ATOM     65  C   UNL     1      -6.030   3.650 -16.037  1.00  0.00     0.002 A 
ATOM     66  C   UNL     1      -4.497   4.021 -17.882  1.00  0.00     0.091 A 
ATOM     67  F   UNL     1      -3.514   6.181 -18.161  1.00  0.00    -0.205 F 
ATOM     68  C   UNL     1      -5.343   3.171 -17.151  1.00  0.00     0.022 A 
BRANCH  66  69
ATOM     69  S   UNL     1      -3.693   3.318 -19.327  1.00  0.00     0.127 S 
ATOM     70  O   UNL     1      -2.709   2.429 -18.712  1.00  0.00    -0.237 OA
ATOM     71  O   UNL     1      -4.801   2.635 -19.995  1.00  0.00    -0.237 OA
ATOM     72  O   UNL     1      -3.140   4.445 -20.066  1.00  0.00    -0.744 OA
ENDBRANCH  66  69
ENDBRANCH  48  62
BRANCH  49  73
ATOM     73  C   UNL     1      -4.609  15.362 -13.424  1.00  0.00     0.023 A 
ATOM     74  C   UNL     1      -5.680  15.846 -12.650  1.00  0.00     0.012 A 
ATOM     75  C   UNL     1      -3.478  16.176 -13.629  1.00  0.00     0.148 A 
ATOM     76  C   UNL     1      -5.624  17.119 -12.083  1.00  0.00     0.002 A 
ATOM     77  C   UNL     1      -3.409  17.423 -13.021  1.00  0.00     0.091 A 
ATOM     78  F   UNL     1      -2.479  15.694 -14.381  1.00  0.00    -0.205 F 
ATOM     79  C   UNL     1      -4.484  17.900 -12.255  1.00  0.00     0.022 A 
BRANCH  77  80
ATOM     80  S   UNL     1      -1.927  18.438 -13.076  1.00  0.00     0.127 S 
ATOM     81  O   UNL     1      -2.356  19.546 -13.925  1.00  0.00    -0.237 OA
ATOM     82  O   UNL     1      -1.743  18.778 -11.664  1.00  0.00    -0.237 OA
ATOM     83  O   UNL     1      -0.885  17.584 -13.629  1.00  0.00    -0.744 OA
ENDBRANCH  77  80
ENDBRANCH  49  73
BRANCH  61  84
ATOM     84  C   UNL     1      -8.181  11.983 -18.393  1.00  0.00     0.023 A 
ATOM     85  C   UNL     1      -7.678  12.532 -19.589  1.00  0.00     0.012 A 
ATOM     86  C   UNL     1      -9.564  11.770 -18.250  1.00  0.00     0.148 A 
ATOM     87  C   UNL     1      -8.542  12.869 -20.628  1.00  0.00     0.002 A 
ATOM     88  C   UNL     1     -10.417  12.085 -19.301  1.00  0.00     0.091 A 
ATOM     89  F   UNL     1     -10.017  11.262 -17.095  1.00  0.00    -0.205 F 
ATOM     90  C   UNL     1      -9.908  12.637 -20.489  1.00  0.00     0.022 A 
BRANCH  88  91
ATOM     91  S   UNL     1     -12.183  11.762 -19.237  1.00  0.00     0.127 S 
ATOM     92  O   UNL     1     -12.726  13.109 -19.071  1.00  0.00    -0.237 OA
ATOM     93  O   UNL     1     -12.438  11.158 -20.546  1.00  0.00    -0.237 OA
ATOM     94  O   UNL     1     -12.384  10.863 -18.109  1.00  0.00    -0.744 OA
ENDBRANCH  88  91
ENDBRANCH  61  84
ENDBRANCH  35  36
ENDBRANCH  27  30
ENDBRANCH  25  26
ENDBRANCH   1  25
TORSDOF 16
