REMARK SMILES [NH3+]CC[C@@H](C(=O)NCCCCNC(=O)c1ccc(-c2c3nc(c(-c4cccc(S(=O)(=O)[O-])c4F)c4ccc([nH]4)c(-c4cccc(S(=O)(=O)[O-])c4F)c4nc(c(-c5cccc(S(=O)(=O)[O-])c5F)c5ccc2[nH]5)C=C4)C=C3)cc1)c1ccc(F)cc1
REMARK SMILES IDX 9 1 8 2 7 3 5 4 6 5 4 7 3 8 2 9 1 10 78 14 79 15 84 16 80 17
REMARK SMILES IDX 83 18 81 19 82 20 10 21 11 22 12 23 13 24 14 26 15 27 16 28
REMARK SMILES IDX 77 29 17 30 76 31 18 32 19 33 20 34 70 35 21 36 75 37 69 38
REMARK SMILES IDX 71 39 22 40 74 41 68 42 67 43 23 45 55 46 35 47 54 48 36 49
REMARK SMILES IDX 39 50 53 51 72 52 37 53 38 54 52 56 73 57 40 58 24 59 25 60
REMARK SMILES IDX 33 61 26 62 28 63 34 64 27 65 29 66 30 67 31 68 32 69 56 70
REMARK SMILES IDX 57 71 65 72 58 73 60 74 66 75 59 76 61 77 62 78 63 79 64 80
REMARK SMILES IDX 41 81 42 82 50 83 43 84 45 85 51 86 44 87 46 88 47 89 48 90
REMARK SMILES IDX 49 91
REMARK H PARENT 7 6 1 11 1 12 1 13 12 25 71 44 39 55
REMARK Flexibility Score: inf
ROOT
ATOM      1  C   UNL     1      -1.689  -0.363   1.016  1.00  0.00     0.023 C 
ENDROOT
BRANCH   1   2
ATOM      2  C   UNL     1      -1.464   0.583  -0.168  1.00  0.00     0.116 C 
BRANCH   2   3
ATOM      3  N   UNL     1      -1.779   1.940   0.228  1.00  0.00    -0.356 N 
ATOM      4  C   UNL     1      -0.964   2.894   0.761  1.00  0.00     0.227 C 
ATOM      5  O   UNL     1      -1.510   3.743   1.472  1.00  0.00    -0.274 OA
ATOM      6  H   UNL     1      -2.716   2.212   0.093  1.00  0.00     0.163 HD
BRANCH   4   7
ATOM      7  C   UNL     1       0.557   2.932   0.453  1.00  0.00     0.114 C 
BRANCH   7   8
ATOM      8  C   UNL     1       1.304   2.283   1.657  1.00  0.00     0.079 C 
BRANCH   8   9
ATOM      9  C   UNL     1       1.567   0.776   1.600  1.00  0.00     0.259 C 
BRANCH   9  10
ATOM     10  N   UNL     1       2.317   0.316   0.441  1.00  0.00    -0.358 N 
ATOM     11  H   UNL     1       2.439  -0.696   0.495  1.00  0.00     0.344 HD
ATOM     12  H   UNL     1       3.231   0.768   0.425  1.00  0.00     0.344 HD
ATOM     13  H   UNL     1       1.806   0.551  -0.410  1.00  0.00     0.344 HD
ENDBRANCH   9  10
ENDBRANCH   8   9
ENDBRANCH   7   8
BRANCH   7  14
ATOM     14  C   UNL     1       1.039   4.387   0.178  1.00  0.00    -0.035 A 
ATOM     15  C   UNL     1       2.379   4.779   0.373  1.00  0.00     0.007 A 
ATOM     16  C   UNL     1       0.151   5.375  -0.298  1.00  0.00     0.007 A 
ATOM     17  C   UNL     1       2.771   6.116   0.258  1.00  0.00     0.039 A 
ATOM     18  C   UNL     1       0.543   6.712  -0.424  1.00  0.00     0.039 A 
ATOM     19  C   UNL     1       1.844   7.075  -0.117  1.00  0.00     0.123 A 
ATOM     20  F   UNL     1       2.214   8.360  -0.193  1.00  0.00    -0.207 F 
ENDBRANCH   7  14
ENDBRANCH   4   7
ENDBRANCH   2   3
ENDBRANCH   1   2
BRANCH   1  21
ATOM     21  C   UNL     1      -3.135  -0.789   1.244  1.00  0.00     0.023 C 
BRANCH  21  22
ATOM     22  C   UNL     1      -3.715  -1.678   0.156  1.00  0.00     0.116 C 
BRANCH  22  23
ATOM     23  N   UNL     1      -2.970  -2.915  -0.046  1.00  0.00    -0.352 N 
ATOM     24  C   UNL     1      -3.461  -4.181  -0.279  1.00  0.00     0.251 C 
ATOM     25  H   UNL     1      -1.990  -2.835  -0.012  1.00  0.00     0.163 HD
ATOM     26  O   UNL     1      -2.705  -5.140  -0.344  1.00  0.00    -0.269 OA
BRANCH  24  27
ATOM     27  C   UNL     1      -4.922  -4.362  -0.405  1.00  0.00     0.039 A 
ATOM     28  C   UNL     1      -5.554  -5.337   0.371  1.00  0.00     0.014 A 
ATOM     29  C   UNL     1      -5.668  -3.512  -1.224  1.00  0.00     0.014 A 
ATOM     30  C   UNL     1      -6.949  -5.402   0.387  1.00  0.00     0.010 A 
ATOM     31  C   UNL     1      -7.054  -3.518  -1.134  1.00  0.00     0.010 A 
ATOM     32  C   UNL     1      -7.709  -4.464  -0.331  1.00  0.00    -0.014 A 
BRANCH  32  33
ATOM     33  C   UNL     1      -9.192  -4.444  -0.259  1.00  0.00     0.031 A 
ATOM     34  C   UNL     1     -10.004  -4.652  -1.509  1.00  0.00     0.074 A 
ATOM     35  C   UNL     1      -9.802  -4.127   0.901  1.00  0.00     0.049 A 
ATOM     36  N   UNL     1     -11.298  -4.581  -1.671  1.00  0.00    -0.248 NA
ATOM     37  C   UNL     1      -9.259  -4.937  -2.748  1.00  0.00     0.031 C 
ATOM     38  C   UNL     1      -9.121  -3.808   2.159  1.00  0.00     0.029 A 
ATOM     39  N   UNL     1     -11.134  -3.993   1.204  1.00  0.00    -0.354 N 
ATOM     40  C   UNL     1     -11.519  -4.762  -3.031  1.00  0.00     0.074 A 
ATOM     41  C   UNL     1     -10.223  -4.909  -3.656  1.00  0.00     0.031 C 
ATOM     42  C   UNL     1     -10.040  -3.526   3.098  1.00  0.00     0.029 A 
ATOM     43  C   UNL     1     -11.370  -3.619   2.507  1.00  0.00     0.049 A 
ATOM     44  H   UNL     1     -11.852  -4.151   0.550  1.00  0.00     0.167 HD
ATOM     45  C   UNL     1     -12.695  -4.838  -3.697  1.00  0.00     0.034 A 
ATOM     46  C   UNL     1     -12.530  -3.382   3.151  1.00  0.00     0.034 A 
ATOM     47  C   UNL     1     -13.981  -4.771  -3.060  1.00  0.00     0.049 A 
ATOM     48  C   UNL     1     -13.826  -3.556   2.405  1.00  0.00     0.074 A 
ATOM     49  C   UNL     1     -15.230  -4.952  -3.625  1.00  0.00     0.029 A 
ATOM     50  N   UNL     1     -14.182  -4.508  -1.714  1.00  0.00    -0.354 N 
ATOM     51  N   UNL     1     -14.018  -3.900   1.154  1.00  0.00    -0.248 NA
ATOM     52  C   UNL     1     -15.066  -3.346   3.166  1.00  0.00     0.031 C 
ATOM     53  C   UNL     1     -16.189  -4.791  -2.619  1.00  0.00     0.029 A 
ATOM     54  C   UNL     1     -15.535  -4.521  -1.428  1.00  0.00     0.049 A 
ATOM     55  H   UNL     1     -13.467  -4.338  -1.059  1.00  0.00     0.167 HD
ATOM     56  C   UNL     1     -15.396  -3.986   0.989  1.00  0.00     0.074 A 
ATOM     57  C   UNL     1     -15.990  -3.676   2.273  1.00  0.00     0.031 C 
ATOM     58  C   UNL     1     -16.106  -4.275  -0.129  1.00  0.00     0.034 A 
BRANCH  45  59
ATOM     59  C   UNL     1     -12.643  -5.080  -5.182  1.00  0.00     0.023 A 
ATOM     60  C   UNL     1     -12.261  -6.348  -5.663  1.00  0.00     0.012 A 
ATOM     61  C   UNL     1     -13.017  -4.077  -6.097  1.00  0.00     0.148 A 
ATOM     62  C   UNL     1     -12.217  -6.606  -7.032  1.00  0.00     0.002 A 
ATOM     63  C   UNL     1     -13.012  -4.354  -7.459  1.00  0.00     0.091 A 
ATOM     64  F   UNL     1     -13.353  -2.869  -5.622  1.00  0.00    -0.205 F 
ATOM     65  C   UNL     1     -12.603  -5.613  -7.929  1.00  0.00     0.022 A 
BRANCH  63  66
ATOM     66  S   UNL     1     -13.563  -3.167  -8.690  1.00  0.00     0.127 S 
ATOM     67  O   UNL     1     -12.297  -2.769  -9.303  1.00  0.00    -0.237 OA
ATOM     68  O   UNL     1     -14.424  -3.985  -9.545  1.00  0.00    -0.237 OA
ATOM     69  O   UNL     1     -14.259  -2.121  -7.953  1.00  0.00    -0.744 OA
ENDBRANCH  63  66
ENDBRANCH  45  59
BRANCH  46  70
ATOM     70  C   UNL     1     -12.523  -3.046   4.603  1.00  0.00     0.023 A 
ATOM     71  C   UNL     1     -12.983  -4.004   5.529  1.00  0.00     0.012 A 
ATOM     72  C   UNL     1     -12.046  -1.810   5.076  1.00  0.00     0.148 A 
ATOM     73  C   UNL     1     -12.997  -3.726   6.896  1.00  0.00     0.002 A 
ATOM     74  C   UNL     1     -12.015  -1.558   6.444  1.00  0.00     0.091 A 
ATOM     75  F   UNL     1     -11.626  -0.905   4.181  1.00  0.00    -0.205 F 
ATOM     76  C   UNL     1     -12.504  -2.507   7.354  1.00  0.00     0.022 A 
BRANCH  74  77
ATOM     77  S   UNL     1     -11.278  -0.068   7.128  1.00  0.00     0.127 S 
ATOM     78  O   UNL     1     -12.459   0.703   7.508  1.00  0.00    -0.237 OA
ATOM     79  O   UNL     1     -10.501  -0.598   8.249  1.00  0.00    -0.237 OA
ATOM     80  O   UNL     1     -10.470   0.492   6.053  1.00  0.00    -0.744 OA
ENDBRANCH  74  77
ENDBRANCH  46  70
BRANCH  58  81
ATOM     81  C   UNL     1     -17.606  -4.308  -0.016  1.00  0.00     0.023 A 
ATOM     82  C   UNL     1     -18.323  -3.100   0.086  1.00  0.00     0.012 A 
ATOM     83  C   UNL     1     -18.308  -5.526  -0.100  1.00  0.00     0.148 A 
ATOM     84  C   UNL     1     -19.716  -3.106   0.128  1.00  0.00     0.002 A 
ATOM     85  C   UNL     1     -19.697  -5.521  -0.103  1.00  0.00     0.091 A 
ATOM     86  F   UNL     1     -17.606  -6.666  -0.175  1.00  0.00    -0.205 F 
ATOM     87  C   UNL     1     -20.403  -4.313   0.021  1.00  0.00     0.022 A 
BRANCH  85  88
ATOM     88  S   UNL     1     -20.660  -7.020  -0.335  1.00  0.00     0.127 S 
ATOM     89  O   UNL     1     -21.133  -7.283   1.023  1.00  0.00    -0.237 OA
ATOM     90  O   UNL     1     -21.699  -6.584  -1.268  1.00  0.00    -0.237 OA
ATOM     91  O   UNL     1     -19.736  -8.005  -0.881  1.00  0.00    -0.744 OA
ENDBRANCH  85  88
ENDBRANCH  58  81
ENDBRANCH  32  33
ENDBRANCH  24  27
ENDBRANCH  22  23
ENDBRANCH  21  22
ENDBRANCH   1  21
TORSDOF 18
