REMARK SMILES CSc1ccccc1Sc1cc(C(=O)NCCCCNC(=O)c2ccc(-c3c4nc(c(-c5cccc(S(=O)(=O)[O-])c5F)c5ccc([nH]5)c(-c5cccc(S(=O)(=O)[O-])c5F)c5nc(c(-c6cccc(S(=O)(=O)[O-])c6F)c6ccc3[nH]6)C=C5)C=C4)cc2)c2ccccc2n1
REMARK SMILES IDX 17 1 16 2 15 3 13 4 14 5 12 7 10 8 11 9 92 10 91 11 86 12
REMARK SMILES IDX 90 13 87 14 89 15 88 16 9 17 8 18 3 19 4 20 5 21 7 22 6 23
REMARK SMILES IDX 2 24 1 25 18 26 19 27 20 28 21 29 22 31 23 32 24 33 85 34
REMARK SMILES IDX 25 35 84 36 26 37 27 38 28 39 78 40 29 41 83 42 77 43 79 44
REMARK SMILES IDX 30 45 82 46 76 47 75 48 31 50 63 51 43 52 62 53 44 54 47 55
REMARK SMILES IDX 61 56 80 57 45 58 46 59 60 61 81 62 48 63 32 64 33 65 41 66
REMARK SMILES IDX 34 67 36 68 42 69 35 70 37 71 38 72 39 73 40 74 64 75 65 76
REMARK SMILES IDX 73 77 66 78 68 79 74 80 67 81 69 82 70 83 71 84 72 85 49 86
REMARK SMILES IDX 50 87 58 88 51 89 53 90 59 91 52 92 54 93 55 94 56 95 57 96
REMARK H PARENT 15 6 20 30 79 49 47 60
REMARK Flexibility Score: inf
ROOT
ATOM      1  C   UNL     1      -1.402   4.329  -4.401  1.00  0.00     0.023 C 
ENDROOT
BRANCH   1   2
ATOM      2  C   UNL     1      -0.108   5.024  -3.963  1.00  0.00     0.116 C 
BRANCH   2   3
ATOM      3  N   UNL     1      -0.373   6.401  -3.577  1.00  0.00    -0.352 N 
ATOM      4  C   UNL     1      -0.376   7.106  -2.400  1.00  0.00     0.252 C 
ATOM      5  O   UNL     1      -0.691   8.290  -2.498  1.00  0.00    -0.269 OA
ATOM      6  H   UNL     1      -0.609   6.965  -4.349  1.00  0.00     0.163 HD
BRANCH   4   7
ATOM      7  C   UNL     1       0.011   6.532  -1.071  1.00  0.00     0.051 A 
ATOM      8  C   UNL     1       0.119   4.699   0.457  1.00  0.00     0.102 A 
ATOM      9  C   UNL     1      -0.276   5.204  -0.770  1.00  0.00     0.050 A 
ATOM     10  N   UNL     1       0.912   5.378   1.300  1.00  0.00    -0.241 NA
ATOM     11  C   UNL     1       1.069   6.684   1.095  1.00  0.00     0.072 A 
ATOM     12  C   UNL     1       0.542   7.354  -0.028  1.00  0.00     0.013 A 
ATOM     13  C   UNL     1       1.678   7.396   2.118  1.00  0.00     0.029 A 
ATOM     14  C   UNL     1       0.514   8.774   0.038  1.00  0.00     0.011 A 
ATOM     15  C   UNL     1       1.631   8.786   2.165  1.00  0.00     0.002 A 
ATOM     16  C   UNL     1       1.004   9.475   1.141  1.00  0.00     0.001 A 
BRANCH   8  17
ATOM     17  S   UNL     1      -0.760   3.282   1.086  1.00  0.00    -0.069 SA
BRANCH  17  18
ATOM     18  C   UNL     1       0.303   2.515   2.306  1.00  0.00     0.027 A 
ATOM     19  C   UNL     1       0.593   1.136   2.226  1.00  0.00     0.021 A 
ATOM     20  C   UNL     1       1.375   0.532   3.224  1.00  0.00     0.016 A 
ATOM     21  C   UNL     1       1.865   1.276   4.297  1.00  0.00     0.001 A 
ATOM     22  C   UNL     1       0.776   3.240   3.415  1.00  0.00     0.016 A 
ATOM     23  C   UNL     1       1.562   2.628   4.396  1.00  0.00     0.001 A 
BRANCH  19  24
ATOM     24  S   UNL     1      -0.087   0.081   0.933  1.00  0.00    -0.128 SA
ATOM     25  C   UNL     1       1.443  -0.525   0.189  1.00  0.00     0.091 C 
ENDBRANCH  19  24
ENDBRANCH  17  18
ENDBRANCH   8  17
ENDBRANCH   4   7
ENDBRANCH   2   3
ENDBRANCH   1   2
BRANCH   1  26
ATOM     26  C   UNL     1      -2.006   4.860  -5.712  1.00  0.00     0.023 C 
BRANCH  26  27
ATOM     27  C   UNL     1      -1.136   4.698  -6.958  1.00  0.00     0.116 C 
BRANCH  27  28
ATOM     28  N   UNL     1      -0.802   3.309  -7.243  1.00  0.00    -0.352 N 
ATOM     29  C   UNL     1      -0.797   2.653  -8.451  1.00  0.00     0.251 C 
ATOM     30  H   UNL     1      -0.543   2.766  -6.464  1.00  0.00     0.163 HD
ATOM     31  O   UNL     1      -0.600   1.440  -8.496  1.00  0.00    -0.269 OA
BRANCH  29  32
ATOM     32  C   UNL     1      -1.065   3.407  -9.693  1.00  0.00     0.039 A 
ATOM     33  C   UNL     1      -2.060   2.950 -10.563  1.00  0.00     0.014 A 
ATOM     34  C   UNL     1      -0.366   4.584  -9.973  1.00  0.00     0.014 A 
ATOM     35  C   UNL     1      -2.418   3.724 -11.670  1.00  0.00     0.010 A 
ATOM     36  C   UNL     1      -0.761   5.379 -11.046  1.00  0.00     0.010 A 
ATOM     37  C   UNL     1      -1.804   4.968 -11.892  1.00  0.00    -0.014 A 
BRANCH  37  38
ATOM     38  C   UNL     1      -2.281   5.893 -12.951  1.00  0.00     0.031 A 
ATOM     39  C   UNL     1      -1.379   6.278 -14.090  1.00  0.00     0.074 A 
ATOM     40  C   UNL     1      -3.483   6.487 -12.811  1.00  0.00     0.049 A 
ATOM     41  N   UNL     1      -1.577   7.160 -15.034  1.00  0.00    -0.248 NA
ATOM     42  C   UNL     1      -0.074   5.601 -14.163  1.00  0.00     0.031 C 
ATOM     43  C   UNL     1      -4.418   6.253 -11.708  1.00  0.00     0.029 A 
ATOM     44  N   UNL     1      -4.107   7.442 -13.575  1.00  0.00    -0.354 N 
ATOM     45  C   UNL     1      -0.414   7.172 -15.793  1.00  0.00     0.074 A 
ATOM     46  C   UNL     1       0.496   6.224 -15.185  1.00  0.00     0.031 C 
ATOM     47  C   UNL     1      -5.487   7.049 -11.860  1.00  0.00     0.029 A 
ATOM     48  C   UNL     1      -5.301   7.876 -13.047  1.00  0.00     0.049 A 
ATOM     49  H   UNL     1      -3.735   7.784 -14.420  1.00  0.00     0.167 HD
ATOM     50  C   UNL     1      -0.137   7.889 -16.908  1.00  0.00     0.034 A 
ATOM     51  C   UNL     1      -6.142   8.846 -13.458  1.00  0.00     0.034 A 
ATOM     52  C   UNL     1      -1.060   8.799 -17.532  1.00  0.00     0.049 A 
ATOM     53  C   UNL     1      -5.814   9.620 -14.705  1.00  0.00     0.074 A 
ATOM     54  C   UNL     1      -0.914   9.487 -18.724  1.00  0.00     0.029 A 
ATOM     55  N   UNL     1      -2.292   9.160 -17.010  1.00  0.00    -0.354 N 
ATOM     56  N   UNL     1      -4.787   9.491 -15.509  1.00  0.00    -0.248 NA
ATOM     57  C   UNL     1      -6.771  10.659 -15.116  1.00  0.00     0.031 C 
ATOM     58  C   UNL     1      -2.050  10.283 -18.911  1.00  0.00     0.029 A 
ATOM     59  C   UNL     1      -2.908  10.079 -17.843  1.00  0.00     0.049 A 
ATOM     60  H   UNL     1      -2.673   8.814 -16.171  1.00  0.00     0.167 HD
ATOM     61  C   UNL     1      -4.983  10.414 -16.530  1.00  0.00     0.074 A 
ATOM     62  C   UNL     1      -6.242  11.076 -16.258  1.00  0.00     0.031 C 
ATOM     63  C   UNL     1      -4.182  10.701 -17.585  1.00  0.00     0.034 A 
BRANCH  50  64
ATOM     64  C   UNL     1       1.201   7.676 -17.564  1.00  0.00     0.023 A 
ATOM     65  C   UNL     1       1.440   6.481 -18.272  1.00  0.00     0.012 A 
ATOM     66  C   UNL     1       2.192   8.676 -17.540  1.00  0.00     0.148 A 
ATOM     67  C   UNL     1       2.656   6.271 -18.921  1.00  0.00     0.002 A 
ATOM     68  C   UNL     1       3.387   8.476 -18.222  1.00  0.00     0.091 A 
ATOM     69  F   UNL     1       1.954   9.797 -16.843  1.00  0.00    -0.205 F 
ATOM     70  C   UNL     1       3.624   7.271 -18.904  1.00  0.00     0.022 A 
BRANCH  68  71
ATOM     71  S   UNL     1       4.669   9.731 -18.321  1.00  0.00     0.127 S 
ATOM     72  O   UNL     1       5.698   9.171 -17.446  1.00  0.00    -0.237 OA
ATOM     73  O   UNL     1       5.006   9.717 -19.745  1.00  0.00    -0.237 OA
ATOM     74  O   UNL     1       4.056  10.967 -17.855  1.00  0.00    -0.744 OA
ENDBRANCH  68  71
ENDBRANCH  50  64
BRANCH  51  75
ATOM     75  C   UNL     1      -7.401   9.106 -12.704  1.00  0.00     0.023 A 
ATOM     76  C   UNL     1      -8.635   8.750 -13.282  1.00  0.00     0.012 A 
ATOM     77  C   UNL     1      -7.384   9.669 -11.413  1.00  0.00     0.148 A 
ATOM     78  C   UNL     1      -9.831   8.971 -12.598  1.00  0.00     0.002 A 
ATOM     79  C   UNL     1      -8.575   9.836 -10.716  1.00  0.00     0.091 A 
ATOM     80  F   UNL     1      -6.202  10.017 -10.887  1.00  0.00    -0.205 F 
ATOM     81  C   UNL     1      -9.801   9.503 -11.312  1.00  0.00     0.022 A 
BRANCH  79  82
ATOM     82  S   UNL     1      -8.617  10.389  -9.007  1.00  0.00     0.127 S 
ATOM     83  O   UNL     1      -9.124  11.751  -9.145  1.00  0.00    -0.237 OA
ATOM     84  O   UNL     1      -9.554   9.440  -8.403  1.00  0.00    -0.237 OA
ATOM     85  O   UNL     1      -7.248  10.265  -8.524  1.00  0.00    -0.744 OA
ENDBRANCH  79  82
ENDBRANCH  51  75
BRANCH  63  86
ATOM     86  C   UNL     1      -4.636  11.777 -18.535  1.00  0.00     0.023 A 
ATOM     87  C   UNL     1      -4.552  13.127 -18.141  1.00  0.00     0.012 A 
ATOM     88  C   UNL     1      -5.059  11.461 -19.842  1.00  0.00     0.148 A 
ATOM     89  C   UNL     1      -4.903  14.146 -19.025  1.00  0.00     0.002 A 
ATOM     90  C   UNL     1      -5.364  12.484 -20.732  1.00  0.00     0.091 A 
ATOM     91  F   UNL     1      -5.146  10.169 -20.190  1.00  0.00    -0.205 F 
ATOM     92  C   UNL     1      -5.296  13.826 -20.323  1.00  0.00     0.022 A 
BRANCH  90  93
ATOM     93  S   UNL     1      -5.794  12.177 -22.449  1.00  0.00     0.127 S 
ATOM     94  O   UNL     1      -7.207  12.551 -22.474  1.00  0.00    -0.237 OA
ATOM     95  O   UNL     1      -4.906  13.097 -23.160  1.00  0.00    -0.237 OA
ATOM     96  O   UNL     1      -5.520  10.766 -22.687  1.00  0.00    -0.744 OA
ENDBRANCH  90  93
ENDBRANCH  63  86
ENDBRANCH  37  38
ENDBRANCH  29  32
ENDBRANCH  27  28
ENDBRANCH  26  27
ENDBRANCH   1  26
TORSDOF 17
