REMARK SMILES CC[C@@H](Oc1ccccc1/C=C1\S/C(=[NH+]\c2cccc(O)c2)N(CC)C1=O)C(=O)NCCCCNC(=O)c1ccc(-c2c3nc(c(-c4cccc(S(=O)(=O)[O-])c4F)c4ccc([nH]4)c(-c4cccc(S(=O)(=O)[O-])c4F)c4nc(c(-c5cccc(S(=O)(=O)[O-])c5F)c5ccc2[nH]5)C=C4)C=C3)cc1
REMARK SMILES IDX 31 1 30 2 28 3 29 4 3 6 2 7 1 8 4 9 5 10 6 11 10 12 7 13
REMARK SMILES IDX 9 14 8 15 11 16 12 17 13 18 26 19 14 20 23 21 27 22 15 23
REMARK SMILES IDX 24 25 25 26 16 27 17 28 22 29 18 30 20 31 19 32 21 33 32 35
REMARK SMILES IDX 33 36 34 37 35 38 36 39 37 41 38 42 39 43 100 44 40 45 99 46
REMARK SMILES IDX 41 47 42 48 43 49 93 50 44 51 98 52 92 53 94 54 45 55 97 56
REMARK SMILES IDX 91 57 90 58 46 60 78 61 58 62 77 63 59 64 62 65 76 66 95 67
REMARK SMILES IDX 60 68 61 69 75 71 96 72 63 73 47 74 48 75 56 76 49 77 51 78
REMARK SMILES IDX 57 79 50 80 52 81 53 82 54 83 55 84 79 85 80 86 88 87 81 88
REMARK SMILES IDX 83 89 89 90 82 91 84 92 85 93 86 94 87 95 64 96 65 97 73 98
REMARK SMILES IDX 66 99 68 100 74 101 67 102 69 103 70 104 71 105 72 106
REMARK H PARENT 30 5 15 24 21 34 35 40 94 59 62 70
REMARK Flexibility Score: inf
ROOT
ATOM      1  C   UNL     1      -0.864  -3.561  -1.205  1.00  0.00     0.116 C 
ENDROOT
BRANCH   1   2
ATOM      2  N   UNL     1       0.390  -4.008  -1.735  1.00  0.00    -0.353 N 
ATOM      3  C   UNL     1       1.645  -3.601  -1.391  1.00  0.00     0.261 C 
ATOM      4  O   UNL     1       2.608  -4.176  -1.900  1.00  0.00    -0.271 OA
ATOM      5  H   UNL     1       0.339  -4.696  -2.437  1.00  0.00     0.163 HD
BRANCH   3   6
ATOM      6  C   UNL     1       1.822  -2.364  -0.488  1.00  0.00     0.261 C 
BRANCH   6   7
ATOM      7  C   UNL     1       1.713  -1.160  -1.428  1.00  0.00     0.052 C 
ATOM      8  C   UNL     1       2.631  -0.034  -0.989  1.00  0.00     0.008 C 
ENDBRANCH   6   7
BRANCH   6   9
ATOM      9  O   UNL     1       0.787  -2.428   0.489  1.00  0.00    -0.480 OA
BRANCH   9  10
ATOM     10  C   UNL     1       0.726  -1.664   1.601  1.00  0.00     0.127 A 
ATOM     11  C   UNL     1       1.151  -2.327   2.760  1.00  0.00     0.047 A 
ATOM     12  C   UNL     1       0.051  -0.422   1.671  1.00  0.00     0.018 A 
ATOM     13  C   UNL     1       1.056  -1.707   3.996  1.00  0.00     0.004 A 
ATOM     14  C   UNL     1       0.022   0.210   2.922  1.00  0.00     0.012 A 
ATOM     15  C   UNL     1       0.529  -0.422   4.070  1.00  0.00     0.001 A 
BRANCH  12  16
ATOM     16  C   UNL     1      -0.439   0.341   0.492  1.00  0.00     0.036 C 
ATOM     17  C   UNL     1      -1.563   0.420  -0.254  1.00  0.00     0.110 C 
ATOM     18  S   UNL     1      -3.112  -0.316  -0.146  1.00  0.00     0.007 SA
ATOM     19  C   UNL     1      -1.475   1.133  -1.570  1.00  0.00     0.348 C 
ATOM     20  C   UNL     1      -3.515  -0.051  -1.884  1.00  0.00     0.324 C 
ATOM     21  N   UNL     1      -2.510   0.748  -2.411  1.00  0.00    -0.186 N 
ATOM     22  O   UNL     1      -0.537   1.865  -1.864  1.00  0.00    -0.240 OA
ATOM     23  N   UNL     1      -4.481  -0.540  -2.625  1.00  0.00    -0.234 N 
ATOM     24  H   UNL     1      -4.524  -0.275  -3.572  1.00  0.00     0.313 HD
BRANCH  21  25
ATOM     25  C   UNL     1      -2.358   0.955  -3.848  1.00  0.00     0.244 C 
ATOM     26  C   UNL     1      -2.345   2.414  -4.275  1.00  0.00     0.055 C 
ENDBRANCH  21  25
BRANCH  23  27
ATOM     27  C   UNL     1      -5.475  -1.439  -2.122  1.00  0.00     0.129 A 
ATOM     28  C   UNL     1      -5.453  -3.211  -2.627  1.00  0.00     0.052 A 
ATOM     29  C   UNL     1      -6.190  -0.990  -0.536  1.00  0.00     0.097 A 
ATOM     30  C   UNL     1      -6.026  -4.529  -1.379  1.00  0.00     0.008 A 
ATOM     31  C   UNL     1      -6.774  -2.255   0.600  1.00  0.00     0.119 A 
ATOM     32  C   UNL     1      -6.706  -3.992   0.209  1.00  0.00     0.046 A 
BRANCH  31  33
ATOM     33  O   UNL     1      -7.012  -1.891   1.900  1.00  0.00    -0.508 OA
ATOM     34  H   UNL     1      -7.317  -2.527   2.517  1.00  0.00     0.293 HD
ENDBRANCH  31  33
ENDBRANCH  23  27
ENDBRANCH  12  16
ENDBRANCH   9  10
ENDBRANCH   6   9
ENDBRANCH   3   6
ENDBRANCH   1   2
BRANCH   1  35
ATOM     35  C   UNL     1      -1.682  -2.899  -2.258  1.00  0.00     0.023 C 
BRANCH  35  36
ATOM     36  C   UNL     1      -2.974  -3.644  -2.349  1.00  0.00     0.023 C 
BRANCH  36  37
ATOM     37  C   UNL     1      -3.796  -3.724  -0.981  1.00  0.00     0.116 C 
BRANCH  37  38
ATOM     38  N   UNL     1      -5.283  -2.861  -0.737  1.00  0.00    -0.352 N 
ATOM     39  C   UNL     1      -7.081  -2.806  -1.560  1.00  0.00     0.251 C 
ATOM     40  H   UNL     1      -5.212  -2.228   0.014  1.00  0.00     0.163 HD
ATOM     41  O   UNL     1      -8.050  -2.037  -1.304  1.00  0.00    -0.269 OA
BRANCH  39  42
ATOM     42  C   UNL     1      -7.769  -3.842  -2.918  1.00  0.00     0.039 A 
ATOM     43  C   UNL     1      -9.022  -3.566  -3.495  1.00  0.00     0.014 A 
ATOM     44  C   UNL     1      -7.146  -4.977  -3.553  1.00  0.00     0.014 A 
ATOM     45  C   UNL     1      -9.580  -4.396  -4.549  1.00  0.00     0.010 A 
ATOM     46  C   UNL     1      -7.684  -5.814  -4.503  1.00  0.00     0.010 A 
ATOM     47  C   UNL     1      -8.925  -5.552  -5.023  1.00  0.00    -0.014 A 
BRANCH  47  48
ATOM     48  C   UNL     1      -9.247  -6.526  -6.109  1.00  0.00     0.031 A 
ATOM     49  C   UNL     1      -9.482  -7.991  -5.761  1.00  0.00     0.074 A 
ATOM     50  C   UNL     1      -8.772  -6.250  -7.345  1.00  0.00     0.049 A 
ATOM     51  N   UNL     1      -9.546  -9.039  -6.546  1.00  0.00    -0.248 NA
ATOM     52  C   UNL     1      -9.566  -8.324  -4.326  1.00  0.00     0.031 C 
ATOM     53  C   UNL     1      -8.157  -4.977  -7.736  1.00  0.00     0.029 A 
ATOM     54  N   UNL     1      -8.604  -7.051  -8.450  1.00  0.00    -0.354 N 
ATOM     55  C   UNL     1      -9.679 -10.147  -5.710  1.00  0.00     0.074 A 
ATOM     56  C   UNL     1      -9.616  -9.650  -4.352  1.00  0.00     0.031 C 
ATOM     57  C   UNL     1      -7.665  -5.090  -8.979  1.00  0.00     0.029 A 
ATOM     58  C   UNL     1      -7.933  -6.435  -9.483  1.00  0.00     0.049 A 
ATOM     59  H   UNL     1      -8.932  -7.978  -8.498  1.00  0.00     0.167 HD
ATOM     60  C   UNL     1      -9.865 -11.453  -6.037  1.00  0.00     0.034 A 
ATOM     61  C   UNL     1      -7.579  -6.888 -10.704  1.00  0.00     0.034 A 
ATOM     62  C   UNL     1      -9.887 -11.938  -7.392  1.00  0.00     0.049 A 
ATOM     63  C   UNL     1      -7.949  -8.287 -11.110  1.00  0.00     0.074 A 
ATOM     64  C   UNL     1     -10.273 -13.181  -7.864  1.00  0.00     0.029 A 
ATOM     65  N   UNL     1      -9.450 -11.215  -8.491  1.00  0.00    -0.354 N 
ATOM     66  N   UNL     1      -8.436  -9.254 -10.372  1.00  0.00    -0.248 NA
ATOM     67  C   UNL     1      -7.777  -8.644 -12.527  1.00  0.00     0.031 C 
ATOM     68  C   UNL     1     -10.024 -13.223  -9.241  1.00  0.00     0.029 A 
ATOM     69  C   UNL     1      -9.537 -11.988  -9.635  1.00  0.00     0.049 A 
ATOM     70  H   UNL     1      -9.125 -10.286  -8.461  1.00  0.00     0.167 HD
ATOM     71  C   UNL     1      -8.671 -10.316 -11.239  1.00  0.00     0.074 A 
ATOM     72  C   UNL     1      -8.274  -9.874 -12.559  1.00  0.00     0.031 C 
ATOM     73  C   UNL     1      -9.177 -11.542 -10.958  1.00  0.00     0.034 A 
BRANCH  60  74
ATOM     74  C   UNL     1     -10.151 -12.439  -4.921  1.00  0.00     0.023 A 
ATOM     75  C   UNL     1     -11.325 -12.282  -4.152  1.00  0.00     0.012 A 
ATOM     76  C   UNL     1      -9.328 -13.559  -4.680  1.00  0.00     0.148 A 
ATOM     77  C   UNL     1     -11.643 -13.176  -3.130  1.00  0.00     0.002 A 
ATOM     78  C   UNL     1      -9.678 -14.477  -3.692  1.00  0.00     0.091 A 
ATOM     79  F   UNL     1      -8.213 -13.707  -5.411  1.00  0.00    -0.205 F 
ATOM     80  C   UNL     1     -10.824 -14.277  -2.906  1.00  0.00     0.022 A 
BRANCH  78  81
ATOM     81  S   UNL     1      -8.742 -15.981  -3.380  1.00  0.00     0.127 S 
ATOM     82  O   UNL     1      -8.092 -15.665  -2.109  1.00  0.00    -0.237 OA
ATOM     83  O   UNL     1      -9.799 -16.989  -3.287  1.00  0.00    -0.237 OA
ATOM     84  O   UNL     1      -7.851 -16.142  -4.519  1.00  0.00    -0.744 OA
ENDBRANCH  78  81
ENDBRANCH  60  74
BRANCH  61  85
ATOM     85  C   UNL     1      -6.964  -5.941 -11.676  1.00  0.00     0.023 A 
ATOM     86  C   UNL     1      -7.770  -5.389 -12.693  1.00  0.00     0.012 A 
ATOM     87  C   UNL     1      -5.629  -5.516 -11.549  1.00  0.00     0.148 A 
ATOM     88  C   UNL     1      -7.251  -4.447 -13.580  1.00  0.00     0.002 A 
ATOM     89  C   UNL     1      -5.133  -4.537 -12.403  1.00  0.00     0.091 A 
ATOM     90  F   UNL     1      -4.886  -6.050 -10.570  1.00  0.00    -0.205 F 
ATOM     91  C   UNL     1      -5.938  -4.012 -13.428  1.00  0.00     0.022 A 
BRANCH  89  92
ATOM     92  S   UNL     1      -3.501  -3.813 -12.206  1.00  0.00     0.127 S 
ATOM     93  O   UNL     1      -2.848  -4.202 -13.453  1.00  0.00    -0.237 OA
ATOM     94  O   UNL     1      -3.820  -2.389 -12.095  1.00  0.00    -0.237 OA
ATOM     95  O   UNL     1      -2.947  -4.406 -10.997  1.00  0.00    -0.744 OA
ENDBRANCH  89  92
ENDBRANCH  61  85
BRANCH  73  96
ATOM     96  C   UNL     1      -9.396 -12.503 -12.098  1.00  0.00     0.023 A 
ATOM     97  C   UNL     1      -8.302 -13.120 -12.735  1.00  0.00     0.012 A 
ATOM     98  C   UNL     1     -10.706 -12.869 -12.469  1.00  0.00     0.148 A 
ATOM     99  C   UNL     1      -8.509 -14.069 -13.737  1.00  0.00     0.002 A 
ATOM    100  C   UNL     1     -10.905 -13.852 -13.429  1.00  0.00     0.091 A 
ATOM    101  F   UNL     1     -11.734 -12.255 -11.865  1.00  0.00    -0.205 F 
ATOM    102  C   UNL     1      -9.808 -14.445 -14.073  1.00  0.00     0.022 A 
BRANCH 100 103
ATOM    103  S   UNL     1     -12.537 -14.472 -13.854  1.00  0.00     0.127 S 
ATOM    104  O   UNL     1     -12.684 -14.003 -15.231  1.00  0.00    -0.237 OA
ATOM    105  O   UNL     1     -12.362 -15.918 -13.716  1.00  0.00    -0.237 OA
ATOM    106  O   UNL     1     -13.459 -13.877 -12.895  1.00  0.00    -0.744 OA
ENDBRANCH 100 103
ENDBRANCH  73  96
ENDBRANCH  47  48
ENDBRANCH  39  42
ENDBRANCH  37  38
ENDBRANCH  36  37
ENDBRANCH  35  36
ENDBRANCH   1  35
TORSDOF 21
