REMARK SMILES O=C(NCCCCNC(=O)c1ccn(-c2cc(-c3ccncc3)nc(-c3ccccc3F)n2)n1)c1ccc(-c2c3nc(c(-c4cccc(S(=O)(=O)[O-])c4F)c4ccc([nH]4)c(-c4cccc(S(=O)(=O)[O-])c4F)c4nc(c(-c5cccc(S(=O)(=O)[O-])c5F)c5ccc2[nH]5)C=C4)C=C3)cc1
REMARK SMILES IDX 5 1 4 2 3 3 1 4 2 5 35 7 36 8 97 9 37 10 96 11 38 12 39 13
REMARK SMILES IDX 40 14 90 15 41 16 95 17 89 18 91 19 42 20 94 21 88 22 87 23
REMARK SMILES IDX 43 25 75 26 55 27 74 28 56 29 59 30 73 31 92 32 57 33 58 34
REMARK SMILES IDX 72 36 93 37 60 38 44 39 45 40 53 41 46 42 48 43 54 44 47 45
REMARK SMILES IDX 49 46 50 47 51 48 52 49 76 50 77 51 85 52 78 53 80 54 86 55
REMARK SMILES IDX 79 56 81 57 82 58 83 59 84 60 61 61 62 62 70 63 63 64 65 65
REMARK SMILES IDX 71 66 64 67 66 68 67 69 68 70 69 71 6 72 7 73 8 74 9 75
REMARK SMILES IDX 10 77 11 78 12 79 34 80 13 81 14 82 15 83 16 84 33 85 17 86
REMARK SMILES IDX 25 87 24 88 18 89 19 90 23 91 20 92 22 93 21 94 26 95 27 96
REMARK SMILES IDX 31 97 28 98 30 99 32 100 29 101
REMARK H PARENT 3 6 91 24 59 35 8 76
REMARK Flexibility Score: inf
ROOT
ATOM      1  C   UNL     1       4.904  -1.948   0.943  1.00  0.00     0.023 C 
ENDROOT
BRANCH   1   2
ATOM      2  C   UNL     1       4.666  -1.011  -0.241  1.00  0.00     0.116 C 
BRANCH   2   3
ATOM      3  N   UNL     1       3.278  -0.831  -0.608  1.00  0.00    -0.352 N 
ATOM      4  O   UNL     1       1.224  -0.041  -0.789  1.00  0.00    -0.269 OA
ATOM      5  C   UNL     1       2.252  -0.074  -0.109  1.00  0.00     0.251 C 
ATOM      6  H   UNL     1       3.014  -1.371  -1.388  1.00  0.00     0.163 HD
BRANCH   5   7
ATOM      7  C   UNL     1       2.280   0.623   1.204  1.00  0.00     0.039 A 
ATOM      8  C   UNL     1       3.434   0.945   1.921  1.00  0.00     0.014 A 
ATOM      9  C   UNL     1       1.029   0.967   1.748  1.00  0.00     0.014 A 
ATOM     10  C   UNL     1       3.345   1.504   3.189  1.00  0.00     0.010 A 
ATOM     11  C   UNL     1       0.932   1.551   3.005  1.00  0.00     0.010 A 
ATOM     12  C   UNL     1       2.094   1.795   3.734  1.00  0.00    -0.014 A 
BRANCH  12  13
ATOM     13  C   UNL     1       2.059   2.590   4.960  1.00  0.00     0.031 A 
ATOM     14  C   UNL     1       2.565   3.982   4.774  1.00  0.00     0.074 A 
ATOM     15  C   UNL     1       1.473   2.171   6.099  1.00  0.00     0.049 A 
ATOM     16  N   UNL     1       3.540   4.573   5.387  1.00  0.00    -0.248 NA
ATOM     17  C   UNL     1       1.993   4.768   3.665  1.00  0.00     0.031 C 
ATOM     18  C   UNL     1       0.694   0.943   6.277  1.00  0.00     0.029 A 
ATOM     19  N   UNL     1       1.312   2.819   7.293  1.00  0.00    -0.354 N 
ATOM     20  C   UNL     1       3.525   5.885   4.911  1.00  0.00     0.074 A 
ATOM     21  C   UNL     1       2.707   5.890   3.729  1.00  0.00     0.031 C 
ATOM     22  C   UNL     1      -0.058   1.055   7.393  1.00  0.00     0.029 A 
ATOM     23  C   UNL     1       0.266   2.303   8.060  1.00  0.00     0.049 A 
ATOM     24  H   UNL     1       1.875   3.572   7.581  1.00  0.00     0.167 HD
ATOM     25  C   UNL     1       3.922   6.927   5.689  1.00  0.00     0.034 A 
ATOM     26  C   UNL     1      -0.359   2.909   9.101  1.00  0.00     0.034 A 
ATOM     27  C   UNL     1       4.774   6.506   6.763  1.00  0.00     0.049 A 
ATOM     28  C   UNL     1       0.532   3.983   9.590  1.00  0.00     0.074 A 
ATOM     29  C   UNL     1       5.965   5.818   6.861  1.00  0.00     0.029 A 
ATOM     30  N   UNL     1       4.224   6.508   8.018  1.00  0.00    -0.354 N 
ATOM     31  N   UNL     1       1.670   3.778  10.190  1.00  0.00    -0.248 NA
ATOM     32  C   UNL     1       0.309   5.334   9.103  1.00  0.00     0.031 C 
ATOM     33  C   UNL     1       5.855   5.061   8.062  1.00  0.00     0.029 A 
ATOM     34  C   UNL     1       4.628   5.371   8.655  1.00  0.00     0.049 A 
ATOM     35  H   UNL     1       3.641   7.207   8.394  1.00  0.00     0.167 HD
ATOM     36  C   UNL     1       2.471   4.824   9.761  1.00  0.00     0.074 A 
ATOM     37  C   UNL     1       1.548   5.814   9.215  1.00  0.00     0.031 C 
ATOM     38  C   UNL     1       3.816   4.658   9.616  1.00  0.00     0.034 A 
BRANCH  25  39
ATOM     39  C   UNL     1       3.201   8.258   5.724  1.00  0.00     0.023 A 
ATOM     40  C   UNL     1       3.800   9.313   6.448  1.00  0.00     0.012 A 
ATOM     41  C   UNL     1       1.854   8.439   5.332  1.00  0.00     0.148 A 
ATOM     42  C   UNL     1       3.084  10.467   6.789  1.00  0.00     0.002 A 
ATOM     43  C   UNL     1       1.184   9.630   5.577  1.00  0.00     0.091 A 
ATOM     44  F   UNL     1       1.150   7.410   4.852  1.00  0.00    -0.205 F 
ATOM     45  C   UNL     1       1.781  10.635   6.337  1.00  0.00     0.022 A 
BRANCH  43  46
ATOM     46  S   UNL     1      -0.465   9.919   4.926  1.00  0.00     0.127 S 
ATOM     47  O   UNL     1      -1.284   9.764   6.123  1.00  0.00    -0.237 OA
ATOM     48  O   UNL     1      -0.350  11.288   4.423  1.00  0.00    -0.237 OA
ATOM     49  O   UNL     1      -0.646   8.917   3.882  1.00  0.00    -0.744 OA
ENDBRANCH  43  46
ENDBRANCH  25  39
BRANCH  26  50
ATOM     50  C   UNL     1      -1.775   2.836   9.548  1.00  0.00     0.023 A 
ATOM     51  C   UNL     1      -2.121   3.334  10.823  1.00  0.00     0.012 A 
ATOM     52  C   UNL     1      -2.822   2.568   8.639  1.00  0.00     0.148 A 
ATOM     53  C   UNL     1      -3.453   3.608  11.160  1.00  0.00     0.002 A 
ATOM     54  C   UNL     1      -4.146   2.832   8.982  1.00  0.00     0.091 A 
ATOM     55  F   UNL     1      -2.519   2.150   7.405  1.00  0.00    -0.205 F 
ATOM     56  C   UNL     1      -4.464   3.368  10.236  1.00  0.00     0.022 A 
BRANCH  54  57
ATOM     57  S   UNL     1      -5.501   2.565   7.830  1.00  0.00     0.127 S 
ATOM     58  O   UNL     1      -6.474   1.858   8.665  1.00  0.00    -0.237 OA
ATOM     59  O   UNL     1      -5.875   3.933   7.482  1.00  0.00    -0.237 OA
ATOM     60  O   UNL     1      -4.949   1.762   6.747  1.00  0.00    -0.744 OA
ENDBRANCH  54  57
ENDBRANCH  26  50
BRANCH  38  61
ATOM     61  C   UNL     1       4.479   3.482  10.278  1.00  0.00     0.023 A 
ATOM     62  C   UNL     1       4.210   2.149   9.912  1.00  0.00     0.012 A 
ATOM     63  C   UNL     1       5.570   3.757  11.120  1.00  0.00     0.148 A 
ATOM     64  C   UNL     1       5.020   1.110  10.379  1.00  0.00     0.002 A 
ATOM     65  C   UNL     1       6.410   2.731  11.526  1.00  0.00     0.091 A 
ATOM     66  F   UNL     1       5.797   5.034  11.465  1.00  0.00    -0.205 F 
ATOM     67  C   UNL     1       6.133   1.403  11.166  1.00  0.00     0.022 A 
BRANCH  65  68
ATOM     68  S   UNL     1       7.948   3.072  12.385  1.00  0.00     0.127 S 
ATOM     69  O   UNL     1       7.647   2.620  13.742  1.00  0.00    -0.237 OA
ATOM     70  O   UNL     1       8.904   2.236  11.657  1.00  0.00    -0.237 OA
ATOM     71  O   UNL     1       8.182   4.504  12.239  1.00  0.00    -0.744 OA
ENDBRANCH  65  68
ENDBRANCH  38  61
ENDBRANCH  12  13
ENDBRANCH   5   7
ENDBRANCH   2   3
ENDBRANCH   1   2
BRANCH   1  72
ATOM     72  C   UNL     1       4.368  -3.372   0.765  1.00  0.00     0.023 C 
BRANCH  72  73
ATOM     73  C   UNL     1       4.804  -4.074  -0.518  1.00  0.00     0.116 C 
BRANCH  73  74
ATOM     74  N   UNL     1       6.246  -4.216  -0.587  1.00  0.00    -0.351 N 
ATOM     75  C   UNL     1       6.985  -5.370  -0.695  1.00  0.00     0.271 C 
ATOM     76  H   UNL     1       6.761  -3.378  -0.551  1.00  0.00     0.163 HD
ATOM     77  O   UNL     1       8.204  -5.313  -0.597  1.00  0.00    -0.267 OA
BRANCH  75  78
ATOM     78  C   UNL     1       6.276  -6.617  -0.997  1.00  0.00     0.150 A 
ATOM     79  C   UNL     1       5.564  -6.920  -2.185  1.00  0.00     0.056 A 
ATOM     80  N   UNL     1       6.261  -7.656  -0.143  1.00  0.00    -0.161 NA
ATOM     81  C   UNL     1       5.236  -8.246  -2.073  1.00  0.00     0.118 A 
ATOM     82  N   UNL     1       5.708  -8.669  -0.852  1.00  0.00    -0.222 N 
BRANCH  82  83
ATOM     83  C   UNL     1       5.677 -10.003  -0.366  1.00  0.00     0.158 A 
ATOM     84  C   UNL     1       5.722 -10.222   0.993  1.00  0.00     0.078 A 
ATOM     85  N   UNL     1       5.599 -10.999  -1.276  1.00  0.00    -0.209 NA
ATOM     86  C   UNL     1       5.633 -11.540   1.393  1.00  0.00     0.077 A 
ATOM     87  C   UNL     1       5.612 -12.249  -0.789  1.00  0.00     0.165 A 
ATOM     88  N   UNL     1       5.621 -12.569   0.516  1.00  0.00    -0.228 NA
BRANCH  86  89
ATOM     89  C   UNL     1       5.480 -11.901   2.804  1.00  0.00     0.003 A 
ATOM     90  C   UNL     1       4.352 -11.488   3.528  1.00  0.00     0.030 A 
ATOM     91  C   UNL     1       6.441 -12.666   3.470  1.00  0.00     0.030 A 
ATOM     92  C   UNL     1       4.242 -11.843   4.862  1.00  0.00     0.111 A 
ATOM     93  C   UNL     1       6.246 -12.963   4.809  1.00  0.00     0.111 A 
ATOM     94  N   UNL     1       5.168 -12.570   5.520  1.00  0.00    -0.265 NA
ENDBRANCH  86  89
BRANCH  87  95
ATOM     95  C   UNL     1       5.736 -13.319  -1.769  1.00  0.00     0.055 A 
ATOM     96  C   UNL     1       6.861 -13.390  -2.615  1.00  0.00     0.015 A 
ATOM     97  C   UNL     1       4.737 -14.281  -1.930  1.00  0.00     0.134 A 
ATOM     98  C   UNL     1       6.974 -14.392  -3.583  1.00  0.00     0.001 A 
ATOM     99  C   UNL     1       4.840 -15.279  -2.900  1.00  0.00     0.040 A 
ATOM    100  F   UNL     1       3.630 -14.244  -1.174  1.00  0.00    -0.206 F 
ATOM    101  C   UNL     1       5.960 -15.336  -3.727  1.00  0.00     0.003 A 
ENDBRANCH  87  95
ENDBRANCH  82  83
ENDBRANCH  75  78
ENDBRANCH  73  74
ENDBRANCH  72  73
ENDBRANCH   1  72
TORSDOF 17
