REMARK SMILES O=C(NCCCCNC(=O)c1ccc(-c2c3nc(c(-c4cccc(S(=O)(=O)[O-])c4F)c4ccc([nH]4)c(-c4cccc(S(=O)(=O)[O-])c4F)c4nc(c(-c5cccc(S(=O)(=O)[O-])c5F)c5ccc2[nH]5)C=C4)C=C3)cc1)C1=Cc2cc(Cl)ccc2O[C@@H]1C(F)(F)F
REMARK SMILES IDX 6 1 5 2 4 3 3 4 1 5 2 6 74 8 75 9 84 10 76 11 83 12 77 13
REMARK SMILES IDX 82 14 78 15 81 16 79 17 80 18 85 19 86 20 87 21 88 22 7 23
REMARK SMILES IDX 8 24 9 25 10 27 11 28 12 29 73 30 13 31 72 32 14 33 15 34
REMARK SMILES IDX 16 35 66 36 17 37 71 38 65 39 67 40 18 41 70 42 64 43 63 44
REMARK SMILES IDX 19 46 51 47 31 48 50 49 32 50 35 51 49 52 68 53 33 54 34 55
REMARK SMILES IDX 48 57 69 58 36 59 20 60 21 61 29 62 22 63 24 64 30 65 23 66
REMARK SMILES IDX 25 67 26 68 27 69 28 70 52 71 53 72 61 73 54 74 56 75 62 76
REMARK SMILES IDX 55 77 57 78 58 79 59 80 60 81 37 82 38 83 46 84 39 85 41 86
REMARK SMILES IDX 47 87 40 88 42 89 43 90 44 91 45 92
REMARK H PARENT 3 7 8 26 67 45 35 56
REMARK Flexibility Score: inf
ROOT
ATOM      1  C   UNL     1       4.028   3.749   2.546  1.00  0.00     0.023 C 
ENDROOT
BRANCH   1   2
ATOM      2  C   UNL     1       4.311   3.236   1.140  1.00  0.00     0.023 C 
BRANCH   2   3
ATOM      3  C   UNL     1       3.919   1.787   0.874  1.00  0.00     0.116 C 
BRANCH   3   4
ATOM      4  N   UNL     1       2.683   1.611   0.125  1.00  0.00    -0.352 N 
ATOM      5  O   UNL     1       1.139   0.521  -1.100  1.00  0.00    -0.270 OA
ATOM      6  C   UNL     1       2.307   0.606  -0.727  1.00  0.00     0.251 C 
ATOM      7  H   UNL     1       2.015   2.323   0.249  1.00  0.00     0.163 HD
BRANCH   6   8
ATOM      8  C   UNL     1       3.260  -0.460  -1.153  1.00  0.00     0.067 C 
ATOM      9  C   UNL     1       4.498  -0.143  -1.566  1.00  0.00     0.025 C 
ATOM     10  C   UNL     1       3.001  -1.800  -0.508  1.00  0.00     0.314 C 
ATOM     11  C   UNL     1       5.547  -0.646  -0.656  1.00  0.00     0.019 A 
ATOM     12  O   UNL     1       3.983  -2.117   0.514  1.00  0.00    -0.475 OA
ATOM     13  C   UNL     1       6.784   0.009  -0.654  1.00  0.00     0.032 A 
ATOM     14  C   UNL     1       5.207  -1.510   0.397  1.00  0.00     0.128 A 
ATOM     15  C   UNL     1       7.636  -0.142   0.438  1.00  0.00     0.041 A 
ATOM     16  C   UNL     1       6.083  -1.683   1.467  1.00  0.00     0.048 A 
ATOM     17  Cl  UNL     1       9.079   0.789   0.518  1.00  0.00    -0.084 Cl
ATOM     18  C   UNL     1       7.287  -0.976   1.501  1.00  0.00     0.024 A 
BRANCH  10  19
ATOM     19  C   UNL     1       2.920  -2.917  -1.563  1.00  0.00     0.429 C 
ATOM     20  F   UNL     1       2.575  -4.102  -1.004  1.00  0.00    -0.167 F 
ATOM     21  F   UNL     1       1.993  -2.648  -2.514  1.00  0.00    -0.167 F 
ATOM     22  F   UNL     1       4.098  -3.109  -2.205  1.00  0.00    -0.167 F 
ENDBRANCH  10  19
ENDBRANCH   6   8
ENDBRANCH   3   4
ENDBRANCH   2   3
ENDBRANCH   1   2
BRANCH   1  23
ATOM     23  C   UNL     1       4.604   2.936   3.705  1.00  0.00     0.116 C 
BRANCH  23  24
ATOM     24  N   UNL     1       6.042   2.703   3.647  1.00  0.00    -0.352 N 
ATOM     25  C   UNL     1       6.978   2.793   4.659  1.00  0.00     0.251 C 
ATOM     26  H   UNL     1       6.394   2.446   2.764  1.00  0.00     0.163 HD
ATOM     27  O   UNL     1       8.157   2.566   4.430  1.00  0.00    -0.269 OA
BRANCH  25  28
ATOM     28  C   UNL     1       6.552   3.218   6.014  1.00  0.00     0.039 A 
ATOM     29  C   UNL     1       7.234   4.268   6.635  1.00  0.00     0.014 A 
ATOM     30  C   UNL     1       5.444   2.637   6.636  1.00  0.00     0.014 A 
ATOM     31  C   UNL     1       6.737   4.806   7.826  1.00  0.00     0.010 A 
ATOM     32  C   UNL     1       4.903   3.230   7.774  1.00  0.00     0.010 A 
ATOM     33  C   UNL     1       5.534   4.329   8.375  1.00  0.00    -0.014 A 
BRANCH  33  34
ATOM     34  C   UNL     1       4.899   5.009   9.536  1.00  0.00     0.031 A 
ATOM     35  C   UNL     1       4.681   4.282  10.835  1.00  0.00     0.074 A 
ATOM     36  C   UNL     1       4.431   6.266   9.390  1.00  0.00     0.049 A 
ATOM     37  N   UNL     1       4.162   4.728  11.950  1.00  0.00    -0.248 NA
ATOM     38  C   UNL     1       5.064   2.862  10.879  1.00  0.00     0.031 C 
ATOM     39  C   UNL     1       4.474   7.048   8.150  1.00  0.00     0.029 A 
ATOM     40  N   UNL     1       3.814   7.105  10.285  1.00  0.00    -0.354 N 
ATOM     41  C   UNL     1       4.121   3.640  12.813  1.00  0.00     0.074 A 
ATOM     42  C   UNL     1       4.633   2.502  12.080  1.00  0.00     0.031 C 
ATOM     43  C   UNL     1       3.937   8.258   8.372  1.00  0.00     0.029 A 
ATOM     44  C   UNL     1       3.496   8.337   9.761  1.00  0.00     0.049 A 
ATOM     45  H   UNL     1       3.617   6.849  11.215  1.00  0.00     0.167 HD
ATOM     46  C   UNL     1       3.728   3.595  14.109  1.00  0.00     0.034 A 
ATOM     47  C   UNL     1       2.932   9.417  10.338  1.00  0.00     0.034 A 
ATOM     48  C   UNL     1       3.276   4.739  14.855  1.00  0.00     0.049 A 
ATOM     49  C   UNL     1       2.583   9.366  11.800  1.00  0.00     0.074 A 
ATOM     50  C   UNL     1       2.971   4.824  16.202  1.00  0.00     0.029 A 
ATOM     51  N   UNL     1       3.056   5.997  14.316  1.00  0.00    -0.354 N 
ATOM     52  N   UNL     1       2.744   8.385  12.654  1.00  0.00    -0.248 NA
ATOM     53  C   UNL     1       2.014  10.588  12.389  1.00  0.00     0.031 C 
ATOM     54  C   UNL     1       2.554   6.132  16.474  1.00  0.00     0.029 A 
ATOM     55  C   UNL     1       2.611   6.864  15.299  1.00  0.00     0.049 A 
ATOM     56  H   UNL     1       3.196   6.239  13.372  1.00  0.00     0.167 HD
ATOM     57  C   UNL     1       2.332   8.880  13.886  1.00  0.00     0.074 A 
ATOM     58  C   UNL     1       1.937  10.258  13.671  1.00  0.00     0.031 C 
ATOM     59  C   UNL     1       2.271   8.248  15.085  1.00  0.00     0.034 A 
BRANCH  46  60
ATOM     60  C   UNL     1       3.837   2.272  14.822  1.00  0.00     0.023 A 
ATOM     61  C   UNL     1       5.112   1.768  15.155  1.00  0.00     0.012 A 
ATOM     62  C   UNL     1       2.690   1.547  15.195  1.00  0.00     0.148 A 
ATOM     63  C   UNL     1       5.245   0.545  15.810  1.00  0.00     0.002 A 
ATOM     64  C   UNL     1       2.829   0.347  15.886  1.00  0.00     0.091 A 
ATOM     65  F   UNL     1       1.486   2.026  14.849  1.00  0.00    -0.205 F 
ATOM     66  C   UNL     1       4.104  -0.160  16.184  1.00  0.00     0.022 A 
BRANCH  64  67
ATOM     67  S   UNL     1       1.415  -0.592  16.474  1.00  0.00     0.127 S 
ATOM     68  O   UNL     1       1.346  -1.669  15.488  1.00  0.00    -0.237 OA
ATOM     69  O   UNL     1       1.851  -1.013  17.806  1.00  0.00    -0.237 OA
ATOM     70  O   UNL     1       0.295   0.338  16.474  1.00  0.00    -0.744 OA
ENDBRANCH  64  67
ENDBRANCH  46  60
BRANCH  47  71
ATOM     71  C   UNL     1       2.776  10.679   9.561  1.00  0.00     0.023 A 
ATOM     72  C   UNL     1       3.614  11.772   9.861  1.00  0.00     0.012 A 
ATOM     73  C   UNL     1       1.840  10.799   8.516  1.00  0.00     0.148 A 
ATOM     74  C   UNL     1       3.503  12.970   9.157  1.00  0.00     0.002 A 
ATOM     75  C   UNL     1       1.770  11.980   7.784  1.00  0.00     0.091 A 
ATOM     76  F   UNL     1       1.044   9.754   8.253  1.00  0.00    -0.205 F 
ATOM     77  C   UNL     1       2.590  13.071   8.112  1.00  0.00     0.022 A 
BRANCH  75  78
ATOM     78  S   UNL     1       0.714  12.157   6.341  1.00  0.00     0.127 S 
ATOM     79  O   UNL     1      -0.324  13.056   6.838  1.00  0.00    -0.237 OA
ATOM     80  O   UNL     1       1.629  12.752   5.366  1.00  0.00    -0.237 OA
ATOM     81  O   UNL     1       0.279  10.807   6.007  1.00  0.00    -0.744 OA
ENDBRANCH  75  78
ENDBRANCH  47  71
BRANCH  59  82
ATOM     82  C   UNL     1       1.779   9.043  16.265  1.00  0.00     0.023 A 
ATOM     83  C   UNL     1       0.413   9.375  16.362  1.00  0.00     0.012 A 
ATOM     84  C   UNL     1       2.655   9.417  17.303  1.00  0.00     0.148 A 
ATOM     85  C   UNL     1      -0.066  10.099  17.453  1.00  0.00     0.002 A 
ATOM     86  C   UNL     1       2.161  10.098  18.410  1.00  0.00     0.091 A 
ATOM     87  F   UNL     1       3.957   9.116  17.186  1.00  0.00    -0.205 F 
ATOM     88  C   UNL     1       0.804  10.451  18.482  1.00  0.00     0.022 A 
BRANCH  86  89
ATOM     89  S   UNL     1       3.204  10.500  19.817  1.00  0.00     0.127 S 
ATOM     90  O   UNL     1       3.551  11.893  19.546  1.00  0.00    -0.237 OA
ATOM     91  O   UNL     1       2.298  10.307  20.950  1.00  0.00    -0.237 OA
ATOM     92  O   UNL     1       4.308   9.550  19.768  1.00  0.00    -0.744 OA
ENDBRANCH  86  89
ENDBRANCH  59  82
ENDBRANCH  33  34
ENDBRANCH  25  28
ENDBRANCH  23  24
ENDBRANCH   1  23
TORSDOF 15
