REMARK SMILES C[C@H]1CC[C@@](Nc2ccc(C(N)=O)nn2)(C(=O)NCCCCNC(=O)c2ccc(-c3c4nc(c(-c5cccc(S(=O)(=O)[O-])c5F)c5ccc([nH]5)c(-c5cccc(S(=O)(=O)[O-])c5F)c5nc(c(-c6cccc(S(=O)(=O)[O-])c6F)c6ccc3[nH]6)C=C5)C=C4)cc2)CC1
REMARK SMILES IDX 20 1 19 2 18 3 16 4 17 5 5 7 1 8 2 9 90 10 3 11 89 12 4 13
REMARK SMILES IDX 6 14 7 16 8 17 15 18 9 19 14 20 10 21 11 22 12 23 13 24
REMARK SMILES IDX 21 27 22 28 23 29 24 30 25 32 26 33 27 34 88 35 28 36 87 37
REMARK SMILES IDX 29 38 30 39 31 40 81 41 32 42 86 43 80 44 82 45 33 46 85 47
REMARK SMILES IDX 79 48 78 49 34 51 66 52 46 53 65 54 47 55 50 56 64 57 83 58
REMARK SMILES IDX 48 59 49 60 63 62 84 63 51 64 35 65 36 66 44 67 37 68 39 69
REMARK SMILES IDX 45 70 38 71 40 72 41 73 42 74 43 75 67 76 68 77 76 78 69 79
REMARK SMILES IDX 71 80 77 81 70 82 72 83 73 84 74 85 75 86 52 87 53 88 61 89
REMARK SMILES IDX 54 90 56 91 62 92 55 93 57 94 58 95 59 96 60 97
REMARK H PARENT 18 6 6 15 12 25 12 26 23 31 82 50 50 61
REMARK Flexibility Score: inf
ROOT
ATOM      1  C   UNL     1      -2.380   3.680  -2.196  1.00  0.00     0.023 C 
ENDROOT
BRANCH   1   2
ATOM      2  C   UNL     1      -3.090   2.364  -1.907  1.00  0.00     0.116 C 
BRANCH   2   3
ATOM      3  N   UNL     1      -2.352   1.240  -2.450  1.00  0.00    -0.354 N 
ATOM      4  C   UNL     1      -1.849   0.127  -1.842  1.00  0.00     0.245 C 
ATOM      5  O   UNL     1      -1.387  -0.741  -2.590  1.00  0.00    -0.272 OA
ATOM      6  H   UNL     1      -2.186   1.287  -3.419  1.00  0.00     0.163 HD
BRANCH   4   7
ATOM      7  C   UNL     1      -1.897  -0.065  -0.281  1.00  0.00     0.118 C 
ATOM      8  C   UNL     1       2.499  -0.124  -0.044  1.00  0.00     0.007 C 
ATOM      9  C   UNL     1       1.047  -0.165   0.433  1.00  0.00    -0.014 C 
ATOM     10  C   UNL     1       0.322  -1.393  -0.133  1.00  0.00     0.006 C 
ATOM     11  C   UNL     1       0.336   1.135   0.057  1.00  0.00     0.006 C 
ATOM     12  C   UNL     1      -1.193  -1.387   0.127  1.00  0.00     0.039 C 
ATOM     13  C   UNL     1      -1.141   1.082   0.438  1.00  0.00     0.039 C 
BRANCH   7  14
ATOM     14  N   UNL     1      -3.293  -0.119   0.244  1.00  0.00    -0.354 N 
ATOM     15  H   UNL     1      -3.432  -0.025   1.214  1.00  0.00     0.163 HD
BRANCH  14  16
ATOM     16  C   UNL     1      -4.402  -0.294  -0.564  1.00  0.00     0.149 A 
ATOM     17  C   UNL     1      -4.482  -1.245  -1.570  1.00  0.00     0.051 A 
ATOM     18  N   UNL     1      -5.399   0.609  -0.412  1.00  0.00    -0.132 NA
ATOM     19  C   UNL     1      -5.524  -1.184  -2.495  1.00  0.00     0.040 A 
ATOM     20  N   UNL     1      -6.423   0.696  -1.327  1.00  0.00    -0.143 NA
ATOM     21  C   UNL     1      -6.458  -0.175  -2.361  1.00  0.00     0.150 A 
BRANCH  21  22
ATOM     22  C   UNL     1      -7.504   0.040  -3.398  1.00  0.00     0.269 C 
ATOM     23  N   UNL     1      -8.247   1.186  -3.293  1.00  0.00    -0.364 N 
ATOM     24  O   UNL     1      -7.675  -0.750  -4.318  1.00  0.00    -0.268 OA
ATOM     25  H   UNL     1      -8.092   1.806  -2.544  1.00  0.00     0.160 HD
ATOM     26  H   UNL     1      -8.937   1.389  -3.965  1.00  0.00     0.160 HD
ENDBRANCH  21  22
ENDBRANCH  14  16
ENDBRANCH   7  14
ENDBRANCH   4   7
ENDBRANCH   2   3
ENDBRANCH   1   2
BRANCH   1  27
ATOM     27  C   UNL     1      -2.397   4.079  -3.671  1.00  0.00     0.023 C 
BRANCH  27  28
ATOM     28  C   UNL     1      -3.784   4.140  -4.304  1.00  0.00     0.116 C 
BRANCH  28  29
ATOM     29  N   UNL     1      -4.691   5.033  -3.596  1.00  0.00    -0.352 N 
ATOM     30  C   UNL     1      -5.551   5.966  -4.123  1.00  0.00     0.251 C 
ATOM     31  H   UNL     1      -4.688   4.958  -2.615  1.00  0.00     0.163 HD
ATOM     32  O   UNL     1      -6.153   6.743  -3.389  1.00  0.00    -0.269 OA
BRANCH  30  33
ATOM     33  C   UNL     1      -5.717   6.036  -5.588  1.00  0.00     0.039 A 
ATOM     34  C   UNL     1      -5.568   7.267  -6.230  1.00  0.00     0.014 A 
ATOM     35  C   UNL     1      -5.963   4.874  -6.324  1.00  0.00     0.014 A 
ATOM     36  C   UNL     1      -5.603   7.320  -7.625  1.00  0.00     0.010 A 
ATOM     37  C   UNL     1      -5.920   4.919  -7.712  1.00  0.00     0.010 A 
ATOM     38  C   UNL     1      -5.744   6.142  -8.377  1.00  0.00    -0.014 A 
BRANCH  38  39
ATOM     39  C   UNL     1      -5.695   6.164  -9.861  1.00  0.00     0.031 A 
ATOM     40  C   UNL     1      -6.891   5.727 -10.663  1.00  0.00     0.074 A 
ATOM     41  C   UNL     1      -4.546   6.489 -10.486  1.00  0.00     0.049 A 
ATOM     42  N   UNL     1      -7.021   5.624 -11.960  1.00  0.00    -0.248 NA
ATOM     43  C   UNL     1      -8.091   5.327  -9.907  1.00  0.00     0.031 C 
ATOM     44  C   UNL     1      -3.292   6.850  -9.819  1.00  0.00     0.029 A 
ATOM     45  N   UNL     1      -4.236   6.542 -11.822  1.00  0.00    -0.354 N 
ATOM     46  C   UNL     1      -8.295   5.114 -12.174  1.00  0.00     0.074 A 
ATOM     47  C   UNL     1      -8.888   4.895 -10.873  1.00  0.00     0.031 C 
ATOM     48  C   UNL     1      -2.353   7.090 -10.747  1.00  0.00     0.029 A 
ATOM     49  C   UNL     1      -2.924   6.872 -12.072  1.00  0.00     0.049 A 
ATOM     50  H   UNL     1      -4.891   6.361 -12.534  1.00  0.00     0.167 HD
ATOM     51  C   UNL     1      -8.929   4.878 -13.348  1.00  0.00     0.034 A 
ATOM     52  C   UNL     1      -2.256   6.981 -13.238  1.00  0.00     0.034 A 
ATOM     53  C   UNL     1      -8.352   5.138 -14.639  1.00  0.00     0.049 A 
ATOM     54  C   UNL     1      -2.995   6.752 -14.528  1.00  0.00     0.074 A 
ATOM     55  C   UNL     1      -8.943   5.020 -15.884  1.00  0.00     0.029 A 
ATOM     56  N   UNL     1      -7.048   5.558 -14.853  1.00  0.00    -0.354 N 
ATOM     57  N   UNL     1      -4.253   6.432 -14.713  1.00  0.00    -0.248 NA
ATOM     58  C   UNL     1      -2.234   6.937 -15.773  1.00  0.00     0.031 C 
ATOM     59  C   UNL     1      -7.989   5.345 -16.853  1.00  0.00     0.029 A 
ATOM     60  C   UNL     1      -6.812   5.695 -16.210  1.00  0.00     0.049 A 
ATOM     61  H   UNL     1      -6.388   5.733 -14.144  1.00  0.00     0.167 HD
ATOM     62  C   UNL     1      -4.444   6.413 -16.090  1.00  0.00     0.074 A 
ATOM     63  C   UNL     1      -3.177   6.775 -16.691  1.00  0.00     0.031 C 
ATOM     64  C   UNL     1      -5.562   6.109 -16.794  1.00  0.00     0.034 A 
BRANCH  51  65
ATOM     65  C   UNL     1     -10.343   4.362 -13.288  1.00  0.00     0.023 A 
ATOM     66  C   UNL     1     -11.377   5.215 -12.850  1.00  0.00     0.012 A 
ATOM     67  C   UNL     1     -10.659   3.058 -13.716  1.00  0.00     0.148 A 
ATOM     68  C   UNL     1     -12.697   4.769 -12.804  1.00  0.00     0.002 A 
ATOM     69  C   UNL     1     -11.984   2.635 -13.713  1.00  0.00     0.091 A 
ATOM     70  F   UNL     1      -9.661   2.254 -14.110  1.00  0.00    -0.205 F 
ATOM     71  C   UNL     1     -13.001   3.484 -13.245  1.00  0.00     0.022 A 
BRANCH  69  72
ATOM     72  S   UNL     1     -12.492   1.030 -14.339  1.00  0.00     0.127 S 
ATOM     73  O   UNL     1     -12.872   0.340 -13.107  1.00  0.00    -0.237 OA
ATOM     74  O   UNL     1     -13.612   1.382 -15.211  1.00  0.00    -0.237 OA
ATOM     75  O   UNL     1     -11.332   0.483 -15.030  1.00  0.00    -0.744 OA
ENDBRANCH  69  72
ENDBRANCH  51  65
BRANCH  52  76
ATOM     76  C   UNL     1      -0.822   7.390 -13.239  1.00  0.00     0.023 A 
ATOM     77  C   UNL     1      -0.467   8.663 -13.727  1.00  0.00     0.012 A 
ATOM     78  C   UNL     1       0.185   6.540 -12.742  1.00  0.00     0.148 A 
ATOM     79  C   UNL     1       0.867   9.070 -13.751  1.00  0.00     0.002 A 
ATOM     80  C   UNL     1       1.506   6.973 -12.717  1.00  0.00     0.091 A 
ATOM     81  F   UNL     1      -0.171   5.329 -12.292  1.00  0.00    -0.205 F 
ATOM     82  C   UNL     1       1.852   8.230 -13.238  1.00  0.00     0.022 A 
BRANCH  80  83
ATOM     83  S   UNL     1       2.820   6.015 -11.955  1.00  0.00     0.127 S 
ATOM     84  O   UNL     1       3.594   5.590 -13.118  1.00  0.00    -0.237 OA
ATOM     85  O   UNL     1       3.473   7.016 -11.111  1.00  0.00    -0.237 OA
ATOM     86  O   UNL     1       2.152   4.952 -11.215  1.00  0.00    -0.744 OA
ENDBRANCH  80  83
ENDBRANCH  52  76
BRANCH  64  87
ATOM     87  C   UNL     1      -5.489   6.192 -18.296  1.00  0.00     0.023 A 
ATOM     88  C   UNL     1      -4.771   5.219 -19.019  1.00  0.00     0.012 A 
ATOM     89  C   UNL     1      -6.196   7.191 -18.994  1.00  0.00     0.148 A 
ATOM     90  C   UNL     1      -4.732   5.258 -20.412  1.00  0.00     0.002 A 
ATOM     91  C   UNL     1      -6.194   7.194 -20.383  1.00  0.00     0.091 A 
ATOM     92  F   UNL     1      -6.858   8.119 -18.287  1.00  0.00    -0.205 F 
ATOM     93  C   UNL     1      -5.452   6.236 -21.094  1.00  0.00     0.022 A 
BRANCH  91  94
ATOM     94  S   UNL     1      -7.171   8.354 -21.346  1.00  0.00     0.127 S 
ATOM     95  O   UNL     1      -6.138   9.236 -21.887  1.00  0.00    -0.237 OA
ATOM     96  O   UNL     1      -7.807   7.481 -22.333  1.00  0.00    -0.237 OA
ATOM     97  O   UNL     1      -8.095   8.977 -20.407  1.00  0.00    -0.744 OA
ENDBRANCH  91  94
ENDBRANCH  64  87
ENDBRANCH  38  39
ENDBRANCH  30  33
ENDBRANCH  28  29
ENDBRANCH  27  28
ENDBRANCH   1  27
TORSDOF 17
