REMARK SMILES C[C@H]1CN(CCC(=O)NCCCCNC(=O)c2ccc(-c3c4nc(c(-c5cccc(S(=O)(=O)[O-])c5F)c5ccc([nH]5)c(-c5cccc(S(=O)(=O)[O-])c5F)c5nc(c(-c6cccc(S(=O)(=O)[O-])c6F)c6ccc3[nH]6)C=C5)C=C4)cc2)S(=O)(=O)C1
REMARK SMILES IDX 12 1 11 2 10 3 9 4 7 5 8 6 6 8 5 9 4 10 1 11 2 12 3 13 83 14
REMARK SMILES IDX 80 15 81 16 82 17 13 18 14 19 15 20 16 22 17 23 18 24 79 25
REMARK SMILES IDX 19 26 78 27 20 28 21 29 22 30 72 31 23 32 77 33 71 34 73 35
REMARK SMILES IDX 24 36 76 37 70 38 69 39 25 41 57 42 37 43 56 44 38 45 41 46
REMARK SMILES IDX 55 47 74 48 39 49 40 50 54 52 75 53 42 54 26 55 27 56 35 57
REMARK SMILES IDX 28 58 30 59 36 60 29 61 31 62 32 63 33 64 34 65 58 66 59 67
REMARK SMILES IDX 67 68 60 69 62 70 68 71 61 72 63 73 64 74 65 75 66 76 43 77
REMARK SMILES IDX 44 78 52 79 45 80 47 81 53 82 46 83 48 84 49 85 50 86 51 87
REMARK H PARENT 9 7 14 21 73 40 41 51
REMARK Flexibility Score: inf
ROOT
ATOM      1  C   UNL     1       2.856   1.197   4.534  1.00  0.00     0.023 C 
ENDROOT
BRANCH   1   2
ATOM      2  C   UNL     1       2.019   2.294   3.892  1.00  0.00     0.023 C 
BRANCH   2   3
ATOM      3  C   UNL     1       0.528   1.994   3.686  1.00  0.00     0.116 C 
BRANCH   3   4
ATOM      4  N   UNL     1      -0.338   3.050   4.181  1.00  0.00    -0.356 N 
ATOM      5  C   UNL     1      -1.313   3.789   3.584  1.00  0.00     0.221 C 
ATOM      6  O   UNL     1      -1.945   4.583   4.287  1.00  0.00    -0.275 OA
ATOM      7  H   UNL     1      -0.192   3.274   5.129  1.00  0.00     0.163 HD
BRANCH   5   8
ATOM      8  C   UNL     1      -1.676   3.635   2.119  1.00  0.00     0.116 C 
BRANCH   8   9
ATOM      9  C   UNL     1      -0.948   4.595   1.187  1.00  0.00     0.112 C 
BRANCH   9  10
ATOM     10  N   UNL     1      -0.101   3.969   0.153  1.00  0.00    -0.201 NA
ATOM     11  C   UNL     1      -0.621   0.634   0.225  1.00  0.00     0.010 C 
ATOM     12  C   UNL     1       0.188   1.679  -0.549  1.00  0.00     0.017 C 
ATOM     13  C   UNL     1      -0.608   2.980  -0.796  1.00  0.00     0.106 C 
ATOM     14  C   UNL     1       1.539   2.037   0.110  1.00  0.00     0.158 C 
ATOM     15  S   UNL     1       1.562   3.820   0.322  1.00  0.00     0.214 S 
ATOM     16  O   UNL     1       2.180   4.393  -0.850  1.00  0.00    -0.212 OA
ATOM     17  O   UNL     1       1.921   4.222   1.659  1.00  0.00    -0.212 OA
ENDBRANCH   9  10
ENDBRANCH   8   9
ENDBRANCH   5   8
ENDBRANCH   3   4
ENDBRANCH   2   3
ENDBRANCH   1   2
BRANCH   1  18
ATOM     18  C   UNL     1       2.770  -0.181   3.896  1.00  0.00     0.116 C 
BRANCH  18  19
ATOM     19  N   UNL     1       3.439  -0.344   2.608  1.00  0.00    -0.352 N 
ATOM     20  C   UNL     1       4.247  -1.385   2.183  1.00  0.00     0.251 C 
ATOM     21  H   UNL     1       3.298   0.382   1.958  1.00  0.00     0.163 HD
ATOM     22  O   UNL     1       4.690  -1.402   1.039  1.00  0.00    -0.269 OA
BRANCH  20  23
ATOM     23  C   UNL     1       4.634  -2.433   3.155  1.00  0.00     0.039 A 
ATOM     24  C   UNL     1       5.990  -2.691   3.365  1.00  0.00     0.014 A 
ATOM     25  C   UNL     1       3.673  -3.015   3.980  1.00  0.00     0.014 A 
ATOM     26  C   UNL     1       6.382  -3.426   4.486  1.00  0.00     0.010 A 
ATOM     27  C   UNL     1       4.074  -3.604   5.172  1.00  0.00     0.010 A 
ATOM     28  C   UNL     1       5.431  -3.827   5.441  1.00  0.00    -0.014 A 
BRANCH  28  29
ATOM     29  C   UNL     1       5.847  -4.467   6.719  1.00  0.00     0.031 A 
ATOM     30  C   UNL     1       5.302  -5.819   7.107  1.00  0.00     0.074 A 
ATOM     31  C   UNL     1       6.669  -3.810   7.566  1.00  0.00     0.049 A 
ATOM     32  N   UNL     1       5.578  -6.548   8.157  1.00  0.00    -0.248 NA
ATOM     33  C   UNL     1       4.285  -6.417   6.224  1.00  0.00     0.031 C 
ATOM     34  C   UNL     1       7.168  -2.444   7.378  1.00  0.00     0.029 A 
ATOM     35  N   UNL     1       7.226  -4.197   8.760  1.00  0.00    -0.354 N 
ATOM     36  C   UNL     1       4.749  -7.660   8.076  1.00  0.00     0.074 A 
ATOM     37  C   UNL     1       3.913  -7.483   6.913  1.00  0.00     0.031 C 
ATOM     38  C   UNL     1       7.988  -2.127   8.394  1.00  0.00     0.029 A 
ATOM     39  C   UNL     1       8.052  -3.250   9.322  1.00  0.00     0.049 A 
ATOM     40  H   UNL     1       7.050  -5.072   9.176  1.00  0.00     0.167 HD
ATOM     41  C   UNL     1       4.714  -8.757   8.868  1.00  0.00     0.034 A 
ATOM     42  C   UNL     1       8.788  -3.286  10.451  1.00  0.00     0.034 A 
ATOM     43  C   UNL     1       5.578  -8.954   9.998  1.00  0.00     0.049 A 
ATOM     44  C   UNL     1       8.791  -4.547  11.273  1.00  0.00     0.074 A 
ATOM     45  C   UNL     1       5.695 -10.068  10.809  1.00  0.00     0.029 A 
ATOM     46  N   UNL     1       6.468  -8.009  10.484  1.00  0.00    -0.354 N 
ATOM     47  N   UNL     1       8.133  -5.664  11.075  1.00  0.00    -0.248 NA
ATOM     48  C   UNL     1       9.672  -4.570  12.449  1.00  0.00     0.031 C 
ATOM     49  C   UNL     1       6.629  -9.782  11.809  1.00  0.00     0.029 A 
ATOM     50  C   UNL     1       7.129  -8.508  11.592  1.00  0.00     0.049 A 
ATOM     51  H   UNL     1       6.608  -7.114  10.098  1.00  0.00     0.167 HD
ATOM     52  C   UNL     1       8.546  -6.533  12.078  1.00  0.00     0.074 A 
ATOM     53  C   UNL     1       9.535  -5.822  12.862  1.00  0.00     0.031 C 
ATOM     54  C   UNL     1       8.136  -7.800  12.339  1.00  0.00     0.034 A 
BRANCH  41  55
ATOM     55  C   UNL     1       3.737  -9.848   8.508  1.00  0.00     0.023 A 
ATOM     56  C   UNL     1       3.934 -10.608   7.335  1.00  0.00     0.012 A 
ATOM     57  C   UNL     1       2.649 -10.147   9.349  1.00  0.00     0.148 A 
ATOM     58  C   UNL     1       3.040 -11.618   6.983  1.00  0.00     0.002 A 
ATOM     59  C   UNL     1       1.793 -11.191   9.020  1.00  0.00     0.091 A 
ATOM     60  F   UNL     1       2.464  -9.399  10.446  1.00  0.00    -0.205 F 
ATOM     61  C   UNL     1       1.978 -11.917   7.831  1.00  0.00     0.022 A 
BRANCH  59  62
ATOM     62  S   UNL     1       0.445 -11.712  10.084  1.00  0.00     0.127 S 
ATOM     63  O   UNL     1      -0.722 -11.343   9.284  1.00  0.00    -0.237 OA
ATOM     64  O   UNL     1       0.680 -13.152  10.191  1.00  0.00    -0.237 OA
ATOM     65  O   UNL     1       0.604 -10.973  11.329  1.00  0.00    -0.744 OA
ENDBRANCH  59  62
ENDBRANCH  41  55
BRANCH  42  66
ATOM     66  C   UNL     1       9.639  -2.122  10.836  1.00  0.00     0.023 A 
ATOM     67  C   UNL     1      11.044  -2.234  10.789  1.00  0.00     0.012 A 
ATOM     68  C   UNL     1       9.065  -0.902  11.240  1.00  0.00     0.148 A 
ATOM     69  C   UNL     1      11.858  -1.169  11.178  1.00  0.00     0.002 A 
ATOM     70  C   UNL     1       9.881   0.174  11.568  1.00  0.00     0.091 A 
ATOM     71  F   UNL     1       7.728  -0.817  11.288  1.00  0.00    -0.205 F 
ATOM     72  C   UNL     1      11.277   0.037  11.558  1.00  0.00     0.022 A 
BRANCH  70  73
ATOM     73  S   UNL     1       9.221   1.802  11.941  1.00  0.00     0.127 S 
ATOM     74  O   UNL     1       9.518   1.926  13.366  1.00  0.00    -0.237 OA
ATOM     75  O   UNL     1      10.024   2.659  11.067  1.00  0.00    -0.237 OA
ATOM     76  O   UNL     1       7.809   1.744  11.591  1.00  0.00    -0.744 OA
ENDBRANCH  70  73
ENDBRANCH  42  66
BRANCH  54  77
ATOM     77  C   UNL     1       8.785  -8.512  13.496  1.00  0.00     0.023 A 
ATOM     78  C   UNL     1       8.532  -8.094  14.818  1.00  0.00     0.012 A 
ATOM     79  C   UNL     1       9.620  -9.625  13.272  1.00  0.00     0.148 A 
ATOM     80  C   UNL     1       9.146  -8.735  15.894  1.00  0.00     0.002 A 
ATOM     81  C   UNL     1      10.180 -10.295  14.351  1.00  0.00     0.091 A 
ATOM     82  F   UNL     1       9.861 -10.000  12.007  1.00  0.00    -0.205 F 
ATOM     83  C   UNL     1       9.961  -9.840  15.661  1.00  0.00     0.022 A 
BRANCH  81  84
ATOM     84  S   UNL     1      11.154 -11.790  14.148  1.00  0.00     0.127 S 
ATOM     85  O   UNL     1      12.510 -11.295  14.382  1.00  0.00    -0.237 OA
ATOM     86  O   UNL     1      10.627 -12.650  15.208  1.00  0.00    -0.237 OA
ATOM     87  O   UNL     1      10.882 -12.263  12.798  1.00  0.00    -0.744 OA
ENDBRANCH  81  84
ENDBRANCH  54  77
ENDBRANCH  28  29
ENDBRANCH  20  23
ENDBRANCH  18  19
ENDBRANCH   1  18
TORSDOF 16
