REMARK SMILES Cc1ccccc1NC(=O)CSc1nc(C(=O)NCCCCNC(=O)c2ccc(-c3c4nc(c(-c5cccc(S(=O)(=O)[O-])c5F)c5ccc([nH]5)c(-c5cccc(S(=O)(=O)[O-])c5F)c5nc(c(-c6cccc(S(=O)(=O)[O-])c6F)c6ccc3[nH]6)C=C5)C=C4)cc2)c2ccccc2n1
REMARK SMILES IDX 20 1 19 2 18 3 16 4 17 5 15 7 13 8 14 9 95 10 94 11 89 12
REMARK SMILES IDX 93 13 90 14 92 15 91 16 12 17 11 18 9 19 8 20 10 22 7 23
REMARK SMILES IDX 1 24 2 25 3 26 4 27 6 28 5 29 21 30 22 31 23 32 24 33 25 35
REMARK SMILES IDX 26 36 27 37 88 38 28 39 87 40 29 41 30 42 31 43 81 44 32 45
REMARK SMILES IDX 86 46 80 47 82 48 33 49 85 50 79 51 78 52 34 54 66 55 46 56
REMARK SMILES IDX 65 57 47 58 50 59 64 60 83 61 48 62 49 63 63 65 84 66 51 67
REMARK SMILES IDX 35 68 36 69 44 70 37 71 39 72 45 73 38 74 40 75 41 76 42 77
REMARK SMILES IDX 43 78 67 79 68 80 76 81 69 82 71 83 77 84 70 85 72 86 73 87
REMARK SMILES IDX 74 88 75 89 52 90 53 91 61 92 54 93 56 94 62 95 55 96 57 97
REMARK SMILES IDX 58 98 59 99 60 100
REMARK H PARENT 18 6 8 21 23 34 82 53 50 64
REMARK Flexibility Score: inf
ROOT
ATOM      1  C   UNL     1      -2.734   7.240  -7.793  1.00  0.00     0.023 C 
ENDROOT
BRANCH   1   2
ATOM      2  C   UNL     1      -1.506   6.964  -6.934  1.00  0.00     0.116 C 
BRANCH   2   3
ATOM      3  N   UNL     1      -1.458   7.619  -5.636  1.00  0.00    -0.351 N 
ATOM      4  C   UNL     1      -1.023   7.143  -4.406  1.00  0.00     0.270 C 
ATOM      5  O   UNL     1      -0.974   7.931  -3.462  1.00  0.00    -0.267 OA
ATOM      6  H   UNL     1      -1.786   8.547  -5.628  1.00  0.00     0.163 HD
BRANCH   4   7
ATOM      7  C   UNL     1      -0.738   5.688  -4.167  1.00  0.00     0.140 A 
ATOM      8  C   UNL     1      -1.424   3.874  -2.979  1.00  0.00     0.189 A 
ATOM      9  N   UNL     1      -1.434   5.194  -3.113  1.00  0.00    -0.217 NA
ATOM     10  N   UNL     1      -0.898   3.017  -3.861  1.00  0.00    -0.222 NA
ATOM     11  C   UNL     1      -0.198   3.528  -4.878  1.00  0.00     0.076 A 
ATOM     12  C   UNL     1       0.025   4.897  -5.034  1.00  0.00     0.032 A 
ATOM     13  C   UNL     1       0.290   2.664  -5.850  1.00  0.00     0.029 A 
ATOM     14  C   UNL     1       0.910   5.347  -6.050  1.00  0.00     0.013 A 
ATOM     15  C   UNL     1       1.047   3.122  -6.932  1.00  0.00     0.002 A 
ATOM     16  C   UNL     1       1.391   4.464  -7.011  1.00  0.00     0.001 A 
BRANCH   8  17
ATOM     17  S   UNL     1      -2.311   3.173  -1.622  1.00  0.00    -0.076 SA
BRANCH  17  18
ATOM     18  C   UNL     1      -1.396   3.916  -0.239  1.00  0.00     0.178 C 
BRANCH  18  19
ATOM     19  C   UNL     1       0.079   3.574  -0.215  1.00  0.00     0.234 C 
ATOM     20  N   UNL     1       0.602   2.334  -0.012  1.00  0.00    -0.325 N 
ATOM     21  H   UNL     1       1.586   2.348   0.012  1.00  0.00     0.169 HD
ATOM     22  O   UNL     1       0.912   4.481  -0.358  1.00  0.00    -0.274 OA
BRANCH  20  23
ATOM     23  C   UNL     1       0.089   1.035   0.173  1.00  0.00     0.044 A 
ATOM     24  C   UNL     1       2.457   0.016  -0.145  1.00  0.00     0.046 C 
ATOM     25  C   UNL     1       0.962  -0.072   0.039  1.00  0.00    -0.027 A 
ATOM     26  C   UNL     1       0.429  -1.379   0.052  1.00  0.00     0.005 A 
ATOM     27  C   UNL     1      -0.929  -1.602   0.244  1.00  0.00     0.000 A 
ATOM     28  C   UNL     1      -1.254   0.778   0.461  1.00  0.00     0.026 A 
ATOM     29  C   UNL     1      -1.766  -0.523   0.477  1.00  0.00     0.002 A 
ENDBRANCH  20  23
ENDBRANCH  18  19
ENDBRANCH  17  18
ENDBRANCH   8  17
ENDBRANCH   4   7
ENDBRANCH   2   3
ENDBRANCH   1   2
BRANCH   1  30
ATOM     30  C   UNL     1      -3.038   8.690  -8.128  1.00  0.00     0.023 C 
BRANCH  30  31
ATOM     31  C   UNL     1      -1.907   9.497  -8.745  1.00  0.00     0.116 C 
BRANCH  31  32
ATOM     32  N   UNL     1      -1.612   9.197 -10.136  1.00  0.00    -0.352 N 
ATOM     33  C   UNL     1      -0.773   9.850 -11.026  1.00  0.00     0.251 C 
ATOM     34  H   UNL     1      -2.079   8.411 -10.501  1.00  0.00     0.163 HD
ATOM     35  O   UNL     1      -0.805   9.498 -12.205  1.00  0.00    -0.269 OA
BRANCH  33  36
ATOM     36  C   UNL     1       0.247  10.833 -10.559  1.00  0.00     0.039 A 
ATOM     37  C   UNL     1       1.480  10.887 -11.230  1.00  0.00     0.014 A 
ATOM     38  C   UNL     1       0.104  11.526  -9.363  1.00  0.00     0.014 A 
ATOM     39  C   UNL     1       2.613  11.370 -10.572  1.00  0.00     0.010 A 
ATOM     40  C   UNL     1       1.226  11.896  -8.665  1.00  0.00     0.010 A 
ATOM     41  C   UNL     1       2.488  11.742  -9.242  1.00  0.00    -0.014 A 
BRANCH  41  42
ATOM     42  C   UNL     1       3.572  11.938  -8.296  1.00  0.00     0.031 A 
ATOM     43  C   UNL     1       3.913  13.304  -7.855  1.00  0.00     0.074 A 
ATOM     44  C   UNL     1       3.940  10.855  -7.573  1.00  0.00     0.049 A 
ATOM     45  N   UNL     1       4.853  13.585  -7.022  1.00  0.00    -0.248 NA
ATOM     46  C   UNL     1       3.210  14.482  -8.351  1.00  0.00     0.031 C 
ATOM     47  C   UNL     1       4.533  10.834  -6.242  1.00  0.00     0.029 A 
ATOM     48  N   UNL     1       4.035   9.524  -8.002  1.00  0.00    -0.354 N 
ATOM     49  C   UNL     1       4.672  14.893  -6.626  1.00  0.00     0.074 A 
ATOM     50  C   UNL     1       3.734  15.435  -7.575  1.00  0.00     0.031 C 
ATOM     51  C   UNL     1       5.185   9.671  -6.081  1.00  0.00     0.029 A 
ATOM     52  C   UNL     1       5.195   9.027  -7.382  1.00  0.00     0.049 A 
ATOM     53  H   UNL     1       3.423   9.043  -8.605  1.00  0.00     0.167 HD
ATOM     54  C   UNL     1       5.228  15.292  -5.446  1.00  0.00     0.034 A 
ATOM     55  C   UNL     1       6.325   8.696  -8.077  1.00  0.00     0.034 A 
ATOM     56  C   UNL     1       6.174  14.271  -4.959  1.00  0.00     0.049 A 
ATOM     57  C   UNL     1       7.559   9.471  -7.634  1.00  0.00     0.074 A 
ATOM     58  C   UNL     1       6.124  13.311  -3.962  1.00  0.00     0.029 A 
ATOM     59  N   UNL     1       7.290  13.970  -5.734  1.00  0.00    -0.354 N 
ATOM     60  N   UNL     1       7.538  10.496  -6.826  1.00  0.00    -0.248 NA
ATOM     61  C   UNL     1       8.915   9.152  -8.069  1.00  0.00     0.031 C 
ATOM     62  C   UNL     1       7.159  12.364  -4.216  1.00  0.00     0.029 A 
ATOM     63  C   UNL     1       7.861  12.771  -5.339  1.00  0.00     0.049 A 
ATOM     64  H   UNL     1       7.628  14.534  -6.466  1.00  0.00     0.167 HD
ATOM     65  C   UNL     1       8.792  11.041  -6.712  1.00  0.00     0.074 A 
ATOM     66  C   UNL     1       9.630  10.108  -7.449  1.00  0.00     0.031 C 
ATOM     67  C   UNL     1       9.010  12.236  -6.070  1.00  0.00     0.034 A 
BRANCH  54  68
ATOM     68  C   UNL     1       4.790  16.479  -4.590  1.00  0.00     0.023 A 
ATOM     69  C   UNL     1       5.351  16.578  -3.294  1.00  0.00     0.012 A 
ATOM     70  C   UNL     1       3.804  17.450  -4.897  1.00  0.00     0.148 A 
ATOM     71  C   UNL     1       4.931  17.529  -2.354  1.00  0.00     0.002 A 
ATOM     72  C   UNL     1       3.389  18.409  -3.965  1.00  0.00     0.091 A 
ATOM     73  F   UNL     1       3.224  17.466  -6.093  1.00  0.00    -0.205 F 
ATOM     74  C   UNL     1       3.943  18.443  -2.686  1.00  0.00     0.022 A 
BRANCH  72  75
ATOM     75  S   UNL     1       2.106  19.627  -4.330  1.00  0.00     0.127 S 
ATOM     76  O   UNL     1       1.077  19.291  -3.346  1.00  0.00    -0.237 OA
ATOM     77  O   UNL     1       2.796  20.892  -4.080  1.00  0.00    -0.237 OA
ATOM     78  O   UNL     1       1.710  19.415  -5.717  1.00  0.00    -0.744 OA
ENDBRANCH  72  75
ENDBRANCH  54  68
BRANCH  55  79
ATOM     79  C   UNL     1       6.049   8.200  -9.460  1.00  0.00     0.023 A 
ATOM     80  C   UNL     1       5.299   7.001  -9.560  1.00  0.00     0.012 A 
ATOM     81  C   UNL     1       6.128   9.043 -10.584  1.00  0.00     0.148 A 
ATOM     82  C   UNL     1       4.528   6.726 -10.690  1.00  0.00     0.002 A 
ATOM     83  C   UNL     1       5.362   8.754 -11.716  1.00  0.00     0.091 A 
ATOM     84  F   UNL     1       6.880  10.147 -10.504  1.00  0.00    -0.205 F 
ATOM     85  C   UNL     1       4.530   7.622 -11.751  1.00  0.00     0.022 A 
BRANCH  83  86
ATOM     86  S   UNL     1       5.283   9.864 -13.130  1.00  0.00     0.127 S 
ATOM     87  O   UNL     1       6.202   9.216 -14.061  1.00  0.00    -0.237 OA
ATOM     88  O   UNL     1       3.871   9.790 -13.505  1.00  0.00    -0.237 OA
ATOM     89  O   UNL     1       5.694  11.161 -12.614  1.00  0.00    -0.744 OA
ENDBRANCH  83  86
ENDBRANCH  55  79
BRANCH  67  90
ATOM     90  C   UNL     1      10.303  13.049  -6.085  1.00  0.00     0.023 A 
ATOM     91  C   UNL     1      11.337  12.821  -7.013  1.00  0.00     0.012 A 
ATOM     92  C   UNL     1      10.462  14.185  -5.242  1.00  0.00     0.148 A 
ATOM     93  C   UNL     1      12.479  13.631  -7.076  1.00  0.00     0.002 A 
ATOM     94  C   UNL     1      11.542  15.055  -5.389  1.00  0.00     0.091 A 
ATOM     95  F   UNL     1       9.577  14.428  -4.266  1.00  0.00    -0.205 F 
ATOM     96  C   UNL     1      12.570  14.765  -6.283  1.00  0.00     0.022 A 
BRANCH  94  97
ATOM     97  S   UNL     1      11.559  16.652  -4.559  1.00  0.00     0.127 S 
ATOM     98  O   UNL     1      12.260  16.345  -3.316  1.00  0.00    -0.237 OA
ATOM     99  O   UNL     1      12.316  17.488  -5.494  1.00  0.00    -0.237 OA
ATOM    100  O   UNL     1      10.155  17.023  -4.438  1.00  0.00    -0.744 OA
ENDBRANCH  94  97
ENDBRANCH  67  90
ENDBRANCH  41  42
ENDBRANCH  33  36
ENDBRANCH  31  32
ENDBRANCH  30  31
ENDBRANCH   1  30
TORSDOF 18
