REMARK SMILES CC(C)C[C@H](NC(=O)CNC(=O)[C@@H](NC(=O)OCc1ccccc1)C(C)C)C(=O)N[C@@H](C)C(=O)NCCCCNC(=O)c1ccc(-c2c3nc(c(-c4cccc(S(=O)(=O)[O-])c4F)c4ccc([nH]4)c(-c4cccc(S(=O)(=O)[O-])c4F)c4nc(c(-c5cccc(S(=O)(=O)[O-])c5F)c5ccc2[nH]5)C=C4)C=C3)cc1
REMARK SMILES IDX 31 1 32 2 30 3 28 4 29 5 5 7 4 8 2 9 1 10 3 11 6 12 7 13
REMARK SMILES IDX 8 15 9 16 10 17 11 18 12 20 13 21 14 22 15 23 16 25 17 26
REMARK SMILES IDX 18 27 19 28 20 29 24 30 21 31 23 32 22 33 25 34 26 35 27 36
REMARK SMILES IDX 33 37 34 38 35 39 36 41 37 42 38 43 39 44 40 45 41 46 42 48
REMARK SMILES IDX 43 49 44 50 105 51 45 52 104 53 46 54 47 55 48 56 98 57
REMARK SMILES IDX 49 58 103 59 97 60 99 61 50 62 102 63 96 64 95 65 51 67
REMARK SMILES IDX 83 68 63 69 82 70 64 71 67 72 81 73 100 74 65 75 66 76 80 78
REMARK SMILES IDX 101 79 68 80 52 81 53 82 61 83 54 84 56 85 62 86 55 87 57 88
REMARK SMILES IDX 58 89 59 90 60 91 84 92 85 93 93 94 86 95 88 96 94 97 87 98
REMARK SMILES IDX 89 99 90 100 91 101 92 102 69 103 70 104 78 105 71 106
REMARK SMILES IDX 73 107 79 108 72 109 74 110 75 111 76 112 77 113
REMARK H PARENT 30 6 6 14 10 19 14 24 35 40 40 47 99 66 67 77
REMARK Flexibility Score: inf
ROOT
ATOM      1  C   UNL     1      -3.119   3.408   1.642  1.00  0.00     0.168 C 
ATOM      2  C   UNL     1      -3.437   4.444   0.575  1.00  0.00     0.041 C 
ENDROOT
BRANCH   1   3
ATOM      3  N   UNL     1      -3.562   2.071   1.239  1.00  0.00    -0.343 N 
ATOM      4  C   UNL     1      -2.944   0.864   1.383  1.00  0.00     0.243 C 
ATOM      5  O   UNL     1      -3.643  -0.146   1.273  1.00  0.00    -0.273 OA
ATOM      6  H   UNL     1      -4.441   2.038   0.797  1.00  0.00     0.164 HD
BRANCH   4   7
ATOM      7  C   UNL     1      -1.451   0.769   1.753  1.00  0.00     0.171 C 
BRANCH   7   8
ATOM      8  C   UNL     1      -1.209   1.099   3.233  1.00  0.00     0.038 C 
BRANCH   8   9
ATOM      9  C   UNL     1      -2.064   0.303   4.251  1.00  0.00    -0.015 C 
ATOM     10  C   UNL     1      -1.993  -1.217   4.096  1.00  0.00     0.007 C 
ATOM     11  C   UNL     1      -1.632   0.673   5.673  1.00  0.00     0.007 C 
ENDBRANCH   8   9
ENDBRANCH   7   8
BRANCH   7  12
ATOM     12  N   UNL     1      -0.684   1.583   0.800  1.00  0.00    -0.343 N 
ATOM     13  C   UNL     1       0.530   1.425   0.217  1.00  0.00     0.240 C 
ATOM     14  H   UNL     1      -1.144   2.410   0.530  1.00  0.00     0.164 HD
ATOM     15  O   UNL     1       0.761   2.141  -0.765  1.00  0.00    -0.273 OA
BRANCH  13  16
ATOM     16  C   UNL     1       1.537   0.336   0.607  1.00  0.00     0.216 C 
BRANCH  16  17
ATOM     17  N   UNL     1       1.620  -0.001   2.008  1.00  0.00    -0.345 N 
ATOM     18  C   UNL     1       1.410  -1.144   2.702  1.00  0.00     0.243 C 
ATOM     19  H   UNL     1       1.884   0.757   2.577  1.00  0.00     0.164 HD
ATOM     20  O   UNL     1       1.671  -1.082   3.911  1.00  0.00    -0.273 OA
BRANCH  18  21
ATOM     21  C   UNL     1       0.997  -2.507   2.081  1.00  0.00     0.177 C 
BRANCH  21  22
ATOM     22  N   UNL     1      -0.144  -2.401   1.170  1.00  0.00    -0.309 N 
ATOM     23  C   UNL     1      -0.256  -2.306  -0.173  1.00  0.00     0.408 C 
ATOM     24  H   UNL     1      -1.013  -2.397   1.634  1.00  0.00     0.167 HD
ATOM     25  O   UNL     1      -1.243  -1.753  -0.662  1.00  0.00    -0.225 OA
BRANCH  23  26
ATOM     26  O   UNL     1       0.750  -2.859  -0.876  1.00  0.00    -0.445 OA
BRANCH  26  27
ATOM     27  C   UNL     1       0.496  -3.000  -2.283  1.00  0.00     0.270 C 
BRANCH  27  28
ATOM     28  C   UNL     1      -0.379  -4.204  -2.560  1.00  0.00    -0.011 A 
ATOM     29  C   UNL     1       0.185  -5.454  -2.844  1.00  0.00     0.007 A 
ATOM     30  C   UNL     1      -1.778  -4.101  -2.487  1.00  0.00     0.007 A 
ATOM     31  C   UNL     1      -0.633  -6.569  -3.050  1.00  0.00     0.000 A 
ATOM     32  C   UNL     1      -2.592  -5.218  -2.667  1.00  0.00     0.000 A 
ATOM     33  C   UNL     1      -2.019  -6.453  -2.953  1.00  0.00     0.000 A 
ENDBRANCH  27  28
ENDBRANCH  26  27
ENDBRANCH  23  26
ENDBRANCH  21  22
BRANCH  21  34
ATOM     34  C   UNL     1       2.200  -3.349   1.616  1.00  0.00     0.015 C 
ATOM     35  C   UNL     1       3.313  -3.375   2.676  1.00  0.00     0.010 C 
ATOM     36  C   UNL     1       1.768  -4.798   1.352  1.00  0.00     0.010 C 
ENDBRANCH  21  34
ENDBRANCH  18  21
ENDBRANCH  16  17
ENDBRANCH  13  16
ENDBRANCH   7  12
ENDBRANCH   4   7
ENDBRANCH   1   3
BRANCH   1  37
ATOM     37  C   UNL     1      -3.650   3.815   3.029  1.00  0.00     0.242 C 
ATOM     38  O   UNL     1      -2.875   4.242   3.890  1.00  0.00    -0.273 OA
ATOM     39  N   UNL     1      -4.976   3.807   3.326  1.00  0.00    -0.354 N 
ATOM     40  H   UNL     1      -5.188   4.033   4.261  1.00  0.00     0.163 HD
BRANCH  39  41
ATOM     41  C   UNL     1      -6.127   3.520   2.499  1.00  0.00     0.116 C 
BRANCH  41  42
ATOM     42  C   UNL     1      -6.952   2.364   3.054  1.00  0.00     0.023 C 
BRANCH  42  43
ATOM     43  C   UNL     1      -7.631   2.654   4.395  1.00  0.00     0.023 C 
BRANCH  43  44
ATOM     44  C   UNL     1      -8.395   3.972   4.466  1.00  0.00     0.116 C 
BRANCH  44  45
ATOM     45  N   UNL     1      -9.353   4.135   3.382  1.00  0.00    -0.352 N 
ATOM     46  C   UNL     1     -10.609   4.688   3.418  1.00  0.00     0.251 C 
ATOM     47  H   UNL     1      -9.060   3.803   2.503  1.00  0.00     0.163 HD
ATOM     48  O   UNL     1     -11.323   4.646   2.420  1.00  0.00    -0.269 OA
BRANCH  46  49
ATOM     49  C   UNL     1     -11.103   5.297   4.669  1.00  0.00     0.039 A 
ATOM     50  C   UNL     1     -12.382   4.960   5.115  1.00  0.00     0.014 A 
ATOM     51  C   UNL     1     -10.304   6.174   5.408  1.00  0.00     0.014 A 
ATOM     52  C   UNL     1     -12.839   5.463   6.334  1.00  0.00     0.010 A 
ATOM     53  C   UNL     1     -10.731   6.609   6.659  1.00  0.00     0.010 A 
ATOM     54  C   UNL     1     -12.007   6.268   7.130  1.00  0.00    -0.014 A 
BRANCH  54  55
ATOM     55  C   UNL     1     -12.463   6.743   8.461  1.00  0.00     0.031 A 
ATOM     56  C   UNL     1     -12.630   8.214   8.732  1.00  0.00     0.074 A 
ATOM     57  C   UNL     1     -12.677   5.847   9.445  1.00  0.00     0.049 A 
ATOM     58  N   UNL     1     -13.054   8.806   9.818  1.00  0.00    -0.248 NA
ATOM     59  C   UNL     1     -12.248   9.144   7.656  1.00  0.00     0.031 C 
ATOM     60  C   UNL     1     -12.457   4.402   9.337  1.00  0.00     0.029 A 
ATOM     61  N   UNL     1     -13.115   6.018  10.734  1.00  0.00    -0.354 N 
ATOM     62  C   UNL     1     -12.959  10.170   9.571  1.00  0.00     0.074 A 
ATOM     63  C   UNL     1     -12.401  10.321   8.245  1.00  0.00     0.031 C 
ATOM     64  C   UNL     1     -12.784   3.818  10.500  1.00  0.00     0.029 A 
ATOM     65  C   UNL     1     -13.215   4.844  11.444  1.00  0.00     0.049 A 
ATOM     66  H   UNL     1     -13.337   6.899  11.115  1.00  0.00     0.167 HD
ATOM     67  C   UNL     1     -13.333  11.205  10.361  1.00  0.00     0.034 A 
ATOM     68  C   UNL     1     -13.619   4.620  12.709  1.00  0.00     0.034 A 
ATOM     69  C   UNL     1     -13.931  11.049  11.659  1.00  0.00     0.049 A 
ATOM     70  C   UNL     1     -14.088   5.783  13.541  1.00  0.00     0.074 A 
ATOM     71  C   UNL     1     -14.438  12.027  12.496  1.00  0.00     0.029 A 
ATOM     72  N   UNL     1     -14.094   9.839  12.316  1.00  0.00    -0.354 N 
ATOM     73  N   UNL     1     -14.164   7.051  13.219  1.00  0.00    -0.248 NA
ATOM     74  C   UNL     1     -14.567   5.477  14.896  1.00  0.00     0.031 C 
ATOM     75  C   UNL     1     -14.884  11.411  13.670  1.00  0.00     0.029 A 
ATOM     76  C   UNL     1     -14.682  10.045  13.552  1.00  0.00     0.049 A 
ATOM     77  H   UNL     1     -13.829   8.962  11.955  1.00  0.00     0.167 HD
ATOM     78  C   UNL     1     -14.734   7.689  14.316  1.00  0.00     0.074 A 
ATOM     79  C   UNL     1     -15.008   6.660  15.299  1.00  0.00     0.031 C 
ATOM     80  C   UNL     1     -14.994   9.007  14.500  1.00  0.00     0.034 A 
BRANCH  67  81
ATOM     81  C   UNL     1     -13.155  12.601   9.820  1.00  0.00     0.023 A 
ATOM     82  C   UNL     1     -13.983  13.053   8.772  1.00  0.00     0.012 A 
ATOM     83  C   UNL     1     -12.217  13.484  10.389  1.00  0.00     0.148 A 
ATOM     84  C   UNL     1     -13.857  14.349   8.274  1.00  0.00     0.002 A 
ATOM     85  C   UNL     1     -12.130  14.790   9.919  1.00  0.00     0.091 A 
ATOM     86  F   UNL     1     -11.424  13.031  11.370  1.00  0.00    -0.205 F 
ATOM     87  C   UNL     1     -12.939  15.220   8.854  1.00  0.00     0.022 A 
BRANCH  85  88
ATOM     88  S   UNL     1     -11.038  16.013  10.652  1.00  0.00     0.127 S 
ATOM     89  O   UNL     1     -10.039  16.185   9.598  1.00  0.00    -0.237 OA
ATOM     90  O   UNL     1     -11.934  17.155  10.834  1.00  0.00    -0.237 OA
ATOM     91  O   UNL     1     -10.546  15.423  11.889  1.00  0.00    -0.744 OA
ENDBRANCH  85  88
ENDBRANCH  67  81
BRANCH  68  92
ATOM     92  C   UNL     1     -13.682   3.228  13.240  1.00  0.00     0.023 A 
ATOM     93  C   UNL     1     -14.938   2.639  13.488  1.00  0.00     0.012 A 
ATOM     94  C   UNL     1     -12.514   2.482  13.485  1.00  0.00     0.148 A 
ATOM     95  C   UNL     1     -15.030   1.348  14.008  1.00  0.00     0.002 A 
ATOM     96  C   UNL     1     -12.614   1.175  13.950  1.00  0.00     0.091 A 
ATOM     97  F   UNL     1     -11.329   3.062  13.253  1.00  0.00    -0.205 F 
ATOM     98  C   UNL     1     -13.869   0.613  14.230  1.00  0.00     0.022 A 
BRANCH  96  99
ATOM     99  S   UNL     1     -11.179   0.111  14.138  1.00  0.00     0.127 S 
ATOM    100  O   UNL     1     -11.056   0.029  15.591  1.00  0.00    -0.237 OA
ATOM    101  O   UNL     1     -11.628  -1.121  13.487  1.00  0.00    -0.237 OA
ATOM    102  O   UNL     1     -10.093   0.792  13.446  1.00  0.00    -0.744 OA
ENDBRANCH  96  99
ENDBRANCH  68  92
BRANCH  80 103
ATOM    103  C   UNL     1     -15.639   9.412  15.800  1.00  0.00     0.023 A 
ATOM    104  C   UNL     1     -14.901   9.356  16.999  1.00  0.00     0.012 A 
ATOM    105  C   UNL     1     -16.962   9.896  15.826  1.00  0.00     0.148 A 
ATOM    106  C   UNL     1     -15.483   9.731  18.209  1.00  0.00     0.002 A 
ATOM    107  C   UNL     1     -17.518  10.319  17.027  1.00  0.00     0.091 A 
ATOM    108  F   UNL     1     -17.657   9.925  14.679  1.00  0.00    -0.205 F 
ATOM    109  C   UNL     1     -16.787  10.222  18.222  1.00  0.00     0.022 A 
BRANCH 107 110
ATOM    110  S   UNL     1     -19.153  11.057  17.118  1.00  0.00     0.127 S 
ATOM    111  O   UNL     1     -19.944   9.963  17.679  1.00  0.00    -0.237 OA
ATOM    112  O   UNL     1     -18.938  12.182  18.028  1.00  0.00    -0.237 OA
ATOM    113  O   UNL     1     -19.491  11.443  15.755  1.00  0.00    -0.744 OA
ENDBRANCH 107 110
ENDBRANCH  80 103
ENDBRANCH  54  55
ENDBRANCH  46  49
ENDBRANCH  44  45
ENDBRANCH  43  44
ENDBRANCH  42  43
ENDBRANCH  41  42
ENDBRANCH  39  41
ENDBRANCH   1  37
TORSDOF 27
