REMARK SMILES CCCCCNC(=O)Oc1cccc(-c2ccc([C@@H](C)C(=O)NCCCCNC(=O)c3ccc(-c4c5nc(c(-c6cccc(S(=O)(=O)[O-])c6F)c6ccc([nH]6)c(-c6cccc(S(=O)(=O)[O-])c6F)c6nc(c(-c7cccc(S(=O)(=O)[O-])c7F)c7ccc4[nH]7)C=C6)C=C5)cc3)cc2F)c1
REMARK SMILES IDX 21 1 22 2 23 3 19 5 20 6 18 7 15 8 16 9 95 10 17 11 94 12
REMARK SMILES IDX 96 13 14 14 10 15 11 16 97 17 12 18 13 19 9 20 7 21 6 22
REMARK SMILES IDX 8 24 5 25 4 26 3 27 2 28 1 29 24 30 25 31 26 32 27 33 28 34
REMARK SMILES IDX 29 35 30 37 31 38 32 39 93 40 33 41 92 42 34 43 35 44 36 45
REMARK SMILES IDX 86 46 37 47 91 48 85 49 87 50 38 51 90 52 84 53 83 54 39 56
REMARK SMILES IDX 71 57 51 58 70 59 52 60 55 61 69 62 88 63 53 64 54 65 68 67
REMARK SMILES IDX 89 68 56 69 40 70 41 71 49 72 42 73 44 74 50 75 43 76 45 77
REMARK SMILES IDX 46 78 47 79 48 80 72 81 73 82 81 83 74 84 76 85 82 86 75 87
REMARK SMILES IDX 77 88 78 89 79 90 80 91 57 92 58 93 66 94 59 95 61 96 67 97
REMARK SMILES IDX 60 98 62 99 63 100 64 101 65 102
REMARK H PARENT 23 4 6 23 28 36 87 55 55 66
REMARK Flexibility Score: inf
ROOT
ATOM      1  C   UNL     1      -2.252  -3.315 -13.388  1.00  0.00     0.227 C 
ATOM      2  O   UNL     1      -1.175  -2.756 -13.629  1.00  0.00    -0.274 OA
ATOM      3  N   UNL     1      -3.381  -2.599 -13.642  1.00  0.00    -0.356 N 
ATOM      4  H   UNL     1      -3.214  -1.711 -14.034  1.00  0.00     0.163 HD
ENDROOT
BRANCH   1   5
ATOM      5  C   UNL     1      -2.251  -4.756 -12.853  1.00  0.00     0.105 C 
ATOM      6  C   UNL     1      -2.913  -5.767 -13.787  1.00  0.00     0.023 C 
BRANCH   5   7
ATOM      7  C   UNL     1      -2.631  -4.867 -11.385  1.00  0.00    -0.033 A 
ATOM      8  C   UNL     1      -3.295  -4.822  -8.601  1.00  0.00     0.018 A 
ATOM      9  C   UNL     1      -4.279  -4.950  -9.594  1.00  0.00     0.012 A 
ATOM     10  C   UNL     1      -1.965  -4.775  -9.043  1.00  0.00     0.131 A 
ATOM     11  C   UNL     1      -3.950  -5.018 -10.952  1.00  0.00     0.005 A 
ATOM     12  C   UNL     1      -1.636  -4.772 -10.402  1.00  0.00     0.044 A 
ATOM     13  F   UNL     1      -0.954  -4.730  -8.161  1.00  0.00    -0.206 F 
BRANCH   8  14
ATOM     14  C   UNL     1      -3.676  -4.712  -7.176  1.00  0.00    -0.012 A 
ATOM     15  C   UNL     1      -3.394  -3.726  -4.970  1.00  0.00     0.133 A 
ATOM     16  C   UNL     1      -4.478  -4.439  -4.470  1.00  0.00     0.047 A 
ATOM     17  C   UNL     1      -2.985  -3.862  -6.299  1.00  0.00     0.056 A 
ATOM     18  C   UNL     1      -5.176  -5.288  -5.320  1.00  0.00     0.004 A 
ATOM     19  C   UNL     1      -4.774  -5.426  -6.653  1.00  0.00     0.009 A 
BRANCH  15  20
ATOM     20  O   UNL     1      -2.655  -2.959  -4.059  1.00  0.00    -0.410 OA
BRANCH  20  21
ATOM     21  C   UNL     1      -2.439  -1.626  -4.377  1.00  0.00     0.412 C 
ATOM     22  N   UNL     1      -1.598  -1.000  -3.498  1.00  0.00    -0.321 N 
ATOM     23  H   UNL     1      -1.410  -0.049  -3.667  1.00  0.00     0.167 HD
ATOM     24  O   UNL     1      -2.928  -1.023  -5.323  1.00  0.00    -0.224 OA
BRANCH  22  25
ATOM     25  C   UNL     1      -0.957  -1.595  -2.345  1.00  0.00     0.119 C 
BRANCH  25  26
ATOM     26  C   UNL     1       0.567  -1.507  -2.425  1.00  0.00     0.021 C 
BRANCH  26  27
ATOM     27  C   UNL     1       1.133  -0.082  -2.405  1.00  0.00     0.002 C 
BRANCH  27  28
ATOM     28  C   UNL     1       0.717   0.778  -1.208  1.00  0.00    -0.003 C 
ATOM     29  C   UNL     1       1.126   0.192   0.134  1.00  0.00     0.004 C 
ENDBRANCH  27  28
ENDBRANCH  26  27
ENDBRANCH  25  26
ENDBRANCH  22  25
ENDBRANCH  20  21
ENDBRANCH  15  20
ENDBRANCH   8  14
ENDBRANCH   5   7
ENDBRANCH   1   5
BRANCH   3  30
ATOM     30  C   UNL     1      -4.782  -2.902 -13.440  1.00  0.00     0.116 C 
BRANCH  30  31
ATOM     31  C   UNL     1      -5.322  -2.301 -12.141  1.00  0.00     0.023 C 
BRANCH  31  32
ATOM     32  C   UNL     1      -5.851  -0.875 -12.266  1.00  0.00     0.023 C 
BRANCH  32  33
ATOM     33  C   UNL     1      -7.016  -0.698 -13.233  1.00  0.00     0.116 C 
BRANCH  33  34
ATOM     34  N   UNL     1      -8.168  -1.542 -12.933  1.00  0.00    -0.352 N 
ATOM     35  C   UNL     1      -9.503  -1.230 -13.061  1.00  0.00     0.251 C 
ATOM     36  H   UNL     1      -7.966  -2.445 -12.598  1.00  0.00     0.163 HD
ATOM     37  O   UNL     1     -10.368  -2.015 -12.688  1.00  0.00    -0.269 OA
BRANCH  35  38
ATOM     38  C   UNL     1      -9.872   0.089 -13.616  1.00  0.00     0.039 A 
ATOM     39  C   UNL     1     -10.726   0.917 -12.884  1.00  0.00     0.014 A 
ATOM     40  C   UNL     1      -9.292   0.537 -14.805  1.00  0.00     0.014 A 
ATOM     41  C   UNL     1     -10.928   2.233 -13.303  1.00  0.00     0.010 A 
ATOM     42  C   UNL     1      -9.428   1.871 -15.171  1.00  0.00     0.010 A 
ATOM     43  C   UNL     1     -10.241   2.735 -14.421  1.00  0.00    -0.014 A 
BRANCH  43  44
ATOM     44  C   UNL     1     -10.327   4.168 -14.806  1.00  0.00     0.031 A 
ATOM     45  C   UNL     1     -10.868   4.556 -16.155  1.00  0.00     0.074 A 
ATOM     46  C   UNL     1      -9.819   5.109 -13.984  1.00  0.00     0.049 A 
ATOM     47  N   UNL     1     -10.944   5.741 -16.701  1.00  0.00    -0.248 NA
ATOM     48  C   UNL     1     -11.364   3.467 -17.015  1.00  0.00     0.031 C 
ATOM     49  C   UNL     1      -9.189   4.852 -12.687  1.00  0.00     0.029 A 
ATOM     50  N   UNL     1      -9.722   6.471 -14.133  1.00  0.00    -0.354 N 
ATOM     51  C   UNL     1     -11.457   5.538 -17.977  1.00  0.00     0.074 A 
ATOM     52  C   UNL     1     -11.645   4.114 -18.137  1.00  0.00     0.031 C 
ATOM     53  C   UNL     1      -8.772   6.015 -12.160  1.00  0.00     0.029 A 
ATOM     54  C   UNL     1      -9.070   7.095 -13.093  1.00  0.00     0.049 A 
ATOM     55  H   UNL     1     -10.085   6.955 -14.909  1.00  0.00     0.167 HD
ATOM     56  C   UNL     1     -11.767   6.458 -18.921  1.00  0.00     0.034 A 
ATOM     57  C   UNL     1      -8.734   8.389 -12.920  1.00  0.00     0.034 A 
ATOM     58  C   UNL     1     -11.618   7.876 -18.743  1.00  0.00     0.049 A 
ATOM     59  C   UNL     1      -9.124   9.392 -13.973  1.00  0.00     0.074 A 
ATOM     60  C   UNL     1     -11.996   8.893 -19.602  1.00  0.00     0.029 A 
ATOM     61  N   UNL     1     -11.036   8.479 -17.640  1.00  0.00    -0.354 N 
ATOM     62  N   UNL     1      -9.763   9.198 -15.101  1.00  0.00    -0.248 NA
ATOM     63  C   UNL     1      -8.776  10.797 -13.714  1.00  0.00     0.031 C 
ATOM     64  C   UNL     1     -11.611  10.111 -19.032  1.00  0.00     0.029 A 
ATOM     65  C   UNL     1     -11.028   9.854 -17.802  1.00  0.00     0.049 A 
ATOM     66  H   UNL     1     -10.680   8.001 -16.856  1.00  0.00     0.167 HD
ATOM     67  C   UNL     1      -9.924  10.457 -15.669  1.00  0.00     0.074 A 
ATOM     68  C   UNL     1      -9.339  11.408 -14.747  1.00  0.00     0.031 C 
ATOM     69  C   UNL     1     -10.490  10.794 -16.854  1.00  0.00     0.034 A 
BRANCH  56  70
ATOM     70  C   UNL     1     -12.348   5.965 -20.220  1.00  0.00     0.023 A 
ATOM     71  C   UNL     1     -13.663   5.457 -20.248  1.00  0.00     0.012 A 
ATOM     72  C   UNL     1     -11.624   6.078 -21.423  1.00  0.00     0.148 A 
ATOM     73  C   UNL     1     -14.238   5.043 -21.449  1.00  0.00     0.002 A 
ATOM     74  C   UNL     1     -12.221   5.707 -22.622  1.00  0.00     0.091 A 
ATOM     75  F   UNL     1     -10.368   6.544 -21.372  1.00  0.00    -0.205 F 
ATOM     76  C   UNL     1     -13.523   5.179 -22.635  1.00  0.00     0.022 A 
BRANCH  74  77
ATOM     77  S   UNL     1     -11.417   5.918 -24.214  1.00  0.00     0.127 S 
ATOM     78  O   UNL     1     -11.208   4.530 -24.625  1.00  0.00    -0.237 OA
ATOM     79  O   UNL     1     -12.439   6.633 -24.979  1.00  0.00    -0.237 OA
ATOM     80  O   UNL     1     -10.203   6.679 -23.956  1.00  0.00    -0.744 OA
ENDBRANCH  74  77
ENDBRANCH  56  70
BRANCH  57  81
ATOM     81  C   UNL     1      -8.025   8.823 -11.682  1.00  0.00     0.023 A 
ATOM     82  C   UNL     1      -8.694   9.638 -10.747  1.00  0.00     0.012 A 
ATOM     83  C   UNL     1      -6.696   8.435 -11.425  1.00  0.00     0.148 A 
ATOM     84  C   UNL     1      -8.040  10.093  -9.602  1.00  0.00     0.002 A 
ATOM     85  C   UNL     1      -6.070   8.844 -10.253  1.00  0.00     0.091 A 
ATOM     86  F   UNL     1      -6.071   7.670 -12.331  1.00  0.00    -0.205 F 
ATOM     87  C   UNL     1      -6.732   9.689  -9.350  1.00  0.00     0.022 A 
BRANCH  85  88
ATOM     88  S   UNL     1      -4.434   8.267  -9.787  1.00  0.00     0.127 S 
ATOM     89  O   UNL     1      -3.627   9.469  -9.980  1.00  0.00    -0.237 OA
ATOM     90  O   UNL     1      -4.637   7.878  -8.391  1.00  0.00    -0.237 OA
ATOM     91  O   UNL     1      -4.142   7.156 -10.682  1.00  0.00    -0.744 OA
ENDBRANCH  85  88
ENDBRANCH  57  81
BRANCH  69  92
ATOM     92  C   UNL     1     -10.544  12.256 -17.212  1.00  0.00     0.023 A 
ATOM     93  C   UNL     1      -9.363  12.938 -17.567  1.00  0.00     0.012 A 
ATOM     94  C   UNL     1     -11.777  12.936 -17.264  1.00  0.00     0.148 A 
ATOM     95  C   UNL     1      -9.404  14.282 -17.934  1.00  0.00     0.002 A 
ATOM     96  C   UNL     1     -11.817  14.260 -17.682  1.00  0.00     0.091 A 
ATOM     97  F   UNL     1     -12.888  12.274 -16.907  1.00  0.00    -0.205 F 
ATOM     98  C   UNL     1     -10.630  14.939 -18.003  1.00  0.00     0.022 A 
BRANCH  96  99
ATOM     99  S   UNL     1     -13.358  15.157 -17.898  1.00  0.00     0.127 S 
ATOM    100  O   UNL     1     -13.307  16.108 -16.788  1.00  0.00    -0.237 OA
ATOM    101  O   UNL     1     -13.186  15.755 -19.222  1.00  0.00    -0.237 OA
ATOM    102  O   UNL     1     -14.418  14.161 -17.817  1.00  0.00    -0.744 OA
ENDBRANCH  96  99
ENDBRANCH  69  92
ENDBRANCH  43  44
ENDBRANCH  35  38
ENDBRANCH  33  34
ENDBRANCH  32  33
ENDBRANCH  31  32
ENDBRANCH  30  31
ENDBRANCH   3  30
TORSDOF 22
