REMARK SMILES CCN(CC)c1ccc([C@@H]2c3[nH]c4ccccc4c3C[C@@H](C(=O)NCCCCNC(=O)c3ccc(-c4c5nc(c(-c6cccc(S(=O)(=O)[O-])c6F)c6ccc([nH]6)c(-c6cccc(S(=O)(=O)[O-])c6F)c6nc(c(-c7cccc(S(=O)(=O)[O-])c7F)c7ccc4[nH]7)C=C6)C=C5)cc3)N2C(C)=O)cc1
REMARK SMILES IDX 26 1 25 2 24 3 22 4 23 5 21 7 10 8 11 9 95 10 12 11 19 12
REMARK SMILES IDX 13 13 18 15 20 16 14 17 17 18 15 19 16 20 9 21 6 22 7 23
REMARK SMILES IDX 100 24 8 25 99 26 3 27 2 28 1 29 4 30 5 31 96 32 97 33 98 34
REMARK SMILES IDX 27 35 28 36 29 37 30 38 31 40 32 41 33 42 94 43 34 44 93 45
REMARK SMILES IDX 35 46 36 47 37 48 87 49 38 50 92 51 86 52 88 53 39 54 91 55
REMARK SMILES IDX 85 56 84 57 40 59 72 60 52 61 71 62 53 63 56 64 70 65 89 66
REMARK SMILES IDX 54 67 55 68 69 70 90 71 57 72 41 73 42 74 50 75 43 76 45 77
REMARK SMILES IDX 51 78 44 79 46 80 47 81 48 82 49 83 73 84 74 85 82 86 75 87
REMARK SMILES IDX 77 88 83 89 76 90 78 91 79 92 80 93 81 94 58 95 59 96 67 97
REMARK SMILES IDX 60 98 62 99 68 100 61 101 63 102 64 103 65 104 66 105
REMARK H PARENT 24 6 12 14 29 39 88 58 56 69
REMARK Flexibility Score: inf
ROOT
ATOM      1  C   UNL     1       6.471  -1.048   6.103  1.00  0.00     0.023 C 
ENDROOT
BRANCH   1   2
ATOM      2  C   UNL     1       7.892  -1.274   5.571  1.00  0.00     0.116 C 
BRANCH   2   3
ATOM      3  N   UNL     1       8.033  -1.159   4.099  1.00  0.00    -0.354 N 
ATOM      4  C   UNL     1       8.340  -0.217   3.156  1.00  0.00     0.243 C 
ATOM      5  O   UNL     1       8.446  -0.668   2.003  1.00  0.00    -0.273 OA
ATOM      6  H   UNL     1       7.849  -2.026   3.670  1.00  0.00     0.163 HD
BRANCH   4   7
ATOM      7  C   UNL     1       8.389   1.347   3.330  1.00  0.00     0.179 C 
ATOM      8  C   UNL     1       5.951   1.447   3.584  1.00  0.00     0.163 C 
ATOM      9  C   UNL     1       6.245   1.852   5.019  1.00  0.00     0.047 A 
ATOM     10  N   UNL     1       7.108   2.027   2.901  1.00  0.00    -0.318 N 
ATOM     11  N   UNL     1       5.366   2.042   6.048  1.00  0.00    -0.356 N 
ATOM     12  C   UNL     1       7.526   2.052   5.539  1.00  0.00    -0.014 A 
ATOM     13  C   UNL     1       6.016   2.661   7.091  1.00  0.00     0.046 A 
ATOM     14  H   UNL     1       4.418   1.777   6.043  1.00  0.00     0.166 HD
ATOM     15  C   UNL     1       7.382   2.640   6.812  1.00  0.00     0.003 A 
ATOM     16  C   UNL     1       8.772   1.807   4.746  1.00  0.00     0.073 C 
ATOM     17  C   UNL     1       5.497   3.231   8.251  1.00  0.00     0.026 A 
ATOM     18  C   UNL     1       8.285   3.192   7.733  1.00  0.00     0.010 A 
ATOM     19  C   UNL     1       6.406   3.829   9.127  1.00  0.00     0.002 A 
ATOM     20  C   UNL     1       7.778   3.806   8.879  1.00  0.00     0.001 A 
BRANCH   8  21
ATOM     21  C   UNL     1       4.579   1.625   2.974  1.00  0.00    -0.019 A 
ATOM     22  C   UNL     1       1.877   1.459   2.051  1.00  0.00     0.037 A 
ATOM     23  C   UNL     1       2.239   2.217   3.164  1.00  0.00     0.026 A 
ATOM     24  C   UNL     1       2.940   0.930   1.308  1.00  0.00     0.026 A 
ATOM     25  C   UNL     1       3.557   2.326   3.601  1.00  0.00     0.008 A 
ATOM     26  C   UNL     1       4.267   0.997   1.760  1.00  0.00     0.008 A 
BRANCH  22  27
ATOM     27  N   UNL     1       0.547   1.231   1.717  1.00  0.00    -0.372 N 
BRANCH  27  28
ATOM     28  C   UNL     1       0.125  -0.143   1.396  1.00  0.00     0.113 C 
ATOM     29  C   UNL     1       0.247  -0.466  -0.087  1.00  0.00     0.027 C 
ENDBRANCH  27  28
BRANCH  27  30
ATOM     30  C   UNL     1      -0.511   2.184   2.086  1.00  0.00     0.113 C 
ATOM     31  C   UNL     1      -0.929   2.109   3.554  1.00  0.00     0.027 C 
ENDBRANCH  27  30
ENDBRANCH  22  27
ENDBRANCH   8  21
BRANCH  10  32
ATOM     32  C   UNL     1       6.994   3.395   2.613  1.00  0.00     0.220 C 
ATOM     33  C   UNL     1       8.221   4.265   2.528  1.00  0.00     0.114 C 
ATOM     34  O   UNL     1       5.912   3.974   2.471  1.00  0.00    -0.275 OA
ENDBRANCH  10  32
ENDBRANCH   4   7
ENDBRANCH   2   3
ENDBRANCH   1   2
BRANCH   1  35
ATOM     35  C   UNL     1       5.866  -2.053   7.078  1.00  0.00     0.023 C 
BRANCH  35  36
ATOM     36  C   UNL     1       6.481  -2.116   8.472  1.00  0.00     0.116 C 
BRANCH  36  37
ATOM     37  N   UNL     1       6.343  -0.921   9.305  1.00  0.00    -0.352 N 
ATOM     38  C   UNL     1       6.067  -0.823  10.665  1.00  0.00     0.251 C 
ATOM     39  H   UNL     1       6.461  -0.064   8.835  1.00  0.00     0.163 HD
ATOM     40  O   UNL     1       6.008   0.267  11.207  1.00  0.00    -0.269 OA
BRANCH  38  41
ATOM     41  C   UNL     1       5.782  -2.054  11.453  1.00  0.00     0.039 A 
ATOM     42  C   UNL     1       4.708  -2.067  12.350  1.00  0.00     0.014 A 
ATOM     43  C   UNL     1       6.520  -3.217  11.252  1.00  0.00     0.014 A 
ATOM     44  C   UNL     1       4.299  -3.275  12.934  1.00  0.00     0.010 A 
ATOM     45  C   UNL     1       6.030  -4.431  11.718  1.00  0.00     0.010 A 
ATOM     46  C   UNL     1       4.916  -4.483  12.569  1.00  0.00    -0.014 A 
BRANCH  46  47
ATOM     47  C   UNL     1       4.441  -5.811  13.055  1.00  0.00     0.031 A 
ATOM     48  C   UNL     1       5.407  -6.747  13.741  1.00  0.00     0.074 A 
ATOM     49  C   UNL     1       3.193  -6.239  12.767  1.00  0.00     0.049 A 
ATOM     50  N   UNL     1       5.241  -7.994  14.100  1.00  0.00    -0.248 NA
ATOM     51  C   UNL     1       6.762  -6.230  14.005  1.00  0.00     0.031 C 
ATOM     52  C   UNL     1       2.184  -5.487  12.015  1.00  0.00     0.029 A 
ATOM     53  N   UNL     1       2.567  -7.430  13.048  1.00  0.00    -0.354 N 
ATOM     54  C   UNL     1       6.480  -8.423  14.565  1.00  0.00     0.074 A 
ATOM     55  C   UNL     1       7.401  -7.324  14.388  1.00  0.00     0.031 C 
ATOM     56  C   UNL     1       1.066  -6.224  11.912  1.00  0.00     0.029 A 
ATOM     57  C   UNL     1       1.281  -7.512  12.562  1.00  0.00     0.049 A 
ATOM     58  H   UNL     1       2.999  -8.158  13.550  1.00  0.00     0.167 HD
ATOM     59  C   UNL     1       6.818  -9.605  15.133  1.00  0.00     0.034 A 
ATOM     60  C   UNL     1       0.376  -8.510  12.635  1.00  0.00     0.034 A 
ATOM     61  C   UNL     1       5.881 -10.661  15.399  1.00  0.00     0.049 A 
ATOM     62  C   UNL     1       0.741  -9.773  13.372  1.00  0.00     0.074 A 
ATOM     63  C   UNL     1       6.092 -11.852  16.070  1.00  0.00     0.029 A 
ATOM     64  N   UNL     1       4.548 -10.645  15.020  1.00  0.00    -0.354 N 
ATOM     65  N   UNL     1       1.876 -10.097  13.943  1.00  0.00    -0.248 NA
ATOM     66  C   UNL     1      -0.313 -10.788  13.515  1.00  0.00     0.031 C 
ATOM     67  C   UNL     1       4.885 -12.560  16.091  1.00  0.00     0.029 A 
ATOM     68  C   UNL     1       3.919 -11.798  15.451  1.00  0.00     0.049 A 
ATOM     69  H   UNL     1       4.113  -9.918  14.517  1.00  0.00     0.167 HD
ATOM     70  C   UNL     1       1.659 -11.329  14.551  1.00  0.00     0.074 A 
ATOM     71  C   UNL     1       0.279 -11.684  14.293  1.00  0.00     0.031 C 
ATOM     72  C   UNL     1       2.527 -12.104  15.246  1.00  0.00     0.034 A 
BRANCH  59  73
ATOM     73  C   UNL     1       8.248  -9.781  15.579  1.00  0.00     0.023 A 
ATOM     74  C   UNL     1       8.736  -9.026  16.666  1.00  0.00     0.012 A 
ATOM     75  C   UNL     1       9.100 -10.707  14.947  1.00  0.00     0.148 A 
ATOM     76  C   UNL     1      10.060  -9.149  17.083  1.00  0.00     0.002 A 
ATOM     77  C   UNL     1      10.405 -10.863  15.403  1.00  0.00     0.091 A 
ATOM     78  F   UNL     1       8.629 -11.404  13.903  1.00  0.00    -0.205 F 
ATOM     79  C   UNL     1      10.891 -10.073  16.458  1.00  0.00     0.022 A 
BRANCH  77  80
ATOM     80  S   UNL     1      11.531 -12.086  14.722  1.00  0.00     0.127 S 
ATOM     81  O   UNL     1      12.481 -11.242  13.999  1.00  0.00    -0.237 OA
ATOM     82  O   UNL     1      12.069 -12.713  15.930  1.00  0.00    -0.237 OA
ATOM     83  O   UNL     1      10.717 -12.964  13.894  1.00  0.00    -0.744 OA
ENDBRANCH  77  80
ENDBRANCH  59  73
BRANCH  60  84
ATOM     84  C   UNL     1      -0.999  -8.321  12.086  1.00  0.00     0.023 A 
ATOM     85  C   UNL     1      -2.081  -8.187  12.979  1.00  0.00     0.012 A 
ATOM     86  C   UNL     1      -1.244  -8.259  10.701  1.00  0.00     0.148 A 
ATOM     87  C   UNL     1      -3.385  -8.036  12.505  1.00  0.00     0.002 A 
ATOM     88  C   UNL     1      -2.539  -8.053  10.235  1.00  0.00     0.091 A 
ATOM     89  F   UNL     1      -0.205  -8.396   9.865  1.00  0.00    -0.205 F 
ATOM     90  C   UNL     1      -3.613  -7.960  11.134  1.00  0.00     0.022 A 
BRANCH  88  91
ATOM     91  S   UNL     1      -2.913  -7.818   8.494  1.00  0.00     0.127 S 
ATOM     92  O   UNL     1      -3.610  -9.059   8.166  1.00  0.00    -0.237 OA
ATOM     93  O   UNL     1      -3.761  -6.625   8.525  1.00  0.00    -0.237 OA
ATOM     94  O   UNL     1      -1.627  -7.621   7.839  1.00  0.00    -0.744 OA
ENDBRANCH  88  91
ENDBRANCH  60  84
BRANCH  72  95
ATOM     95  C   UNL     1       2.005 -13.389  15.833  1.00  0.00     0.023 A 
ATOM     96  C   UNL     1       1.712 -14.480  14.992  1.00  0.00     0.012 A 
ATOM     97  C   UNL     1       1.876 -13.537  17.228  1.00  0.00     0.148 A 
ATOM     98  C   UNL     1       1.265 -15.687  15.528  1.00  0.00     0.002 A 
ATOM     99  C   UNL     1       1.479 -14.758  17.758  1.00  0.00     0.091 A 
ATOM    100  F   UNL     1       2.139 -12.480  18.012  1.00  0.00    -0.205 F 
ATOM    101  C   UNL     1       1.160 -15.830  16.910  1.00  0.00     0.022 A 
BRANCH  99 102
ATOM    102  S   UNL     1       1.418 -15.056  19.529  1.00  0.00     0.127 S 
ATOM    103  O   UNL     1      -0.017 -14.984  19.795  1.00  0.00    -0.237 OA
ATOM    104  O   UNL     1       1.993 -16.397  19.641  1.00  0.00    -0.237 OA
ATOM    105  O   UNL     1       2.225 -14.005  20.136  1.00  0.00    -0.744 OA
ENDBRANCH  99 102
ENDBRANCH  72  95
ENDBRANCH  46  47
ENDBRANCH  38  41
ENDBRANCH  36  37
ENDBRANCH  35  36
ENDBRANCH   1  35
TORSDOF 19
