REMARK SMILES C[C@@H]1C[C@@H]1NC(=O)Cn1cccc1C(=O)NCCCCNC(=O)c1ccc(-c2c3nc(c(-c4cccc(S(=O)(=O)[O-])c4F)c4ccc([nH]4)c(-c4cccc(S(=O)(=O)[O-])c4F)c4nc(c(-c5cccc(S(=O)(=O)[O-])c5F)c5ccc2[nH]5)C=C4)C=C3)cc1
REMARK SMILES IDX 18 1 17 2 16 3 14 4 15 5 13 7 9 8 10 9 11 10 12 11 8 12 6 13
REMARK SMILES IDX 5 14 7 16 4 17 1 18 2 19 3 20 19 21 20 22 21 23 22 24 23 26
REMARK SMILES IDX 24 27 25 28 86 29 26 30 85 31 27 32 28 33 29 34 79 35 30 36
REMARK SMILES IDX 84 37 78 38 80 39 31 40 83 41 77 42 76 43 32 45 64 46 44 47
REMARK SMILES IDX 63 48 45 49 48 50 62 51 81 52 46 53 47 54 61 56 82 57 49 58
REMARK SMILES IDX 33 59 34 60 42 61 35 62 37 63 43 64 36 65 38 66 39 67 40 68
REMARK SMILES IDX 41 69 65 70 66 71 74 72 67 73 69 74 75 75 68 76 70 77 71 78
REMARK SMILES IDX 72 79 73 80 50 81 51 82 59 83 52 84 54 85 60 86 53 87 55 88
REMARK SMILES IDX 56 89 57 90 58 91
REMARK H PARENT 16 6 5 15 21 25 80 44 48 55
REMARK Flexibility Score: inf
ROOT
ATOM      1  C   UNL     1       2.362   1.866   2.016  1.00  0.00     0.023 C 
ENDROOT
BRANCH   1   2
ATOM      2  C   UNL     1       1.618   2.758   3.053  1.00  0.00     0.116 C 
BRANCH   2   3
ATOM      3  N   UNL     1       0.888   3.880   2.407  1.00  0.00    -0.351 N 
ATOM      4  C   UNL     1      -0.302   4.467   2.061  1.00  0.00     0.267 C 
ATOM      5  O   UNL     1      -0.039   5.607   1.635  1.00  0.00    -0.268 OA
ATOM      6  H   UNL     1       1.586   4.485   2.068  1.00  0.00     0.163 HD
BRANCH   4   7
ATOM      7  C   UNL     1      -1.734   4.062   2.025  1.00  0.00     0.107 A 
ATOM      8  N   UNL     1      -2.548   2.931   2.157  1.00  0.00    -0.334 N 
ATOM      9  C   UNL     1      -3.884   3.261   1.917  1.00  0.00     0.087 A 
ATOM     10  C   UNL     1      -3.968   4.568   1.550  1.00  0.00     0.020 A 
ATOM     11  C   UNL     1      -2.660   5.061   1.639  1.00  0.00     0.033 A 
BRANCH   8  12
ATOM     12  C   UNL     1      -2.303   1.510   2.367  1.00  0.00     0.222 C 
BRANCH  12  13
ATOM     13  C   UNL     1      -0.934   1.036   2.102  1.00  0.00     0.240 C 
ATOM     14  N   UNL     1      -0.344   1.510   0.968  1.00  0.00    -0.352 N 
ATOM     15  H   UNL     1       0.567   1.864   1.092  1.00  0.00     0.163 HD
ATOM     16  O   UNL     1      -0.346   0.304   2.897  1.00  0.00    -0.273 OA
BRANCH  14  17
ATOM     17  C   UNL     1      -0.832   1.573  -0.361  1.00  0.00     0.085 C 
ATOM     18  C   UNL     1       0.620  -0.491  -0.929  1.00  0.00     0.010 C 
ATOM     19  C   UNL     1      -0.315   0.591  -1.378  1.00  0.00     0.010 C 
ATOM     20  C   UNL     1       0.140   2.025  -1.424  1.00  0.00     0.030 C 
ENDBRANCH  14  17
ENDBRANCH  12  13
ENDBRANCH   8  12
ENDBRANCH   4   7
ENDBRANCH   2   3
ENDBRANCH   1   2
BRANCH   1  21
ATOM     21  C   UNL     1       3.889   1.796   1.978  1.00  0.00     0.023 C 
BRANCH  21  22
ATOM     22  C   UNL     1       4.568   1.251   3.219  1.00  0.00     0.116 C 
BRANCH  22  23
ATOM     23  N   UNL     1       4.153  -0.106   3.541  1.00  0.00    -0.352 N 
ATOM     24  C   UNL     1       4.439  -0.803   4.698  1.00  0.00     0.251 C 
ATOM     25  H   UNL     1       3.613  -0.575   2.865  1.00  0.00     0.163 HD
ATOM     26  O   UNL     1       4.375  -2.017   4.736  1.00  0.00    -0.269 OA
BRANCH  24  27
ATOM     27  C   UNL     1       4.862  -0.036   5.887  1.00  0.00     0.039 A 
ATOM     28  C   UNL     1       6.080  -0.351   6.493  1.00  0.00     0.014 A 
ATOM     29  C   UNL     1       4.062   1.012   6.359  1.00  0.00     0.014 A 
ATOM     30  C   UNL     1       6.541   0.449   7.531  1.00  0.00     0.010 A 
ATOM     31  C   UNL     1       4.530   1.824   7.380  1.00  0.00     0.010 A 
ATOM     32  C   UNL     1       5.782   1.556   7.945  1.00  0.00    -0.014 A 
BRANCH  32  33
ATOM     33  C   UNL     1       6.417   2.553   8.837  1.00  0.00     0.031 A 
ATOM     34  C   UNL     1       7.438   3.423   8.032  1.00  0.00     0.074 A 
ATOM     35  C   UNL     1       6.034   2.496  10.151  1.00  0.00     0.049 A 
ATOM     36  N   UNL     1       8.627   3.868   8.338  1.00  0.00    -0.248 NA
ATOM     37  C   UNL     1       7.128   3.710   6.599  1.00  0.00     0.031 C 
ATOM     38  C   UNL     1       4.980   1.609  10.707  1.00  0.00     0.029 A 
ATOM     39  N   UNL     1       6.431   3.152  11.293  1.00  0.00    -0.354 N 
ATOM     40  C   UNL     1       9.080   4.654   7.236  1.00  0.00     0.074 A 
ATOM     41  C   UNL     1       8.194   4.377   6.151  1.00  0.00     0.031 C 
ATOM     42  C   UNL     1       4.907   1.713  12.055  1.00  0.00     0.029 A 
ATOM     43  C   UNL     1       5.893   2.667  12.517  1.00  0.00     0.049 A 
ATOM     44  H   UNL     1       7.052   3.915  11.264  1.00  0.00     0.167 HD
ATOM     45  C   UNL     1      10.031   5.634   7.341  1.00  0.00     0.034 A 
ATOM     46  C   UNL     1       6.289   2.953  13.803  1.00  0.00     0.034 A 
ATOM     47  C   UNL     1      10.417   5.770   8.705  1.00  0.00     0.049 A 
ATOM     48  C   UNL     1       7.397   3.899  13.628  1.00  0.00     0.074 A 
ATOM     49  C   UNL     1      11.407   5.322   9.539  1.00  0.00     0.029 A 
ATOM     50  N   UNL     1       9.543   6.537   9.430  1.00  0.00    -0.354 N 
ATOM     51  N   UNL     1       7.270   5.129  13.241  1.00  0.00    -0.248 NA
ATOM     52  C   UNL     1       8.730   3.311  13.554  1.00  0.00     0.031 C 
ATOM     53  C   UNL     1      11.012   5.734  10.837  1.00  0.00     0.029 A 
ATOM     54  C   UNL     1       9.702   6.202  10.739  1.00  0.00     0.049 A 
ATOM     55  H   UNL     1       8.917   7.206   9.070  1.00  0.00     0.167 HD
ATOM     56  C   UNL     1       8.450   5.377  12.580  1.00  0.00     0.074 A 
ATOM     57  C   UNL     1       9.346   4.267  12.874  1.00  0.00     0.031 C 
ATOM     58  C   UNL     1       8.532   6.268  11.561  1.00  0.00     0.034 A 
BRANCH  45  59
ATOM     59  C   UNL     1      10.477   6.813   6.462  1.00  0.00     0.023 A 
ATOM     60  C   UNL     1      11.653   7.489   6.917  1.00  0.00     0.012 A 
ATOM     61  C   UNL     1       9.701   7.495   5.507  1.00  0.00     0.148 A 
ATOM     62  C   UNL     1      11.946   8.814   6.598  1.00  0.00     0.002 A 
ATOM     63  C   UNL     1      10.040   8.807   5.133  1.00  0.00     0.091 A 
ATOM     64  F   UNL     1       8.603   6.915   5.013  1.00  0.00    -0.205 F 
ATOM     65  C   UNL     1      11.124   9.482   5.716  1.00  0.00     0.022 A 
BRANCH  63  66
ATOM     66  S   UNL     1       9.136   9.752   3.896  1.00  0.00     0.127 S 
ATOM     67  O   UNL     1       8.461  10.758   4.711  1.00  0.00    -0.237 OA
ATOM     68  O   UNL     1      10.224  10.277   3.066  1.00  0.00    -0.237 OA
ATOM     69  O   UNL     1       8.282   8.790   3.213  1.00  0.00    -0.744 OA
ENDBRANCH  63  66
ENDBRANCH  45  59
BRANCH  46  70
ATOM     70  C   UNL     1       6.089   2.361  15.181  1.00  0.00     0.023 A 
ATOM     71  C   UNL     1       4.987   1.575  15.543  1.00  0.00     0.012 A 
ATOM     72  C   UNL     1       7.100   2.515  16.184  1.00  0.00     0.148 A 
ATOM     73  C   UNL     1       4.947   0.897  16.780  1.00  0.00     0.002 A 
ATOM     74  C   UNL     1       7.114   1.757  17.352  1.00  0.00     0.091 A 
ATOM     75  F   UNL     1       8.062   3.431  16.018  1.00  0.00    -0.205 F 
ATOM     76  C   UNL     1       6.027   0.947  17.661  1.00  0.00     0.022 A 
BRANCH  74  77
ATOM     77  S   UNL     1       8.570   1.658  18.418  1.00  0.00     0.127 S 
ATOM     78  O   UNL     1       8.021   1.993  19.731  1.00  0.00    -0.237 OA
ATOM     79  O   UNL     1       8.957   0.256  18.255  1.00  0.00    -0.237 OA
ATOM     80  O   UNL     1       9.532   2.616  17.889  1.00  0.00    -0.744 OA
ENDBRANCH  74  77
ENDBRANCH  46  70
BRANCH  58  81
ATOM     81  C   UNL     1       7.219   6.966  11.198  1.00  0.00     0.023 A 
ATOM     82  C   UNL     1       6.760   7.993  12.033  1.00  0.00     0.012 A 
ATOM     83  C   UNL     1       6.365   6.565  10.131  1.00  0.00     0.148 A 
ATOM     84  C   UNL     1       5.518   8.603  11.816  1.00  0.00     0.002 A 
ATOM     85  C   UNL     1       5.118   7.160   9.923  1.00  0.00     0.091 A 
ATOM     86  F   UNL     1       6.789   5.610   9.305  1.00  0.00    -0.205 F 
ATOM     87  C   UNL     1       4.698   8.190  10.767  1.00  0.00     0.022 A 
BRANCH  85  88
ATOM     88  S   UNL     1       3.948   6.631   8.646  1.00  0.00     0.127 S 
ATOM     89  O   UNL     1       2.711   6.447   9.408  1.00  0.00    -0.237 OA
ATOM     90  O   UNL     1       3.930   7.783   7.748  1.00  0.00    -0.237 OA
ATOM     91  O   UNL     1       4.480   5.400   8.072  1.00  0.00    -0.744 OA
ENDBRANCH  85  88
ENDBRANCH  58  81
ENDBRANCH  32  33
ENDBRANCH  24  27
ENDBRANCH  22  23
ENDBRANCH  21  22
ENDBRANCH   1  21
TORSDOF 17
