REMARK SMILES C[C@@H]([N@@H+](C)[C@@H]1COC[C@@H]1C(=O)NCCCCNC(=O)c1ccc(-c2c3nc(c(-c4cccc(S(=O)(=O)[O-])c4F)c4ccc([nH]4)c(-c4cccc(S(=O)(=O)[O-])c4F)c4nc(c(-c5cccc(S(=O)(=O)[O-])c5F)c5ccc2[nH]5)C=C4)C=C3)cc1)C1(C)CC1
REMARK SMILES IDX 14 1 13 2 12 3 10 4 11 5 9 7 5 8 6 9 7 10 8 11 3 12 4 13
REMARK SMILES IDX 2 15 1 16 83 17 84 18 85 19 86 20 15 21 16 22 17 23 18 24
REMARK SMILES IDX 19 26 20 27 21 28 82 29 22 30 81 31 23 32 24 33 25 34 75 35
REMARK SMILES IDX 26 36 80 37 74 38 76 39 27 40 79 41 73 42 72 43 28 45 60 46
REMARK SMILES IDX 40 47 59 48 41 49 44 50 58 51 77 52 42 53 43 54 57 56 78 57
REMARK SMILES IDX 45 58 29 59 30 60 38 61 31 62 33 63 39 64 32 65 34 66 35 67
REMARK SMILES IDX 36 68 37 69 61 70 62 71 70 72 63 73 65 74 71 75 64 76 66 77
REMARK SMILES IDX 67 78 68 79 69 80 46 81 47 82 55 83 48 84 50 85 56 86 49 87
REMARK SMILES IDX 51 88 52 89 53 90 54 91
REMARK H PARENT 12 6 3 14 17 25 76 44 44 55
REMARK Flexibility Score: inf
ROOT
ATOM      1  C   UNL     1      -0.065   0.806   0.659  1.00  0.00     0.023 C 
ENDROOT
BRANCH   1   2
ATOM      2  C   UNL     1       1.115   1.015   1.599  1.00  0.00     0.116 C 
BRANCH   2   3
ATOM      3  N   UNL     1       1.361  -0.182   2.382  1.00  0.00    -0.356 N 
ATOM      4  C   UNL     1       1.954  -1.362   2.021  1.00  0.00     0.231 C 
ATOM      5  O   UNL     1       1.873  -2.295   2.821  1.00  0.00    -0.274 OA
ATOM      6  H   UNL     1       1.055  -0.139   3.317  1.00  0.00     0.163 HD
BRANCH   4   7
ATOM      7  C   UNL     1       2.784  -1.442   0.739  1.00  0.00     0.164 C 
ATOM      8  C   UNL     1       2.563  -2.678  -0.149  1.00  0.00     0.225 C 
ATOM      9  C   UNL     1       3.377  -3.722   0.638  1.00  0.00     0.226 C 
ATOM     10  O   UNL     1       4.557  -3.038   1.088  1.00  0.00    -0.374 OA
ATOM     11  C   UNL     1       4.241  -1.637   1.172  1.00  0.00     0.180 C 
BRANCH   8  12
ATOM     12  N   UNL     1       1.187  -3.028  -0.549  1.00  0.00    -0.330 N 
ATOM     13  C   UNL     1       1.044  -4.469  -0.820  1.00  0.00     0.333 C 
ATOM     14  H   UNL     1       0.675  -2.734   0.283  1.00  0.00     0.348 HD
BRANCH  12  15
ATOM     15  C   UNL     1       0.544  -2.271  -1.658  1.00  0.00     0.186 C 
ATOM     16  C   UNL     1       1.238  -0.984  -2.141  1.00  0.00     0.076 C 
BRANCH  15  17
ATOM     17  C   UNL     1      -0.981  -2.080  -1.344  1.00  0.00     0.019 C 
ATOM     18  C   UNL     1      -1.476  -2.533   0.025  1.00  0.00     0.018 C 
ATOM     19  C   UNL     1      -1.801  -0.976  -2.012  1.00  0.00     0.013 C 
ATOM     20  C   UNL     1      -1.934  -2.383  -2.493  1.00  0.00     0.013 C 
ENDBRANCH  15  17
ENDBRANCH  12  15
ENDBRANCH   8  12
ENDBRANCH   4   7
ENDBRANCH   2   3
ENDBRANCH   1   2
BRANCH   1  21
ATOM     21  C   UNL     1      -1.428   0.780   1.345  1.00  0.00     0.023 C 
BRANCH  21  22
ATOM     22  C   UNL     1      -2.114   2.130   1.346  1.00  0.00     0.116 C 
BRANCH  22  23
ATOM     23  N   UNL     1      -2.510   2.574   0.012  1.00  0.00    -0.352 N 
ATOM     24  C   UNL     1      -3.597   3.346  -0.343  1.00  0.00     0.251 C 
ATOM     25  H   UNL     1      -1.928   2.286  -0.728  1.00  0.00     0.163 HD
ATOM     26  O   UNL     1      -3.843   3.572  -1.520  1.00  0.00    -0.269 OA
BRANCH  24  27
ATOM     27  C   UNL     1      -4.492   3.844   0.726  1.00  0.00     0.039 A 
ATOM     28  C   UNL     1      -5.873   3.678   0.593  1.00  0.00     0.014 A 
ATOM     29  C   UNL     1      -3.955   4.371   1.900  1.00  0.00     0.014 A 
ATOM     30  C   UNL     1      -6.705   3.952   1.682  1.00  0.00     0.010 A 
ATOM     31  C   UNL     1      -4.767   4.526   3.012  1.00  0.00     0.010 A 
ATOM     32  C   UNL     1      -6.152   4.326   2.917  1.00  0.00    -0.014 A 
BRANCH  32  33
ATOM     33  C   UNL     1      -6.980   4.526   4.134  1.00  0.00     0.031 A 
ATOM     34  C   UNL     1      -6.928   5.848   4.853  1.00  0.00     0.074 A 
ATOM     35  C   UNL     1      -7.655   3.488   4.670  1.00  0.00     0.049 A 
ATOM     36  N   UNL     1      -7.423   6.177   6.017  1.00  0.00    -0.248 NA
ATOM     37  C   UNL     1      -6.168   6.930   4.201  1.00  0.00     0.031 C 
ATOM     38  C   UNL     1      -7.698   2.128   4.127  1.00  0.00     0.029 A 
ATOM     39  N   UNL     1      -8.408   3.409   5.815  1.00  0.00    -0.354 N 
ATOM     40  C   UNL     1      -6.975   7.468   6.267  1.00  0.00     0.074 A 
ATOM     41  C   UNL     1      -6.137   7.851   5.152  1.00  0.00     0.031 C 
ATOM     42  C   UNL     1      -8.447   1.355   4.930  1.00  0.00     0.029 A 
ATOM     43  C   UNL     1      -8.913   2.152   6.060  1.00  0.00     0.049 A 
ATOM     44  H   UNL     1      -8.571   4.178   6.407  1.00  0.00     0.167 HD
ATOM     45  C   UNL     1      -7.266   8.281   7.309  1.00  0.00     0.034 A 
ATOM     46  C   UNL     1      -9.667   1.697   7.080  1.00  0.00     0.034 A 
ATOM     47  C   UNL     1      -8.185   7.934   8.356  1.00  0.00     0.049 A 
ATOM     48  C   UNL     1     -10.083   2.659   8.160  1.00  0.00     0.074 A 
ATOM     49  C   UNL     1      -8.646   8.723   9.394  1.00  0.00     0.029 A 
ATOM     50  N   UNL     1      -8.803   6.699   8.483  1.00  0.00    -0.354 N 
ATOM     51  N   UNL     1      -9.772   3.926   8.299  1.00  0.00    -0.248 NA
ATOM     52  C   UNL     1     -10.983   2.144   9.202  1.00  0.00     0.031 C 
ATOM     53  C   UNL     1      -9.550   7.965  10.146  1.00  0.00     0.029 A 
ATOM     54  C   UNL     1      -9.653   6.707   9.572  1.00  0.00     0.049 A 
ATOM     55  H   UNL     1      -8.657   5.931   7.885  1.00  0.00     0.167 HD
ATOM     56  C   UNL     1     -10.467   4.369   9.418  1.00  0.00     0.074 A 
ATOM     57  C   UNL     1     -11.229   3.239   9.910  1.00  0.00     0.031 C 
ATOM     58  C   UNL     1     -10.460   5.593   9.999  1.00  0.00     0.034 A 
BRANCH  45  59
ATOM     59  C   UNL     1      -6.648   9.655   7.316  1.00  0.00     0.023 A 
ATOM     60  C   UNL     1      -7.093  10.618   6.386  1.00  0.00     0.012 A 
ATOM     61  C   UNL     1      -5.659  10.007   8.254  1.00  0.00     0.148 A 
ATOM     62  C   UNL     1      -6.534  11.894   6.361  1.00  0.00     0.002 A 
ATOM     63  C   UNL     1      -5.138  11.297   8.252  1.00  0.00     0.091 A 
ATOM     64  F   UNL     1      -5.230   9.073   9.115  1.00  0.00    -0.205 F 
ATOM     65  C   UNL     1      -5.565  12.236   7.299  1.00  0.00     0.022 A 
BRANCH  63  66
ATOM     66  S   UNL     1      -3.942  11.856   9.469  1.00  0.00     0.127 S 
ATOM     67  O   UNL     1      -2.709  11.877   8.684  1.00  0.00    -0.237 OA
ATOM     68  O   UNL     1      -4.458  13.178   9.827  1.00  0.00    -0.237 OA
ATOM     69  O   UNL     1      -3.985  10.880  10.548  1.00  0.00    -0.744 OA
ENDBRANCH  63  66
ENDBRANCH  45  59
BRANCH  46  70
ATOM     70  C   UNL     1     -10.164   0.291   7.069  1.00  0.00     0.023 A 
ATOM     71  C   UNL     1     -11.527   0.053   6.801  1.00  0.00     0.012 A 
ATOM     72  C   UNL     1      -9.305  -0.804   7.279  1.00  0.00     0.148 A 
ATOM     73  C   UNL     1     -12.032  -1.247   6.772  1.00  0.00     0.002 A 
ATOM     74  C   UNL     1      -9.805  -2.100   7.200  1.00  0.00     0.091 A 
ATOM     75  F   UNL     1      -8.014  -0.559   7.545  1.00  0.00    -0.205 F 
ATOM     76  C   UNL     1     -11.170  -2.324   6.962  1.00  0.00     0.022 A 
BRANCH  74  77
ATOM     77  S   UNL     1      -8.744  -3.546   7.303  1.00  0.00     0.127 S 
ATOM     78  O   UNL     1      -9.033  -4.035   8.648  1.00  0.00    -0.237 OA
ATOM     79  O   UNL     1      -9.260  -4.383   6.219  1.00  0.00    -0.237 OA
ATOM     80  O   UNL     1      -7.392  -3.050   7.081  1.00  0.00    -0.744 OA
ENDBRANCH  74  77
ENDBRANCH  46  70
BRANCH  58  81
ATOM     81  C   UNL     1     -11.332   5.801  11.206  1.00  0.00     0.023 A 
ATOM     82  C   UNL     1     -10.932   5.277  12.451  1.00  0.00     0.012 A 
ATOM     83  C   UNL     1     -12.490   6.599  11.127  1.00  0.00     0.148 A 
ATOM     84  C   UNL     1     -11.684   5.527  13.597  1.00  0.00     0.002 A 
ATOM     85  C   UNL     1     -13.211   6.880  12.281  1.00  0.00     0.091 A 
ATOM     86  F   UNL     1     -12.863   7.069   9.928  1.00  0.00    -0.205 F 
ATOM     87  C   UNL     1     -12.814   6.338  13.515  1.00  0.00     0.022 A 
BRANCH  85  88
ATOM     88  S   UNL     1     -14.621   7.992  12.279  1.00  0.00     0.127 S 
ATOM     89  O   UNL     1     -15.741   7.055  12.353  1.00  0.00    -0.237 OA
ATOM     90  O   UNL     1     -14.403   8.778  13.494  1.00  0.00    -0.237 OA
ATOM     91  O   UNL     1     -14.521   8.757  11.043  1.00  0.00    -0.744 OA
ENDBRANCH  85  88
ENDBRANCH  58  81
ENDBRANCH  32  33
ENDBRANCH  24  27
ENDBRANCH  22  23
ENDBRANCH  21  22
ENDBRANCH   1  21
TORSDOF 17
