REMARK SMILES NS(=O)(=O)c1ccc(-n2nc(C(=O)NCCCCNC(=O)c3ccc(-c4c5nc(c(-c6cccc(S(=O)(=O)[O-])c6F)c6ccc([nH]6)c(-c6cccc(S(=O)(=O)[O-])c6F)c6nc(c(-c7cccc(S(=O)(=O)[O-])c7F)c7ccc4[nH]7)C=C6)C=C5)cc3)cc2-c2ccc(Cl)s2)cc1
REMARK SMILES IDX 16 1 15 2 14 3 12 4 13 5 11 7 9 8 10 9 86 10 85 11 8 12 5 13
REMARK SMILES IDX 6 14 94 15 7 16 93 17 2 18 3 19 4 20 1 21 87 24 88 25 92 26
REMARK SMILES IDX 89 27 90 28 91 29 17 30 18 31 19 32 20 33 21 35 22 36 23 37
REMARK SMILES IDX 84 38 24 39 83 40 25 41 26 42 27 43 77 44 28 45 82 46 76 47
REMARK SMILES IDX 78 48 29 49 81 50 75 51 74 52 30 54 62 55 42 56 61 57 43 58
REMARK SMILES IDX 46 59 60 60 79 61 44 62 45 63 59 65 80 66 47 67 31 68 32 69
REMARK SMILES IDX 40 70 33 71 35 72 41 73 34 74 36 75 37 76 38 77 39 78 63 79
REMARK SMILES IDX 64 80 72 81 65 82 67 83 73 84 66 85 68 86 69 87 70 88 71 89
REMARK SMILES IDX 48 90 49 91 57 92 50 93 52 94 58 95 51 96 53 97 54 98 55 99
REMARK SMILES IDX 56 100
REMARK H PARENT 14 6 1 22 1 23 19 34 78 53 46 64
REMARK Flexibility Score: inf
ROOT
ATOM      1  C   UNL     1       1.187   8.055  -9.249  1.00  0.00     0.023 C 
ENDROOT
BRANCH   1   2
ATOM      2  C   UNL     1       2.617   7.590  -8.944  1.00  0.00     0.116 C 
BRANCH   2   3
ATOM      3  N   UNL     1       2.980   7.805  -7.558  1.00  0.00    -0.351 N 
ATOM      4  C   UNL     1       2.822   7.071  -6.402  1.00  0.00     0.271 C 
ATOM      5  O   UNL     1       3.108   7.659  -5.355  1.00  0.00    -0.267 OA
ATOM      6  H   UNL     1       3.440   8.663  -7.410  1.00  0.00     0.163 HD
BRANCH   4   7
ATOM      7  C   UNL     1       2.326   5.673  -6.394  1.00  0.00     0.151 A 
ATOM      8  N   UNL     1       1.809   3.763  -5.532  1.00  0.00    -0.231 N 
ATOM      9  N   UNL     1       2.069   5.051  -5.219  1.00  0.00    -0.162 NA
ATOM     10  C   UNL     1       1.627   3.600  -6.890  1.00  0.00     0.085 A 
ATOM     11  C   UNL     1       2.011   4.794  -7.457  1.00  0.00     0.066 A 
BRANCH   8  12
ATOM     12  C   UNL     1       1.648   2.781  -4.522  1.00  0.00     0.065 A 
ATOM     13  C   UNL     1       1.007   0.779  -2.712  1.00  0.00     0.082 A 
ATOM     14  C   UNL     1       1.798   0.471  -3.821  1.00  0.00     0.024 A 
ATOM     15  C   UNL     1       0.585   2.093  -2.469  1.00  0.00     0.024 A 
ATOM     16  C   UNL     1       2.111   1.474  -4.735  1.00  0.00     0.030 A 
ATOM     17  C   UNL     1       0.938   3.107  -3.361  1.00  0.00     0.030 A 
BRANCH  13  18
ATOM     18  S   UNL     1       0.498  -0.507  -1.615  1.00  0.00     0.238 S 
ATOM     19  O   UNL     1       1.171  -1.744  -1.975  1.00  0.00    -0.207 OA
ATOM     20  O   UNL     1      -0.924  -0.435  -1.432  1.00  0.00    -0.207 OA
BRANCH  18  21
ATOM     21  N   UNL     1       1.194  -0.037  -0.165  1.00  0.00    -0.225 NA
ATOM     22  H   UNL     1       0.964  -0.718   0.559  1.00  0.00     0.137 HD
ATOM     23  H   UNL     1       0.834   0.879   0.104  1.00  0.00     0.137 HD
ENDBRANCH  18  21
ENDBRANCH  13  18
ENDBRANCH   8  12
BRANCH  10  24
ATOM     24  C   UNL     1       1.029   2.493  -7.574  1.00  0.00     0.054 A 
ATOM     25  C   UNL     1       1.511   1.866  -8.708  1.00  0.00     0.024 A 
ATOM     26  S   UNL     1      -0.526   1.905  -7.143  1.00  0.00    -0.122 S 
ATOM     27  C   UNL     1       0.582   0.921  -9.237  1.00  0.00     0.033 A 
ATOM     28  C   UNL     1      -0.555   0.866  -8.475  1.00  0.00     0.094 A 
ATOM     29  Cl  UNL     1      -1.943  -0.100  -8.769  1.00  0.00    -0.072 Cl
ENDBRANCH  10  24
ENDBRANCH   4   7
ENDBRANCH   2   3
ENDBRANCH   1   2
BRANCH   1  30
ATOM     30  C   UNL     1       1.041   9.563  -9.522  1.00  0.00     0.023 C 
BRANCH  30  31
ATOM     31  C   UNL     1       1.740  10.059 -10.785  1.00  0.00     0.116 C 
BRANCH  31  32
ATOM     32  N   UNL     1       1.223   9.454 -12.023  1.00  0.00    -0.352 N 
ATOM     33  C   UNL     1       1.777   9.518 -13.295  1.00  0.00     0.251 C 
ATOM     34  H   UNL     1       0.385   8.944 -11.940  1.00  0.00     0.163 HD
ATOM     35  O   UNL     1       1.105   9.325 -14.301  1.00  0.00    -0.269 OA
BRANCH  33  36
ATOM     36  C   UNL     1       3.222   9.776 -13.394  1.00  0.00     0.039 A 
ATOM     37  C   UNL     1       3.792  10.680 -14.295  1.00  0.00     0.014 A 
ATOM     38  C   UNL     1       3.994   9.123 -12.445  1.00  0.00     0.014 A 
ATOM     39  C   UNL     1       5.152  10.968 -14.171  1.00  0.00     0.010 A 
ATOM     40  C   UNL     1       5.230   9.613 -12.159  1.00  0.00     0.010 A 
ATOM     41  C   UNL     1       5.859  10.430 -13.086  1.00  0.00    -0.014 A 
BRANCH  41  42
ATOM     42  C   UNL     1       7.255  10.736 -12.810  1.00  0.00     0.031 A 
ATOM     43  C   UNL     1       7.530  12.183 -12.627  1.00  0.00     0.074 A 
ATOM     44  C   UNL     1       8.129   9.756 -12.476  1.00  0.00     0.049 A 
ATOM     45  N   UNL     1       8.142  12.980 -13.440  1.00  0.00    -0.248 NA
ATOM     46  C   UNL     1       6.891  12.873 -11.494  1.00  0.00     0.031 C 
ATOM     47  C   UNL     1       7.846   8.317 -12.291  1.00  0.00     0.029 A 
ATOM     48  N   UNL     1       9.423   9.846 -12.074  1.00  0.00    -0.354 N 
ATOM     49  C   UNL     1       8.222  14.196 -12.763  1.00  0.00     0.074 A 
ATOM     50  C   UNL     1       7.223  14.145 -11.732  1.00  0.00     0.031 C 
ATOM     51  C   UNL     1       8.831   7.746 -11.567  1.00  0.00     0.029 A 
ATOM     52  C   UNL     1       9.903   8.707 -11.429  1.00  0.00     0.049 A 
ATOM     53  H   UNL     1       9.976  10.647 -12.226  1.00  0.00     0.167 HD
ATOM     54  C   UNL     1       9.333  14.979 -12.873  1.00  0.00     0.034 A 
ATOM     55  C   UNL     1      11.099   8.575 -10.809  1.00  0.00     0.034 A 
ATOM     56  C   UNL     1      10.183  14.501 -13.935  1.00  0.00     0.049 A 
ATOM     57  C   UNL     1      11.985   9.601 -11.393  1.00  0.00     0.074 A 
ATOM     58  C   UNL     1      10.142  14.436 -15.310  1.00  0.00     0.029 A 
ATOM     59  N   UNL     1      11.116  13.591 -13.507  1.00  0.00    -0.354 N 
ATOM     60  N   UNL     1      12.325   9.614 -12.652  1.00  0.00    -0.248 NA
ATOM     61  C   UNL     1      12.199  10.846 -10.671  1.00  0.00     0.031 C 
ATOM     62  C   UNL     1      10.895  13.276 -15.663  1.00  0.00     0.029 A 
ATOM     63  C   UNL     1      11.414  12.702 -14.501  1.00  0.00     0.049 A 
ATOM     64  H   UNL     1      11.516  13.579 -12.607  1.00  0.00     0.167 HD
ATOM     65  C   UNL     1      12.346  10.959 -12.978  1.00  0.00     0.074 A 
ATOM     66  C   UNL     1      12.457  11.657 -11.701  1.00  0.00     0.031 C 
ATOM     67  C   UNL     1      11.946  11.386 -14.211  1.00  0.00     0.034 A 
BRANCH  54  68
ATOM     68  C   UNL     1       9.936  15.823 -11.760  1.00  0.00     0.023 A 
ATOM     69  C   UNL     1      11.041  16.638 -12.106  1.00  0.00     0.012 A 
ATOM     70  C   UNL     1       9.699  15.635 -10.379  1.00  0.00     0.148 A 
ATOM     71  C   UNL     1      11.889  17.186 -11.135  1.00  0.00     0.002 A 
ATOM     72  C   UNL     1      10.502  16.240  -9.417  1.00  0.00     0.091 A 
ATOM     73  F   UNL     1       8.785  14.755  -9.968  1.00  0.00    -0.205 F 
ATOM     74  C   UNL     1      11.617  16.991  -9.788  1.00  0.00     0.022 A 
BRANCH  72  75
ATOM     75  S   UNL     1      10.178  16.038  -7.660  1.00  0.00     0.127 S 
ATOM     76  O   UNL     1      11.261  15.142  -7.268  1.00  0.00    -0.237 OA
ATOM     77  O   UNL     1      10.301  17.413  -7.175  1.00  0.00    -0.237 OA
ATOM     78  O   UNL     1       8.828  15.494  -7.573  1.00  0.00    -0.744 OA
ENDBRANCH  72  75
ENDBRANCH  54  68
BRANCH  55  79
ATOM     79  C   UNL     1      11.462   7.815  -9.593  1.00  0.00     0.023 A 
ATOM     80  C   UNL     1      12.805   7.456  -9.363  1.00  0.00     0.012 A 
ATOM     81  C   UNL     1      10.550   7.723  -8.519  1.00  0.00     0.148 A 
ATOM     82  C   UNL     1      13.238   7.068  -8.089  1.00  0.00     0.002 A 
ATOM     83  C   UNL     1      10.986   7.340  -7.254  1.00  0.00     0.091 A 
ATOM     84  F   UNL     1       9.280   8.098  -8.723  1.00  0.00    -0.205 F 
ATOM     85  C   UNL     1      12.334   7.027  -7.031  1.00  0.00     0.022 A 
BRANCH  83  86
ATOM     86  S   UNL     1       9.888   7.295  -5.831  1.00  0.00     0.127 S 
ATOM     87  O   UNL     1      10.111   5.939  -5.328  1.00  0.00    -0.237 OA
ATOM     88  O   UNL     1      10.438   8.358  -4.994  1.00  0.00    -0.237 OA
ATOM     89  O   UNL     1       8.551   7.529  -6.359  1.00  0.00    -0.744 OA
ENDBRANCH  83  86
ENDBRANCH  55  79
BRANCH  67  90
ATOM     90  C   UNL     1      11.877  10.365 -15.314  1.00  0.00     0.023 A 
ATOM     91  C   UNL     1      10.896   9.354 -15.367  1.00  0.00     0.012 A 
ATOM     92  C   UNL     1      12.755  10.518 -16.398  1.00  0.00     0.148 A 
ATOM     93  C   UNL     1      10.803   8.504 -16.473  1.00  0.00     0.002 A 
ATOM     94  C   UNL     1      12.634   9.700 -17.513  1.00  0.00     0.091 A 
ATOM     95  F   UNL     1      13.677  11.490 -16.328  1.00  0.00    -0.205 F 
ATOM     96  C   UNL     1      11.665   8.685 -17.552  1.00  0.00     0.022 A 
BRANCH  94  97
ATOM     97  S   UNL     1      13.634   9.956 -18.978  1.00  0.00     0.127 S 
ATOM     98  O   UNL     1      14.495   8.775 -18.970  1.00  0.00    -0.237 OA
ATOM     99  O   UNL     1      12.627   9.974 -20.040  1.00  0.00    -0.237 OA
ATOM    100  O   UNL     1      14.320  11.228 -18.784  1.00  0.00    -0.744 OA
ENDBRANCH  94  97
ENDBRANCH  67  90
ENDBRANCH  41  42
ENDBRANCH  33  36
ENDBRANCH  31  32
ENDBRANCH  30  31
ENDBRANCH   1  30
TORSDOF 18
