REMARK SMILES C=CCSc1ccccc1C(=O)NCCCCNC(=O)c1ccc(-c2c3nc(c(-c4cccc(S(=O)(=O)[O-])c4F)c4ccc([nH]4)c(-c4cccc(S(=O)(=O)[O-])c4F)c4nc(c(-c5cccc(S(=O)(=O)[O-])c5F)c5ccc2[nH]5)C=C4)C=C3)cc1
REMARK SMILES IDX 15 1 14 2 13 3 11 4 12 5 10 7 5 8 6 9 7 10 9 11 8 12 4 13
REMARK SMILES IDX 3 14 2 15 1 16 16 17 17 18 18 19 19 20 20 22 21 23 22 24
REMARK SMILES IDX 83 25 23 26 82 27 24 28 25 29 26 30 76 31 27 32 81 33 75 34
REMARK SMILES IDX 77 35 28 36 80 37 74 38 73 39 29 41 61 42 41 43 60 44 42 45
REMARK SMILES IDX 45 46 59 47 78 48 43 49 44 50 58 52 79 53 46 54 30 55 31 56
REMARK SMILES IDX 39 57 32 58 34 59 40 60 33 61 35 62 36 63 37 64 38 65 62 66
REMARK SMILES IDX 63 67 71 68 64 69 66 70 72 71 65 72 67 73 68 74 69 75 70 76
REMARK SMILES IDX 47 77 48 78 56 79 49 80 51 81 57 82 50 83 52 84 53 85 54 86
REMARK SMILES IDX 55 87
REMARK H PARENT 13 6 18 21 77 40 45 51
REMARK Flexibility Score: inf
ROOT
ATOM      1  C   UNL     1      -2.991  -1.464  -0.893  1.00  0.00     0.023 C 
ENDROOT
BRANCH   1   2
ATOM      2  C   UNL     1      -3.537  -0.641  -2.064  1.00  0.00     0.116 C 
BRANCH   2   3
ATOM      3  N   UNL     1      -3.524   0.752  -1.682  1.00  0.00    -0.352 N 
ATOM      4  C   UNL     1      -2.585   1.740  -1.791  1.00  0.00     0.252 C 
ATOM      5  O   UNL     1      -2.767   2.735  -1.079  1.00  0.00    -0.269 OA
ATOM      6  H   UNL     1      -4.361   1.051  -1.256  1.00  0.00     0.163 HD
BRANCH   4   7
ATOM      7  C   UNL     1      -1.458   1.802  -2.770  1.00  0.00     0.053 A 
ATOM      8  C   UNL     1      -0.453   0.866  -3.083  1.00  0.00     0.020 A 
ATOM      9  C   UNL     1       0.561   1.238  -3.999  1.00  0.00     0.016 A 
ATOM     10  C   UNL     1       0.622   2.509  -4.566  1.00  0.00     0.001 A 
ATOM     11  C   UNL     1      -1.374   3.085  -3.372  1.00  0.00     0.015 A 
ATOM     12  C   UNL     1      -0.349   3.440  -4.249  1.00  0.00     0.001 A 
BRANCH   8  13
ATOM     13  S   UNL     1      -0.230  -0.807  -2.503  1.00  0.00    -0.121 SA
BRANCH  13  14
ATOM     14  C   UNL     1       0.209  -0.545  -0.761  1.00  0.00     0.101 C 
BRANCH  14  15
ATOM     15  C   UNL     1       1.691  -0.426  -0.610  1.00  0.00    -0.024 C 
ATOM     16  C   UNL     1       2.284   0.536   0.108  1.00  0.00     0.005 C 
ENDBRANCH  14  15
ENDBRANCH  13  14
ENDBRANCH   8  13
ENDBRANCH   4   7
ENDBRANCH   2   3
ENDBRANCH   1   2
BRANCH   1  17
ATOM     17  C   UNL     1      -4.032  -2.018   0.068  1.00  0.00     0.023 C 
BRANCH  17  18
ATOM     18  C   UNL     1      -4.836  -3.175  -0.498  1.00  0.00     0.116 C 
BRANCH  18  19
ATOM     19  N   UNL     1      -4.019  -4.306  -0.928  1.00  0.00    -0.352 N 
ATOM     20  C   UNL     1      -4.282  -5.652  -0.800  1.00  0.00     0.251 C 
ATOM     21  H   UNL     1      -3.168  -4.077  -1.366  1.00  0.00     0.163 HD
ATOM     22  O   UNL     1      -3.458  -6.487  -1.147  1.00  0.00    -0.269 OA
BRANCH  20  23
ATOM     23  C   UNL     1      -5.562  -6.061  -0.191  1.00  0.00     0.039 A 
ATOM     24  C   UNL     1      -5.549  -6.967   0.872  1.00  0.00     0.014 A 
ATOM     25  C   UNL     1      -6.753  -5.459  -0.602  1.00  0.00     0.014 A 
ATOM     26  C   UNL     1      -6.726  -7.199   1.584  1.00  0.00     0.010 A 
ATOM     27  C   UNL     1      -7.892  -5.609   0.173  1.00  0.00     0.010 A 
ATOM     28  C   UNL     1      -7.894  -6.483   1.271  1.00  0.00    -0.014 A 
BRANCH  28  29
ATOM     29  C   UNL     1      -9.135  -6.620   2.073  1.00  0.00     0.031 A 
ATOM     30  C   UNL     1     -10.404  -7.078   1.405  1.00  0.00     0.074 A 
ATOM     31  C   UNL     1      -9.150  -6.214   3.359  1.00  0.00     0.049 A 
ATOM     32  N   UNL     1     -11.613  -7.150   1.895  1.00  0.00    -0.248 NA
ATOM     33  C   UNL     1     -10.312  -7.458  -0.017  1.00  0.00     0.031 C 
ATOM     34  C   UNL     1      -8.012  -5.646   4.086  1.00  0.00     0.029 A 
ATOM     35  N   UNL     1     -10.172  -6.188   4.275  1.00  0.00    -0.354 N 
ATOM     36  C   UNL     1     -12.428  -7.522   0.834  1.00  0.00     0.074 A 
ATOM     37  C   UNL     1     -11.586  -7.626  -0.336  1.00  0.00     0.031 C 
ATOM     38  C   UNL     1      -8.396  -5.337   5.336  1.00  0.00     0.029 A 
ATOM     39  C   UNL     1      -9.809  -5.662   5.494  1.00  0.00     0.049 A 
ATOM     40  H   UNL     1     -11.079  -6.514   4.079  1.00  0.00     0.167 HD
ATOM     41  C   UNL     1     -13.754  -7.794   0.839  1.00  0.00     0.034 A 
ATOM     42  C   UNL     1     -10.536  -5.469   6.613  1.00  0.00     0.034 A 
ATOM     43  C   UNL     1     -14.564  -7.787   2.024  1.00  0.00     0.049 A 
ATOM     44  C   UNL     1     -11.979  -5.896   6.622  1.00  0.00     0.074 A 
ATOM     45  C   UNL     1     -15.886  -8.170   2.164  1.00  0.00     0.029 A 
ATOM     46  N   UNL     1     -14.124  -7.392   3.277  1.00  0.00    -0.354 N 
ATOM     47  N   UNL     1     -12.690  -6.418   5.652  1.00  0.00    -0.248 NA
ATOM     48  C   UNL     1     -12.710  -5.750   7.889  1.00  0.00     0.031 C 
ATOM     49  C   UNL     1     -16.244  -8.007   3.506  1.00  0.00     0.029 A 
ATOM     50  C   UNL     1     -15.144  -7.528   4.200  1.00  0.00     0.049 A 
ATOM     51  H   UNL     1     -13.218  -7.063   3.480  1.00  0.00     0.167 HD
ATOM     52  C   UNL     1     -13.938  -6.693   6.199  1.00  0.00     0.074 A 
ATOM     53  C   UNL     1     -13.878  -6.303   7.592  1.00  0.00     0.031 C 
ATOM     54  C   UNL     1     -15.041  -7.202   5.598  1.00  0.00     0.034 A 
BRANCH  41  55
ATOM     55  C   UNL     1     -14.390  -8.207  -0.460  1.00  0.00     0.023 A 
ATOM     56  C   UNL     1     -14.115  -9.485  -0.989  1.00  0.00     0.012 A 
ATOM     57  C   UNL     1     -15.299  -7.363  -1.127  1.00  0.00     0.148 A 
ATOM     58  C   UNL     1     -14.708  -9.906  -2.177  1.00  0.00     0.002 A 
ATOM     59  C   UNL     1     -15.919  -7.806  -2.290  1.00  0.00     0.091 A 
ATOM     60  F   UNL     1     -15.530  -6.144  -0.622  1.00  0.00    -0.205 F 
ATOM     61  C   UNL     1     -15.617  -9.072  -2.821  1.00  0.00     0.022 A 
BRANCH  59  62
ATOM     62  S   UNL     1     -17.161  -6.840  -3.156  1.00  0.00     0.127 S 
ATOM     63  O   UNL     1     -16.440  -6.449  -4.367  1.00  0.00    -0.237 OA
ATOM     64  O   UNL     1     -18.223  -7.824  -3.370  1.00  0.00    -0.237 OA
ATOM     65  O   UNL     1     -17.517  -5.748  -2.261  1.00  0.00    -0.744 OA
ENDBRANCH  59  62
ENDBRANCH  41  55
BRANCH  42  66
ATOM     66  C   UNL     1      -9.887  -4.935   7.844  1.00  0.00     0.023 A 
ATOM     67  C   UNL     1      -9.670  -5.801   8.934  1.00  0.00     0.012 A 
ATOM     68  C   UNL     1      -9.465  -3.596   7.940  1.00  0.00     0.148 A 
ATOM     69  C   UNL     1      -9.078  -5.336  10.108  1.00  0.00     0.002 A 
ATOM     70  C   UNL     1      -8.829  -3.151   9.095  1.00  0.00     0.091 A 
ATOM     71  F   UNL     1      -9.692  -2.780   6.901  1.00  0.00    -0.205 F 
ATOM     72  C   UNL     1      -8.649  -4.014  10.186  1.00  0.00     0.022 A 
BRANCH  70  73
ATOM     73  S   UNL     1      -8.132  -1.499   9.219  1.00  0.00     0.127 S 
ATOM     74  O   UNL     1      -9.159  -0.797   9.983  1.00  0.00    -0.237 OA
ATOM     75  O   UNL     1      -6.884  -1.743   9.943  1.00  0.00    -0.237 OA
ATOM     76  O   UNL     1      -7.943  -1.061   7.842  1.00  0.00    -0.744 OA
ENDBRANCH  70  73
ENDBRANCH  42  66
BRANCH  54  77
ATOM     77  C   UNL     1     -16.268  -7.404   6.444  1.00  0.00     0.023 A 
ATOM     78  C   UNL     1     -17.043  -6.289   6.817  1.00  0.00     0.012 A 
ATOM     79  C   UNL     1     -16.703  -8.699   6.785  1.00  0.00     0.148 A 
ATOM     80  C   UNL     1     -18.223  -6.459   7.540  1.00  0.00     0.002 A 
ATOM     81  C   UNL     1     -17.902  -8.864   7.467  1.00  0.00     0.091 A 
ATOM     82  F   UNL     1     -15.938  -9.744   6.437  1.00  0.00    -0.205 F 
ATOM     83  C   UNL     1     -18.659  -7.745   7.853  1.00  0.00     0.022 A 
BRANCH  81  84
ATOM     84  S   UNL     1     -18.581 -10.488   7.824  1.00  0.00     0.127 S 
ATOM     85  O   UNL     1     -18.257 -10.643   9.240  1.00  0.00    -0.237 OA
ATOM     86  O   UNL     1     -20.005 -10.303   7.541  1.00  0.00    -0.237 OA
ATOM     87  O   UNL     1     -17.905 -11.407   6.918  1.00  0.00    -0.744 OA
ENDBRANCH  81  84
ENDBRANCH  54  77
ENDBRANCH  28  29
ENDBRANCH  20  23
ENDBRANCH  18  19
ENDBRANCH  17  18
ENDBRANCH   1  17
TORSDOF 17
