REMARK SMILES O=C(CSc1ccc2ccccc2n1)NCc1ccc(C(=O)NCCCCNC(=O)c2ccc(-c3c4nc(c(-c5cccc(S(=O)(=O)[O-])c5F)c5ccc([nH]5)c(-c5cccc(S(=O)(=O)[O-])c5F)c5nc(c(-c6cccc(S(=O)(=O)[O-])c6F)c6ccc3[nH]6)C=C5)C=C4)cc2)cc1
REMARK SMILES IDX 24 1 23 2 21 3 22 4 20 6 17 7 18 8 95 9 19 10 94 11 16 12
REMARK SMILES IDX 15 13 1 14 2 15 3 17 4 18 5 19 6 20 14 21 7 22 13 23 8 24
REMARK SMILES IDX 12 25 9 26 11 27 10 28 25 29 26 30 27 31 28 32 29 33 30 35
REMARK SMILES IDX 31 36 32 37 93 38 33 39 92 40 34 41 35 42 36 43 86 44 37 45
REMARK SMILES IDX 91 46 85 47 87 48 38 49 90 50 84 51 83 52 39 54 71 55 51 56
REMARK SMILES IDX 70 57 52 58 55 59 69 60 88 61 53 62 54 63 68 65 89 66 56 67
REMARK SMILES IDX 40 68 41 69 49 70 42 71 44 72 50 73 43 74 45 75 46 76 47 77
REMARK SMILES IDX 48 78 72 79 73 80 81 81 74 82 76 83 82 84 75 85 77 86 78 87
REMARK SMILES IDX 79 88 80 89 57 90 58 91 66 92 59 93 61 94 67 95 60 96 62 97
REMARK SMILES IDX 63 98 64 99 65 100
REMARK H PARENT 23 5 15 16 28 34 87 53 55 64
REMARK Flexibility Score: inf
ROOT
ATOM      1  C   UNL     1       3.425   5.866   6.246  1.00  0.00     0.116 C 
ENDROOT
BRANCH   1   2
ATOM      2  N   UNL     1       3.277   4.569   6.874  1.00  0.00    -0.352 N 
ATOM      3  C   UNL     1       2.978   3.331   6.365  1.00  0.00     0.251 C 
ATOM      4  O   UNL     1       2.960   2.380   7.147  1.00  0.00    -0.269 OA
ATOM      5  H   UNL     1       3.417   4.577   7.848  1.00  0.00     0.163 HD
BRANCH   3   6
ATOM      6  C   UNL     1       2.726   3.073   4.918  1.00  0.00     0.039 A 
ATOM      7  C   UNL     1       2.332   2.396   2.192  1.00  0.00    -0.029 A 
ATOM      8  C   UNL     1       2.803   1.443   3.103  1.00  0.00     0.006 A 
ATOM      9  C   UNL     1       2.011   3.672   2.675  1.00  0.00     0.006 A 
ATOM     10  C   UNL     1       3.007   1.783   4.445  1.00  0.00     0.014 A 
ATOM     11  C   UNL     1       2.183   3.997   4.025  1.00  0.00     0.014 A 
BRANCH   7  12
ATOM     12  C   UNL     1       2.079   2.095   0.736  1.00  0.00     0.151 C 
BRANCH  12  13
ATOM     13  N   UNL     1       2.728   0.896   0.263  1.00  0.00    -0.351 N 
ATOM     14  O   UNL     1       0.799  -0.162  -0.385  1.00  0.00    -0.274 OA
ATOM     15  C   UNL     1       2.025  -0.144  -0.308  1.00  0.00     0.230 C 
ATOM     16  H   UNL     1       3.706   0.818   0.349  1.00  0.00     0.163 HD
BRANCH  15  17
ATOM     17  C   UNL     1       2.880  -1.304  -0.788  1.00  0.00     0.176 C 
BRANCH  17  18
ATOM     18  S   UNL     1       4.169  -0.738  -1.945  1.00  0.00    -0.096 SA
BRANCH  18  19
ATOM     19  C   UNL     1       3.114  -0.079  -3.220  1.00  0.00     0.097 A 
ATOM     20  C   UNL     1       3.116   1.285  -3.469  1.00  0.00     0.036 A 
ATOM     21  N   UNL     1       2.374  -0.961  -3.925  1.00  0.00    -0.241 NA
ATOM     22  C   UNL     1       2.314   1.771  -4.494  1.00  0.00     0.013 A 
ATOM     23  C   UNL     1       1.607  -0.490  -4.925  1.00  0.00     0.072 A 
ATOM     24  C   UNL     1       1.547   0.882  -5.252  1.00  0.00     0.000 A 
ATOM     25  C   UNL     1       0.847  -1.372  -5.684  1.00  0.00     0.029 A 
ATOM     26  C   UNL     1       0.744   1.328  -6.317  1.00  0.00     0.010 A 
ATOM     27  C   UNL     1       0.051  -0.934  -6.748  1.00  0.00     0.002 A 
ATOM     28  C   UNL     1       0.001   0.419  -7.066  1.00  0.00     0.001 A 
ENDBRANCH  18  19
ENDBRANCH  17  18
ENDBRANCH  15  17
ENDBRANCH  12  13
ENDBRANCH   7  12
ENDBRANCH   3   6
ENDBRANCH   1   2
BRANCH   1  29
ATOM     29  C   UNL     1       2.141   6.686   6.391  1.00  0.00     0.023 C 
BRANCH  29  30
ATOM     30  C   UNL     1       1.957   7.332   7.767  1.00  0.00     0.023 C 
BRANCH  30  31
ATOM     31  C   UNL     1       3.021   8.358   8.144  1.00  0.00     0.116 C 
BRANCH  31  32
ATOM     32  N   UNL     1       3.140   9.440   7.179  1.00  0.00    -0.352 N 
ATOM     33  C   UNL     1       3.502  10.748   7.399  1.00  0.00     0.251 C 
ATOM     34  H   UNL     1       2.935   9.205   6.245  1.00  0.00     0.163 HD
ATOM     35  O   UNL     1       3.446  11.562   6.487  1.00  0.00    -0.269 OA
BRANCH  33  36
ATOM     36  C   UNL     1       3.922  11.166   8.754  1.00  0.00     0.039 A 
ATOM     37  C   UNL     1       3.361  12.322   9.303  1.00  0.00     0.014 A 
ATOM     38  C   UNL     1       4.846  10.415   9.483  1.00  0.00     0.014 A 
ATOM     39  C   UNL     1       3.689  12.693  10.608  1.00  0.00     0.010 A 
ATOM     40  C   UNL     1       5.115  10.746  10.807  1.00  0.00     0.010 A 
ATOM     41  C   UNL     1       4.547  11.894  11.380  1.00  0.00    -0.014 A 
BRANCH  41  42
ATOM     42  C   UNL     1       4.858  12.244  12.789  1.00  0.00     0.031 A 
ATOM     43  C   UNL     1       6.267  12.586  13.193  1.00  0.00     0.074 A 
ATOM     44  C   UNL     1       3.886  12.178  13.719  1.00  0.00     0.049 A 
ATOM     45  N   UNL     1       6.732  12.898  14.375  1.00  0.00    -0.248 NA
ATOM     46  C   UNL     1       7.293  12.546  12.138  1.00  0.00     0.031 C 
ATOM     47  C   UNL     1       2.502  11.768  13.469  1.00  0.00     0.029 A 
ATOM     48  N   UNL     1       3.917  12.433  15.067  1.00  0.00    -0.354 N 
ATOM     49  C   UNL     1       8.103  13.057  14.214  1.00  0.00     0.074 A 
ATOM     50  C   UNL     1       8.402  12.770  12.828  1.00  0.00     0.031 C 
ATOM     51  C   UNL     1       1.816  11.808  14.623  1.00  0.00     0.029 A 
ATOM     52  C   UNL     1       2.712  12.226  15.697  1.00  0.00     0.049 A 
ATOM     53  H   UNL     1       4.726  12.736  15.539  1.00  0.00     0.167 HD
ATOM     54  C   UNL     1       9.027  13.440  15.128  1.00  0.00     0.034 A 
ATOM     55  C   UNL     1       2.368  12.362  16.992  1.00  0.00     0.034 A 
ATOM     56  C   UNL     1       8.717  13.771  16.492  1.00  0.00     0.049 A 
ATOM     57  C   UNL     1       3.398  12.856  17.972  1.00  0.00     0.074 A 
ATOM     58  C   UNL     1       9.564  14.256  17.474  1.00  0.00     0.029 A 
ATOM     59  N   UNL     1       7.463  13.650  17.071  1.00  0.00    -0.354 N 
ATOM     60  N   UNL     1       4.655  13.165  17.763  1.00  0.00    -0.248 NA
ATOM     61  C   UNL     1       2.951  13.062  19.357  1.00  0.00     0.031 C 
ATOM     62  C   UNL     1       8.824  14.414  18.651  1.00  0.00     0.029 A 
ATOM     63  C   UNL     1       7.511  14.050  18.395  1.00  0.00     0.049 A 
ATOM     64  H   UNL     1       6.657  13.328  16.607  1.00  0.00     0.167 HD
ATOM     65  C   UNL     1       5.138  13.639  18.978  1.00  0.00     0.074 A 
ATOM     66  C   UNL     1       4.030  13.597  19.911  1.00  0.00     0.031 C 
ATOM     67  C   UNL     1       6.388  14.056  19.297  1.00  0.00     0.034 A 
BRANCH  54  68
ATOM     68  C   UNL     1      10.452  13.583  14.662  1.00  0.00     0.023 A 
ATOM     69  C   UNL     1      10.798  14.650  13.806  1.00  0.00     0.012 A 
ATOM     70  C   UNL     1      11.457  12.703  15.106  1.00  0.00     0.148 A 
ATOM     71  C   UNL     1      12.111  14.816  13.370  1.00  0.00     0.002 A 
ATOM     72  C   UNL     1      12.773  12.902  14.704  1.00  0.00     0.091 A 
ATOM     73  F   UNL     1      11.108  11.681  15.902  1.00  0.00    -0.205 F 
ATOM     74  C   UNL     1      13.100  13.950  13.827  1.00  0.00     0.022 A 
BRANCH  72  75
ATOM     75  S   UNL     1      14.132  11.889  15.299  1.00  0.00     0.127 S 
ATOM     76  O   UNL     1      14.466  11.112  14.106  1.00  0.00    -0.237 OA
ATOM     77  O   UNL     1      15.128  12.895  15.668  1.00  0.00    -0.237 OA
ATOM     78  O   UNL     1      13.601  11.122  16.417  1.00  0.00    -0.744 OA
ENDBRANCH  72  75
ENDBRANCH  54  68
BRANCH  55  79
ATOM     79  C   UNL     1       0.962  12.112  17.419  1.00  0.00     0.023 A 
ATOM     80  C   UNL     1       0.152  13.201  17.799  1.00  0.00     0.012 A 
ATOM     81  C   UNL     1       0.416  10.815  17.426  1.00  0.00     0.148 A 
ATOM     82  C   UNL     1      -1.165  12.998  18.212  1.00  0.00     0.002 A 
ATOM     83  C   UNL     1      -0.914  10.627  17.785  1.00  0.00     0.091 A 
ATOM     84  F   UNL     1       1.205   9.791  17.071  1.00  0.00    -0.205 F 
ATOM     85  C   UNL     1      -1.701  11.714  18.196  1.00  0.00     0.022 A 
BRANCH  83  86
ATOM     86  S   UNL     1      -1.725   9.028  17.667  1.00  0.00     0.127 S 
ATOM     87  O   UNL     1      -1.864   8.658  19.073  1.00  0.00    -0.237 OA
ATOM     88  O   UNL     1      -2.977   9.372  16.993  1.00  0.00    -0.237 OA
ATOM     89  O   UNL     1      -0.830   8.194  16.876  1.00  0.00    -0.744 OA
ENDBRANCH  83  86
ENDBRANCH  55  79
BRANCH  67  90
ATOM     90  C   UNL     1       6.622  14.540  20.704  1.00  0.00     0.023 A 
ATOM     91  C   UNL     1       6.650  13.617  21.768  1.00  0.00     0.012 A 
ATOM     92  C   UNL     1       6.876  15.901  20.963  1.00  0.00     0.148 A 
ATOM     93  C   UNL     1       6.887  14.046  23.073  1.00  0.00     0.002 A 
ATOM     94  C   UNL     1       7.161  16.314  22.259  1.00  0.00     0.091 A 
ATOM     95  F   UNL     1       6.826  16.769  19.942  1.00  0.00    -0.205 F 
ATOM     96  C   UNL     1       7.154  15.391  23.317  1.00  0.00     0.022 A 
BRANCH  94  97
ATOM     97  S   UNL     1       7.612  18.011  22.643  1.00  0.00     0.127 S 
ATOM     98  O   UNL     1       6.373  18.524  23.225  1.00  0.00    -0.237 OA
ATOM     99  O   UNL     1       8.707  17.836  23.598  1.00  0.00    -0.237 OA
ATOM    100  O   UNL     1       8.010  18.611  21.377  1.00  0.00    -0.744 OA
ENDBRANCH  94  97
ENDBRANCH  67  90
ENDBRANCH  41  42
ENDBRANCH  33  36
ENDBRANCH  31  32
ENDBRANCH  30  31
ENDBRANCH  29  30
ENDBRANCH   1  29
TORSDOF 19
