REMARK SMILES CCOc1ccc(-n2nnc(-c3nc(C)c(C(=O)NCCCCNC(=O)c4ccc(-c5c6nc(c(-c7cccc(S(=O)(=O)[O-])c7F)c7ccc([nH]7)c(-c7cccc(S(=O)(=O)[O-])c7F)c7nc(c(-c8cccc(S(=O)(=O)[O-])c8F)c8ccc5[nH]8)C=C7)C=C6)cc4)s3)c2C)cc1
REMARK SMILES IDX 21 1 20 2 19 3 17 4 18 5 16 7 12 8 13 9 90 10 14 11 15 12
REMARK SMILES IDX 11 13 8 14 9 15 91 16 10 17 92 18 7 19 4 20 5 21 94 22 6 23
REMARK SMILES IDX 93 24 3 25 2 26 1 27 22 28 23 29 24 30 25 31 26 33 27 34
REMARK SMILES IDX 28 35 89 36 29 37 88 38 30 39 31 40 32 41 82 42 33 43 87 44
REMARK SMILES IDX 81 45 83 46 34 47 86 48 80 49 79 50 35 52 67 53 47 54 66 55
REMARK SMILES IDX 48 56 51 57 65 58 84 59 49 60 50 61 64 63 85 64 52 65 36 66
REMARK SMILES IDX 37 67 45 68 38 69 40 70 46 71 39 72 41 73 42 74 43 75 44 76
REMARK SMILES IDX 68 77 69 78 77 79 70 80 72 81 78 82 71 83 73 84 74 85 75 86
REMARK SMILES IDX 76 87 53 88 54 89 62 90 55 91 57 92 63 93 56 94 58 95 59 96
REMARK SMILES IDX 60 97 61 98
REMARK H PARENT 19 6 24 32 83 51 51 62
REMARK Flexibility Score: inf
ROOT
ATOM      1  C   UNL     1       8.811  -4.691   7.588  1.00  0.00     0.023 C 
ENDROOT
BRANCH   1   2
ATOM      2  C   UNL     1       8.656  -3.164   7.600  1.00  0.00     0.116 C 
BRANCH   2   3
ATOM      3  N   UNL     1       9.914  -2.515   7.935  1.00  0.00    -0.351 N 
ATOM      4  C   UNL     1      10.919  -2.004   7.137  1.00  0.00     0.263 C 
ATOM      5  O   UNL     1      11.906  -1.545   7.712  1.00  0.00    -0.268 OA
ATOM      6  H   UNL     1      10.079  -2.424   8.902  1.00  0.00     0.163 HD
BRANCH   4   7
ATOM      7  C   UNL     1      10.761  -1.947   5.700  1.00  0.00     0.115 A 
ATOM      8  C   UNL     1       9.850  -2.170   3.500  1.00  0.00     0.146 A 
ATOM      9  N   UNL     1      10.482  -1.019   3.581  1.00  0.00    -0.239 NA
ATOM     10  S   UNL     1      10.224  -3.277   4.751  1.00  0.00    -0.107 S 
ATOM     11  C   UNL     1      11.139  -0.946   4.812  1.00  0.00     0.062 A 
ATOM     12  C   UNL     1      12.051   0.204   5.067  1.00  0.00     0.068 C 
BRANCH   8  13
ATOM     13  C   UNL     1       8.720  -2.460   2.572  1.00  0.00     0.145 A 
ATOM     14  N   UNL     1       6.675  -2.661   1.851  1.00  0.00    -0.217 N 
ATOM     15  N   UNL     1       7.409  -3.677   1.329  1.00  0.00    -0.061 NA
ATOM     16  C   UNL     1       7.449  -1.932   2.739  1.00  0.00     0.072 A 
ATOM     17  N   UNL     1       8.658  -3.553   1.756  1.00  0.00    -0.127 NA
ATOM     18  C   UNL     1       6.931  -1.033   3.809  1.00  0.00     0.069 C 
BRANCH  14  19
ATOM     19  C   UNL     1       5.304  -2.515   1.532  1.00  0.00     0.067 A 
ATOM     20  C   UNL     1       2.564  -2.234   1.074  1.00  0.00     0.119 A 
ATOM     21  C   UNL     1       3.142  -3.504   1.071  1.00  0.00     0.048 A 
ATOM     22  C   UNL     1       3.352  -1.109   1.306  1.00  0.00     0.048 A 
ATOM     23  C   UNL     1       4.520  -3.648   1.273  1.00  0.00     0.032 A 
ATOM     24  C   UNL     1       4.723  -1.244   1.518  1.00  0.00     0.032 A 
BRANCH  20  25
ATOM     25  O   UNL     1       1.202  -2.139   1.001  1.00  0.00    -0.494 OA
BRANCH  25  26
ATOM     26  C   UNL     1       0.722  -1.505  -0.190  1.00  0.00     0.226 C 
ATOM     27  C   UNL     1       0.680   0.012  -0.084  1.00  0.00     0.049 C 
ENDBRANCH  25  26
ENDBRANCH  20  25
ENDBRANCH  14  19
ENDBRANCH   8  13
ENDBRANCH   4   7
ENDBRANCH   2   3
ENDBRANCH   1   2
BRANCH   1  28
ATOM     28  C   UNL     1       8.936  -5.338   8.975  1.00  0.00     0.023 C 
BRANCH  28  29
ATOM     29  C   UNL     1       7.652  -5.307   9.793  1.00  0.00     0.116 C 
BRANCH  29  30
ATOM     30  N   UNL     1       6.571  -6.067   9.164  1.00  0.00    -0.352 N 
ATOM     31  C   UNL     1       5.238  -6.117   9.531  1.00  0.00     0.251 C 
ATOM     32  H   UNL     1       6.823  -6.611   8.382  1.00  0.00     0.163 HD
ATOM     33  O   UNL     1       4.521  -7.042   9.194  1.00  0.00    -0.269 OA
BRANCH  31  34
ATOM     34  C   UNL     1       4.700  -5.003  10.330  1.00  0.00     0.039 A 
ATOM     35  C   UNL     1       3.886  -5.232  11.445  1.00  0.00     0.014 A 
ATOM     36  C   UNL     1       5.070  -3.714   9.958  1.00  0.00     0.014 A 
ATOM     37  C   UNL     1       3.512  -4.150  12.238  1.00  0.00     0.010 A 
ATOM     38  C   UNL     1       4.819  -2.674  10.811  1.00  0.00     0.010 A 
ATOM     39  C   UNL     1       3.998  -2.876  11.922  1.00  0.00    -0.014 A 
BRANCH  39  40
ATOM     40  C   UNL     1       3.802  -1.739  12.818  1.00  0.00     0.031 A 
ATOM     41  C   UNL     1       4.418  -1.902  14.168  1.00  0.00     0.074 A 
ATOM     42  C   UNL     1       3.387  -0.551  12.319  1.00  0.00     0.049 A 
ATOM     43  N   UNL     1       3.842  -1.813  15.323  1.00  0.00    -0.248 NA
ATOM     44  C   UNL     1       5.819  -2.358  14.247  1.00  0.00     0.031 C 
ATOM     45  C   UNL     1       3.052  -0.252  10.918  1.00  0.00     0.029 A 
ATOM     46  N   UNL     1       3.379   0.684  12.894  1.00  0.00    -0.354 N 
ATOM     47  C   UNL     1       4.864  -1.947  16.265  1.00  0.00     0.074 A 
ATOM     48  C   UNL     1       5.983  -2.508  15.562  1.00  0.00     0.031 C 
ATOM     49  C   UNL     1       3.168   1.074  10.702  1.00  0.00     0.029 A 
ATOM     50  C   UNL     1       3.427   1.729  11.968  1.00  0.00     0.049 A 
ATOM     51  H   UNL     1       3.342   0.826  13.868  1.00  0.00     0.167 HD
ATOM     52  C   UNL     1       4.803  -1.308  17.468  1.00  0.00     0.034 A 
ATOM     53  C   UNL     1       3.731   3.029  12.208  1.00  0.00     0.034 A 
ATOM     54  C   UNL     1       3.461  -0.861  17.747  1.00  0.00     0.049 A 
ATOM     55  C   UNL     1       3.561   3.256  13.659  1.00  0.00     0.074 A 
ATOM     56  C   UNL     1       2.227  -1.471  17.843  1.00  0.00     0.029 A 
ATOM     57  N   UNL     1       3.210   0.480  17.580  1.00  0.00    -0.354 N 
ATOM     58  N   UNL     1       2.406   3.198  14.260  1.00  0.00    -0.248 NA
ATOM     59  C   UNL     1       4.723   3.093  14.516  1.00  0.00     0.031 C 
ATOM     60  C   UNL     1       1.318  -0.549  17.247  1.00  0.00     0.029 A 
ATOM     61  C   UNL     1       2.030   0.603  16.902  1.00  0.00     0.049 A 
ATOM     62  H   UNL     1       3.779   1.220  17.894  1.00  0.00     0.167 HD
ATOM     63  C   UNL     1       2.673   2.514  15.437  1.00  0.00     0.074 A 
ATOM     64  C   UNL     1       4.125   2.590  15.600  1.00  0.00     0.031 C 
ATOM     65  C   UNL     1       1.738   1.688  15.993  1.00  0.00     0.034 A 
BRANCH  52  66
ATOM     66  C   UNL     1       5.989  -0.709  18.206  1.00  0.00     0.023 A 
ATOM     67  C   UNL     1       5.728  -0.130  19.471  1.00  0.00     0.012 A 
ATOM     68  C   UNL     1       7.244  -0.413  17.623  1.00  0.00     0.148 A 
ATOM     69  C   UNL     1       6.620   0.765  20.074  1.00  0.00     0.002 A 
ATOM     70  C   UNL     1       8.159   0.420  18.260  1.00  0.00     0.091 A 
ATOM     71  F   UNL     1       7.529  -0.821  16.387  1.00  0.00    -0.205 F 
ATOM     72  C   UNL     1       7.837   1.042  19.467  1.00  0.00     0.022 A 
BRANCH  70  73
ATOM     73  S   UNL     1       9.764   0.781  17.534  1.00  0.00     0.127 S 
ATOM     74  O   UNL     1       9.573   2.153  17.075  1.00  0.00    -0.237 OA
ATOM     75  O   UNL     1      10.654   0.627  18.685  1.00  0.00    -0.237 OA
ATOM     76  O   UNL     1       9.958  -0.222  16.493  1.00  0.00    -0.744 OA
ENDBRANCH  70  73
ENDBRANCH  52  66
BRANCH  53  77
ATOM     77  C   UNL     1       4.371   4.035  11.327  1.00  0.00     0.023 A 
ATOM     78  C   UNL     1       4.226   5.409  11.607  1.00  0.00     0.012 A 
ATOM     79  C   UNL     1       5.336   3.653  10.368  1.00  0.00     0.148 A 
ATOM     80  C   UNL     1       5.035   6.365  10.977  1.00  0.00     0.002 A 
ATOM     81  C   UNL     1       6.128   4.606   9.735  1.00  0.00     0.091 A 
ATOM     82  F   UNL     1       5.543   2.348  10.146  1.00  0.00    -0.205 F 
ATOM     83  C   UNL     1       5.990   5.964  10.046  1.00  0.00     0.022 A 
BRANCH  81  84
ATOM     84  S   UNL     1       7.392   4.152   8.538  1.00  0.00     0.127 S 
ATOM     85  O   UNL     1       7.132   5.093   7.449  1.00  0.00    -0.237 OA
ATOM     86  O   UNL     1       8.620   4.402   9.286  1.00  0.00    -0.237 OA
ATOM     87  O   UNL     1       7.132   2.758   8.196  1.00  0.00    -0.744 OA
ENDBRANCH  81  84
ENDBRANCH  53  77
BRANCH  65  88
ATOM     88  C   UNL     1       0.335   1.726  15.438  1.00  0.00     0.023 A 
ATOM     89  C   UNL     1       0.032   1.349  14.111  1.00  0.00     0.012 A 
ATOM     90  C   UNL     1      -0.721   1.964  16.330  1.00  0.00     0.148 A 
ATOM     91  C   UNL     1      -1.292   1.234  13.681  1.00  0.00     0.002 A 
ATOM     92  C   UNL     1      -2.036   1.799  15.914  1.00  0.00     0.091 A 
ATOM     93  F   UNL     1      -0.418   2.317  17.589  1.00  0.00    -0.205 F 
ATOM     94  C   UNL     1      -2.327   1.444  14.588  1.00  0.00     0.022 A 
BRANCH  92  95
ATOM     95  S   UNL     1      -3.400   1.924  17.071  1.00  0.00     0.127 S 
ATOM     96  O   UNL     1      -3.963   3.230  16.738  1.00  0.00    -0.237 OA
ATOM     97  O   UNL     1      -4.237   0.782  16.696  1.00  0.00    -0.237 OA
ATOM     98  O   UNL     1      -2.809   1.814  18.399  1.00  0.00    -0.744 OA
ENDBRANCH  92  95
ENDBRANCH  65  88
ENDBRANCH  39  40
ENDBRANCH  31  34
ENDBRANCH  29  30
ENDBRANCH  28  29
ENDBRANCH   1  28
TORSDOF 18
