REMARK SMILES CC1(C)C(CNC(=O)N2C[C@H](O)C[C@@H]2C(=O)NCCCCNC(=O)c2ccc(-c3c4nc(c(-c5cccc(S(=O)(=O)[O-])c5F)c5ccc([nH]5)c(-c5cccc(S(=O)(=O)[O-])c5F)c5nc(c(-c6cccc(S(=O)(=O)[O-])c6F)c6ccc3[nH]6)C=C5)C=C4)cc2)C1(C)C
REMARK SMILES IDX 19 1 18 2 17 3 15 4 16 5 14 7 9 8 10 9 11 10 13 11 7 12 6 13
REMARK SMILES IDX 8 15 5 16 4 17 1 18 2 19 3 20 88 21 89 22 90 23 12 24 20 26
REMARK SMILES IDX 21 27 22 28 23 29 24 31 25 32 26 33 87 34 27 35 86 36 28 37
REMARK SMILES IDX 29 38 30 39 80 40 31 41 85 42 79 43 81 44 32 45 84 46 78 47
REMARK SMILES IDX 77 48 33 50 65 51 45 52 64 53 46 54 49 55 63 56 82 57 47 58
REMARK SMILES IDX 48 59 62 61 83 62 50 63 34 64 35 65 43 66 36 67 38 68 44 69
REMARK SMILES IDX 37 70 39 71 40 72 41 73 42 74 66 75 67 76 75 77 68 78 70 79
REMARK SMILES IDX 76 80 69 81 71 82 72 83 73 84 74 85 51 86 52 87 60 88 53 89
REMARK SMILES IDX 55 90 61 91 54 92 56 93 57 94 58 95 59 96
REMARK H PARENT 17 6 6 14 12 25 22 30 81 49 49 60
REMARK Flexibility Score: inf
ROOT
ATOM      1  C   UNL     1      -2.283  -3.154  -0.923  1.00  0.00     0.023 C 
ENDROOT
BRANCH   1   2
ATOM      2  C   UNL     1      -2.974  -1.821  -0.665  1.00  0.00     0.116 C 
BRANCH   2   3
ATOM      3  N   UNL     1      -4.263  -1.702  -1.306  1.00  0.00    -0.354 N 
ATOM      4  C   UNL     1      -5.417  -1.128  -0.858  1.00  0.00     0.242 C 
ATOM      5  O   UNL     1      -6.294  -0.937  -1.711  1.00  0.00    -0.273 OA
ATOM      6  H   UNL     1      -4.317  -2.096  -2.207  1.00  0.00     0.163 HD
BRANCH   4   7
ATOM      7  C   UNL     1      -5.768  -0.916   0.645  1.00  0.00     0.179 C 
ATOM      8  N   UNL     1      -4.727  -0.911   1.684  1.00  0.00    -0.310 N 
ATOM      9  C   UNL     1      -4.865  -2.067   2.560  1.00  0.00     0.154 C 
ATOM     10  C   UNL     1      -5.905  -2.970   1.898  1.00  0.00     0.136 C 
ATOM     11  C   UNL     1      -6.755  -2.015   1.078  1.00  0.00     0.069 C 
BRANCH   8  12
ATOM     12  C   UNL     1      -3.987   0.215   1.873  1.00  0.00     0.318 C 
ATOM     13  N   UNL     1      -2.943   0.279   2.722  1.00  0.00    -0.338 N 
ATOM     14  H   UNL     1      -2.703   1.208   2.940  1.00  0.00     0.165 HD
ATOM     15  O   UNL     1      -4.230   1.245   1.238  1.00  0.00    -0.249 OA
BRANCH  13  16
ATOM     16  C   UNL     1      -2.079  -0.679   3.400  1.00  0.00     0.122 C 
BRANCH  16  17
ATOM     17  C   UNL     1      -0.972  -1.049   2.478  1.00  0.00     0.021 C 
ATOM     18  C   UNL     1       0.572   0.412   1.139  1.00  0.00     0.012 C 
ATOM     19  C   UNL     1       0.380  -0.333   2.453  1.00  0.00    -0.025 C 
ATOM     20  C   UNL     1       1.009   0.496   3.554  1.00  0.00     0.012 C 
ATOM     21  C   UNL     1       0.237  -1.885   2.816  1.00  0.00    -0.025 C 
ATOM     22  C   UNL     1       0.572  -3.057   1.918  1.00  0.00     0.012 C 
ATOM     23  C   UNL     1       0.434  -2.342   4.249  1.00  0.00     0.012 C 
ENDBRANCH  16  17
ENDBRANCH  13  16
ENDBRANCH   8  12
BRANCH  10  24
ATOM     24  O   UNL     1      -5.283  -3.945   1.065  1.00  0.00    -0.391 OA
ATOM     25  H   UNL     1      -4.743  -3.499   0.394  1.00  0.00     0.211 HD
ENDBRANCH  10  24
ENDBRANCH   4   7
ENDBRANCH   2   3
ENDBRANCH   1   2
BRANCH   1  26
ATOM     26  C   UNL     1      -1.379  -3.244  -2.154  1.00  0.00     0.023 C 
BRANCH  26  27
ATOM     27  C   UNL     1      -0.345  -2.135  -2.363  1.00  0.00     0.116 C 
BRANCH  27  28
ATOM     28  N   UNL     1       0.441  -1.848  -1.174  1.00  0.00    -0.352 N 
ATOM     29  C   UNL     1       1.792  -1.721  -0.965  1.00  0.00     0.251 C 
ATOM     30  H   UNL     1      -0.100  -1.719  -0.362  1.00  0.00     0.163 HD
ATOM     31  O   UNL     1       2.285  -1.661   0.158  1.00  0.00    -0.269 OA
BRANCH  29  32
ATOM     32  C   UNL     1       2.711  -1.673  -2.084  1.00  0.00     0.039 A 
ATOM     33  C   UNL     1       3.928  -2.350  -1.953  1.00  0.00     0.014 A 
ATOM     34  C   UNL     1       2.343  -1.014  -3.249  1.00  0.00     0.014 A 
ATOM     35  C   UNL     1       4.717  -2.512  -3.071  1.00  0.00     0.010 A 
ATOM     36  C   UNL     1       3.064  -1.276  -4.386  1.00  0.00     0.010 A 
ATOM     37  C   UNL     1       4.228  -2.054  -4.298  1.00  0.00    -0.014 A 
BRANCH  37  38
ATOM     38  C   UNL     1       4.864  -2.458  -5.551  1.00  0.00     0.031 A 
ATOM     39  C   UNL     1       5.429  -1.399  -6.431  1.00  0.00     0.074 A 
ATOM     40  C   UNL     1       4.745  -3.749  -5.915  1.00  0.00     0.049 A 
ATOM     41  N   UNL     1       5.886  -1.507  -7.644  1.00  0.00    -0.248 NA
ATOM     42  C   UNL     1       5.425  -0.021  -5.901  1.00  0.00     0.031 C 
ATOM     43  C   UNL     1       4.090  -4.799  -5.121  1.00  0.00     0.029 A 
ATOM     44  N   UNL     1       5.131  -4.392  -7.054  1.00  0.00    -0.354 N 
ATOM     45  C   UNL     1       6.179  -0.211  -8.041  1.00  0.00     0.074 A 
ATOM     46  C   UNL     1       5.807   0.672  -6.961  1.00  0.00     0.031 C 
ATOM     47  C   UNL     1       4.133  -5.957  -5.797  1.00  0.00     0.029 A 
ATOM     48  C   UNL     1       4.778  -5.721  -7.079  1.00  0.00     0.049 A 
ATOM     49  H   UNL     1       5.616  -3.949  -7.787  1.00  0.00     0.167 HD
ATOM     50  C   UNL     1       6.740   0.186  -9.203  1.00  0.00     0.034 A 
ATOM     51  C   UNL     1       4.959  -6.635  -8.047  1.00  0.00     0.034 A 
ATOM     52  C   UNL     1       7.123  -0.743 -10.228  1.00  0.00     0.049 A 
ATOM     53  C   UNL     1       5.666  -6.179  -9.291  1.00  0.00     0.074 A 
ATOM     54  C   UNL     1       7.780  -0.497 -11.416  1.00  0.00     0.029 A 
ATOM     55  N   UNL     1       6.875  -2.110 -10.175  1.00  0.00    -0.354 N 
ATOM     56  N   UNL     1       6.085  -4.973  -9.601  1.00  0.00    -0.248 NA
ATOM     57  C   UNL     1       5.962  -7.201 -10.298  1.00  0.00     0.031 C 
ATOM     58  C   UNL     1       7.914  -1.716 -12.089  1.00  0.00     0.029 A 
ATOM     59  C   UNL     1       7.365  -2.725 -11.309  1.00  0.00     0.049 A 
ATOM     60  H   UNL     1       6.416  -2.572  -9.436  1.00  0.00     0.167 HD
ATOM     61  C   UNL     1       6.723  -5.093 -10.825  1.00  0.00     0.074 A 
ATOM     62  C   UNL     1       6.654  -6.498 -11.185  1.00  0.00     0.031 C 
ATOM     63  C   UNL     1       7.302  -4.137 -11.593  1.00  0.00     0.034 A 
BRANCH  50  64
ATOM     64  C   UNL     1       6.998   1.657  -9.380  1.00  0.00     0.023 A 
ATOM     65  C   UNL     1       7.969   2.297  -8.581  1.00  0.00     0.012 A 
ATOM     66  C   UNL     1       6.283   2.408 -10.331  1.00  0.00     0.148 A 
ATOM     67  C   UNL     1       8.194   3.668  -8.694  1.00  0.00     0.002 A 
ATOM     68  C   UNL     1       6.549   3.765 -10.473  1.00  0.00     0.091 A 
ATOM     69  F   UNL     1       5.342   1.791 -11.058  1.00  0.00    -0.205 F 
ATOM     70  C   UNL     1       7.491   4.399  -9.646  1.00  0.00     0.022 A 
BRANCH  68  71
ATOM     71  S   UNL     1       5.752   4.785 -11.718  1.00  0.00     0.127 S 
ATOM     72  O   UNL     1       4.934   5.673 -10.894  1.00  0.00    -0.237 OA
ATOM     73  O   UNL     1       6.897   5.430 -12.361  1.00  0.00    -0.237 OA
ATOM     74  O   UNL     1       5.009   3.870 -12.573  1.00  0.00    -0.744 OA
ENDBRANCH  68  71
ENDBRANCH  50  64
BRANCH  51  75
ATOM     75  C   UNL     1       4.553  -8.051  -7.829  1.00  0.00     0.023 A 
ATOM     76  C   UNL     1       5.549  -9.031  -7.649  1.00  0.00     0.012 A 
ATOM     77  C   UNL     1       3.199  -8.427  -7.731  1.00  0.00     0.148 A 
ATOM     78  C   UNL     1       5.205 -10.363  -7.411  1.00  0.00     0.002 A 
ATOM     79  C   UNL     1       2.863  -9.746  -7.443  1.00  0.00     0.091 A 
ATOM     80  F   UNL     1       2.263  -7.481  -7.901  1.00  0.00    -0.205 F 
ATOM     81  C   UNL     1       3.864 -10.718  -7.299  1.00  0.00     0.022 A 
BRANCH  79  82
ATOM     82  S   UNL     1       1.168 -10.267  -7.148  1.00  0.00     0.127 S 
ATOM     83  O   UNL     1       0.875 -11.028  -8.360  1.00  0.00    -0.237 OA
ATOM     84  O   UNL     1       1.304 -11.071  -5.933  1.00  0.00    -0.237 OA
ATOM     85  O   UNL     1       0.407  -9.038  -6.970  1.00  0.00    -0.744 OA
ENDBRANCH  79  82
ENDBRANCH  51  75
BRANCH  63  86
ATOM     86  C   UNL     1       7.926  -4.594 -12.880  1.00  0.00     0.023 A 
ATOM     87  C   UNL     1       7.105  -4.955 -13.965  1.00  0.00     0.012 A 
ATOM     88  C   UNL     1       9.325  -4.581 -13.032  1.00  0.00     0.148 A 
ATOM     89  C   UNL     1       7.673  -5.328 -15.180  1.00  0.00     0.002 A 
ATOM     90  C   UNL     1       9.880  -4.899 -14.262  1.00  0.00     0.091 A 
ATOM     91  F   UNL     1      10.082  -4.252 -11.975  1.00  0.00    -0.205 F 
ATOM     92  C   UNL     1       9.057  -5.287 -15.333  1.00  0.00     0.022 A 
BRANCH  90  93
ATOM     93  S   UNL     1      11.641  -4.766 -14.579  1.00  0.00     0.127 S 
ATOM     94  O   UNL     1      12.039  -6.171 -14.643  1.00  0.00    -0.237 OA
ATOM     95  O   UNL     1      11.672  -4.063 -15.862  1.00  0.00    -0.237 OA
ATOM     96  O   UNL     1      12.194  -4.010 -13.463  1.00  0.00    -0.744 OA
ENDBRANCH  90  93
ENDBRANCH  63  86
ENDBRANCH  37  38
ENDBRANCH  29  32
ENDBRANCH  27  28
ENDBRANCH  26  27
ENDBRANCH   1  26
TORSDOF 18
