REMARK SMILES CCOc1ccc(-c2nn(-c3ccccc3)cc2/C=C2/SC(=S)N(CC(=O)NCCCCNC(=O)c3ccc(-c4c5nc(c(-c6cccc(S(=O)(=O)[O-])c6F)c6ccc([nH]6)c(-c6cccc(S(=O)(=O)[O-])c6F)c6nc(c(-c7cccc(S(=O)(=O)[O-])c7F)c7ccc4[nH]7)C=C6)C=C5)cc3)C2=O)cc1F
REMARK SMILES IDX 29 1 28 2 26 3 27 4 25 6 24 7 19 8 20 9 21 10 99 11 22 12
REMARK SMILES IDX 100 13 23 14 18 15 8 16 9 17 10 18 17 19 7 20 4 21 5 22
REMARK SMILES IDX 102 23 6 24 101 25 103 26 3 27 2 28 1 29 11 30 12 31 16 32
REMARK SMILES IDX 13 33 15 34 14 35 30 36 31 37 32 38 33 39 34 40 35 42 36 43
REMARK SMILES IDX 37 44 98 45 38 46 97 47 39 48 40 49 41 50 91 51 42 52 96 53
REMARK SMILES IDX 90 54 92 55 43 56 95 57 89 58 88 59 44 61 76 62 56 63 75 64
REMARK SMILES IDX 57 65 60 66 74 67 93 68 58 69 59 70 73 72 94 73 61 74 45 75
REMARK SMILES IDX 46 76 54 77 47 78 49 79 55 80 48 81 50 82 51 83 52 84 53 85
REMARK SMILES IDX 77 86 78 87 86 88 79 89 81 90 87 91 80 92 82 93 83 94 84 95
REMARK SMILES IDX 85 96 62 97 63 98 71 99 64 100 66 101 72 102 65 103 67 104
REMARK SMILES IDX 68 105 69 106 70 107
REMARK H PARENT 28 5 33 41 92 60 60 71
REMARK Flexibility Score: inf
ROOT
ATOM      1  C   UNL     1      10.659  -0.840  -8.457  1.00  0.00     0.116 C 
ENDROOT
BRANCH   1   2
ATOM      2  N   UNL     1      10.930  -2.084  -7.770  1.00  0.00    -0.355 N 
ATOM      3  C   UNL     1      10.141  -3.184  -7.588  1.00  0.00     0.240 C 
ATOM      4  O   UNL     1      10.656  -4.174  -7.067  1.00  0.00    -0.273 OA
ATOM      5  H   UNL     1      11.827  -2.148  -7.369  1.00  0.00     0.163 HD
BRANCH   3   6
ATOM      6  C   UNL     1       8.681  -3.216  -8.064  1.00  0.00     0.227 C 
BRANCH   6   7
ATOM      7  N   UNL     1       7.901  -2.149  -7.432  1.00  0.00    -0.283 N 
ATOM      8  C   UNL     1       7.017  -0.595  -4.266  1.00  0.00     0.033 C 
ATOM      9  C   UNL     1       7.143  -0.948  -5.554  1.00  0.00     0.081 C 
ATOM     10  S   UNL     1       6.571  -0.014  -6.881  1.00  0.00    -0.054 SA
ATOM     11  C   UNL     1       7.761  -2.206  -6.060  1.00  0.00     0.266 C 
ATOM     12  C   UNL     1       7.172  -1.175  -8.070  1.00  0.00     0.148 C 
ATOM     13  O   UNL     1       8.056  -3.162  -5.362  1.00  0.00    -0.268 OA
ATOM     14  S   UNL     1       6.822  -1.027  -9.693  1.00  0.00    -0.052 S 
BRANCH   8  15
ATOM     15  C   UNL     1       7.375  -1.432  -3.173  1.00  0.00     0.022 A 
ATOM     16  C   UNL     1       6.513  -2.157  -2.313  1.00  0.00     0.100 A 
ATOM     17  N   UNL     1       7.210  -3.009  -1.551  1.00  0.00    -0.167 NA
ATOM     18  N   UNL     1       8.508  -2.792  -1.877  1.00  0.00    -0.240 N 
ATOM     19  C   UNL     1       8.650  -1.754  -2.771  1.00  0.00     0.123 A 
BRANCH  16  20
ATOM     20  C   UNL     1       5.071  -2.036  -2.155  1.00  0.00     0.006 A 
ATOM     21  C   UNL     1       2.329  -1.650  -1.759  1.00  0.00     0.154 A 
ATOM     22  C   UNL     1       2.813  -1.917  -3.040  1.00  0.00     0.050 A 
ATOM     23  C   UNL     1       3.208  -1.634  -0.678  1.00  0.00     0.165 A 
ATOM     24  C   UNL     1       4.186  -2.107  -3.240  1.00  0.00     0.014 A 
ATOM     25  C   UNL     1       4.569  -1.809  -0.869  1.00  0.00     0.053 A 
ATOM     26  F   UNL     1       2.756  -1.458   0.572  1.00  0.00    -0.203 F 
BRANCH  21  27
ATOM     27  O   UNL     1       0.979  -1.520  -1.578  1.00  0.00    -0.491 OA
BRANCH  27  28
ATOM     28  C   UNL     1       0.574  -0.154  -1.421  1.00  0.00     0.226 C 
ATOM     29  C   UNL     1       0.600   0.292   0.033  1.00  0.00     0.049 C 
ENDBRANCH  27  28
ENDBRANCH  21  27
ENDBRANCH  16  20
BRANCH  18  30
ATOM     30  C   UNL     1       9.532  -3.559  -1.277  1.00  0.00     0.065 A 
ATOM     31  C   UNL     1       9.303  -4.919  -1.030  1.00  0.00     0.028 A 
ATOM     32  C   UNL     1      10.756  -2.974  -0.937  1.00  0.00     0.028 A 
ATOM     33  C   UNL     1      10.311  -5.699  -0.463  1.00  0.00     0.002 A 
ATOM     34  C   UNL     1      11.738  -3.750  -0.319  1.00  0.00     0.002 A 
ATOM     35  C   UNL     1      11.521  -5.111  -0.093  1.00  0.00     0.000 A 
ENDBRANCH  18  30
ENDBRANCH   8  15
ENDBRANCH   6   7
ENDBRANCH   3   6
ENDBRANCH   1   2
BRANCH   1  36
ATOM     36  C   UNL     1      10.450   0.333  -7.494  1.00  0.00     0.023 C 
BRANCH  36  37
ATOM     37  C   UNL     1      11.699   0.833  -6.755  1.00  0.00     0.023 C 
BRANCH  37  38
ATOM     38  C   UNL     1      12.787   1.417  -7.648  1.00  0.00     0.116 C 
BRANCH  38  39
ATOM     39  N   UNL     1      12.348   2.601  -8.392  1.00  0.00    -0.352 N 
ATOM     40  C   UNL     1      13.002   3.237  -9.431  1.00  0.00     0.251 C 
ATOM     41  H   UNL     1      11.485   2.989  -8.119  1.00  0.00     0.163 HD
ATOM     42  O   UNL     1      12.750   4.406  -9.716  1.00  0.00    -0.269 OA
BRANCH  40  43
ATOM     43  C   UNL     1      14.001   2.477 -10.198  1.00  0.00     0.039 A 
ATOM     44  C   UNL     1      15.248   3.014 -10.531  1.00  0.00     0.014 A 
ATOM     45  C   UNL     1      13.678   1.164 -10.521  1.00  0.00     0.014 A 
ATOM     46  C   UNL     1      16.204   2.180 -11.109  1.00  0.00     0.010 A 
ATOM     47  C   UNL     1      14.667   0.310 -10.930  1.00  0.00     0.010 A 
ATOM     48  C   UNL     1      15.913   0.819 -11.286  1.00  0.00    -0.014 A 
BRANCH  48  49
ATOM     49  C   UNL     1      16.926  -0.124 -11.751  1.00  0.00     0.031 A 
ATOM     50  C   UNL     1      18.168  -0.194 -10.926  1.00  0.00     0.074 A 
ATOM     51  C   UNL     1      16.652  -1.057 -12.690  1.00  0.00     0.049 A 
ATOM     52  N   UNL     1      19.379   0.084 -11.286  1.00  0.00    -0.248 NA
ATOM     53  C   UNL     1      18.033  -0.515  -9.496  1.00  0.00     0.031 C 
ATOM     54  C   UNL     1      15.363  -1.335 -13.344  1.00  0.00     0.029 A 
ATOM     55  N   UNL     1      17.433  -2.077 -13.137  1.00  0.00    -0.354 N 
ATOM     56  C   UNL     1      20.184  -0.243 -10.195  1.00  0.00     0.074 A 
ATOM     57  C   UNL     1      19.296  -0.421  -9.076  1.00  0.00     0.031 C 
ATOM     58  C   UNL     1      15.379  -2.582 -13.861  1.00  0.00     0.029 A 
ATOM     59  C   UNL     1      16.725  -3.105 -13.755  1.00  0.00     0.049 A 
ATOM     60  H   UNL     1      18.412  -2.087 -13.033  1.00  0.00     0.167 HD
ATOM     61  C   UNL     1      21.498  -0.575 -10.342  1.00  0.00     0.034 A 
ATOM     62  C   UNL     1      17.212  -4.317 -14.109  1.00  0.00     0.034 A 
ATOM     63  C   UNL     1      21.993  -0.222 -11.646  1.00  0.00     0.049 A 
ATOM     64  C   UNL     1      18.683  -4.181 -14.179  1.00  0.00     0.074 A 
ATOM     65  C   UNL     1      22.102   0.948 -12.369  1.00  0.00     0.029 A 
ATOM     66  N   UNL     1      22.117  -1.241 -12.558  1.00  0.00    -0.354 N 
ATOM     67  N   UNL     1      19.300  -3.439 -15.053  1.00  0.00    -0.248 NA
ATOM     68  C   UNL     1      19.459  -4.565 -13.013  1.00  0.00     0.031 C 
ATOM     69  C   UNL     1      21.788   0.577 -13.710  1.00  0.00     0.029 A 
ATOM     70  C   UNL     1      21.570  -0.803 -13.734  1.00  0.00     0.049 A 
ATOM     71  H   UNL     1      22.525  -2.123 -12.396  1.00  0.00     0.167 HD
ATOM     72  C   UNL     1      20.361  -2.891 -14.346  1.00  0.00     0.074 A 
ATOM     73  C   UNL     1      20.481  -3.715 -13.145  1.00  0.00     0.031 C 
ATOM     74  C   UNL     1      20.847  -1.653 -14.655  1.00  0.00     0.034 A 
BRANCH  61  75
ATOM     75  C   UNL     1      22.264  -1.516  -9.441  1.00  0.00     0.023 A 
ATOM     76  C   UNL     1      23.667  -1.582  -9.595  1.00  0.00     0.012 A 
ATOM     77  C   UNL     1      21.665  -2.509  -8.634  1.00  0.00     0.148 A 
ATOM     78  C   UNL     1      24.428  -2.594  -8.996  1.00  0.00     0.002 A 
ATOM     79  C   UNL     1      22.434  -3.454  -7.964  1.00  0.00     0.091 A 
ATOM     80  F   UNL     1      20.334  -2.641  -8.614  1.00  0.00    -0.205 F 
ATOM     81  C   UNL     1      23.813  -3.522  -8.165  1.00  0.00     0.022 A 
BRANCH  79  82
ATOM     82  S   UNL     1      21.692  -4.617  -6.812  1.00  0.00     0.127 S 
ATOM     83  O   UNL     1      21.688  -5.847  -7.597  1.00  0.00    -0.237 OA
ATOM     84  O   UNL     1      22.645  -4.591  -5.702  1.00  0.00    -0.237 OA
ATOM     85  O   UNL     1      20.388  -4.051  -6.487  1.00  0.00    -0.744 OA
ENDBRANCH  79  82
ENDBRANCH  61  75
BRANCH  62  86
ATOM     86  C   UNL     1      16.564  -5.648 -14.148  1.00  0.00     0.023 A 
ATOM     87  C   UNL     1      17.184  -6.683 -14.878  1.00  0.00     0.012 A 
ATOM     88  C   UNL     1      15.558  -5.993 -13.220  1.00  0.00     0.148 A 
ATOM     89  C   UNL     1      16.868  -8.024 -14.639  1.00  0.00     0.002 A 
ATOM     90  C   UNL     1      15.249  -7.330 -12.985  1.00  0.00     0.091 A 
ATOM     91  F   UNL     1      14.984  -5.022 -12.497  1.00  0.00    -0.205 F 
ATOM     92  C   UNL     1      15.914  -8.349 -13.680  1.00  0.00     0.022 A 
BRANCH  90  93
ATOM     93  S   UNL     1      14.062  -7.828 -11.730  1.00  0.00     0.127 S 
ATOM     94  O   UNL     1      13.291  -8.857 -12.430  1.00  0.00    -0.237 OA
ATOM     95  O   UNL     1      14.938  -8.329 -10.675  1.00  0.00    -0.237 OA
ATOM     96  O   UNL     1      13.302  -6.625 -11.412  1.00  0.00    -0.744 OA
ENDBRANCH  90  93
ENDBRANCH  62  86
BRANCH  74  97
ATOM     97  C   UNL     1      20.375  -0.998 -15.933  1.00  0.00     0.023 A 
ATOM     98  C   UNL     1      19.026  -0.643 -16.148  1.00  0.00     0.012 A 
ATOM     99  C   UNL     1      21.343  -0.553 -16.847  1.00  0.00     0.148 A 
ATOM    100  C   UNL     1      18.651   0.123 -17.256  1.00  0.00     0.002 A 
ATOM    101  C   UNL     1      20.976   0.254 -17.918  1.00  0.00     0.091 A 
ATOM    102  F   UNL     1      22.622  -0.898 -16.633  1.00  0.00    -0.205 F 
ATOM    103  C   UNL     1      19.629   0.586 -18.132  1.00  0.00     0.022 A 
BRANCH 101 104
ATOM    104  S   UNL     1      22.205   0.999 -18.991  1.00  0.00     0.127 S 
ATOM    105  O   UNL     1      22.090   0.185 -20.199  1.00  0.00    -0.237 OA
ATOM    106  O   UNL     1      21.713   2.371 -19.129  1.00  0.00    -0.237 OA
ATOM    107  O   UNL     1      23.473   0.893 -18.279  1.00  0.00    -0.744 OA
ENDBRANCH 101 104
ENDBRANCH  74  97
ENDBRANCH  48  49
ENDBRANCH  40  43
ENDBRANCH  38  39
ENDBRANCH  37  38
ENDBRANCH  36  37
ENDBRANCH   1  36
TORSDOF 20
