REMARK SMILES CCc1ncc(S(=O)(=O)NCc2ccc(C(=O)NCCCCNC(=O)c3ccc(-c4c5nc(c(-c6cccc(S(=O)(=O)[O-])c6F)c6ccc([nH]6)c(-c6cccc(S(=O)(=O)[O-])c6F)c6nc(c(-c7cccc(S(=O)(=O)[O-])c7F)c7ccc4[nH]7)C=C6)C=C5)cc3)o2)[nH]1
REMARK SMILES IDX 19 1 18 2 16 3 17 4 15 6 12 7 13 8 89 9 14 10 11 11 10 12
REMARK SMILES IDX 7 14 8 15 9 16 6 17 3 18 4 19 90 20 5 21 2 23 1 24 20 25
REMARK SMILES IDX 21 26 22 27 23 28 24 29 25 31 26 32 27 33 88 34 28 35 87 36
REMARK SMILES IDX 29 37 30 38 31 39 81 40 32 41 86 42 80 43 82 44 33 45 85 46
REMARK SMILES IDX 79 47 78 48 34 50 66 51 46 52 65 53 47 54 50 55 64 56 83 57
REMARK SMILES IDX 48 58 49 59 63 61 84 62 51 63 35 64 36 65 44 66 37 67 39 68
REMARK SMILES IDX 45 69 38 70 40 71 41 72 42 73 43 74 67 75 68 76 76 77 69 78
REMARK SMILES IDX 71 79 77 80 70 81 72 82 73 83 74 84 75 85 52 86 53 87 61 88
REMARK SMILES IDX 54 89 56 90 62 91 55 92 57 93 58 94 59 95 60 96
REMARK H PARENT 18 5 10 13 90 22 23 30 82 49 50 60
REMARK Flexibility Score: inf
ROOT
ATOM      1  C   UNL     1      -4.125   5.095  -8.484  1.00  0.00     0.116 C 
ENDROOT
BRANCH   1   2
ATOM      2  N   UNL     1      -3.028   5.975  -8.154  1.00  0.00    -0.349 N 
ATOM      3  C   UNL     1      -1.720   5.700  -7.830  1.00  0.00     0.286 C 
ATOM      4  O   UNL     1      -0.969   6.676  -7.755  1.00  0.00    -0.266 OA
ATOM      5  H   UNL     1      -3.255   6.933  -8.161  1.00  0.00     0.163 HD
BRANCH   3   6
ATOM      6  C   UNL     1      -1.261   4.340  -7.609  1.00  0.00     0.191 A 
ATOM      7  C   UNL     1       0.350   2.870  -7.229  1.00  0.00     0.119 A 
ATOM      8  C   UNL     1      -0.828   2.166  -7.161  1.00  0.00     0.048 A 
ATOM      9  O   UNL     1       0.102   4.162  -7.569  1.00  0.00    -0.455 OA
ATOM     10  C   UNL     1      -1.860   3.114  -7.363  1.00  0.00     0.056 A 
BRANCH   7  11
ATOM     11  C   UNL     1       1.759   2.510  -6.973  1.00  0.00     0.174 C 
BRANCH  11  12
ATOM     12  N   UNL     1       2.478   3.547  -6.216  1.00  0.00    -0.202 NA
ATOM     13  H   UNL     1       3.444   3.229  -6.130  1.00  0.00     0.141 HD
BRANCH  12  14
ATOM     14  S   UNL     1       1.977   3.979  -4.673  1.00  0.00     0.258 S 
ATOM     15  O   UNL     1       0.644   4.525  -4.711  1.00  0.00    -0.205 OA
ATOM     16  O   UNL     1       3.063   4.722  -4.069  1.00  0.00    -0.205 OA
BRANCH  14  17
ATOM     17  C   UNL     1       1.807   2.584  -3.640  1.00  0.00     0.167 A 
ATOM     18  C   UNL     1       1.173   1.485  -1.806  1.00  0.00     0.106 A 
ATOM     19  N   UNL     1       1.758   0.583  -2.568  1.00  0.00    -0.240 NA
ATOM     20  N   UNL     1       1.168   2.706  -2.428  1.00  0.00    -0.332 N 
ATOM     21  C   UNL     1       2.172   1.259  -3.688  1.00  0.00     0.153 A 
ATOM     22  H   UNL     1       0.773   3.533  -2.067  1.00  0.00     0.169 HD
BRANCH  18  23
ATOM     23  C   UNL     1       0.582   1.294  -0.450  1.00  0.00     0.072 C 
ATOM     24  C   UNL     1       0.998  -0.025   0.180  1.00  0.00     0.012 C 
ENDBRANCH  18  23
ENDBRANCH  14  17
ENDBRANCH  12  14
ENDBRANCH  11  12
ENDBRANCH   7  11
ENDBRANCH   3   6
ENDBRANCH   1   2
BRANCH   1  25
ATOM     25  C   UNL     1      -5.114   4.972  -7.327  1.00  0.00     0.023 C 
BRANCH  25  26
ATOM     26  C   UNL     1      -6.097   6.143  -7.222  1.00  0.00     0.023 C 
BRANCH  26  27
ATOM     27  C   UNL     1      -6.946   6.390  -8.467  1.00  0.00     0.116 C 
BRANCH  27  28
ATOM     28  N   UNL     1      -7.686   5.213  -8.904  1.00  0.00    -0.352 N 
ATOM     29  C   UNL     1      -8.937   5.157  -9.471  1.00  0.00     0.251 C 
ATOM     30  H   UNL     1      -7.232   4.349  -8.778  1.00  0.00     0.163 HD
ATOM     31  O   UNL     1      -9.475   4.075  -9.681  1.00  0.00    -0.269 OA
BRANCH  29  32
ATOM     32  C   UNL     1      -9.638   6.418  -9.786  1.00  0.00     0.039 A 
ATOM     33  C   UNL     1     -10.942   6.601  -9.323  1.00  0.00     0.014 A 
ATOM     34  C   UNL     1      -8.982   7.436 -10.483  1.00  0.00     0.014 A 
ATOM     35  C   UNL     1     -11.565   7.837  -9.500  1.00  0.00     0.010 A 
ATOM     36  C   UNL     1      -9.575   8.689 -10.588  1.00  0.00     0.010 A 
ATOM     37  C   UNL     1     -10.873   8.904 -10.098  1.00  0.00    -0.014 A 
BRANCH  37  38
ATOM     38  C   UNL     1     -11.479  10.256 -10.196  1.00  0.00     0.031 A 
ATOM     39  C   UNL     1     -11.722  10.883 -11.542  1.00  0.00     0.074 A 
ATOM     40  C   UNL     1     -11.731  10.955  -9.071  1.00  0.00     0.049 A 
ATOM     41  N   UNL     1     -12.194  12.069 -11.825  1.00  0.00    -0.248 NA
ATOM     42  C   UNL     1     -11.362  10.084 -12.726  1.00  0.00     0.031 C 
ATOM     43  C   UNL     1     -11.461  10.490  -7.708  1.00  0.00     0.029 A 
ATOM     44  N   UNL     1     -12.245  12.215  -8.894  1.00  0.00    -0.354 N 
ATOM     45  C   UNL     1     -12.158  12.172 -13.210  1.00  0.00     0.074 A 
ATOM     46  C   UNL     1     -11.582  10.943 -13.710  1.00  0.00     0.031 C 
ATOM     47  C   UNL     1     -11.817  11.448  -6.837  1.00  0.00     0.029 A 
ATOM     48  C   UNL     1     -12.307  12.606  -7.577  1.00  0.00     0.049 A 
ATOM     49  H   UNL     1     -12.541  12.786  -9.640  1.00  0.00     0.167 HD
ATOM     50  C   UNL     1     -12.592  13.184 -13.998  1.00  0.00     0.034 A 
ATOM     51  C   UNL     1     -12.704  13.771  -7.026  1.00  0.00     0.034 A 
ATOM     52  C   UNL     1     -13.194  14.390 -13.498  1.00  0.00     0.049 A 
ATOM     53  C   UNL     1     -13.209  14.868  -7.923  1.00  0.00     0.074 A 
ATOM     54  C   UNL     1     -13.744  15.438 -14.215  1.00  0.00     0.029 A 
ATOM     55  N   UNL     1     -13.315  14.718 -12.156  1.00  0.00    -0.354 N 
ATOM     56  N   UNL     1     -13.316  14.882  -9.229  1.00  0.00    -0.248 NA
ATOM     57  C   UNL     1     -13.681  16.097  -7.269  1.00  0.00     0.031 C 
ATOM     58  C   UNL     1     -14.167  16.414 -13.308  1.00  0.00     0.029 A 
ATOM     59  C   UNL     1     -13.919  15.957 -12.024  1.00  0.00     0.049 A 
ATOM     60  H   UNL     1     -13.016  14.153 -11.408  1.00  0.00     0.167 HD
ATOM     61  C   UNL     1     -13.903  16.101  -9.551  1.00  0.00     0.074 A 
ATOM     62  C   UNL     1     -14.147  16.789  -8.300  1.00  0.00     0.031 C 
ATOM     63  C   UNL     1     -14.202  16.609 -10.771  1.00  0.00     0.034 A 
BRANCH  50  64
ATOM     64  C   UNL     1     -12.473  13.012 -15.490  1.00  0.00     0.023 A 
ATOM     65  C   UNL     1     -13.294  12.077 -16.152  1.00  0.00     0.012 A 
ATOM     66  C   UNL     1     -11.595  13.815 -16.244  1.00  0.00     0.148 A 
ATOM     67  C   UNL     1     -13.218  11.916 -17.535  1.00  0.00     0.002 A 
ATOM     68  C   UNL     1     -11.560  13.684 -17.628  1.00  0.00     0.091 A 
ATOM     69  F   UNL     1     -10.808  14.685 -15.596  1.00  0.00    -0.205 F 
ATOM     70  C   UNL     1     -12.360  12.726 -18.273  1.00  0.00     0.022 A 
BRANCH  68  71
ATOM     71  S   UNL     1     -10.551  14.735 -18.677  1.00  0.00     0.127 S 
ATOM     72  O   UNL     1      -9.550  13.788 -19.168  1.00  0.00    -0.237 OA
ATOM     73  O   UNL     1     -11.515  15.179 -19.684  1.00  0.00    -0.237 OA
ATOM     74  O   UNL     1     -10.040  15.792 -17.816  1.00  0.00    -0.744 OA
ENDBRANCH  68  71
ENDBRANCH  50  64
BRANCH  51  75
ATOM     75  C   UNL     1     -12.691  13.940  -5.545  1.00  0.00     0.023 A 
ATOM     76  C   UNL     1     -13.909  14.028  -4.844  1.00  0.00     0.012 A 
ATOM     77  C   UNL     1     -11.481  13.998  -4.827  1.00  0.00     0.148 A 
ATOM     78  C   UNL     1     -13.923  14.211  -3.461  1.00  0.00     0.002 A 
ATOM     79  C   UNL     1     -11.502  14.121  -3.443  1.00  0.00     0.091 A 
ATOM     80  F   UNL     1     -10.331  13.922  -5.513  1.00  0.00    -0.205 F 
ATOM     81  C   UNL     1     -12.721  14.248  -2.759  1.00  0.00     0.022 A 
BRANCH  79  82
ATOM     82  S   UNL     1     -10.010  14.043  -2.446  1.00  0.00     0.127 S 
ATOM     83  O   UNL     1      -9.902  15.417  -1.962  1.00  0.00    -0.237 OA
ATOM     84  O   UNL     1     -10.380  13.058  -1.428  1.00  0.00    -0.237 OA
ATOM     85  O   UNL     1      -8.956  13.605  -3.350  1.00  0.00    -0.744 OA
ENDBRANCH  79  82
ENDBRANCH  51  75
BRANCH  63  86
ATOM     86  C   UNL     1     -14.872  17.958 -10.823  1.00  0.00     0.023 A 
ATOM     87  C   UNL     1     -14.144  19.121 -10.505  1.00  0.00     0.012 A 
ATOM     88  C   UNL     1     -16.207  18.075 -11.260  1.00  0.00     0.148 A 
ATOM     89  C   UNL     1     -14.746  20.377 -10.585  1.00  0.00     0.002 A 
ATOM     90  C   UNL     1     -16.782  19.333 -11.390  1.00  0.00     0.091 A 
ATOM     91  F   UNL     1     -16.888  16.955 -11.542  1.00  0.00    -0.205 F 
ATOM     92  C   UNL     1     -16.058  20.484 -11.039  1.00  0.00     0.022 A 
BRANCH  90  93
ATOM     93  S   UNL     1     -18.431  19.574 -12.060  1.00  0.00     0.127 S 
ATOM     94  O   UNL     1     -19.176  19.994 -10.874  1.00  0.00    -0.237 OA
ATOM     95  O   UNL     1     -18.211  20.630 -13.049  1.00  0.00    -0.237 OA
ATOM     96  O   UNL     1     -18.829  18.291 -12.624  1.00  0.00    -0.744 OA
ENDBRANCH  90  93
ENDBRANCH  63  86
ENDBRANCH  37  38
ENDBRANCH  29  32
ENDBRANCH  27  28
ENDBRANCH  26  27
ENDBRANCH  25  26
ENDBRANCH   1  25
TORSDOF 19
