REMARK SMILES Cc1cc(C)c2c(c1)C=C(C(=O)NCCCCNC(=O)c1ccc(-c3c4nc(c(-c5cccc(S(=O)(=O)[O-])c5F)c5ccc([nH]5)c(-c5cccc(S(=O)(=O)[O-])c5F)c5nc(c(-c6cccc(S(=O)(=O)[O-])c6F)c6ccc3[nH]6)C=C5)C=C4)cc1)[C@@H](C(F)(F)F)O2
REMARK SMILES IDX 16 1 15 2 14 3 13 4 11 5 12 6 10 8 1 9 2 10 3 11 8 12 4 13
REMARK SMILES IDX 7 14 5 15 6 16 9 17 89 18 84 19 85 20 86 21 87 22 88 23
REMARK SMILES IDX 17 24 18 25 19 26 20 28 21 29 22 30 83 31 23 32 82 33 24 34
REMARK SMILES IDX 25 35 26 36 76 37 27 38 81 39 75 40 77 41 28 42 80 43 74 44
REMARK SMILES IDX 73 45 29 47 61 48 41 49 60 50 42 51 45 52 59 53 78 54 43 55
REMARK SMILES IDX 44 56 58 58 79 59 46 60 30 61 31 62 39 63 32 64 34 65 40 66
REMARK SMILES IDX 33 67 35 68 36 69 37 70 38 71 62 72 63 73 71 74 64 75 66 76
REMARK SMILES IDX 72 77 65 78 67 79 68 80 69 81 70 82 47 83 48 84 56 85 49 86
REMARK SMILES IDX 51 87 57 88 50 89 52 90 53 91 54 92 55 93
REMARK H PARENT 13 7 18 27 77 46 45 57
REMARK Flexibility Score: inf
ROOT
ATOM      1  C   UNL     1      -0.850  -2.185  10.769  1.00  0.00     0.023 C 
ENDROOT
BRANCH   1   2
ATOM      2  C   UNL     1      -0.706  -2.594   9.300  1.00  0.00     0.023 C 
BRANCH   2   3
ATOM      3  C   UNL     1      -1.933  -2.297   8.442  1.00  0.00     0.116 C 
BRANCH   3   4
ATOM      4  N   UNL     1      -1.912  -0.950   7.902  1.00  0.00    -0.352 N 
ATOM      5  C   UNL     1      -1.584  -0.364   6.728  1.00  0.00     0.251 C 
ATOM      6  O   UNL     1      -1.728   0.863   6.690  1.00  0.00    -0.270 OA
ATOM      7  H   UNL     1      -2.217  -0.289   8.565  1.00  0.00     0.163 HD
BRANCH   5   8
ATOM      8  C   UNL     1      -1.080  -1.078   5.516  1.00  0.00     0.067 C 
ATOM      9  C   UNL     1       0.897   0.123  -0.224  1.00  0.00     0.044 C 
ATOM     10  C   UNL     1       0.575  -0.712   0.979  1.00  0.00    -0.050 A 
ATOM     11  C   UNL     1       0.796  -2.096   0.952  1.00  0.00     0.010 A 
ATOM     12  C   UNL     1       0.102  -0.118   2.156  1.00  0.00     0.015 A 
ATOM     13  C   UNL     1       0.534  -2.889   2.077  1.00  0.00    -0.008 A 
ATOM     14  C   UNL     1      -0.170  -0.898   3.285  1.00  0.00     0.018 A 
ATOM     15  C   UNL     1       0.775  -4.371   2.034  1.00  0.00     0.048 C 
ATOM     16  C   UNL     1       0.042  -2.277   3.237  1.00  0.00     0.130 A 
ATOM     17  C   UNL     1      -0.637  -0.286   4.522  1.00  0.00     0.025 C 
ATOM     18  O   UNL     1      -0.169  -3.075   4.329  1.00  0.00    -0.475 OA
ATOM     19  C   UNL     1      -1.090  -2.569   5.336  1.00  0.00     0.314 C 
BRANCH  19  20
ATOM     20  C   UNL     1      -2.497  -3.127   5.053  1.00  0.00     0.429 C 
ATOM     21  F   UNL     1      -2.505  -4.478   5.188  1.00  0.00    -0.167 F 
ATOM     22  F   UNL     1      -3.429  -2.652   5.912  1.00  0.00    -0.167 F 
ATOM     23  F   UNL     1      -2.931  -2.846   3.804  1.00  0.00    -0.167 F 
ENDBRANCH  19  20
ENDBRANCH   5   8
ENDBRANCH   3   4
ENDBRANCH   2   3
ENDBRANCH   1   2
BRANCH   1  24
ATOM     24  C   UNL     1      -2.061  -2.763  11.501  1.00  0.00     0.116 C 
BRANCH  24  25
ATOM     25  N   UNL     1      -2.206  -4.207  11.369  1.00  0.00    -0.352 N 
ATOM     26  C   UNL     1      -2.837  -5.067  12.239  1.00  0.00     0.251 C 
ATOM     27  H   UNL     1      -1.808  -4.614  10.566  1.00  0.00     0.163 HD
ATOM     28  O   UNL     1      -2.842  -6.278  12.037  1.00  0.00    -0.269 OA
BRANCH  26  29
ATOM     29  C   UNL     1      -3.458  -4.502  13.450  1.00  0.00     0.039 A 
ATOM     30  C   UNL     1      -2.984  -4.908  14.699  1.00  0.00     0.014 A 
ATOM     31  C   UNL     1      -4.412  -3.486  13.339  1.00  0.00     0.014 A 
ATOM     32  C   UNL     1      -3.405  -4.228  15.841  1.00  0.00     0.010 A 
ATOM     33  C   UNL     1      -4.783  -2.772  14.473  1.00  0.00     0.010 A 
ATOM     34  C   UNL     1      -4.270  -3.125  15.730  1.00  0.00    -0.014 A 
BRANCH  34  35
ATOM     35  C   UNL     1      -4.594  -2.299  16.918  1.00  0.00     0.031 A 
ATOM     36  C   UNL     1      -5.993  -2.258  17.459  1.00  0.00     0.074 A 
ATOM     37  C   UNL     1      -3.630  -1.533  17.467  1.00  0.00     0.049 A 
ATOM     38  N   UNL     1      -6.444  -1.628  18.511  1.00  0.00    -0.248 NA
ATOM     39  C   UNL     1      -7.023  -2.999  16.713  1.00  0.00     0.031 C 
ATOM     40  C   UNL     1      -2.258  -1.416  16.967  1.00  0.00     0.029 A 
ATOM     41  N   UNL     1      -3.655  -0.704  18.560  1.00  0.00    -0.354 N 
ATOM     42  C   UNL     1      -7.808  -1.883  18.547  1.00  0.00     0.074 A 
ATOM     43  C   UNL     1      -8.122  -2.686  17.386  1.00  0.00     0.031 C 
ATOM     44  C   UNL     1      -1.567  -0.589  17.768  1.00  0.00     0.029 A 
ATOM     45  C   UNL     1      -2.445  -0.110  18.831  1.00  0.00     0.049 A 
ATOM     46  H   UNL     1      -4.464  -0.549  19.100  1.00  0.00     0.167 HD
ATOM     47  C   UNL     1      -8.709  -1.521  19.489  1.00  0.00     0.034 A 
ATOM     48  C   UNL     1      -2.077   0.707  19.839  1.00  0.00     0.034 A 
ATOM     49  C   UNL     1      -8.380  -0.772  20.669  1.00  0.00     0.049 A 
ATOM     50  C   UNL     1      -3.085   1.053  20.901  1.00  0.00     0.074 A 
ATOM     51  C   UNL     1      -9.200  -0.438  21.730  1.00  0.00     0.029 A 
ATOM     52  N   UNL     1      -7.128  -0.244  20.945  1.00  0.00    -0.354 N 
ATOM     53  N   UNL     1      -4.328   0.652  21.015  1.00  0.00    -0.248 NA
ATOM     54  C   UNL     1      -2.635   1.931  21.991  1.00  0.00     0.031 C 
ATOM     55  C   UNL     1      -8.444   0.295  22.650  1.00  0.00     0.029 A 
ATOM     56  C   UNL     1      -7.153   0.417  22.160  1.00  0.00     0.049 A 
ATOM     57  H   UNL     1      -6.338  -0.327  20.363  1.00  0.00     0.167 HD
ATOM     58  C   UNL     1      -4.800   1.202  22.201  1.00  0.00     0.074 A 
ATOM     59  C   UNL     1      -3.704   1.953  22.778  1.00  0.00     0.031 C 
ATOM     60  C   UNL     1      -6.035   1.108  22.750  1.00  0.00     0.034 A 
BRANCH  47  61
ATOM     61  C   UNL     1     -10.119  -2.019  19.333  1.00  0.00     0.023 A 
ATOM     62  C   UNL     1     -10.394  -3.374  19.610  1.00  0.00     0.012 A 
ATOM     63  C   UNL     1     -11.173  -1.154  18.985  1.00  0.00     0.148 A 
ATOM     64  C   UNL     1     -11.694  -3.868  19.520  1.00  0.00     0.002 A 
ATOM     65  C   UNL     1     -12.473  -1.647  18.931  1.00  0.00     0.091 A 
ATOM     66  F   UNL     1     -10.887   0.124  18.701  1.00  0.00    -0.205 F 
ATOM     67  C   UNL     1     -12.733  -3.003  19.192  1.00  0.00     0.022 A 
BRANCH  65  68
ATOM     68  S   UNL     1     -13.888  -0.597  18.581  1.00  0.00     0.127 S 
ATOM     69  O   UNL     1     -14.204  -0.978  17.205  1.00  0.00    -0.237 OA
ATOM     70  O   UNL     1     -14.863  -1.047  19.576  1.00  0.00    -0.237 OA
ATOM     71  O   UNL     1     -13.424   0.771  18.765  1.00  0.00    -0.744 OA
ENDBRANCH  65  68
ENDBRANCH  47  61
BRANCH  48  72
ATOM     72  C   UNL     1      -0.654   1.136  19.955  1.00  0.00     0.023 A 
ATOM     73  C   UNL     1       0.149   0.558  20.957  1.00  0.00     0.012 A 
ATOM     74  C   UNL     1      -0.074   2.045  19.050  1.00  0.00     0.148 A 
ATOM     75  C   UNL     1       1.500   0.888  21.067  1.00  0.00     0.002 A 
ATOM     76  C   UNL     1       1.285   2.334  19.135  1.00  0.00     0.091 A 
ATOM     77  F   UNL     1      -0.857   2.598  18.112  1.00  0.00    -0.205 F 
ATOM     78  C   UNL     1       2.071   1.766  20.149  1.00  0.00     0.022 A 
BRANCH  76  79
ATOM     79  S   UNL     1       2.126   3.346  17.910  1.00  0.00     0.127 S 
ATOM     80  O   UNL     1       2.284   4.610  18.623  1.00  0.00    -0.237 OA
ATOM     81  O   UNL     1       3.367   2.601  17.694  1.00  0.00    -0.237 OA
ATOM     82  O   UNL     1       1.238   3.370  16.755  1.00  0.00    -0.744 OA
ENDBRANCH  76  79
ENDBRANCH  48  72
BRANCH  60  83
ATOM     83  C   UNL     1      -6.292   1.823  24.048  1.00  0.00     0.023 A 
ATOM     84  C   UNL     1      -6.511   3.214  24.031  1.00  0.00     0.012 A 
ATOM     85  C   UNL     1      -6.465   1.105  25.248  1.00  0.00     0.148 A 
ATOM     86  C   UNL     1      -6.897   3.882  25.192  1.00  0.00     0.002 A 
ATOM     87  C   UNL     1      -6.887   1.772  26.392  1.00  0.00     0.091 A 
ATOM     88  F   UNL     1      -6.236  -0.216  25.240  1.00  0.00    -0.205 F 
ATOM     89  C   UNL     1      -7.099   3.161  26.366  1.00  0.00     0.022 A 
BRANCH  87  90
ATOM     90  S   UNL     1      -7.268   0.916  27.925  1.00  0.00     0.127 S 
ATOM     91  O   UNL     1      -6.176   1.359  28.791  1.00  0.00    -0.237 OA
ATOM     92  O   UNL     1      -8.580   1.464  28.269  1.00  0.00    -0.237 OA
ATOM     93  O   UNL     1      -7.270  -0.504  27.604  1.00  0.00    -0.744 OA
ENDBRANCH  87  90
ENDBRANCH  60  83
ENDBRANCH  34  35
ENDBRANCH  26  29
ENDBRANCH  24  25
ENDBRANCH   1  24
TORSDOF 15
