REMARK SMILES [NH3+][C@@H](CCCCC(=O)NCCCCNC(=O)c1ccc(-c2c3nc(c(-c4cccc(S(=O)(=O)[O-])c4F)c4ccc([nH]4)c(-c4cccc(S(=O)(=O)[O-])c4F)c4nc(c(-c5cccc(S(=O)(=O)[O-])c5F)c5ccc2[nH]5)C=C4)C=C3)cc1)c1ccc(-c2ccccc2)cc1
REMARK SMILES IDX 10 1 9 2 7 3 8 4 6 6 5 7 4 8 3 9 2 10 1 11 80 15 81 16 91 17
REMARK SMILES IDX 82 18 90 19 83 20 84 21 85 22 89 23 86 24 88 25 87 26 11 27
REMARK SMILES IDX 12 28 13 29 14 30 15 31 16 33 17 34 18 35 79 36 19 37 78 38
REMARK SMILES IDX 20 39 21 40 22 41 72 42 23 43 77 44 71 45 73 46 24 47 76 48
REMARK SMILES IDX 70 49 69 50 25 52 57 53 37 54 56 55 38 56 41 57 55 58 74 59
REMARK SMILES IDX 39 60 40 61 54 63 75 64 42 65 26 66 27 67 35 68 28 69 30 70
REMARK SMILES IDX 36 71 29 72 31 73 32 74 33 75 34 76 58 77 59 78 67 79 60 80
REMARK SMILES IDX 62 81 68 82 61 83 63 84 64 85 65 86 66 87 43 88 44 89 52 90
REMARK SMILES IDX 45 91 47 92 53 93 46 94 48 95 49 96 50 97 51 98
REMARK H PARENT 9 5 1 12 1 13 1 14 14 32 73 51 41 62
REMARK Flexibility Score: inf
ROOT
ATOM      1  C   UNL     1       1.515  -1.349  -5.149  1.00  0.00     0.116 C 
ENDROOT
BRANCH   1   2
ATOM      2  N   UNL     1       0.311  -1.940  -5.692  1.00  0.00    -0.356 N 
ATOM      3  C   UNL     1      -0.974  -1.819  -5.259  1.00  0.00     0.219 C 
ATOM      4  O   UNL     1      -1.859  -2.459  -5.827  1.00  0.00    -0.275 OA
ATOM      5  H   UNL     1       0.439  -2.509  -6.485  1.00  0.00     0.163 HD
BRANCH   3   6
ATOM      6  C   UNL     1      -1.306  -0.887  -4.109  1.00  0.00     0.100 C 
BRANCH   6   7
ATOM      7  C   UNL     1      -1.216  -1.545  -2.731  1.00  0.00     0.010 C 
BRANCH   7   8
ATOM      8  C   UNL     1       0.065  -1.346  -1.900  1.00  0.00     0.007 C 
BRANCH   8   9
ATOM      9  C   UNL     1       0.616   0.085  -1.746  1.00  0.00     0.070 C 
BRANCH   9  10
ATOM     10  C   UNL     1       0.256   0.831  -0.441  1.00  0.00     0.211 C 
BRANCH  10  11
ATOM     11  N   UNL     1       0.915   0.240   0.728  1.00  0.00    -0.351 N 
ATOM     12  H   UNL     1       1.920   0.182   0.558  1.00  0.00     0.345 HD
ATOM     13  H   UNL     1       0.544  -0.695   0.891  1.00  0.00     0.345 HD
ATOM     14  H   UNL     1       0.742   0.823   1.547  1.00  0.00     0.345 HD
ENDBRANCH  10  11
BRANCH  10  15
ATOM     15  C   UNL     1      -1.246   0.963  -0.292  1.00  0.00     0.009 A 
ATOM     16  C   UNL     1      -1.905   2.029  -0.916  1.00  0.00     0.010 A 
ATOM     17  C   UNL     1      -2.023  -0.022   0.327  1.00  0.00     0.010 A 
ATOM     18  C   UNL     1      -3.302   2.070  -0.978  1.00  0.00     0.009 A 
ATOM     19  C   UNL     1      -3.418   0.005   0.231  1.00  0.00     0.009 A 
ATOM     20  C   UNL     1      -4.091   1.036  -0.446  1.00  0.00    -0.018 A 
BRANCH  20  21
ATOM     21  C   UNL     1      -5.560   1.000  -0.634  1.00  0.00    -0.018 A 
ATOM     22  C   UNL     1      -6.160   1.503  -1.804  1.00  0.00     0.009 A 
ATOM     23  C   UNL     1      -6.412   0.422   0.324  1.00  0.00     0.009 A 
ATOM     24  C   UNL     1      -7.543   1.438  -2.004  1.00  0.00     0.001 A 
ATOM     25  C   UNL     1      -7.793   0.341   0.121  1.00  0.00     0.001 A 
ATOM     26  C   UNL     1      -8.358   0.852  -1.042  1.00  0.00     0.000 A 
ENDBRANCH  20  21
ENDBRANCH  10  15
ENDBRANCH   9  10
ENDBRANCH   8   9
ENDBRANCH   7   8
ENDBRANCH   6   7
ENDBRANCH   3   6
ENDBRANCH   1   2
BRANCH   1  27
ATOM     27  C   UNL     1       2.308  -2.370  -4.335  1.00  0.00     0.023 C 
BRANCH  27  28
ATOM     28  C   UNL     1       3.290  -3.215  -5.131  1.00  0.00     0.023 C 
BRANCH  28  29
ATOM     29  C   UNL     1       4.388  -2.432  -5.829  1.00  0.00     0.116 C 
BRANCH  29  30
ATOM     30  N   UNL     1       5.192  -1.599  -4.937  1.00  0.00    -0.352 N 
ATOM     31  C   UNL     1       6.541  -1.334  -5.039  1.00  0.00     0.251 C 
ATOM     32  H   UNL     1       4.719  -1.183  -4.181  1.00  0.00     0.163 HD
ATOM     33  O   UNL     1       7.124  -0.655  -4.200  1.00  0.00    -0.269 OA
BRANCH  31  34
ATOM     34  C   UNL     1       7.270  -1.943  -6.167  1.00  0.00     0.039 A 
ATOM     35  C   UNL     1       8.265  -2.884  -5.897  1.00  0.00     0.014 A 
ATOM     36  C   UNL     1       6.810  -1.731  -7.469  1.00  0.00     0.014 A 
ATOM     37  C   UNL     1       8.724  -3.702  -6.931  1.00  0.00     0.010 A 
ATOM     38  C   UNL     1       7.208  -2.602  -8.473  1.00  0.00     0.010 A 
ATOM     39  C   UNL     1       8.150  -3.610  -8.210  1.00  0.00    -0.014 A 
BRANCH  39  40
ATOM     40  C   UNL     1       8.458  -4.592  -9.281  1.00  0.00     0.031 A 
ATOM     41  C   UNL     1       9.040  -4.118 -10.582  1.00  0.00     0.074 A 
ATOM     42  C   UNL     1       8.062  -5.875  -9.142  1.00  0.00     0.049 A 
ATOM     43  N   UNL     1       9.237  -4.787 -11.687  1.00  0.00    -0.248 NA
ATOM     44  C   UNL     1       9.411  -2.695 -10.668  1.00  0.00     0.031 C 
ATOM     45  C   UNL     1       7.385  -6.435  -7.969  1.00  0.00     0.029 A 
ATOM     46  N   UNL     1       8.130  -6.933 -10.016  1.00  0.00    -0.354 N 
ATOM     47  C   UNL     1       9.690  -3.858 -12.614  1.00  0.00     0.074 A 
ATOM     48  C   UNL     1       9.727  -2.575 -11.949  1.00  0.00     0.031 C 
ATOM     49  C   UNL     1       7.092  -7.725  -8.201  1.00  0.00     0.029 A 
ATOM     50  C   UNL     1       7.533  -8.081  -9.545  1.00  0.00     0.049 A 
ATOM     51  H   UNL     1       8.566  -6.876 -10.898  1.00  0.00     0.167 HD
ATOM     52  C   UNL     1      10.071  -4.061 -13.896  1.00  0.00     0.034 A 
ATOM     53  C   UNL     1       7.348  -9.279 -10.134  1.00  0.00     0.034 A 
ATOM     54  C   UNL     1      10.130  -5.353 -14.521  1.00  0.00     0.049 A 
ATOM     55  C   UNL     1       7.866  -9.495 -11.531  1.00  0.00     0.074 A 
ATOM     56  C   UNL     1      10.668  -5.687 -15.751  1.00  0.00     0.029 A 
ATOM     57  N   UNL     1       9.633  -6.521 -13.967  1.00  0.00    -0.354 N 
ATOM     58  N   UNL     1       8.493  -8.653 -12.315  1.00  0.00    -0.248 NA
ATOM     59  C   UNL     1       7.678 -10.832 -12.114  1.00  0.00     0.031 C 
ATOM     60  C   UNL     1      10.488  -7.060 -15.945  1.00  0.00     0.029 A 
ATOM     61  C   UNL     1       9.836  -7.577 -14.836  1.00  0.00     0.049 A 
ATOM     62  H   UNL     1       9.200  -6.589 -13.086  1.00  0.00     0.167 HD
ATOM     63  C   UNL     1       8.794  -9.362 -13.472  1.00  0.00     0.074 A 
ATOM     64  C   UNL     1       8.305 -10.711 -13.277  1.00  0.00     0.031 C 
ATOM     65  C   UNL     1       9.399  -8.928 -14.604  1.00  0.00     0.034 A 
BRANCH  52  66
ATOM     66  C   UNL     1      10.535  -2.872 -14.689  1.00  0.00     0.023 A 
ATOM     67  C   UNL     1      11.813  -2.333 -14.441  1.00  0.00     0.012 A 
ATOM     68  C   UNL     1       9.743  -2.338 -15.723  1.00  0.00     0.148 A 
ATOM     69  C   UNL     1      12.290  -1.265 -15.197  1.00  0.00     0.002 A 
ATOM     70  C   UNL     1      10.240  -1.296 -16.497  1.00  0.00     0.091 A 
ATOM     71  F   UNL     1       8.521  -2.852 -15.924  1.00  0.00    -0.205 F 
ATOM     72  C   UNL     1      11.509  -0.755 -16.231  1.00  0.00     0.022 A 
BRANCH  70  73
ATOM     73  S   UNL     1       9.341  -0.610 -17.892  1.00  0.00     0.127 S 
ATOM     74  O   UNL     1       8.957   0.704 -17.377  1.00  0.00    -0.237 OA
ATOM     75  O   UNL     1      10.366  -0.580 -18.935  1.00  0.00    -0.237 OA
ATOM     76  O   UNL     1       8.239  -1.527 -18.149  1.00  0.00    -0.744 OA
ENDBRANCH  70  73
ENDBRANCH  52  66
BRANCH  53  77
ATOM     77  C   UNL     1       6.693 -10.389  -9.385  1.00  0.00     0.023 A 
ATOM     78  C   UNL     1       7.473 -11.480  -8.955  1.00  0.00     0.012 A 
ATOM     79  C   UNL     1       5.320 -10.366  -9.077  1.00  0.00     0.148 A 
ATOM     80  C   UNL     1       6.892 -12.541  -8.259  1.00  0.00     0.002 A 
ATOM     81  C   UNL     1       4.758 -11.402  -8.339  1.00  0.00     0.091 A 
ATOM     82  F   UNL     1       4.584  -9.332  -9.511  1.00  0.00    -0.205 F 
ATOM     83  C   UNL     1       5.537 -12.498  -7.942  1.00  0.00     0.022 A 
BRANCH  81  84
ATOM     84  S   UNL     1       3.051 -11.333  -7.782  1.00  0.00     0.127 S 
ATOM     85  O   UNL     1       2.357 -12.061  -8.840  1.00  0.00    -0.237 OA
ATOM     86  O   UNL     1       3.110 -12.026  -6.494  1.00  0.00    -0.237 OA
ATOM     87  O   UNL     1       2.755  -9.910  -7.673  1.00  0.00    -0.744 OA
ENDBRANCH  81  84
ENDBRANCH  53  77
BRANCH  65  88
ATOM     88  C   UNL     1       9.580  -9.914 -15.725  1.00  0.00     0.023 A 
ATOM     89  C   UNL     1       8.473 -10.255 -16.526  1.00  0.00     0.012 A 
ATOM     90  C   UNL     1      10.854 -10.419 -16.048  1.00  0.00     0.148 A 
ATOM     91  C   UNL     1       8.629 -11.099 -17.624  1.00  0.00     0.002 A 
ATOM     92  C   UNL     1      11.009 -11.227 -17.168  1.00  0.00     0.091 A 
ATOM     93  F   UNL     1      11.890 -10.097 -15.259  1.00  0.00    -0.205 F 
ATOM     94  C   UNL     1       9.896 -11.573 -17.953  1.00  0.00     0.022 A 
BRANCH  92  95
ATOM     95  S   UNL     1      12.618 -11.807 -17.717  1.00  0.00     0.127 S 
ATOM     96  O   UNL     1      12.586 -13.210 -17.306  1.00  0.00    -0.237 OA
ATOM     97  O   UNL     1      12.553 -11.593 -19.163  1.00  0.00    -0.237 OA
ATOM     98  O   UNL     1      13.596 -10.974 -17.030  1.00  0.00    -0.744 OA
ENDBRANCH  92  95
ENDBRANCH  65  88
ENDBRANCH  39  40
ENDBRANCH  31  34
ENDBRANCH  29  30
ENDBRANCH  28  29
ENDBRANCH  27  28
ENDBRANCH   1  27
TORSDOF 21
