REMARK SMILES CC1(C)CN(CC(=O)NCCCCNC(=O)c2ccc(-c3c4nc(c(-c5cccc(S(=O)(=O)[O-])c5F)c5ccc([nH]5)c(-c5cccc(S(=O)(=O)[O-])c5F)c5nc(c(-c6cccc(S(=O)(=O)[O-])c6F)c6ccc3[nH]6)C=C5)C=C4)cc2)c2ccc(S(=O)(=O)N3CCCCC3)cc21
REMARK SMILES IDX 11 1 10 2 9 3 7 4 8 5 6 7 5 8 1 9 2 10 3 11 4 12 94 13 80 14
REMARK SMILES IDX 93 15 81 16 83 17 82 18 84 19 85 20 86 21 87 22 88 23 92 24
REMARK SMILES IDX 89 25 91 26 90 27 12 28 13 29 14 30 15 31 16 33 17 34 18 35
REMARK SMILES IDX 79 36 19 37 78 38 20 39 21 40 22 41 72 42 23 43 77 44 71 45
REMARK SMILES IDX 73 46 24 47 76 48 70 49 69 50 25 52 57 53 37 54 56 55 38 56
REMARK SMILES IDX 41 57 55 58 74 59 39 60 40 61 54 63 75 64 42 65 26 66 27 67
REMARK SMILES IDX 35 68 28 69 30 70 36 71 29 72 31 73 32 74 33 75 34 76 58 77
REMARK SMILES IDX 59 78 67 79 60 80 62 81 68 82 61 83 63 84 64 85 65 86 66 87
REMARK SMILES IDX 43 88 44 89 52 90 45 91 47 92 53 93 46 94 48 95 49 96 50 97
REMARK SMILES IDX 51 98
REMARK H PARENT 9 6 14 32 73 51 41 62
REMARK Flexibility Score: inf
ROOT
ATOM      1  C   UNL     1       3.496   2.914   1.793  1.00  0.00     0.023 C 
ENDROOT
BRANCH   1   2
ATOM      2  C   UNL     1       2.811   3.824   2.811  1.00  0.00     0.116 C 
BRANCH   2   3
ATOM      3  N   UNL     1       2.461   5.113   2.254  1.00  0.00    -0.355 N 
ATOM      4  C   UNL     1       1.260   5.509   1.732  1.00  0.00     0.239 C 
ATOM      5  O   UNL     1       1.161   6.662   1.303  1.00  0.00    -0.273 OA
ATOM      6  H   UNL     1       3.176   5.789   2.249  1.00  0.00     0.163 HD
BRANCH   4   7
ATOM      7  C   UNL     1       0.056   4.556   1.746  1.00  0.00     0.216 C 
BRANCH   7   8
ATOM      8  N   UNL     1       0.215   3.389   0.890  1.00  0.00    -0.361 N 
ATOM      9  C   UNL     1       0.934  -0.034   0.192  1.00  0.00     0.018 C 
ATOM     10  C   UNL     1      -0.082   1.106   0.087  1.00  0.00     0.009 C 
ATOM     11  C   UNL     1      -1.496   0.552  -0.125  1.00  0.00     0.018 C 
ATOM     12  C   UNL     1      -0.041   2.025   1.348  1.00  0.00     0.128 C 
ATOM     13  C   UNL     1       0.270   2.085  -1.007  1.00  0.00    -0.016 A 
ATOM     14  C   UNL     1       0.371   3.374  -0.477  1.00  0.00     0.041 A 
ATOM     15  C   UNL     1       0.436   1.834  -2.366  1.00  0.00     0.028 A 
ATOM     16  C   UNL     1       0.613   4.439  -1.325  1.00  0.00     0.027 A 
ATOM     17  C   UNL     1       0.699   2.913  -3.218  1.00  0.00     0.083 A 
ATOM     18  C   UNL     1       0.778   4.210  -2.697  1.00  0.00     0.024 A 
BRANCH  17  19
ATOM     19  S   UNL     1       0.870   2.532  -4.955  1.00  0.00     0.243 S 
ATOM     20  O   UNL     1       2.164   1.901  -5.106  1.00  0.00    -0.207 OA
ATOM     21  O   UNL     1      -0.346   1.835  -5.325  1.00  0.00    -0.207 OA
BRANCH  19  22
ATOM     22  N   UNL     1       0.889   4.000  -5.825  1.00  0.00    -0.198 NA
ATOM     23  C   UNL     1      -0.379   4.764  -5.851  1.00  0.00     0.102 C 
ATOM     24  C   UNL     1       2.157   4.772  -5.804  1.00  0.00     0.102 C 
ATOM     25  C   UNL     1      -0.338   5.883  -6.883  1.00  0.00     0.017 C 
ATOM     26  C   UNL     1       2.142   5.911  -6.817  1.00  0.00     0.017 C 
ATOM     27  C   UNL     1       0.887   6.762  -6.684  1.00  0.00     0.003 C 
ENDBRANCH  19  22
ENDBRANCH  17  19
ENDBRANCH   7   8
ENDBRANCH   4   7
ENDBRANCH   2   3
ENDBRANCH   1   2
BRANCH   1  28
ATOM     28  C   UNL     1       4.894   3.361   1.365  1.00  0.00     0.023 C 
BRANCH  28  29
ATOM     29  C   UNL     1       5.913   3.486   2.491  1.00  0.00     0.116 C 
BRANCH  29  30
ATOM     30  N   UNL     1       6.114   2.253   3.238  1.00  0.00    -0.352 N 
ATOM     31  C   UNL     1       7.282   1.763   3.780  1.00  0.00     0.251 C 
ATOM     32  H   UNL     1       5.312   1.698   3.373  1.00  0.00     0.163 HD
ATOM     33  O   UNL     1       7.298   0.658   4.314  1.00  0.00    -0.269 OA
BRANCH  31  34
ATOM     34  C   UNL     1       8.519   2.564   3.662  1.00  0.00     0.039 A 
ATOM     35  C   UNL     1       8.518   3.919   3.998  1.00  0.00     0.014 A 
ATOM     36  C   UNL     1       9.665   1.968   3.131  1.00  0.00     0.014 A 
ATOM     37  C   UNL     1       9.600   4.714   3.639  1.00  0.00     0.010 A 
ATOM     38  C   UNL     1      10.781   2.757   2.839  1.00  0.00     0.010 A 
ATOM     39  C   UNL     1      10.734   4.146   3.034  1.00  0.00    -0.014 A 
BRANCH  39  40
ATOM     40  C   UNL     1      11.841   5.029   2.585  1.00  0.00     0.031 A 
ATOM     41  C   UNL     1      12.164   5.175   1.121  1.00  0.00     0.074 A 
ATOM     42  C   UNL     1      12.527   5.744   3.496  1.00  0.00     0.049 A 
ATOM     43  N   UNL     1      13.075   5.923   0.553  1.00  0.00    -0.248 NA
ATOM     44  C   UNL     1      11.364   4.383   0.171  1.00  0.00     0.031 C 
ATOM     45  C   UNL     1      12.316   5.683   4.943  1.00  0.00     0.029 A 
ATOM     46  N   UNL     1      13.525   6.672   3.342  1.00  0.00    -0.354 N 
ATOM     47  C   UNL     1      12.988   5.663  -0.810  1.00  0.00     0.074 A 
ATOM     48  C   UNL     1      11.937   4.686  -0.987  1.00  0.00     0.031 C 
ATOM     49  C   UNL     1      13.129   6.566   5.542  1.00  0.00     0.029 A 
ATOM     50  C   UNL     1      13.949   7.222   4.527  1.00  0.00     0.049 A 
ATOM     51  H   UNL     1      13.901   6.919   2.467  1.00  0.00     0.167 HD
ATOM     52  C   UNL     1      13.700   6.208  -1.824  1.00  0.00     0.034 A 
ATOM     53  C   UNL     1      14.893   8.149   4.777  1.00  0.00     0.034 A 
ATOM     54  C   UNL     1      14.704   7.223  -1.659  1.00  0.00     0.049 A 
ATOM     55  C   UNL     1      15.662   8.746   3.635  1.00  0.00     0.074 A 
ATOM     56  C   UNL     1      15.445   7.863  -2.638  1.00  0.00     0.029 A 
ATOM     57  N   UNL     1      15.102   7.753  -0.443  1.00  0.00    -0.354 N 
ATOM     58  N   UNL     1      15.516   8.536   2.350  1.00  0.00    -0.248 NA
ATOM     59  C   UNL     1      16.716   9.712   3.973  1.00  0.00     0.031 C 
ATOM     60  C   UNL     1      16.292   8.783  -2.011  1.00  0.00     0.029 A 
ATOM     61  C   UNL     1      16.079   8.713  -0.644  1.00  0.00     0.049 A 
ATOM     62  H   UNL     1      14.744   7.485   0.434  1.00  0.00     0.167 HD
ATOM     63  C   UNL     1      16.457   9.342   1.724  1.00  0.00     0.074 A 
ATOM     64  C   UNL     1      17.151  10.067   2.769  1.00  0.00     0.031 C 
ATOM     65  C   UNL     1      16.736   9.452   0.402  1.00  0.00     0.034 A 
BRANCH  52  66
ATOM     66  C   UNL     1      13.379   5.760  -3.223  1.00  0.00     0.023 A 
ATOM     67  C   UNL     1      12.261   6.312  -3.880  1.00  0.00     0.012 A 
ATOM     68  C   UNL     1      14.216   4.861  -3.911  1.00  0.00     0.148 A 
ATOM     69  C   UNL     1      11.972   5.965  -5.198  1.00  0.00     0.002 A 
ATOM     70  C   UNL     1      13.936   4.540  -5.235  1.00  0.00     0.091 A 
ATOM     71  F   UNL     1      15.261   4.333  -3.259  1.00  0.00    -0.205 F 
ATOM     72  C   UNL     1      12.813   5.088  -5.878  1.00  0.00     0.022 A 
BRANCH  70  73
ATOM     73  S   UNL     1      14.987   3.461  -6.214  1.00  0.00     0.127 S 
ATOM     74  O   UNL     1      14.157   2.263  -6.324  1.00  0.00    -0.237 OA
ATOM     75  O   UNL     1      15.134   4.218  -7.458  1.00  0.00    -0.237 OA
ATOM     76  O   UNL     1      16.218   3.301  -5.452  1.00  0.00    -0.744 OA
ENDBRANCH  70  73
ENDBRANCH  52  66
BRANCH  53  77
ATOM     77  C   UNL     1      15.108   8.595   6.178  1.00  0.00     0.023 A 
ATOM     78  C   UNL     1      14.598   9.841   6.587  1.00  0.00     0.012 A 
ATOM     79  C   UNL     1      15.711   7.747   7.127  1.00  0.00     0.148 A 
ATOM     80  C   UNL     1      14.681  10.236   7.922  1.00  0.00     0.002 A 
ATOM     81  C   UNL     1      15.751   8.127   8.463  1.00  0.00     0.091 A 
ATOM     82  F   UNL     1      16.188   6.567   6.708  1.00  0.00    -0.205 F 
ATOM     83  C   UNL     1      15.245   9.375   8.861  1.00  0.00     0.022 A 
BRANCH  81  84
ATOM     84  S   UNL     1      16.343   7.040   9.763  1.00  0.00     0.127 S 
ATOM     85  O   UNL     1      17.465   7.804  10.304  1.00  0.00    -0.237 OA
ATOM     86  O   UNL     1      15.173   6.960  10.637  1.00  0.00    -0.237 OA
ATOM     87  O   UNL     1      16.700   5.790   9.106  1.00  0.00    -0.744 OA
ENDBRANCH  81  84
ENDBRANCH  53  77
BRANCH  65  88
ATOM     88  C   UNL     1      17.850  10.374  -0.005  1.00  0.00     0.023 A 
ATOM     89  C   UNL     1      19.180   9.923   0.098  1.00  0.00     0.012 A 
ATOM     90  C   UNL     1      17.582  11.627  -0.589  1.00  0.00     0.148 A 
ATOM     91  C   UNL     1      20.231  10.710  -0.370  1.00  0.00     0.002 A 
ATOM     92  C   UNL     1      18.633  12.393  -1.080  1.00  0.00     0.091 A 
ATOM     93  F   UNL     1      16.307  12.037  -0.663  1.00  0.00    -0.205 F 
ATOM     94  C   UNL     1      19.957  11.938  -0.968  1.00  0.00     0.022 A 
BRANCH  92  95
ATOM     95  S   UNL     1      18.377  13.957  -1.927  1.00  0.00     0.127 S 
ATOM     96  O   UNL     1      18.920  14.911  -0.961  1.00  0.00    -0.237 OA
ATOM     97  O   UNL     1      19.181  13.789  -3.137  1.00  0.00    -0.237 OA
ATOM     98  O   UNL     1      16.943  14.058  -2.161  1.00  0.00    -0.744 OA
ENDBRANCH  92  95
ENDBRANCH  65  88
ENDBRANCH  39  40
ENDBRANCH  31  34
ENDBRANCH  29  30
ENDBRANCH  28  29
ENDBRANCH   1  28
TORSDOF 17
