REMARK SMILES Cc1[nH]c2ccccc2c1[C@H](C(=O)NCCCCNC(=O)c1ccc(-c2c3nc(c(-c4cccc(S(=O)(=O)[O-])c4F)c4ccc([nH]4)c(-c4cccc(S(=O)(=O)[O-])c4F)c4nc(c(-c5cccc(S(=O)(=O)[O-])c5F)c5ccc2[nH]5)C=C4)C=C3)cc1)[NH+]1CCN(C(=O)c2ccco2)CC1
REMARK SMILES IDX 17 1 16 2 15 3 14 4 12 5 13 6 11 8 10 9 1 10 2 11 3 12 4 13
REMARK SMILES IDX 9 15 5 16 8 17 6 18 7 19 85 20 86 21 97 22 87 24 96 25 88 26
REMARK SMILES IDX 89 27 90 28 91 29 92 30 95 31 93 32 94 33 18 34 19 35 20 36
REMARK SMILES IDX 21 38 22 39 23 40 84 41 24 42 83 43 25 44 26 45 27 46 77 47
REMARK SMILES IDX 28 48 82 49 76 50 78 51 29 52 81 53 75 54 74 55 30 57 62 58
REMARK SMILES IDX 42 59 61 60 43 61 46 62 60 63 79 64 44 65 45 66 59 68 80 69
REMARK SMILES IDX 47 70 31 71 32 72 40 73 33 74 35 75 41 76 34 77 36 78 37 79
REMARK SMILES IDX 38 80 39 81 63 82 64 83 72 84 65 85 67 86 73 87 66 88 68 89
REMARK SMILES IDX 69 90 70 91 71 92 48 93 49 94 57 95 50 96 52 97 58 98 51 99
REMARK SMILES IDX 53 100 54 101 55 102 56 103
REMARK H PARENT 14 7 3 14 85 23 19 37 78 56 46 67
REMARK Flexibility Score: inf
ROOT
ATOM      1  C   UNL     1       2.498  -2.170  -3.341  1.00  0.00     0.023 C 
ENDROOT
BRANCH   1   2
ATOM      2  C   UNL     1       1.149  -2.734  -2.931  1.00  0.00     0.023 C 
BRANCH   2   3
ATOM      3  C   UNL     1       0.921  -2.724  -1.426  1.00  0.00     0.116 C 
BRANCH   3   4
ATOM      4  N   UNL     1       0.388  -1.463  -0.951  1.00  0.00    -0.351 N 
ATOM      5  C   UNL     1      -0.804  -1.198  -0.328  1.00  0.00     0.283 C 
ATOM      6  O   UNL     1      -1.014  -0.028   0.011  1.00  0.00    -0.268 OA
ATOM      7  H   UNL     1       0.967  -0.680  -1.099  1.00  0.00     0.163 HD
BRANCH   5   8
ATOM      8  C   UNL     1      -1.854  -2.304  -0.025  1.00  0.00     0.308 C 
BRANCH   8   9
ATOM      9  C   UNL     1      -2.122  -3.197  -1.239  1.00  0.00     0.047 A 
ATOM     10  C   UNL     1      -2.431  -1.321  -3.063  1.00  0.00     0.065 C 
ATOM     11  C   UNL     1      -2.317  -2.713  -2.537  1.00  0.00     0.022 A 
ATOM     12  N   UNL     1      -2.277  -3.779  -3.397  1.00  0.00    -0.358 N 
ATOM     13  C   UNL     1      -2.168  -4.955  -2.703  1.00  0.00     0.046 A 
ATOM     14  H   UNL     1      -2.321  -3.709  -4.378  1.00  0.00     0.166 HD
ATOM     15  C   UNL     1      -2.171  -4.636  -1.343  1.00  0.00     0.009 A 
ATOM     16  C   UNL     1      -2.057  -6.265  -3.186  1.00  0.00     0.027 A 
ATOM     17  C   UNL     1      -2.145  -5.708  -0.425  1.00  0.00     0.011 A 
ATOM     18  C   UNL     1      -2.002  -7.299  -2.250  1.00  0.00     0.002 A 
ATOM     19  C   UNL     1      -2.069  -7.028  -0.888  1.00  0.00     0.001 A 
ENDBRANCH   8   9
BRANCH   8  20
ATOM     20  N   UNL     1      -1.636  -3.034   1.260  1.00  0.00    -0.318 N 
ATOM     21  C   UNL     1      -0.266  -3.442   1.620  1.00  0.00     0.285 C 
ATOM     22  C   UNL     1      -2.226  -2.344   2.423  1.00  0.00     0.285 C 
ATOM     23  H   UNL     1      -2.126  -3.901   1.039  1.00  0.00     0.349 HD
ATOM     24  C   UNL     1       0.653  -2.362   2.228  1.00  0.00     0.181 C 
ATOM     25  C   UNL     1      -1.397  -1.193   3.022  1.00  0.00     0.181 C 
ATOM     26  N   UNL     1       0.011  -1.535   3.248  1.00  0.00    -0.325 N 
ATOM     27  C   UNL     1       0.872  -0.726   4.014  1.00  0.00     0.289 C 
ATOM     28  O   UNL     1       2.085  -0.728   3.800  1.00  0.00    -0.265 OA
BRANCH  27  29
ATOM     29  C   UNL     1       0.293   0.064   5.083  1.00  0.00     0.191 A 
ATOM     30  C   UNL     1      -0.588  -0.253   6.103  1.00  0.00     0.056 A 
ATOM     31  O   UNL     1       0.697   1.365   5.229  1.00  0.00    -0.459 OA
ATOM     32  C   UNL     1      -0.746   0.914   6.888  1.00  0.00     0.043 A 
ATOM     33  C   UNL     1       0.056   1.870   6.313  1.00  0.00     0.196 A 
ENDBRANCH  27  29
ENDBRANCH   8  20
ENDBRANCH   5   8
ENDBRANCH   3   4
ENDBRANCH   2   3
ENDBRANCH   1   2
BRANCH   1  34
ATOM     34  C   UNL     1       3.684  -2.872  -2.698  1.00  0.00     0.116 C 
BRANCH  34  35
ATOM     35  N   UNL     1       3.675  -4.324  -2.889  1.00  0.00    -0.352 N 
ATOM     36  C   UNL     1       4.736  -5.119  -3.262  1.00  0.00     0.251 C 
ATOM     37  H   UNL     1       2.817  -4.781  -2.734  1.00  0.00     0.163 HD
ATOM     38  O   UNL     1       4.612  -6.312  -3.487  1.00  0.00    -0.269 OA
BRANCH  36  39
ATOM     39  C   UNL     1       6.034  -4.439  -3.403  1.00  0.00     0.039 A 
ATOM     40  C   UNL     1       6.569  -4.262  -4.680  1.00  0.00     0.014 A 
ATOM     41  C   UNL     1       6.535  -3.754  -2.295  1.00  0.00     0.014 A 
ATOM     42  C   UNL     1       7.574  -3.313  -4.862  1.00  0.00     0.010 A 
ATOM     43  C   UNL     1       7.460  -2.744  -2.502  1.00  0.00     0.010 A 
ATOM     44  C   UNL     1       7.986  -2.511  -3.784  1.00  0.00    -0.014 A 
BRANCH  44  45
ATOM     45  C   UNL     1       8.963  -1.408  -3.956  1.00  0.00     0.031 A 
ATOM     46  C   UNL     1      10.236  -1.432  -3.155  1.00  0.00     0.074 A 
ATOM     47  C   UNL     1       8.650  -0.335  -4.711  1.00  0.00     0.049 A 
ATOM     48  N   UNL     1      11.152  -0.510  -3.034  1.00  0.00    -0.248 NA
ATOM     49  C   UNL     1      10.482  -2.634  -2.337  1.00  0.00     0.031 C 
ATOM     50  C   UNL     1       7.399  -0.148  -5.450  1.00  0.00     0.029 A 
ATOM     51  N   UNL     1       9.350   0.821  -4.954  1.00  0.00    -0.354 N 
ATOM     52  C   UNL     1      12.041  -0.989  -2.081  1.00  0.00     0.074 A 
ATOM     53  C   UNL     1      11.534  -2.263  -1.625  1.00  0.00     0.031 C 
ATOM     54  C   UNL     1       7.423   1.045  -6.067  1.00  0.00     0.029 A 
ATOM     55  C   UNL     1       8.676   1.721  -5.748  1.00  0.00     0.049 A 
ATOM     56  H   UNL     1      10.250   0.991  -4.593  1.00  0.00     0.167 HD
ATOM     57  C   UNL     1      13.200  -0.440  -1.653  1.00  0.00     0.034 A 
ATOM     58  C   UNL     1       9.031   2.953  -6.166  1.00  0.00     0.034 A 
ATOM     59  C   UNL     1      13.747   0.774  -2.189  1.00  0.00     0.049 A 
ATOM     60  C   UNL     1      10.374   3.498  -5.755  1.00  0.00     0.074 A 
ATOM     61  C   UNL     1      14.981   1.344  -1.940  1.00  0.00     0.029 A 
ATOM     62  N   UNL     1      13.094   1.599  -3.091  1.00  0.00    -0.354 N 
ATOM     63  N   UNL     1      11.290   2.944  -4.997  1.00  0.00    -0.248 NA
ATOM     64  C   UNL     1      10.748   4.820  -6.279  1.00  0.00     0.031 C 
ATOM     65  C   UNL     1      15.074   2.520  -2.691  1.00  0.00     0.029 A 
ATOM     66  C   UNL     1      13.898   2.678  -3.408  1.00  0.00     0.049 A 
ATOM     67  H   UNL     1      12.192   1.441  -3.452  1.00  0.00     0.167 HD
ATOM     68  C   UNL     1      12.356   3.836  -4.972  1.00  0.00     0.074 A 
ATOM     69  C   UNL     1      11.983   4.955  -5.814  1.00  0.00     0.031 C 
ATOM     70  C   UNL     1      13.528   3.750  -4.296  1.00  0.00     0.034 A 
BRANCH  57  71
ATOM     71  C   UNL     1      13.990  -1.196  -0.621  1.00  0.00     0.023 A 
ATOM     72  C   UNL     1      14.644  -2.390  -0.989  1.00  0.00     0.012 A 
ATOM     73  C   UNL     1      14.114  -0.717   0.697  1.00  0.00     0.148 A 
ATOM     74  C   UNL     1      15.375  -3.118  -0.052  1.00  0.00     0.002 A 
ATOM     75  C   UNL     1      14.883  -1.425   1.614  1.00  0.00     0.091 A 
ATOM     76  F   UNL     1      13.465   0.406   1.035  1.00  0.00    -0.205 F 
ATOM     77  C   UNL     1      15.502  -2.631   1.245  1.00  0.00     0.022 A 
BRANCH  75  78
ATOM     78  S   UNL     1      15.173  -0.844   3.288  1.00  0.00     0.127 S 
ATOM     79  O   UNL     1      14.356  -1.771   4.069  1.00  0.00    -0.237 OA
ATOM     80  O   UNL     1      16.617  -1.034   3.434  1.00  0.00    -0.237 OA
ATOM     81  O   UNL     1      14.740   0.546   3.310  1.00  0.00    -0.744 OA
ENDBRANCH  75  78
ENDBRANCH  57  71
BRANCH  58  82
ATOM     82  C   UNL     1       8.143   3.716  -7.089  1.00  0.00     0.023 A 
ATOM     83  C   UNL     1       8.532   3.879  -8.434  1.00  0.00     0.012 A 
ATOM     84  C   UNL     1       6.911   4.251  -6.665  1.00  0.00     0.148 A 
ATOM     85  C   UNL     1       7.727   4.583  -9.330  1.00  0.00     0.002 A 
ATOM     86  C   UNL     1       6.089   4.907  -7.576  1.00  0.00     0.091 A 
ATOM     87  F   UNL     1       6.562   4.102  -5.379  1.00  0.00    -0.205 F 
ATOM     88  C   UNL     1       6.502   5.088  -8.905  1.00  0.00     0.022 A 
BRANCH  86  89
ATOM     89  S   UNL     1       4.438   5.470  -7.144  1.00  0.00     0.127 S 
ATOM     90  O   UNL     1       4.637   6.909  -7.005  1.00  0.00    -0.237 OA
ATOM     91  O   UNL     1       3.659   5.065  -8.316  1.00  0.00    -0.237 OA
ATOM     92  O   UNL     1       4.092   4.750  -5.925  1.00  0.00    -0.744 OA
ENDBRANCH  86  89
ENDBRANCH  58  82
BRANCH  70  93
ATOM     93  C   UNL     1      14.505   4.885  -4.442  1.00  0.00     0.023 A 
ATOM     94  C   UNL     1      14.265   6.093  -3.759  1.00  0.00     0.012 A 
ATOM     95  C   UNL     1      15.706   4.716  -5.158  1.00  0.00     0.148 A 
ATOM     96  C   UNL     1      15.199   7.125  -3.802  1.00  0.00     0.002 A 
ATOM     97  C   UNL     1      16.652   5.734  -5.160  1.00  0.00     0.091 A 
ATOM     98  F   UNL     1      15.903   3.563  -5.814  1.00  0.00    -0.205 F 
ATOM     99  C   UNL     1      16.397   6.941  -4.490  1.00  0.00     0.022 A 
BRANCH  97 100
ATOM    100  S   UNL     1      18.260   5.550  -5.938  1.00  0.00     0.127 S 
ATOM    101  O   UNL     1      18.123   6.408  -7.113  1.00  0.00    -0.237 OA
ATOM    102  O   UNL     1      19.165   6.065  -4.909  1.00  0.00    -0.237 OA
ATOM    103  O   UNL     1      18.411   4.128  -6.216  1.00  0.00    -0.744 OA
ENDBRANCH  97 100
ENDBRANCH  70  93
ENDBRANCH  44  45
ENDBRANCH  36  39
ENDBRANCH  34  35
ENDBRANCH   1  34
TORSDOF 17
