REMARK SMILES CC[C@H](C)CN(CC)c1ccc(/C=C/C(=O)NCCCCNC(=O)c2ccc(-c3c4nc(c(-c5cccc(S(=O)(=O)[O-])c5F)c5ccc([nH]5)c(-c5cccc(S(=O)(=O)[O-])c5F)c5nc(c(-c6cccc(S(=O)(=O)[O-])c6F)c6ccc3[nH]6)C=C5)C=C4)cc2)cc1F
REMARK SMILES IDX 18 1 17 2 15 3 16 4 14 6 13 7 12 8 9 9 10 10 89 11 11 12
REMARK SMILES IDX 88 13 90 14 6 15 5 16 3 17 4 18 2 19 1 20 7 21 8 22 19 23
REMARK SMILES IDX 20 24 21 25 22 26 23 27 24 29 25 30 26 31 87 32 27 33 86 34
REMARK SMILES IDX 28 35 29 36 30 37 80 38 31 39 85 40 79 41 81 42 32 43 84 44
REMARK SMILES IDX 78 45 77 46 33 48 65 49 45 50 64 51 46 52 49 53 63 54 82 55
REMARK SMILES IDX 47 56 48 57 62 59 83 60 50 61 34 62 35 63 43 64 36 65 38 66
REMARK SMILES IDX 44 67 37 68 39 69 40 70 41 71 42 72 66 73 67 74 75 75 68 76
REMARK SMILES IDX 70 77 76 78 69 79 71 80 72 81 73 82 74 83 51 84 52 85 60 86
REMARK SMILES IDX 53 87 55 88 61 89 54 90 56 91 57 92 58 93 59 94
REMARK H PARENT 17 5 22 28 81 47 49 58
REMARK Flexibility Score: inf
ROOT
ATOM      1  C   UNL     1      -0.329   3.054  -6.283  1.00  0.00     0.116 C 
ENDROOT
BRANCH   1   2
ATOM      2  N   UNL     1      -0.391   2.452  -7.603  1.00  0.00    -0.353 N 
ATOM      3  C   UNL     1      -0.452   1.142  -7.968  1.00  0.00     0.243 C 
ATOM      4  O   UNL     1      -0.635   0.831  -9.142  1.00  0.00    -0.270 OA
ATOM      5  H   UNL     1      -0.388   3.091  -8.351  1.00  0.00     0.163 HD
BRANCH   3   6
ATOM      6  C   UNL     1      -0.397   0.075  -6.943  1.00  0.00     0.072 C 
ATOM      7  C   UNL     1       0.568  -0.004  -6.014  1.00  0.00     0.014 C 
BRANCH   7   8
ATOM      8  C   UNL     1       0.678  -1.026  -4.962  1.00  0.00    -0.022 A 
ATOM      9  C   UNL     1       0.954  -2.901  -2.838  1.00  0.00     0.073 A 
ATOM     10  C   UNL     1       0.022  -3.100  -3.861  1.00  0.00     0.029 A 
ATOM     11  C   UNL     1       1.768  -1.762  -2.924  1.00  0.00     0.147 A 
ATOM     12  C   UNL     1      -0.104  -2.186  -4.917  1.00  0.00     0.010 A 
ATOM     13  C   UNL     1       1.623  -0.829  -3.950  1.00  0.00     0.049 A 
ATOM     14  F   UNL     1       2.702  -1.527  -1.989  1.00  0.00    -0.205 F 
BRANCH   9  15
ATOM     15  N   UNL     1       1.049  -3.806  -1.793  1.00  0.00    -0.369 N 
BRANCH  15  16
ATOM     16  C   UNL     1       0.257  -3.625  -0.569  1.00  0.00     0.120 C 
BRANCH  16  17
ATOM     17  C   UNL     1       0.673  -2.367   0.233  1.00  0.00     0.005 C 
ATOM     18  C   UNL     1      -0.175  -1.151  -0.174  1.00  0.00     0.009 C 
BRANCH  17  19
ATOM     19  C   UNL     1       0.561  -2.603   1.754  1.00  0.00     0.002 C 
ATOM     20  C   UNL     1       1.164  -1.466   2.572  1.00  0.00     0.004 C 
ENDBRANCH  17  19
ENDBRANCH  16  17
ENDBRANCH  15  16
BRANCH  15  21
ATOM     21  C   UNL     1       1.993  -4.911  -1.921  1.00  0.00     0.113 C 
ATOM     22  C   UNL     1       1.440  -6.008  -2.823  1.00  0.00     0.027 C 
ENDBRANCH  15  21
ENDBRANCH   9  15
ENDBRANCH   7   8
ENDBRANCH   3   6
ENDBRANCH   1   2
BRANCH   1  23
ATOM     23  C   UNL     1       1.059   3.624  -5.988  1.00  0.00     0.023 C 
BRANCH  23  24
ATOM     24  C   UNL     1       1.378   4.936  -6.710  1.00  0.00     0.023 C 
BRANCH  24  25
ATOM     25  C   UNL     1       0.463   6.109  -6.369  1.00  0.00     0.116 C 
BRANCH  25  26
ATOM     26  N   UNL     1       0.424   6.420  -4.948  1.00  0.00    -0.352 N 
ATOM     27  C   UNL     1       0.280   7.652  -4.351  1.00  0.00     0.251 C 
ATOM     28  H   UNL     1       0.511   5.653  -4.337  1.00  0.00     0.163 HD
ATOM     29  O   UNL     1       0.358   7.764  -3.130  1.00  0.00    -0.269 OA
BRANCH  27  30
ATOM     30  C   UNL     1       0.073   8.841  -5.200  1.00  0.00     0.039 A 
ATOM     31  C   UNL     1       0.928   9.935  -5.048  1.00  0.00     0.014 A 
ATOM     32  C   UNL     1      -0.919   8.847  -6.183  1.00  0.00     0.014 A 
ATOM     33  C   UNL     1       0.841  11.006  -5.940  1.00  0.00     0.010 A 
ATOM     34  C   UNL     1      -0.965   9.886  -7.107  1.00  0.00     0.010 A 
ATOM     35  C   UNL     1      -0.078  10.968  -7.003  1.00  0.00    -0.014 A 
BRANCH  35  36
ATOM     36  C   UNL     1      -0.093  12.023  -8.047  1.00  0.00     0.031 A 
ATOM     37  C   UNL     1      -1.300  12.900  -8.223  1.00  0.00     0.074 A 
ATOM     38  C   UNL     1       0.942  12.116  -8.905  1.00  0.00     0.049 A 
ATOM     39  N   UNL     1      -1.524  13.816  -9.129  1.00  0.00    -0.248 NA
ATOM     40  C   UNL     1      -2.410  12.708  -7.275  1.00  0.00     0.031 C 
ATOM     41  C   UNL     1       2.134  11.264  -8.886  1.00  0.00     0.029 A 
ATOM     42  N   UNL     1       1.147  12.947  -9.979  1.00  0.00    -0.354 N 
ATOM     43  C   UNL     1      -2.807  14.286  -8.884  1.00  0.00     0.074 A 
ATOM     44  C   UNL     1      -3.325  13.536  -7.760  1.00  0.00     0.031 C 
ATOM     45  C   UNL     1       2.945  11.619  -9.895  1.00  0.00     0.029 A 
ATOM     46  C   UNL     1       2.322  12.703 -10.650  1.00  0.00     0.049 A 
ATOM     47  H   UNL     1       0.512  13.652 -10.243  1.00  0.00     0.167 HD
ATOM     48  C   UNL     1      -3.481  15.274  -9.518  1.00  0.00     0.034 A 
ATOM     49  C   UNL     1       2.841  13.283 -11.750  1.00  0.00     0.034 A 
ATOM     50  C   UNL     1      -2.942  16.052 -10.599  1.00  0.00     0.049 A 
ATOM     51  C   UNL     1       2.096  14.416 -12.401  1.00  0.00     0.074 A 
ATOM     52  C   UNL     1      -3.517  17.131 -11.249  1.00  0.00     0.029 A 
ATOM     53  N   UNL     1      -1.706  15.841 -11.190  1.00  0.00    -0.354 N 
ATOM     54  N   UNL     1       0.947  14.947 -12.060  1.00  0.00    -0.248 NA
ATOM     55  C   UNL     1       2.730  15.055 -13.563  1.00  0.00     0.031 C 
ATOM     56  C   UNL     1      -2.632  17.565 -12.240  1.00  0.00     0.029 A 
ATOM     57  C   UNL     1      -1.500  16.768 -12.197  1.00  0.00     0.049 A 
ATOM     58  H   UNL     1      -1.070  15.136 -10.931  1.00  0.00     0.167 HD
ATOM     59  C   UNL     1       0.735  15.999 -12.943  1.00  0.00     0.074 A 
ATOM     60  C   UNL     1       1.885  16.044 -13.823  1.00  0.00     0.031 C 
ATOM     61  C   UNL     1      -0.325  16.840 -13.027  1.00  0.00     0.034 A 
BRANCH  48  62
ATOM     62  C   UNL     1      -4.855  15.627  -9.012  1.00  0.00     0.023 A 
ATOM     63  C   UNL     1      -4.980  16.331  -7.797  1.00  0.00     0.012 A 
ATOM     64  C   UNL     1      -6.006  15.349  -9.774  1.00  0.00     0.148 A 
ATOM     65  C   UNL     1      -6.232  16.734  -7.337  1.00  0.00     0.002 A 
ATOM     66  C   UNL     1      -7.247  15.791  -9.328  1.00  0.00     0.091 A 
ATOM     67  F   UNL     1      -5.867  14.660 -10.916  1.00  0.00    -0.205 F 
ATOM     68  C   UNL     1      -7.362  16.476  -8.107  1.00  0.00     0.022 A 
BRANCH  66  69
ATOM     69  S   UNL     1      -8.754  15.579 -10.283  1.00  0.00     0.127 S 
ATOM     70  O   UNL     1      -9.472  14.587  -9.484  1.00  0.00    -0.237 OA
ATOM     71  O   UNL     1      -9.332  16.922 -10.250  1.00  0.00    -0.237 OA
ATOM     72  O   UNL     1      -8.333  15.130 -11.603  1.00  0.00    -0.744 OA
ENDBRANCH  66  69
ENDBRANCH  48  62
BRANCH  49  73
ATOM     73  C   UNL     1       4.181  12.856 -12.244  1.00  0.00     0.023 A 
ATOM     74  C   UNL     1       5.283  13.715 -12.067  1.00  0.00     0.012 A 
ATOM     75  C   UNL     1       4.385  11.587 -12.822  1.00  0.00     0.148 A 
ATOM     76  C   UNL     1       6.560  13.328 -12.474  1.00  0.00     0.002 A 
ATOM     77  C   UNL     1       5.669  11.186 -13.175  1.00  0.00     0.091 A 
ATOM     78  F   UNL     1       3.321  10.789 -12.993  1.00  0.00    -0.205 F 
ATOM     79  C   UNL     1       6.755  12.060 -13.015  1.00  0.00     0.022 A 
BRANCH  77  80
ATOM     80  S   UNL     1       6.035   9.522 -13.744  1.00  0.00     0.127 S 
ATOM     81  O   UNL     1       6.338   9.748 -15.155  1.00  0.00    -0.237 OA
ATOM     82  O   UNL     1       7.188   9.165 -12.915  1.00  0.00    -0.237 OA
ATOM     83  O   UNL     1       4.837   8.741 -13.470  1.00  0.00    -0.744 OA
ENDBRANCH  77  80
ENDBRANCH  49  73
BRANCH  61  84
ATOM     84  C   UNL     1      -0.300  17.906 -14.091  1.00  0.00     0.023 A 
ATOM     85  C   UNL     1      -0.530  17.551 -15.434  1.00  0.00     0.012 A 
ATOM     86  C   UNL     1      -0.168  19.266 -13.746  1.00  0.00     0.148 A 
ATOM     87  C   UNL     1      -0.611  18.532 -16.422  1.00  0.00     0.002 A 
ATOM     88  C   UNL     1      -0.295  20.241 -14.728  1.00  0.00     0.091 A 
ATOM     89  F   UNL     1       0.071  19.581 -12.464  1.00  0.00    -0.205 F 
ATOM     90  C   UNL     1      -0.509  19.876 -16.067  1.00  0.00     0.022 A 
BRANCH  88  91
ATOM     91  S   UNL     1      -0.278  21.997 -14.345  1.00  0.00     0.127 S 
ATOM     92  O   UNL     1       1.049  22.391 -14.816  1.00  0.00    -0.237 OA
ATOM     93  O   UNL     1      -1.388  22.504 -15.152  1.00  0.00    -0.237 OA
ATOM     94  O   UNL     1      -0.487  22.093 -12.907  1.00  0.00    -0.744 OA
ENDBRANCH  88  91
ENDBRANCH  61  84
ENDBRANCH  35  36
ENDBRANCH  27  30
ENDBRANCH  25  26
ENDBRANCH  24  25
ENDBRANCH  23  24
ENDBRANCH   1  23
TORSDOF 20
