REMARK SMILES CC(C)(C)c1ccc(OCC(=O)NNC(=O)[C@H]2[C@@H](C(=O)NCCCCNC(=O)c3ccc(-c4c5nc(c(-c6cccc(S(=O)(=O)[O-])c6F)c6ccc([nH]6)c(-c6cccc(S(=O)(=O)[O-])c6F)c6nc(c(-c7cccc(S(=O)(=O)[O-])c7F)c7ccc4[nH]7)C=C6)C=C5)cc3)[C@@H]3C=C[C@H]2C3)cc1
REMARK SMILES IDX 22 1 21 2 19 3 20 4 18 6 17 7 95 8 92 9 94 10 96 11 93 12
REMARK SMILES IDX 15 13 14 14 16 16 13 17 11 18 12 19 10 21 9 22 8 23 5 24
REMARK SMILES IDX 6 25 98 26 7 27 97 28 2 29 1 30 3 31 4 32 23 33 24 34 25 35
REMARK SMILES IDX 26 36 27 37 28 39 29 40 30 41 91 42 31 43 90 44 32 45 33 46
REMARK SMILES IDX 34 47 84 48 35 49 89 50 83 51 85 52 36 53 88 54 82 55 81 56
REMARK SMILES IDX 37 58 69 59 49 60 68 61 50 62 53 63 67 64 86 65 51 66 52 67
REMARK SMILES IDX 66 69 87 70 54 71 38 72 39 73 47 74 40 75 42 76 48 77 41 78
REMARK SMILES IDX 43 79 44 80 45 81 46 82 70 83 71 84 79 85 72 86 74 87 80 88
REMARK SMILES IDX 73 89 75 90 76 91 77 92 78 93 55 94 56 95 64 96 57 97 59 98
REMARK SMILES IDX 65 99 58 100 60 101 61 102 62 103 63 104
REMARK H PARENT 21 5 14 15 13 20 26 38 85 57 53 68
REMARK Flexibility Score: inf
ROOT
ATOM      1  C   UNL     1      -2.087   0.205 -11.652  1.00  0.00     0.116 C 
ENDROOT
BRANCH   1   2
ATOM      2  N   UNL     1      -3.107   0.444 -10.649  1.00  0.00    -0.356 N 
ATOM      3  C   UNL     1      -3.337   1.492  -9.815  1.00  0.00     0.224 C 
ATOM      4  O   UNL     1      -4.297   1.389  -9.053  1.00  0.00    -0.275 OA
ATOM      5  H   UNL     1      -3.754  -0.292 -10.555  1.00  0.00     0.163 HD
BRANCH   3   6
ATOM      6  C   UNL     1      -2.495   2.756  -9.903  1.00  0.00     0.098 C 
ATOM      7  C   UNL     1      -1.963   3.364  -8.560  1.00  0.00     0.100 C 
ATOM      8  C   UNL     1      -2.679   4.743  -8.502  1.00  0.00     0.025 C 
ATOM      9  C   UNL     1      -3.384   3.912 -10.453  1.00  0.00     0.025 C 
ATOM     10  C   UNL     1      -2.060   5.591  -9.598  1.00  0.00    -0.027 C 
ATOM     11  C   UNL     1      -4.023   4.468  -9.175  1.00  0.00     0.017 C 
ATOM     12  C   UNL     1      -2.476   5.085 -10.770  1.00  0.00    -0.027 C 
BRANCH   7  13
ATOM     13  C   UNL     1      -2.170   2.556  -7.286  1.00  0.00     0.242 C 
ATOM     14  N   UNL     1      -1.163   1.713  -6.866  1.00  0.00    -0.267 N 
ATOM     15  H   UNL     1      -1.377   1.065  -6.156  1.00  0.00     0.191 HD
ATOM     16  O   UNL     1      -3.182   2.662  -6.594  1.00  0.00    -0.273 OA
BRANCH  14  17
ATOM     17  N   UNL     1       0.138   1.710  -7.371  1.00  0.00    -0.265 N 
ATOM     18  C   UNL     1       1.238   1.258  -6.682  1.00  0.00     0.276 C 
ATOM     19  O   UNL     1       2.359   1.407  -7.178  1.00  0.00    -0.269 OA
ATOM     20  H   UNL     1       0.277   2.054  -8.283  1.00  0.00     0.191 HD
BRANCH  18  21
ATOM     21  C   UNL     1       1.046   0.529  -5.348  1.00  0.00     0.331 C 
BRANCH  21  22
ATOM     22  O   UNL     1       0.304   1.202  -4.346  1.00  0.00    -0.484 OA
BRANCH  22  23
ATOM     23  C   UNL     1       0.849   2.324  -3.788  1.00  0.00     0.120 A 
ATOM     24  C   UNL     1       1.655   4.776  -2.592  1.00  0.00    -0.042 A 
ATOM     25  C   UNL     1       0.406   4.204  -2.310  1.00  0.00     0.008 A 
ATOM     26  C   UNL     1       2.507   4.055  -3.450  1.00  0.00     0.008 A 
ATOM     27  C   UNL     1       0.011   2.997  -2.901  1.00  0.00     0.047 A 
ATOM     28  C   UNL     1       2.115   2.843  -4.035  1.00  0.00     0.047 A 
BRANCH  24  29
ATOM     29  C   UNL     1       2.098   6.135  -2.025  1.00  0.00    -0.013 C 
ATOM     30  C   UNL     1       3.361   5.953  -1.159  1.00  0.00     0.016 C 
ATOM     31  C   UNL     1       1.029   6.823  -1.146  1.00  0.00     0.016 C 
ATOM     32  C   UNL     1       2.414   7.102  -3.189  1.00  0.00     0.016 C 
ENDBRANCH  24  29
ENDBRANCH  22  23
ENDBRANCH  21  22
ENDBRANCH  18  21
ENDBRANCH  14  17
ENDBRANCH   7  13
ENDBRANCH   3   6
ENDBRANCH   1   2
BRANCH   1  33
ATOM     33  C   UNL     1      -1.381  -1.133 -11.429  1.00  0.00     0.023 C 
BRANCH  33  34
ATOM     34  C   UNL     1      -2.284  -2.370 -11.490  1.00  0.00     0.023 C 
BRANCH  34  35
ATOM     35  C   UNL     1      -3.084  -2.539 -12.778  1.00  0.00     0.116 C 
BRANCH  35  36
ATOM     36  N   UNL     1      -2.237  -2.703 -13.950  1.00  0.00    -0.352 N 
ATOM     37  C   UNL     1      -2.260  -3.685 -14.912  1.00  0.00     0.251 C 
ATOM     38  H   UNL     1      -1.547  -2.011 -14.071  1.00  0.00     0.163 HD
ATOM     39  O   UNL     1      -1.361  -3.736 -15.749  1.00  0.00    -0.269 OA
BRANCH  37  40
ATOM     40  C   UNL     1      -3.344  -4.694 -14.926  1.00  0.00     0.039 A 
ATOM     41  C   UNL     1      -3.011  -6.040 -15.102  1.00  0.00     0.014 A 
ATOM     42  C   UNL     1      -4.681  -4.321 -14.761  1.00  0.00     0.014 A 
ATOM     43  C   UNL     1      -4.009  -7.017 -15.035  1.00  0.00     0.010 A 
ATOM     44  C   UNL     1      -5.663  -5.301 -14.624  1.00  0.00     0.010 A 
ATOM     45  C   UNL     1      -5.338  -6.660 -14.753  1.00  0.00    -0.014 A 
BRANCH  45  46
ATOM     46  C   UNL     1      -6.393  -7.692 -14.560  1.00  0.00     0.031 A 
ATOM     47  C   UNL     1      -7.585  -7.747 -15.479  1.00  0.00     0.074 A 
ATOM     48  C   UNL     1      -6.320  -8.529 -13.505  1.00  0.00     0.049 A 
ATOM     49  N   UNL     1      -8.638  -8.521 -15.419  1.00  0.00    -0.248 NA
ATOM     50  C   UNL     1      -7.608  -6.795 -16.603  1.00  0.00     0.031 C 
ATOM     51  C   UNL     1      -5.253  -8.537 -12.501  1.00  0.00     0.029 A 
ATOM     52  N   UNL     1      -7.176  -9.518 -13.081  1.00  0.00    -0.354 N 
ATOM     53  C   UNL     1      -9.457  -8.137 -16.474  1.00  0.00     0.074 A 
ATOM     54  C   UNL     1      -8.797  -7.035 -17.139  1.00  0.00     0.031 C 
ATOM     55  C   UNL     1      -5.516  -9.481 -11.583  1.00  0.00     0.029 A 
ATOM     56  C   UNL     1      -6.787 -10.121 -11.906  1.00  0.00     0.049 A 
ATOM     57  H   UNL     1      -7.991  -9.771 -13.572  1.00  0.00     0.167 HD
ATOM     58  C   UNL     1     -10.636  -8.671 -16.874  1.00  0.00     0.034 A 
ATOM     59  C   UNL     1      -7.392 -11.069 -11.164  1.00  0.00     0.034 A 
ATOM     60  C   UNL     1     -11.277  -9.787 -16.233  1.00  0.00     0.049 A 
ATOM     61  C   UNL     1      -8.701 -11.644 -11.636  1.00  0.00     0.074 A 
ATOM     62  C   UNL     1     -12.442 -10.437 -16.602  1.00  0.00     0.029 A 
ATOM     63  N   UNL     1     -10.813 -10.419 -15.090  1.00  0.00    -0.354 N 
ATOM     64  N   UNL     1      -9.385 -11.362 -12.718  1.00  0.00    -0.248 NA
ATOM     65  C   UNL     1      -9.306 -12.694 -10.802  1.00  0.00     0.031 C 
ATOM     66  C   UNL     1     -12.695 -11.447 -15.669  1.00  0.00     0.029 A 
ATOM     67  C   UNL     1     -11.671 -11.447 -14.737  1.00  0.00     0.049 A 
ATOM     68  H   UNL     1      -9.995 -10.173 -14.601  1.00  0.00     0.167 HD
ATOM     69  C   UNL     1     -10.474 -12.226 -12.716  1.00  0.00     0.074 A 
ATOM     70  C   UNL     1     -10.347 -13.058 -11.538  1.00  0.00     0.031 C 
ATOM     71  C   UNL     1     -11.498 -12.312 -13.600  1.00  0.00     0.034 A 
BRANCH  58  72
ATOM     72  C   UNL     1     -11.288  -8.099 -18.106  1.00  0.00     0.023 A 
ATOM     73  C   UNL     1     -10.722  -8.361 -19.370  1.00  0.00     0.012 A 
ATOM     74  C   UNL     1     -12.502  -7.389 -18.026  1.00  0.00     0.148 A 
ATOM     75  C   UNL     1     -11.338  -7.904 -20.534  1.00  0.00     0.002 A 
ATOM     76  C   UNL     1     -13.134  -6.975 -19.194  1.00  0.00     0.091 A 
ATOM     77  F   UNL     1     -13.018  -7.139 -16.814  1.00  0.00    -0.205 F 
ATOM     78  C   UNL     1     -12.549  -7.222 -20.446  1.00  0.00     0.022 A 
BRANCH  76  79
ATOM     79  S   UNL     1     -14.735  -6.159 -19.199  1.00  0.00     0.127 S 
ATOM     80  O   UNL     1     -14.387  -4.831 -19.704  1.00  0.00    -0.237 OA
ATOM     81  O   UNL     1     -15.496  -6.987 -20.135  1.00  0.00    -0.237 OA
ATOM     82  O   UNL     1     -15.211  -6.194 -17.824  1.00  0.00    -0.744 OA
ENDBRANCH  76  79
ENDBRANCH  58  72
BRANCH  59  83
ATOM     83  C   UNL     1      -6.755 -11.575  -9.912  1.00  0.00     0.023 A 
ATOM     84  C   UNL     1      -6.297 -12.906  -9.857  1.00  0.00     0.012 A 
ATOM     85  C   UNL     1      -6.618 -10.757  -8.775  1.00  0.00     0.148 A 
ATOM     86  C   UNL     1      -5.763 -13.428  -8.679  1.00  0.00     0.002 A 
ATOM     87  C   UNL     1      -6.029 -11.265  -7.622  1.00  0.00     0.091 A 
ATOM     88  F   UNL     1      -7.070  -9.496  -8.838  1.00  0.00    -0.205 F 
ATOM     89  C   UNL     1      -5.622 -12.607  -7.564  1.00  0.00     0.022 A 
BRANCH  87  90
ATOM     90  S   UNL     1      -5.689 -10.240  -6.188  1.00  0.00     0.127 S 
ATOM     91  O   UNL     1      -6.715 -10.688  -5.250  1.00  0.00    -0.237 OA
ATOM     92  O   UNL     1      -4.323 -10.638  -5.845  1.00  0.00    -0.237 OA
ATOM     93  O   UNL     1      -5.810  -8.865  -6.655  1.00  0.00    -0.744 OA
ENDBRANCH  87  90
ENDBRANCH  59  83
BRANCH  71  94
ATOM     94  C   UNL     1     -12.539 -13.376 -13.367  1.00  0.00     0.023 A 
ATOM     95  C   UNL     1     -13.459 -13.241 -12.308  1.00  0.00     0.012 A 
ATOM     96  C   UNL     1     -12.650 -14.473 -14.244  1.00  0.00     0.148 A 
ATOM     97  C   UNL     1     -14.451 -14.200 -12.106  1.00  0.00     0.002 A 
ATOM     98  C   UNL     1     -13.673 -15.397 -14.068  1.00  0.00     0.091 A 
ATOM     99  F   UNL     1     -11.755 -14.592 -15.236  1.00  0.00    -0.205 F 
ATOM    100  C   UNL     1     -14.566 -15.269 -12.991  1.00  0.00     0.022 A 
BRANCH  98 101
ATOM    101  S   UNL     1     -13.960 -16.751 -15.212  1.00  0.00     0.127 S 
ATOM    102  O   UNL     1     -13.580 -17.909 -14.404  1.00  0.00    -0.237 OA
ATOM    103  O   UNL     1     -15.395 -16.635 -15.474  1.00  0.00    -0.237 OA
ATOM    104  O   UNL     1     -13.111 -16.491 -16.366  1.00  0.00    -0.744 OA
ENDBRANCH  98 101
ENDBRANCH  71  94
ENDBRANCH  45  46
ENDBRANCH  37  40
ENDBRANCH  35  36
ENDBRANCH  34  35
ENDBRANCH  33  34
ENDBRANCH   1  33
TORSDOF 20
