REMARK SMILES CO[C@@]1(C(=O)NCCCCNC(=O)c2ccc(-c3c4nc(c(-c5cccc(S(=O)(=O)[O-])c5F)c5ccc([nH]5)c(-c5cccc(S(=O)(=O)[O-])c5F)c5nc(c(-c6cccc(S(=O)(=O)[O-])c6F)c6ccc3[nH]6)C=C5)C=C4)cc2)CC(c2ccccc2)=CC=C1C
REMARK SMILES IDX 9 1 8 2 7 3 6 4 4 5 5 6 3 8 77 9 87 10 78 11 86 12 88 13
REMARK SMILES IDX 85 14 2 15 1 16 79 17 80 18 84 19 81 20 83 21 82 22 10 23
REMARK SMILES IDX 11 24 12 25 13 27 14 28 15 29 76 30 16 31 75 32 17 33 18 34
REMARK SMILES IDX 19 35 69 36 20 37 74 38 68 39 70 40 21 41 73 42 67 43 66 44
REMARK SMILES IDX 22 46 54 47 34 48 53 49 35 50 38 51 52 52 71 53 36 54 37 55
REMARK SMILES IDX 51 57 72 58 39 59 23 60 24 61 32 62 25 63 27 64 33 65 26 66
REMARK SMILES IDX 28 67 29 68 30 69 31 70 55 71 56 72 64 73 57 74 59 75 65 76
REMARK SMILES IDX 58 77 60 78 61 79 62 80 63 81 40 82 41 83 49 84 42 85 44 86
REMARK SMILES IDX 50 87 43 88 45 89 46 90 47 91 48 92
REMARK H PARENT 6 7 11 26 70 45 38 56
REMARK Flexibility Score: inf
ROOT
ATOM      1  C   UNL     1      -3.334  -0.093  -1.488  1.00  0.00     0.023 C 
ENDROOT
BRANCH   1   2
ATOM      2  C   UNL     1      -2.218  -1.125  -1.623  1.00  0.00     0.023 C 
BRANCH   2   3
ATOM      3  C   UNL     1      -0.804  -0.568  -1.443  1.00  0.00     0.116 C 
BRANCH   3   4
ATOM      4  N   UNL     1      -0.483  -0.338  -0.047  1.00  0.00    -0.353 N 
ATOM      5  C   UNL     1       0.292  -1.008   0.863  1.00  0.00     0.256 C 
ATOM      6  O   UNL     1       0.308  -0.484   1.984  1.00  0.00    -0.271 OA
ATOM      7  H   UNL     1      -0.910   0.468   0.324  1.00  0.00     0.163 HD
BRANCH   5   8
ATOM      8  C   UNL     1       1.173  -2.305   0.504  1.00  0.00     0.171 C 
ATOM      9  C   UNL     1       0.367  -3.245  -0.440  1.00  0.00     0.086 C 
ATOM     10  C   UNL     1       1.546  -3.035   1.815  1.00  0.00    -0.032 C 
ATOM     11  C   UNL     1       0.267  -4.713  -0.118  1.00  0.00    -0.037 C 
ATOM     12  C   UNL     1       1.302  -4.343   2.030  1.00  0.00     0.003 C 
ATOM     13  C   UNL     1       2.316  -2.257   2.855  1.00  0.00     0.043 C 
ATOM     14  C   UNL     1       0.690  -5.204   1.052  1.00  0.00     0.004 C 
BRANCH   8  15
ATOM     15  O   UNL     1       2.468  -2.043  -0.071  1.00  0.00    -0.364 OA
ATOM     16  C   UNL     1       2.556  -1.048  -1.071  1.00  0.00     0.197 C 
ENDBRANCH   8  15
BRANCH  11  17
ATOM     17  C   UNL     1      -0.407  -5.529  -1.142  1.00  0.00    -0.022 A 
ATOM     18  C   UNL     1      -1.673  -6.075  -0.898  1.00  0.00     0.008 A 
ATOM     19  C   UNL     1       0.151  -5.649  -2.422  1.00  0.00     0.008 A 
ATOM     20  C   UNL     1      -2.377  -6.709  -1.925  1.00  0.00     0.001 A 
ATOM     21  C   UNL     1      -0.553  -6.282  -3.448  1.00  0.00     0.001 A 
ATOM     22  C   UNL     1      -1.820  -6.805  -3.200  1.00  0.00     0.000 A 
ENDBRANCH  11  17
ENDBRANCH   5   8
ENDBRANCH   3   4
ENDBRANCH   2   3
ENDBRANCH   1   2
BRANCH   1  23
ATOM     23  C   UNL     1      -3.216   1.108  -2.415  1.00  0.00     0.116 C 
BRANCH  23  24
ATOM     24  N   UNL     1      -3.039   0.747  -3.816  1.00  0.00    -0.352 N 
ATOM     25  C   UNL     1      -3.522   1.401  -4.926  1.00  0.00     0.251 C 
ATOM     26  H   UNL     1      -2.508  -0.064  -3.989  1.00  0.00     0.163 HD
ATOM     27  O   UNL     1      -3.366   0.938  -6.046  1.00  0.00    -0.269 OA
BRANCH  25  28
ATOM     28  C   UNL     1      -4.272   2.656  -4.722  1.00  0.00     0.039 A 
ATOM     29  C   UNL     1      -5.568   2.759  -5.231  1.00  0.00     0.014 A 
ATOM     30  C   UNL     1      -3.723   3.678  -3.944  1.00  0.00     0.014 A 
ATOM     31  C   UNL     1      -6.346   3.867  -4.897  1.00  0.00     0.010 A 
ATOM     32  C   UNL     1      -4.526   4.741  -3.551  1.00  0.00     0.010 A 
ATOM     33  C   UNL     1      -5.843   4.846  -4.024  1.00  0.00    -0.014 A 
BRANCH  33  34
ATOM     34  C   UNL     1      -6.677   5.989  -3.581  1.00  0.00     0.031 A 
ATOM     35  C   UNL     1      -6.273   7.391  -3.938  1.00  0.00     0.074 A 
ATOM     36  C   UNL     1      -7.732   5.769  -2.771  1.00  0.00     0.049 A 
ATOM     37  N   UNL     1      -6.823   8.523  -3.584  1.00  0.00    -0.248 NA
ATOM     38  C   UNL     1      -5.070   7.545  -4.774  1.00  0.00     0.031 C 
ATOM     39  C   UNL     1      -8.165   4.459  -2.280  1.00  0.00     0.029 A 
ATOM     40  N   UNL     1      -8.614   6.647  -2.195  1.00  0.00    -0.354 N 
ATOM     41  C   UNL     1      -6.014   9.519  -4.116  1.00  0.00     0.074 A 
ATOM     42  C   UNL     1      -4.914   8.860  -4.785  1.00  0.00     0.031 C 
ATOM     43  C   UNL     1      -9.233   4.620  -1.481  1.00  0.00     0.029 A 
ATOM     44  C   UNL     1      -9.547   6.042  -1.386  1.00  0.00     0.049 A 
ATOM     45  H   UNL     1      -8.583   7.620  -2.346  1.00  0.00     0.167 HD
ATOM     46  C   UNL     1      -6.191  10.860  -4.084  1.00  0.00     0.034 A 
ATOM     47  C   UNL     1     -10.545   6.574  -0.653  1.00  0.00     0.034 A 
ATOM     48  C   UNL     1      -7.320  11.505  -3.474  1.00  0.00     0.049 A 
ATOM     49  C   UNL     1     -10.762   8.063  -0.693  1.00  0.00     0.074 A 
ATOM     50  C   UNL     1      -7.648  12.848  -3.474  1.00  0.00     0.029 A 
ATOM     51  N   UNL     1      -8.309  10.850  -2.756  1.00  0.00    -0.354 N 
ATOM     52  N   UNL     1     -10.084   8.977  -1.345  1.00  0.00    -0.248 NA
ATOM     53  C   UNL     1     -11.902   8.591   0.070  1.00  0.00     0.031 C 
ATOM     54  C   UNL     1      -8.835  13.006  -2.749  1.00  0.00     0.029 A 
ATOM     55  C   UNL     1      -9.249  11.760  -2.308  1.00  0.00     0.049 A 
ATOM     56  H   UNL     1      -8.338   9.880  -2.591  1.00  0.00     0.167 HD
ATOM     57  C   UNL     1     -10.734  10.181  -1.099  1.00  0.00     0.074 A 
ATOM     58  C   UNL     1     -11.871   9.877  -0.255  1.00  0.00     0.031 C 
ATOM     59  C   UNL     1     -10.409  11.429  -1.519  1.00  0.00     0.034 A 
BRANCH  46  60
ATOM     60  C   UNL     1      -5.172  11.712  -4.793  1.00  0.00     0.023 A 
ATOM     61  C   UNL     1      -5.141  11.720  -6.203  1.00  0.00     0.012 A 
ATOM     62  C   UNL     1      -4.275  12.527  -4.077  1.00  0.00     0.148 A 
ATOM     63  C   UNL     1      -4.211  12.498  -6.890  1.00  0.00     0.002 A 
ATOM     64  C   UNL     1      -3.378  13.333  -4.770  1.00  0.00     0.091 A 
ATOM     65  F   UNL     1      -4.300  12.486  -2.738  1.00  0.00    -0.205 F 
ATOM     66  C   UNL     1      -3.337  13.311  -6.174  1.00  0.00     0.022 A 
BRANCH  64  67
ATOM     67  S   UNL     1      -2.262  14.469  -3.939  1.00  0.00     0.127 S 
ATOM     68  O   UNL     1      -0.984  13.768  -4.058  1.00  0.00    -0.237 OA
ATOM     69  O   UNL     1      -2.375  15.674  -4.762  1.00  0.00    -0.237 OA
ATOM     70  O   UNL     1      -2.777  14.613  -2.584  1.00  0.00    -0.744 OA
ENDBRANCH  64  67
ENDBRANCH  46  60
BRANCH  47  71
ATOM     71  C   UNL     1     -11.469   5.683   0.103  1.00  0.00     0.023 A 
ATOM     72  C   UNL     1     -12.788   5.513  -0.361  1.00  0.00     0.012 A 
ATOM     73  C   UNL     1     -11.047   4.976   1.244  1.00  0.00     0.148 A 
ATOM     74  C   UNL     1     -13.678   4.676   0.312  1.00  0.00     0.002 A 
ATOM     75  C   UNL     1     -11.923   4.104   1.882  1.00  0.00     0.091 A 
ATOM     76  F   UNL     1      -9.792   5.160   1.679  1.00  0.00    -0.205 F 
ATOM     77  C   UNL     1     -13.244   3.964   1.427  1.00  0.00     0.022 A 
BRANCH  75  78
ATOM     78  S   UNL     1     -11.409   3.050   3.243  1.00  0.00     0.127 S 
ATOM     79  O   UNL     1     -12.048   3.701   4.384  1.00  0.00    -0.237 OA
ATOM     80  O   UNL     1     -11.989   1.760   2.865  1.00  0.00    -0.237 OA
ATOM     81  O   UNL     1      -9.953   3.077   3.227  1.00  0.00    -0.744 OA
ENDBRANCH  75  78
ENDBRANCH  47  71
BRANCH  59  82
ATOM     82  C   UNL     1     -11.306  12.562  -1.100  1.00  0.00     0.023 A 
ATOM     83  C   UNL     1     -11.255  13.035   0.225  1.00  0.00     0.012 A 
ATOM     84  C   UNL     1     -12.130  13.214  -2.038  1.00  0.00     0.148 A 
ATOM     85  C   UNL     1     -12.031  14.125   0.618  1.00  0.00     0.002 A 
ATOM     86  C   UNL     1     -12.867  14.326  -1.651  1.00  0.00     0.091 A 
ATOM     87  F   UNL     1     -12.180  12.734  -3.290  1.00  0.00    -0.205 F 
ATOM     88  C   UNL     1     -12.826  14.777  -0.322  1.00  0.00     0.022 A 
BRANCH  86  89
ATOM     89  S   UNL     1     -13.843  15.282  -2.818  1.00  0.00     0.127 S 
ATOM     90  O   UNL     1     -15.202  14.851  -2.494  1.00  0.00    -0.237 OA
ATOM     91  O   UNL     1     -13.531  16.659  -2.433  1.00  0.00    -0.237 OA
ATOM     92  O   UNL     1     -13.362  14.905  -4.141  1.00  0.00    -0.744 OA
ENDBRANCH  86  89
ENDBRANCH  59  82
ENDBRANCH  33  34
ENDBRANCH  25  28
ENDBRANCH  23  24
ENDBRANCH   1  23
TORSDOF 16
