REMARK SMILES C[NH+]1CCC([N@@H+](CC(=O)NCCCCNC(=O)c2ccc(-c3c4nc(c(-c5cccc(S(=O)(=O)[O-])c5F)c5ccc([nH]5)c(-c5cccc(S(=O)(=O)[O-])c5F)c5nc(c(-c6cccc(S(=O)(=O)[O-])c6F)c6ccc3[nH]6)C=C5)C=C4)cc2)C(C)(C)C)CC1
REMARK SMILES IDX 13 1 12 2 11 3 10 4 8 5 9 6 7 8 6 9 5 11 1 12 2 13 3 14
REMARK SMILES IDX 86 15 4 17 85 18 81 19 82 20 83 21 84 22 14 23 15 24 16 25
REMARK SMILES IDX 17 27 18 28 19 29 80 30 20 31 79 32 21 33 22 34 23 35 73 36
REMARK SMILES IDX 24 37 78 38 72 39 74 40 25 41 77 42 71 43 70 44 26 46 58 47
REMARK SMILES IDX 38 48 57 49 39 50 42 51 56 52 75 53 40 54 41 55 55 57 76 58
REMARK SMILES IDX 43 59 27 60 28 61 36 62 29 63 31 64 37 65 30 66 32 67 33 68
REMARK SMILES IDX 34 69 35 70 59 71 60 72 68 73 61 74 63 75 69 76 62 77 64 78
REMARK SMILES IDX 65 79 66 80 67 81 44 82 45 83 53 84 46 85 48 86 54 87 47 88
REMARK SMILES IDX 49 89 50 90 51 91 52 92
REMARK H PARENT 10 7 6 10 2 16 15 26 74 45 42 56
REMARK Flexibility Score: inf
ROOT
ATOM      1  C   UNL     1      -0.225   3.267  -1.232  1.00  0.00     0.023 C 
ENDROOT
BRANCH   1   2
ATOM      2  C   UNL     1       0.562   2.321  -2.136  1.00  0.00     0.023 C 
BRANCH   2   3
ATOM      3  C   UNL     1       2.068   2.566  -2.122  1.00  0.00     0.116 C 
BRANCH   3   4
ATOM      4  N   UNL     1       2.622   2.906  -0.828  1.00  0.00    -0.351 N 
ATOM      5  C   UNL     1       3.491   2.221  -0.033  1.00  0.00     0.275 C 
ATOM      6  O   UNL     1       4.133   2.879   0.789  1.00  0.00    -0.269 OA
ATOM      7  H   UNL     1       2.324   3.771  -0.465  1.00  0.00     0.163 HD
BRANCH   5   8
ATOM      8  C   UNL     1       3.670   0.709  -0.178  1.00  0.00     0.364 C 
BRANCH   8   9
ATOM      9  N   UNL     1       2.964  -0.093   0.854  1.00  0.00    -0.320 N 
ATOM     10  H   UNL     1       3.265  -1.063   0.763  1.00  0.00     0.349 HD
BRANCH   9  11
ATOM     11  C   UNL     1       1.524  -0.250   0.567  1.00  0.00     0.196 C 
ATOM     12  C   UNL     1      -2.638  -1.220   0.237  1.00  0.00     0.332 C 
ATOM     13  N   UNL     1      -1.274  -1.131   0.768  1.00  0.00    -0.337 N 
ATOM     14  C   UNL     1      -0.915   0.280   0.956  1.00  0.00     0.268 C 
ATOM     15  C   UNL     1      -0.331  -1.817  -0.123  1.00  0.00     0.268 C 
ATOM     16  H   UNL     1      -1.226  -1.597   1.674  1.00  0.00     0.347 HD
ATOM     17  C   UNL     1       0.515   0.456   1.476  1.00  0.00     0.126 C 
ATOM     18  C   UNL     1       1.112  -1.723   0.389  1.00  0.00     0.126 C 
ENDBRANCH   9  11
BRANCH   9  19
ATOM     19  C   UNL     1       3.515  -0.118   2.235  1.00  0.00     0.090 C 
ATOM     20  C   UNL     1       3.086   1.052   3.150  1.00  0.00     0.078 C 
ATOM     21  C   UNL     1       3.112  -1.430   2.950  1.00  0.00     0.078 C 
ATOM     22  C   UNL     1       5.069  -0.140   2.210  1.00  0.00     0.078 C 
ENDBRANCH   9  19
ENDBRANCH   8   9
ENDBRANCH   5   8
ENDBRANCH   3   4
ENDBRANCH   2   3
ENDBRANCH   1   2
BRANCH   1  23
ATOM     23  C   UNL     1      -1.601   3.613  -1.772  1.00  0.00     0.116 C 
BRANCH  23  24
ATOM     24  N   UNL     1      -2.419   2.507  -2.232  1.00  0.00    -0.352 N 
ATOM     25  C   UNL     1      -3.772   2.496  -2.508  1.00  0.00     0.251 C 
ATOM     26  H   UNL     1      -1.949   1.652  -2.364  1.00  0.00     0.163 HD
ATOM     27  O   UNL     1      -4.281   1.466  -2.947  1.00  0.00    -0.269 OA
BRANCH  25  28
ATOM     28  C   UNL     1      -4.625   3.681  -2.212  1.00  0.00     0.039 A 
ATOM     29  C   UNL     1      -5.932   3.468  -1.758  1.00  0.00     0.014 A 
ATOM     30  C   UNL     1      -4.155   4.989  -2.316  1.00  0.00     0.014 A 
ATOM     31  C   UNL     1      -6.710   4.548  -1.327  1.00  0.00     0.010 A 
ATOM     32  C   UNL     1      -4.871   6.042  -1.760  1.00  0.00     0.010 A 
ATOM     33  C   UNL     1      -6.164   5.840  -1.272  1.00  0.00    -0.014 A 
BRANCH  33  34
ATOM     34  C   UNL     1      -6.914   6.993  -0.707  1.00  0.00     0.031 A 
ATOM     35  C   UNL     1      -7.148   8.229  -1.541  1.00  0.00     0.074 A 
ATOM     36  C   UNL     1      -7.282   6.971   0.590  1.00  0.00     0.049 A 
ATOM     37  N   UNL     1      -7.722   9.354  -1.203  1.00  0.00    -0.248 NA
ATOM     38  C   UNL     1      -6.628   8.223  -2.921  1.00  0.00     0.031 C 
ATOM     39  C   UNL     1      -7.000   5.886   1.535  1.00  0.00     0.029 A 
ATOM     40  N   UNL     1      -7.954   7.897   1.348  1.00  0.00    -0.354 N 
ATOM     41  C   UNL     1      -7.583  10.198  -2.300  1.00  0.00     0.074 A 
ATOM     42  C   UNL     1      -6.832   9.475  -3.299  1.00  0.00     0.031 C 
ATOM     43  C   UNL     1      -7.521   6.194   2.733  1.00  0.00     0.029 A 
ATOM     44  C   UNL     1      -8.149   7.508   2.654  1.00  0.00     0.049 A 
ATOM     45  H   UNL     1      -8.269   8.758   0.991  1.00  0.00     0.167 HD
ATOM     46  C   UNL     1      -8.073  11.448  -2.477  1.00  0.00     0.034 A 
ATOM     47  C   UNL     1      -8.771   8.138   3.670  1.00  0.00     0.034 A 
ATOM     48  C   UNL     1      -8.898  12.122  -1.514  1.00  0.00     0.049 A 
ATOM     49  C   UNL     1      -9.401   9.479   3.407  1.00  0.00     0.074 A 
ATOM     50  C   UNL     1      -9.561  13.329  -1.643  1.00  0.00     0.029 A 
ATOM     51  N   UNL     1      -9.178  11.643  -0.244  1.00  0.00    -0.354 N 
ATOM     52  N   UNL     1      -9.423  10.177   2.297  1.00  0.00    -0.248 NA
ATOM     53  C   UNL     1     -10.127  10.101   4.523  1.00  0.00     0.031 C 
ATOM     54  C   UNL     1     -10.232  13.587  -0.443  1.00  0.00     0.029 A 
ATOM     55  C   UNL     1      -9.999  12.532   0.425  1.00  0.00     0.049 A 
ATOM     56  H   UNL     1      -8.841  10.796   0.127  1.00  0.00     0.167 HD
ATOM     57  C   UNL     1     -10.191  11.303   2.571  1.00  0.00     0.074 A 
ATOM     58  C   UNL     1     -10.641  11.176   3.942  1.00  0.00     0.031 C 
ATOM     59  C   UNL     1     -10.481  12.358   1.770  1.00  0.00     0.034 A 
BRANCH  46  60
ATOM     60  C   UNL     1      -7.798  12.138  -3.788  1.00  0.00     0.023 A 
ATOM     61  C   UNL     1      -8.439  11.687  -4.961  1.00  0.00     0.012 A 
ATOM     62  C   UNL     1      -6.964  13.272  -3.851  1.00  0.00     0.148 A 
ATOM     63  C   UNL     1      -8.230  12.331  -6.179  1.00  0.00     0.002 A 
ATOM     64  C   UNL     1      -6.797  13.937  -5.061  1.00  0.00     0.091 A 
ATOM     65  F   UNL     1      -6.348  13.676  -2.731  1.00  0.00    -0.205 F 
ATOM     66  C   UNL     1      -7.420  13.461  -6.227  1.00  0.00     0.022 A 
BRANCH  64  67
ATOM     67  S   UNL     1      -5.837  15.448  -5.218  1.00  0.00     0.127 S 
ATOM     68  O   UNL     1      -4.706  14.995  -6.027  1.00  0.00    -0.237 OA
ATOM     69  O   UNL     1      -6.771  16.332  -5.916  1.00  0.00    -0.237 OA
ATOM     70  O   UNL     1      -5.506  15.858  -3.861  1.00  0.00    -0.744 OA
ENDBRANCH  64  67
ENDBRANCH  46  60
BRANCH  47  71
ATOM     71  C   UNL     1      -8.913   7.472   4.997  1.00  0.00     0.023 A 
ATOM     72  C   UNL     1     -10.187   7.037   5.414  1.00  0.00     0.012 A 
ATOM     73  C   UNL     1      -7.807   7.252   5.839  1.00  0.00     0.148 A 
ATOM     74  C   UNL     1     -10.364   6.433   6.659  1.00  0.00     0.002 A 
ATOM     75  C   UNL     1      -7.981   6.601   7.056  1.00  0.00     0.091 A 
ATOM     76  F   UNL     1      -6.604   7.684   5.435  1.00  0.00    -0.205 F 
ATOM     77  C   UNL     1      -9.260   6.207   7.476  1.00  0.00     0.022 A 
BRANCH  75  78
ATOM     78  S   UNL     1      -6.593   6.153   8.105  1.00  0.00     0.127 S 
ATOM     79  O   UNL     1      -6.667   7.169   9.151  1.00  0.00    -0.237 OA
ATOM     80  O   UNL     1      -6.955   4.801   8.533  1.00  0.00    -0.237 OA
ATOM     81  O   UNL     1      -5.423   6.210   7.239  1.00  0.00    -0.744 OA
ENDBRANCH  75  78
ENDBRANCH  47  71
BRANCH  59  82
ATOM     82  C   UNL     1     -11.346  13.446   2.345  1.00  0.00     0.023 A 
ATOM     83  C   UNL     1     -10.814  14.320   3.314  1.00  0.00     0.012 A 
ATOM     84  C   UNL     1     -12.660  13.642   1.879  1.00  0.00     0.148 A 
ATOM     85  C   UNL     1     -11.591  15.352   3.837  1.00  0.00     0.002 A 
ATOM     86  C   UNL     1     -13.410  14.704   2.368  1.00  0.00     0.091 A 
ATOM     87  F   UNL     1     -13.153  12.787   0.971  1.00  0.00    -0.205 F 
ATOM     88  C   UNL     1     -12.883  15.551   3.356  1.00  0.00     0.022 A 
BRANCH  86  89
ATOM     89  S   UNL     1     -15.044  15.093   1.731  1.00  0.00     0.127 S 
ATOM     90  O   UNL     1     -15.907  14.597   2.801  1.00  0.00    -0.237 OA
ATOM     91  O   UNL     1     -14.995  16.551   1.612  1.00  0.00    -0.237 OA
ATOM     92  O   UNL     1     -15.152  14.390   0.459  1.00  0.00    -0.744 OA
ENDBRANCH  86  89
ENDBRANCH  59  82
ENDBRANCH  33  34
ENDBRANCH  25  28
ENDBRANCH  23  24
ENDBRANCH   1  23
TORSDOF 17
