REMARK SMILES CCc1ccc2[nH]c(C(=O)c3cc(C)ccn3)c(CC(=O)NCCCCNC(=O)c3ccc(-c4c5nc(c(-c6cccc(S(=O)(=O)[O-])c6F)c6ccc([nH]6)c(-c6cccc(S(=O)(=O)[O-])c6F)c6nc(c(-c7cccc(S(=O)(=O)[O-])c7F)c7ccc4[nH]7)C=C6)C=C5)cc3)c2c1
REMARK SMILES IDX 24 1 23 2 22 3 20 4 21 5 19 7 18 8 3 9 4 10 94 11 5 12 93 13
REMARK SMILES IDX 6 14 7 15 8 16 2 18 1 19 9 20 10 21 11 22 12 23 17 24 13 25
REMARK SMILES IDX 16 26 14 27 15 28 25 29 26 30 27 31 28 32 29 34 30 35 31 36
REMARK SMILES IDX 92 37 32 38 91 39 33 40 34 41 35 42 85 43 36 44 90 45 84 46
REMARK SMILES IDX 86 47 37 48 89 49 83 50 82 51 38 53 70 54 50 55 69 56 51 57
REMARK SMILES IDX 54 58 68 59 87 60 52 61 53 62 67 64 88 65 55 66 39 67 40 68
REMARK SMILES IDX 48 69 41 70 43 71 49 72 42 73 44 74 45 75 46 76 47 77 71 78
REMARK SMILES IDX 72 79 80 80 73 81 75 82 81 83 74 84 76 85 77 86 78 87 79 88
REMARK SMILES IDX 56 89 57 90 65 91 58 92 60 93 66 94 59 95 61 96 62 97 63 98
REMARK SMILES IDX 64 99
REMARK H PARENT 22 6 7 17 27 33 86 52 54 63
REMARK Flexibility Score: inf
ROOT
ATOM      1  C   UNL     1      -1.561   4.596   4.154  1.00  0.00     0.023 C 
ENDROOT
BRANCH   1   2
ATOM      2  C   UNL     1      -2.404   4.457   2.888  1.00  0.00     0.116 C 
BRANCH   2   3
ATOM      3  N   UNL     1      -2.698   5.730   2.267  1.00  0.00    -0.356 N 
ATOM      4  C   UNL     1      -2.169   6.293   1.140  1.00  0.00     0.224 C 
ATOM      5  O   UNL     1      -2.742   7.290   0.691  1.00  0.00    -0.275 OA
ATOM      6  H   UNL     1      -3.382   6.271   2.724  1.00  0.00     0.163 HD
BRANCH   4   7
ATOM      7  C   UNL     1      -1.014   5.642   0.386  1.00  0.00     0.138 C 
BRANCH   7   8
ATOM      8  C   UNL     1       0.230   5.397   1.198  1.00  0.00    -0.002 A 
ATOM      9  C   UNL     1       1.160   1.697   1.672  1.00  0.00    -0.048 A 
ATOM     10  C   UNL     1       2.236   1.940   2.530  1.00  0.00     0.006 A 
ATOM     11  C   UNL     1       0.443   2.783   1.141  1.00  0.00     0.014 A 
ATOM     12  C   UNL     1       2.608   3.243   2.884  1.00  0.00     0.027 A 
ATOM     13  C   UNL     1       0.788   4.106   1.493  1.00  0.00     0.004 A 
ATOM     14  C   UNL     1       1.864   4.301   2.350  1.00  0.00     0.046 A 
ATOM     15  N   UNL     1       1.982   5.656   2.543  1.00  0.00    -0.352 N 
ATOM     16  C   UNL     1       1.071   6.352   1.774  1.00  0.00     0.093 A 
ATOM     17  H   UNL     1       2.633   6.076   3.150  1.00  0.00     0.167 HD
BRANCH   9  18
ATOM     18  C   UNL     1       0.752   0.287   1.322  1.00  0.00     0.032 C 
ATOM     19  C   UNL     1       1.187  -0.110  -0.081  1.00  0.00     0.009 C 
ENDBRANCH   9  18
BRANCH  16  20
ATOM     20  C   UNL     1       1.014   7.804   1.645  1.00  0.00     0.227 C 
ATOM     21  O   UNL     1       0.221   8.384   0.902  1.00  0.00    -0.285 OA
BRANCH  20  22
ATOM     22  C   UNL     1       2.015   8.636   2.362  1.00  0.00     0.113 A 
ATOM     23  C   UNL     1       3.358   8.557   2.004  1.00  0.00     0.036 A 
ATOM     24  N   UNL     1       1.539   9.459   3.327  1.00  0.00    -0.253 NA
ATOM     25  C   UNL     1       4.274   9.367   2.678  1.00  0.00    -0.047 A 
ATOM     26  C   UNL     1       2.437  10.254   3.942  1.00  0.00     0.112 A 
ATOM     27  C   UNL     1       5.733   9.336   2.341  1.00  0.00     0.044 C 
ATOM     28  C   UNL     1       3.795  10.242   3.658  1.00  0.00     0.023 A 
ENDBRANCH  20  22
ENDBRANCH  16  20
ENDBRANCH   7   8
ENDBRANCH   4   7
ENDBRANCH   2   3
ENDBRANCH   1   2
BRANCH   1  29
ATOM     29  C   UNL     1      -2.281   5.221   5.352  1.00  0.00     0.023 C 
BRANCH  29  30
ATOM     30  C   UNL     1      -3.571   4.531   5.788  1.00  0.00     0.116 C 
BRANCH  30  31
ATOM     31  N   UNL     1      -3.399   3.117   6.085  1.00  0.00    -0.352 N 
ATOM     32  C   UNL     1      -4.025   2.349   7.038  1.00  0.00     0.251 C 
ATOM     33  H   UNL     1      -2.742   2.644   5.526  1.00  0.00     0.163 HD
ATOM     34  O   UNL     1      -3.678   1.181   7.200  1.00  0.00    -0.269 OA
BRANCH  32  35
ATOM     35  C   UNL     1      -5.085   2.931   7.893  1.00  0.00     0.039 A 
ATOM     36  C   UNL     1      -5.053   2.669   9.267  1.00  0.00     0.014 A 
ATOM     37  C   UNL     1      -6.101   3.729   7.360  1.00  0.00     0.014 A 
ATOM     38  C   UNL     1      -5.997   3.259  10.111  1.00  0.00     0.010 A 
ATOM     39  C   UNL     1      -7.005   4.365   8.209  1.00  0.00     0.010 A 
ATOM     40  C   UNL     1      -6.962   4.139   9.593  1.00  0.00    -0.014 A 
BRANCH  40  41
ATOM     41  C   UNL     1      -7.899   4.860  10.492  1.00  0.00     0.031 A 
ATOM     42  C   UNL     1      -9.380   4.604  10.428  1.00  0.00     0.074 A 
ATOM     43  C   UNL     1      -7.420   5.817  11.312  1.00  0.00     0.049 A 
ATOM     44  N   UNL     1     -10.340   5.148  11.131  1.00  0.00    -0.248 NA
ATOM     45  C   UNL     1      -9.848   3.629   9.429  1.00  0.00     0.031 C 
ATOM     46  C   UNL     1      -6.019   6.235  11.395  1.00  0.00     0.029 A 
ATOM     47  N   UNL     1      -8.061   6.631  12.213  1.00  0.00    -0.354 N 
ATOM     48  C   UNL     1     -11.524   4.611  10.639  1.00  0.00     0.074 A 
ATOM     49  C   UNL     1     -11.165   3.717   9.560  1.00  0.00     0.031 C 
ATOM     50  C   UNL     1      -5.907   7.225  12.294  1.00  0.00     0.029 A 
ATOM     51  C   UNL     1      -7.226   7.522  12.844  1.00  0.00     0.049 A 
ATOM     52  H   UNL     1      -9.029   6.581  12.390  1.00  0.00     0.167 HD
ATOM     53  C   UNL     1     -12.792   4.818  11.069  1.00  0.00     0.034 A 
ATOM     54  C   UNL     1      -7.489   8.468  13.767  1.00  0.00     0.034 A 
ATOM     55  C   UNL     1     -13.143   5.663  12.179  1.00  0.00     0.049 A 
ATOM     56  C   UNL     1      -8.894   8.617  14.283  1.00  0.00     0.074 A 
ATOM     57  C   UNL     1     -14.385   5.848  12.761  1.00  0.00     0.029 A 
ATOM     58  N   UNL     1     -12.253   6.467  12.873  1.00  0.00    -0.354 N 
ATOM     59  N   UNL     1      -9.972   7.952  13.943  1.00  0.00    -0.248 NA
ATOM     60  C   UNL     1      -9.112   9.614  15.342  1.00  0.00     0.031 C 
ATOM     61  C   UNL     1     -14.247   6.771  13.804  1.00  0.00     0.029 A 
ATOM     62  C   UNL     1     -12.918   7.155  13.875  1.00  0.00     0.049 A 
ATOM     63  H   UNL     1     -11.290   6.539  12.683  1.00  0.00     0.167 HD
ATOM     64  C   UNL     1     -10.989   8.430  14.762  1.00  0.00     0.074 A 
ATOM     65  C   UNL     1     -10.391   9.419  15.636  1.00  0.00     0.031 C 
ATOM     66  C   UNL     1     -12.303   8.096  14.775  1.00  0.00     0.034 A 
BRANCH  53  67
ATOM     67  C   UNL     1     -13.896   4.057  10.383  1.00  0.00     0.023 A 
ATOM     68  C   UNL     1     -14.043   2.679  10.639  1.00  0.00     0.012 A 
ATOM     69  C   UNL     1     -14.824   4.708   9.547  1.00  0.00     0.148 A 
ATOM     70  C   UNL     1     -15.079   1.953  10.054  1.00  0.00     0.002 A 
ATOM     71  C   UNL     1     -15.878   3.985   8.997  1.00  0.00     0.091 A 
ATOM     72  F   UNL     1     -14.656   6.014   9.296  1.00  0.00    -0.205 F 
ATOM     73  C   UNL     1     -16.001   2.607   9.243  1.00  0.00     0.022 A 
BRANCH  71  74
ATOM     74  S   UNL     1     -17.159   4.752   7.997  1.00  0.00     0.127 S 
ATOM     75  O   UNL     1     -16.803   4.288   6.657  1.00  0.00    -0.237 OA
ATOM     76  O   UNL     1     -18.378   4.155   8.544  1.00  0.00    -0.237 OA
ATOM     77  O   UNL     1     -17.034   6.185   8.220  1.00  0.00    -0.744 OA
ENDBRANCH  71  74
ENDBRANCH  53  67
BRANCH  54  78
ATOM     78  C   UNL     1      -6.376   9.284  14.330  1.00  0.00     0.023 A 
ATOM     79  C   UNL     1      -5.952   9.047  15.652  1.00  0.00     0.012 A 
ATOM     80  C   UNL     1      -5.713  10.258  13.559  1.00  0.00     0.148 A 
ATOM     81  C   UNL     1      -4.906   9.786  16.206  1.00  0.00     0.002 A 
ATOM     82  C   UNL     1      -4.637  10.954  14.101  1.00  0.00     0.091 A 
ATOM     83  F   UNL     1      -6.141  10.482  12.309  1.00  0.00    -0.205 F 
ATOM     84  C   UNL     1      -4.242  10.730  15.429  1.00  0.00     0.022 A 
BRANCH  82  85
ATOM     85  S   UNL     1      -3.645  12.087  13.121  1.00  0.00     0.127 S 
ATOM     86  O   UNL     1      -4.151  13.384  13.558  1.00  0.00    -0.237 OA
ATOM     87  O   UNL     1      -2.287  11.774  13.569  1.00  0.00    -0.237 OA
ATOM     88  O   UNL     1      -3.910  11.728  11.734  1.00  0.00    -0.744 OA
ENDBRANCH  82  85
ENDBRANCH  54  78
BRANCH  66  89
ATOM     89  C   UNL     1     -13.188   8.794  15.772  1.00  0.00     0.023 A 
ATOM     90  C   UNL     1     -13.549  10.139  15.555  1.00  0.00     0.012 A 
ATOM     91  C   UNL     1     -13.714   8.109  16.884  1.00  0.00     0.148 A 
ATOM     92  C   UNL     1     -14.394  10.800  16.445  1.00  0.00     0.002 A 
ATOM     93  C   UNL     1     -14.591   8.761  17.745  1.00  0.00     0.091 A 
ATOM     94  F   UNL     1     -13.343   6.836  17.090  1.00  0.00    -0.205 F 
ATOM     95  C   UNL     1     -14.924  10.109  17.533  1.00  0.00     0.022 A 
BRANCH  93  96
ATOM     96  S   UNL     1     -15.383   7.912  19.116  1.00  0.00     0.127 S 
ATOM     97  O   UNL     1     -14.541   8.311  20.242  1.00  0.00    -0.237 OA
ATOM     98  O   UNL     1     -16.724   8.498  19.121  1.00  0.00    -0.237 OA
ATOM     99  O   UNL     1     -15.351   6.497  18.770  1.00  0.00    -0.744 OA
ENDBRANCH  93  96
ENDBRANCH  66  89
ENDBRANCH  40  41
ENDBRANCH  32  35
ENDBRANCH  30  31
ENDBRANCH  29  30
ENDBRANCH   1  29
TORSDOF 18
