REMARK SMILES CCCN1C(=O)CO[C@H](C(=O)NCCCCNC(=O)c2ccc(-c3c4nc(c(-c5cccc(S(=O)(=O)[O-])c5F)c5ccc([nH]5)c(-c5cccc(S(=O)(=O)[O-])c5F)c5nc(c(-c6cccc(S(=O)(=O)[O-])c6F)c6ccc3[nH]6)C=C5)C=C4)cc2)[C@@H]1c1cncn1C1CC1
REMARK SMILES IDX 15 1 14 2 13 3 12 4 10 5 11 6 9 8 4 9 5 10 83 11 6 12 7 13
REMARK SMILES IDX 8 14 3 15 2 16 1 17 84 18 85 19 88 20 86 21 87 22 89 23
REMARK SMILES IDX 90 24 91 25 16 26 17 27 18 28 19 30 20 31 21 32 82 33 22 34
REMARK SMILES IDX 81 35 23 36 24 37 25 38 75 39 26 40 80 41 74 42 76 43 27 44
REMARK SMILES IDX 79 45 73 46 72 47 28 49 60 50 40 51 59 52 41 53 44 54 58 55
REMARK SMILES IDX 77 56 42 57 43 58 57 60 78 61 45 62 29 63 30 64 38 65 31 66
REMARK SMILES IDX 33 67 39 68 32 69 34 70 35 71 36 72 37 73 61 74 62 75 70 76
REMARK SMILES IDX 63 77 65 78 71 79 64 80 66 81 67 82 68 83 69 84 46 85 47 86
REMARK SMILES IDX 55 87 48 88 50 89 56 90 49 91 51 92 52 93 53 94 54 95
REMARK H PARENT 12 7 17 29 76 48 44 59
REMARK Flexibility Score: inf
ROOT
ATOM      1  C   UNL     1      -3.998   5.549   5.925  1.00  0.00     0.023 C 
ENDROOT
BRANCH   1   2
ATOM      2  C   UNL     1      -2.553   5.589   5.428  1.00  0.00     0.023 C 
BRANCH   2   3
ATOM      3  C   UNL     1      -2.152   4.471   4.476  1.00  0.00     0.116 C 
BRANCH   3   4
ATOM      4  N   UNL     1      -2.910   4.428   3.246  1.00  0.00    -0.354 N 
ATOM      5  C   UNL     1      -2.544   3.886   2.049  1.00  0.00     0.251 C 
ATOM      6  O   UNL     1      -3.424   3.701   1.202  1.00  0.00    -0.272 OA
ATOM      7  H   UNL     1      -3.803   4.842   3.276  1.00  0.00     0.163 HD
BRANCH   5   8
ATOM      8  C   UNL     1      -1.087   3.487   1.736  1.00  0.00     0.236 C 
ATOM      9  N   UNL     1       0.638   1.634   1.730  1.00  0.00    -0.329 N 
ATOM     10  C   UNL     1       1.581   2.603   1.386  1.00  0.00     0.249 C 
ATOM     11  C   UNL     1      -0.745   2.009   2.054  1.00  0.00     0.172 C 
ATOM     12  O   UNL     1       2.717   2.323   1.000  1.00  0.00    -0.272 OA
ATOM     13  C   UNL     1       1.141   4.078   1.495  1.00  0.00     0.261 C 
ATOM     14  O   UNL     1      -0.064   4.360   2.192  1.00  0.00    -0.356 OA
BRANCH   9  15
ATOM     15  C   UNL     1       1.014   0.213   1.699  1.00  0.00     0.120 C 
BRANCH  15  16
ATOM     16  C   UNL     1       0.405  -0.595   0.555  1.00  0.00     0.018 C 
ATOM     17  C   UNL     1       0.931  -0.178  -0.807  1.00  0.00     0.006 C 
ENDBRANCH  15  16
ENDBRANCH   9  15
BRANCH  11  18
ATOM     18  C   UNL     1      -1.223   1.455   3.371  1.00  0.00     0.064 A 
ATOM     19  C   UNL     1      -2.492   0.893   3.524  1.00  0.00     0.136 A 
ATOM     20  N   UNL     1      -0.665   1.316   4.635  1.00  0.00    -0.330 N 
ATOM     21  N   UNL     1      -2.716   0.434   4.781  1.00  0.00    -0.245 NA
ATOM     22  C   UNL     1      -1.606   0.688   5.423  1.00  0.00     0.199 A 
BRANCH  20  23
ATOM     23  C   UNL     1       0.576   1.713   5.283  1.00  0.00     0.088 C 
ATOM     24  C   UNL     1       1.968   1.726   4.702  1.00  0.00     0.027 C 
ATOM     25  C   UNL     1       1.295   3.014   5.021  1.00  0.00     0.027 C 
ENDBRANCH  20  23
ENDBRANCH  11  18
ENDBRANCH   5   8
ENDBRANCH   3   4
ENDBRANCH   2   3
ENDBRANCH   1   2
BRANCH   1  26
ATOM     26  C   UNL     1      -4.505   4.198   6.425  1.00  0.00     0.116 C 
BRANCH  26  27
ATOM     27  N   UNL     1      -3.728   3.659   7.533  1.00  0.00    -0.352 N 
ATOM     28  C   UNL     1      -4.133   3.300   8.797  1.00  0.00     0.251 C 
ATOM     29  H   UNL     1      -2.769   3.534   7.350  1.00  0.00     0.163 HD
ATOM     30  O   UNL     1      -3.300   2.942   9.628  1.00  0.00    -0.269 OA
BRANCH  28  31
ATOM     31  C   UNL     1      -5.563   3.386   9.168  1.00  0.00     0.039 A 
ATOM     32  C   UNL     1      -5.918   4.054  10.344  1.00  0.00     0.014 A 
ATOM     33  C   UNL     1      -6.552   2.845   8.344  1.00  0.00     0.014 A 
ATOM     34  C   UNL     1      -7.268   4.262  10.642  1.00  0.00     0.010 A 
ATOM     35  C   UNL     1      -7.893   3.120   8.603  1.00  0.00     0.010 A 
ATOM     36  C   UNL     1      -8.267   3.839   9.749  1.00  0.00    -0.014 A 
BRANCH  36  37
ATOM     37  C   UNL     1      -9.699   4.174   9.972  1.00  0.00     0.031 A 
ATOM     38  C   UNL     1     -10.719   3.083  10.158  1.00  0.00     0.074 A 
ATOM     39  C   UNL     1     -10.100   5.461   9.903  1.00  0.00     0.049 A 
ATOM     40  N   UNL     1     -12.016   3.183  10.297  1.00  0.00    -0.248 NA
ATOM     41  C   UNL     1     -10.221   1.698  10.161  1.00  0.00     0.031 C 
ATOM     42  C   UNL     1      -9.227   6.607   9.640  1.00  0.00     0.029 A 
ATOM     43  N   UNL     1     -11.350   6.018  10.019  1.00  0.00    -0.354 N 
ATOM     44  C   UNL     1     -12.493   1.880  10.364  1.00  0.00     0.074 A 
ATOM     45  C   UNL     1     -11.349   1.005  10.221  1.00  0.00     0.031 C 
ATOM     46  C   UNL     1      -9.966   7.728   9.617  1.00  0.00     0.029 A 
ATOM     47  C   UNL     1     -11.366   7.382   9.837  1.00  0.00     0.049 A 
ATOM     48  H   UNL     1     -12.159   5.492  10.213  1.00  0.00     0.167 HD
ATOM     49  C   UNL     1     -13.762   1.447  10.560  1.00  0.00     0.034 A 
ATOM     50  C   UNL     1     -12.392   8.257   9.842  1.00  0.00     0.034 A 
ATOM     51  C   UNL     1     -14.891   2.316  10.755  1.00  0.00     0.049 A 
ATOM     52  C   UNL     1     -13.784   7.755  10.115  1.00  0.00     0.074 A 
ATOM     53  C   UNL     1     -16.197   1.974  11.058  1.00  0.00     0.029 A 
ATOM     54  N   UNL     1     -14.851   3.698  10.665  1.00  0.00    -0.354 N 
ATOM     55  N   UNL     1     -14.188   6.530  10.349  1.00  0.00    -0.248 NA
ATOM     56  C   UNL     1     -14.858   8.759  10.161  1.00  0.00     0.031 C 
ATOM     57  C   UNL     1     -16.951   3.150  11.138  1.00  0.00     0.029 A 
ATOM     58  C   UNL     1     -16.110   4.225  10.900  1.00  0.00     0.049 A 
ATOM     59  H   UNL     1     -14.046   4.228  10.463  1.00  0.00     0.167 HD
ATOM     60  C   UNL     1     -15.551   6.619  10.605  1.00  0.00     0.074 A 
ATOM     61  C   UNL     1     -15.902   8.022  10.518  1.00  0.00     0.031 C 
ATOM     62  C   UNL     1     -16.436   5.627  10.871  1.00  0.00     0.034 A 
BRANCH  49  63
ATOM     63  C   UNL     1     -13.988  -0.040  10.640  1.00  0.00     0.023 A 
ATOM     64  C   UNL     1     -13.552  -0.743  11.782  1.00  0.00     0.012 A 
ATOM     65  C   UNL     1     -14.680  -0.730   9.626  1.00  0.00     0.148 A 
ATOM     66  C   UNL     1     -13.770  -2.115  11.898  1.00  0.00     0.002 A 
ATOM     67  C   UNL     1     -14.931  -2.090   9.769  1.00  0.00     0.091 A 
ATOM     68  F   UNL     1     -15.068  -0.049   8.538  1.00  0.00    -0.205 F 
ATOM     69  C   UNL     1     -14.468  -2.785  10.898  1.00  0.00     0.022 A 
BRANCH  67  70
ATOM     70  S   UNL     1     -15.890  -3.027   8.572  1.00  0.00     0.127 S 
ATOM     71  O   UNL     1     -14.850  -3.819   7.917  1.00  0.00    -0.237 OA
ATOM     72  O   UNL     1     -16.790  -3.797   9.432  1.00  0.00    -0.237 OA
ATOM     73  O   UNL     1     -16.553  -2.042   7.731  1.00  0.00    -0.744 OA
ENDBRANCH  67  70
ENDBRANCH  49  63
BRANCH  50  74
ATOM     74  C   UNL     1     -12.129   9.713   9.661  1.00  0.00     0.023 A 
ATOM     75  C   UNL     1     -12.274  10.579  10.762  1.00  0.00     0.012 A 
ATOM     76  C   UNL     1     -11.712  10.240   8.423  1.00  0.00     0.148 A 
ATOM     77  C   UNL     1     -12.038  11.948  10.628  1.00  0.00     0.002 A 
ATOM     78  C   UNL     1     -11.426  11.597   8.310  1.00  0.00     0.091 A 
ATOM     79  F   UNL     1     -11.594   9.403   7.383  1.00  0.00    -0.205 F 
ATOM     80  C   UNL     1     -11.604  12.455   9.406  1.00  0.00     0.022 A 
BRANCH  78  81
ATOM     81  S   UNL     1     -10.738  12.312   6.812  1.00  0.00     0.127 S 
ATOM     82  O   UNL     1     -11.881  13.046   6.278  1.00  0.00    -0.237 OA
ATOM     83  O   UNL     1      -9.661  13.149   7.342  1.00  0.00    -0.237 OA
ATOM     84  O   UNL     1     -10.279  11.181   6.016  1.00  0.00    -0.744 OA
ENDBRANCH  78  81
ENDBRANCH  50  74
BRANCH  62  85
ATOM     85  C   UNL     1     -17.870   6.015  11.122  1.00  0.00     0.023 A 
ATOM     86  C   UNL     1     -18.681   6.421  10.044  1.00  0.00     0.012 A 
ATOM     87  C   UNL     1     -18.433   5.901  12.408  1.00  0.00     0.148 A 
ATOM     88  C   UNL     1     -20.024   6.735  10.248  1.00  0.00     0.002 A 
ATOM     89  C   UNL     1     -19.784   6.172  12.595  1.00  0.00     0.091 A 
ATOM     90  F   UNL     1     -17.640   5.533  13.425  1.00  0.00    -0.205 F 
ATOM     91  C   UNL     1     -20.578   6.599  11.518  1.00  0.00     0.022 A 
BRANCH  89  92
ATOM     92  S   UNL     1     -20.601   5.933  14.177  1.00  0.00     0.127 S 
ATOM     93  O   UNL     1     -20.763   7.310  14.640  1.00  0.00    -0.237 OA
ATOM     94  O   UNL     1     -21.847   5.270  13.789  1.00  0.00    -0.237 OA
ATOM     95  O   UNL     1     -19.701   5.106  14.970  1.00  0.00    -0.744 OA
ENDBRANCH  89  92
ENDBRANCH  62  85
ENDBRANCH  36  37
ENDBRANCH  28  31
ENDBRANCH  26  27
ENDBRANCH   1  26
TORSDOF 18
