REMARK SMILES COc1cc(/C=C2\SC(=S)N(CC(=O)NCCCCNC(=O)c3ccc(-c4c5nc(c(-c6cccc(S(=O)(=O)[O-])c6F)c6ccc([nH]6)c(-c6cccc(S(=O)(=O)[O-])c6F)c6nc(c(-c7cccc(S(=O)(=O)[O-])c7F)c7ccc4[nH]7)C=C6)C=C5)cc3)C2=O)cc2c1OCO2
REMARK SMILES IDX 17 1 16 2 15 3 13 4 14 5 12 7 11 8 6 9 7 10 8 11 86 12 9 13
REMARK SMILES IDX 87 14 10 15 5 16 3 17 4 18 90 19 89 20 91 21 88 22 93 23
REMARK SMILES IDX 92 24 2 25 1 26 18 27 19 28 20 29 21 30 22 32 23 33 24 34
REMARK SMILES IDX 85 35 25 36 84 37 26 38 27 39 28 40 78 41 29 42 83 43 77 44
REMARK SMILES IDX 79 45 30 46 82 47 76 48 75 49 31 51 63 52 43 53 62 54 44 55
REMARK SMILES IDX 47 56 61 57 80 58 45 59 46 60 60 62 81 63 48 64 32 65 33 66
REMARK SMILES IDX 41 67 34 68 36 69 42 70 35 71 37 72 38 73 39 74 40 75 64 76
REMARK SMILES IDX 65 77 73 78 66 79 68 80 74 81 67 82 69 83 70 84 71 85 72 86
REMARK SMILES IDX 49 87 50 88 58 89 51 90 53 91 59 92 52 93 54 94 55 95 56 96
REMARK SMILES IDX 57 97
REMARK H PARENT 15 6 20 31 79 50 47 61
REMARK Flexibility Score: inf
ROOT
ATOM      1  C   UNL     1      -2.163   2.417  -8.227  1.00  0.00     0.023 C 
ENDROOT
BRANCH   1   2
ATOM      2  C   UNL     1      -2.345   3.577  -9.202  1.00  0.00     0.116 C 
BRANCH   2   3
ATOM      3  N   UNL     1      -3.403   4.476  -8.797  1.00  0.00    -0.355 N 
ATOM      4  C   UNL     1      -3.341   5.757  -8.334  1.00  0.00     0.240 C 
ATOM      5  O   UNL     1      -4.390   6.408  -8.331  1.00  0.00    -0.273 OA
ATOM      6  H   UNL     1      -4.312   4.104  -8.866  1.00  0.00     0.163 HD
BRANCH   4   7
ATOM      7  C   UNL     1      -2.008   6.443  -8.015  1.00  0.00     0.227 C 
BRANCH   7   8
ATOM      8  N   UNL     1      -1.103   5.667  -7.169  1.00  0.00    -0.283 N 
ATOM      9  C   UNL     1      -0.620   4.232  -3.879  1.00  0.00     0.029 C 
ATOM     10  C   UNL     1      -0.467   4.626  -5.152  1.00  0.00     0.081 C 
ATOM     11  S   UNL     1       0.864   4.331  -6.199  1.00  0.00    -0.054 SA
ATOM     12  C   UNL     1      -1.504   5.417  -5.865  1.00  0.00     0.266 C 
ATOM     13  C   UNL     1       0.183   5.300  -7.495  1.00  0.00     0.148 C 
ATOM     14  O   UNL     1      -2.531   5.812  -5.342  1.00  0.00    -0.268 OA
ATOM     15  S   UNL     1       1.068   5.680  -8.858  1.00  0.00    -0.052 S 
BRANCH   9  16
ATOM     16  C   UNL     1       0.357   3.450  -3.110  1.00  0.00    -0.017 A 
ATOM     17  C   UNL     1       0.877   1.437  -1.821  1.00  0.00     0.165 A 
ATOM     18  C   UNL     1      -0.039   2.231  -2.523  1.00  0.00     0.058 A 
ATOM     19  C   UNL     1       2.192   1.862  -1.763  1.00  0.00     0.207 A 
ATOM     20  C   UNL     1       2.571   3.065  -2.316  1.00  0.00     0.170 A 
ATOM     21  O   UNL     1       3.256   1.203  -1.226  1.00  0.00    -0.450 OA
ATOM     22  C   UNL     1       1.678   3.892  -2.962  1.00  0.00     0.059 A 
ATOM     23  O   UNL     1       3.902   3.312  -2.181  1.00  0.00    -0.453 OA
ATOM     24  C   UNL     1       4.341   2.076  -1.590  1.00  0.00     0.468 C 
BRANCH  17  25
ATOM     25  O   UNL     1       0.400   0.260  -1.322  1.00  0.00    -0.493 OA
ATOM     26  C   UNL     1       0.833  -0.019   0.006  1.00  0.00     0.278 C 
ENDBRANCH  17  25
ENDBRANCH   9  16
ENDBRANCH   7   8
ENDBRANCH   4   7
ENDBRANCH   2   3
ENDBRANCH   1   2
BRANCH   1  27
ATOM     27  C   UNL     1      -3.301   1.394  -8.243  1.00  0.00     0.023 C 
BRANCH  27  28
ATOM     28  C   UNL     1      -3.583   0.753  -9.598  1.00  0.00     0.116 C 
BRANCH  28  29
ATOM     29  N   UNL     1      -2.433   0.050 -10.148  1.00  0.00    -0.352 N 
ATOM     30  C   UNL     1      -2.397  -1.173 -10.776  1.00  0.00     0.251 C 
ATOM     31  H   UNL     1      -1.567   0.510 -10.059  1.00  0.00     0.163 HD
ATOM     32  O   UNL     1      -1.319  -1.683 -11.067  1.00  0.00    -0.269 OA
BRANCH  30  33
ATOM     33  C   UNL     1      -3.662  -1.881 -11.069  1.00  0.00     0.039 A 
ATOM     34  C   UNL     1      -3.774  -3.232 -10.734  1.00  0.00     0.014 A 
ATOM     35  C   UNL     1      -4.742  -1.205 -11.644  1.00  0.00     0.014 A 
ATOM     36  C   UNL     1      -4.993  -3.889 -10.918  1.00  0.00     0.010 A 
ATOM     37  C   UNL     1      -5.976  -1.840 -11.750  1.00  0.00     0.010 A 
ATOM     38  C   UNL     1      -6.115  -3.190 -11.394  1.00  0.00    -0.014 A 
BRANCH  38  39
ATOM     39  C   UNL     1      -7.441  -3.851 -11.519  1.00  0.00     0.031 A 
ATOM     40  C   UNL     1      -8.106  -3.968 -12.865  1.00  0.00     0.074 A 
ATOM     41  C   UNL     1      -8.084  -4.274 -10.411  1.00  0.00     0.049 A 
ATOM     42  N   UNL     1      -9.280  -4.460 -13.163  1.00  0.00    -0.248 NA
ATOM     43  C   UNL     1      -7.367  -3.442 -14.026  1.00  0.00     0.031 C 
ATOM     44  C   UNL     1      -7.583  -4.148  -9.040  1.00  0.00     0.029 A 
ATOM     45  N   UNL     1      -9.312  -4.870 -10.259  1.00  0.00    -0.354 N 
ATOM     46  C   UNL     1      -9.438  -4.268 -14.531  1.00  0.00     0.074 A 
ATOM     47  C   UNL     1      -8.252  -3.588 -15.002  1.00  0.00     0.031 C 
ATOM     48  C   UNL     1      -8.492  -4.654  -8.190  1.00  0.00     0.029 A 
ATOM     49  C   UNL     1      -9.654  -5.107  -8.947  1.00  0.00     0.049 A 
ATOM     50  H   UNL     1      -9.894  -5.106 -11.017  1.00  0.00     0.167 HD
ATOM     51  C   UNL     1     -10.465  -4.646 -15.328  1.00  0.00     0.034 A 
ATOM     52  C   UNL     1     -10.781  -5.617  -8.412  1.00  0.00     0.034 A 
ATOM     53  C   UNL     1     -11.623  -5.361 -14.866  1.00  0.00     0.049 A 
ATOM     54  C   UNL     1     -11.890  -6.060  -9.329  1.00  0.00     0.074 A 
ATOM     55  C   UNL     1     -12.672  -5.870 -15.612  1.00  0.00     0.029 A 
ATOM     56  N   UNL     1     -11.894  -5.660 -13.540  1.00  0.00    -0.354 N 
ATOM     57  N   UNL     1     -11.947  -6.017 -10.638  1.00  0.00    -0.248 NA
ATOM     58  C   UNL     1     -13.076  -6.659  -8.698  1.00  0.00     0.031 C 
ATOM     59  C   UNL     1     -13.595  -6.444 -14.734  1.00  0.00     0.029 A 
ATOM     60  C   UNL     1     -13.099  -6.333 -13.445  1.00  0.00     0.049 A 
ATOM     61  H   UNL     1     -11.315  -5.427 -12.779  1.00  0.00     0.167 HD
ATOM     62  C   UNL     1     -13.150  -6.620 -10.987  1.00  0.00     0.074 A 
ATOM     63  C   UNL     1     -13.781  -7.039  -9.754  1.00  0.00     0.031 C 
ATOM     64  C   UNL     1     -13.689  -6.800 -12.218  1.00  0.00     0.034 A 
BRANCH  51  65
ATOM     65  C   UNL     1     -10.371  -4.337 -16.799  1.00  0.00     0.023 A 
ATOM     66  C   UNL     1      -9.461  -5.049 -17.607  1.00  0.00     0.012 A 
ATOM     67  C   UNL     1     -11.248  -3.411 -17.397  1.00  0.00     0.148 A 
ATOM     68  C   UNL     1      -9.406  -4.825 -18.982  1.00  0.00     0.002 A 
ATOM     69  C   UNL     1     -11.221  -3.228 -18.774  1.00  0.00     0.091 A 
ATOM     70  F   UNL     1     -12.094  -2.732 -16.610  1.00  0.00    -0.205 F 
ATOM     71  C   UNL     1     -10.294  -3.926 -19.566  1.00  0.00     0.022 A 
BRANCH  69  72
ATOM     72  S   UNL     1     -12.378  -2.159 -19.636  1.00  0.00     0.127 S 
ATOM     73  O   UNL     1     -11.490  -1.113 -20.143  1.00  0.00    -0.237 OA
ATOM     74  O   UNL     1     -12.915  -3.053 -20.662  1.00  0.00    -0.237 OA
ATOM     75  O   UNL     1     -13.345  -1.721 -18.639  1.00  0.00    -0.744 OA
ENDBRANCH  69  72
ENDBRANCH  51  65
BRANCH  52  76
ATOM     76  C   UNL     1     -10.910  -5.781  -6.935  1.00  0.00     0.023 A 
ATOM     77  C   UNL     1     -10.959  -7.075  -6.380  1.00  0.00     0.012 A 
ATOM     78  C   UNL     1     -10.996  -4.666  -6.080  1.00  0.00     0.148 A 
ATOM     79  C   UNL     1     -11.142  -7.255  -5.008  1.00  0.00     0.002 A 
ATOM     80  C   UNL     1     -11.117  -4.852  -4.708  1.00  0.00     0.091 A 
ATOM     81  F   UNL     1     -10.958  -3.442  -6.627  1.00  0.00    -0.205 F 
ATOM     82  C   UNL     1     -11.213  -6.145  -4.172  1.00  0.00     0.022 A 
BRANCH  80  83
ATOM     83  S   UNL     1     -11.085  -3.482  -3.547  1.00  0.00     0.127 S 
ATOM     84  O   UNL     1     -12.474  -3.435  -3.101  1.00  0.00    -0.237 OA
ATOM     85  O   UNL     1     -10.131  -3.958  -2.545  1.00  0.00    -0.237 OA
ATOM     86  O   UNL     1     -10.624  -2.331  -4.312  1.00  0.00    -0.744 OA
ENDBRANCH  80  83
ENDBRANCH  52  76
BRANCH  64  87
ATOM     87  C   UNL     1     -15.001  -7.534 -12.310  1.00  0.00     0.023 A 
ATOM     88  C   UNL     1     -16.189  -6.921 -11.866  1.00  0.00     0.012 A 
ATOM     89  C   UNL     1     -15.062  -8.809 -12.907  1.00  0.00     0.148 A 
ATOM     90  C   UNL     1     -17.412  -7.581 -11.980  1.00  0.00     0.002 A 
ATOM     91  C   UNL     1     -16.291  -9.437 -13.069  1.00  0.00     0.091 A 
ATOM     92  F   UNL     1     -13.919  -9.382 -13.309  1.00  0.00    -0.205 F 
ATOM     93  C   UNL     1     -17.465  -8.831 -12.592  1.00  0.00     0.022 A 
BRANCH  91  94
ATOM     94  S   UNL     1     -16.467 -11.000 -13.935  1.00  0.00     0.127 S 
ATOM     95  O   UNL     1     -16.792 -11.912 -12.841  1.00  0.00    -0.237 OA
ATOM     96  O   UNL     1     -17.576 -10.723 -14.849  1.00  0.00    -0.237 OA
ATOM     97  O   UNL     1     -15.190 -11.243 -14.592  1.00  0.00    -0.744 OA
ENDBRANCH  91  94
ENDBRANCH  64  87
ENDBRANCH  38  39
ENDBRANCH  30  33
ENDBRANCH  28  29
ENDBRANCH  27  28
ENDBRANCH   1  27
TORSDOF 17
