REMARK SMILES CC(=O)N[C@H]1[C@@H](Oc2ccc(C)c(C)c2)O[C@H]2CO[C@H](c3ccco3)O[C@@H]2[C@H]1OCC(=O)NCCCCNC(=O)c1ccc(-c2c3nc(c(-c4cccc(S(=O)(=O)[O-])c4F)c4ccc([nH]4)c(-c4cccc(S(=O)(=O)[O-])c4F)c4nc(c(-c5cccc(S(=O)(=O)[O-])c5F)c5ccc2[nH]5)C=C4)C=C3)cc1
REMARK SMILES IDX 35 1 34 2 33 3 31 4 32 5 30 7 29 8 28 9 5 10 6 11 16 12
REMARK SMILES IDX 27 13 17 14 26 15 18 16 20 17 19 18 4 19 1 20 2 21 3 22 7 24
REMARK SMILES IDX 8 25 9 26 15 27 10 28 13 29 11 30 14 31 12 32 21 33 22 34
REMARK SMILES IDX 25 35 23 36 24 37 36 38 37 39 38 40 39 41 40 43 41 44 42 45
REMARK SMILES IDX 103 46 43 47 102 48 44 49 45 50 46 51 96 52 47 53 101 54
REMARK SMILES IDX 95 55 97 56 48 57 100 58 94 59 93 60 49 62 81 63 61 64 80 65
REMARK SMILES IDX 62 66 65 67 79 68 98 69 63 70 64 71 78 73 99 74 66 75 50 76
REMARK SMILES IDX 51 77 59 78 52 79 54 80 60 81 53 82 55 83 56 84 57 85 58 86
REMARK SMILES IDX 82 87 83 88 91 89 84 90 86 91 92 92 85 93 87 94 88 95 89 96
REMARK SMILES IDX 90 97 67 98 68 99 76 100 69 101 71 102 77 103 70 104 72 105
REMARK SMILES IDX 73 106 74 107 75 108
REMARK H PARENT 33 6 4 23 38 42 97 61 65 72
REMARK Flexibility Score: inf
ROOT
ATOM      1  C   UNL     1       3.256   5.671   0.273  1.00  0.00     0.023 C 
ENDROOT
BRANCH   1   2
ATOM      2  C   UNL     1       1.781   5.764   0.674  1.00  0.00     0.116 C 
BRANCH   2   3
ATOM      3  N   UNL     1       0.851   6.017  -0.407  1.00  0.00    -0.354 N 
ATOM      4  C   UNL     1       0.039   5.124  -1.051  1.00  0.00     0.246 C 
ATOM      5  O   UNL     1      -0.823   5.524  -1.837  1.00  0.00    -0.272 OA
ATOM      6  H   UNL     1       0.796   6.949  -0.718  1.00  0.00     0.163 HD
BRANCH   4   7
ATOM      7  C   UNL     1       0.236   3.625  -0.807  1.00  0.00     0.260 C 
BRANCH   7   8
ATOM      8  O   UNL     1       1.577   3.167  -0.926  1.00  0.00    -0.363 OA
BRANCH   8   9
ATOM      9  C   UNL     1       2.077   2.921  -2.255  1.00  0.00     0.179 C 
ATOM     10  C   UNL     1       1.949   1.404  -2.647  1.00  0.00     0.182 C 
ATOM     11  C   UNL     1       2.142   1.179  -4.210  1.00  0.00     0.333 C 
ATOM     12  O   UNL     1       1.783   2.249  -5.074  1.00  0.00    -0.332 OA
ATOM     13  C   UNL     1       1.633   3.917  -3.361  1.00  0.00     0.184 C 
ATOM     14  C   UNL     1       2.278   3.510  -4.681  1.00  0.00     0.180 C 
ATOM     15  O   UNL     1       2.000   5.279  -3.070  1.00  0.00    -0.337 OA
ATOM     16  C   UNL     1       1.914   4.529  -5.759  1.00  0.00     0.199 C 
ATOM     17  C   UNL     1       1.487   6.131  -4.111  1.00  0.00     0.319 C 
ATOM     18  O   UNL     1       2.181   5.851  -5.326  1.00  0.00    -0.343 OA
BRANCH  10  19
ATOM     19  N   UNL     1       0.788   0.678  -2.074  1.00  0.00    -0.345 N 
ATOM     20  C   UNL     1       1.451   0.398   0.308  1.00  0.00     0.114 C 
ATOM     21  C   UNL     1       0.587   0.079  -0.872  1.00  0.00     0.217 C 
ATOM     22  O   UNL     1      -0.356  -0.709  -0.768  1.00  0.00    -0.275 OA
ATOM     23  H   UNL     1       0.016   0.619  -2.682  1.00  0.00     0.164 HD
ENDBRANCH  10  19
BRANCH  11  24
ATOM     24  O   UNL     1       1.574  -0.051  -4.701  1.00  0.00    -0.463 OA
BRANCH  24  25
ATOM     25  C   UNL     1       0.230  -0.122  -4.981  1.00  0.00     0.123 A 
ATOM     26  C   UNL     1      -0.716   0.880  -4.766  1.00  0.00     0.047 A 
ATOM     27  C   UNL     1      -0.213  -1.379  -5.392  1.00  0.00     0.050 A 
ATOM     28  C   UNL     1      -2.079   0.584  -4.795  1.00  0.00     0.007 A 
ATOM     29  C   UNL     1      -1.586  -1.681  -5.477  1.00  0.00    -0.045 A 
ATOM     30  C   UNL     1      -2.528  -0.705  -5.104  1.00  0.00    -0.048 A 
ATOM     31  C   UNL     1      -1.972  -3.060  -5.932  1.00  0.00     0.045 C 
ATOM     32  C   UNL     1      -3.999  -0.997  -5.008  1.00  0.00     0.044 C 
ENDBRANCH  24  25
ENDBRANCH  11  24
BRANCH  17  33
ATOM     33  C   UNL     1       1.700   7.583  -3.823  1.00  0.00     0.159 A 
ATOM     34  C   UNL     1       1.801   8.669  -4.678  1.00  0.00     0.051 A 
ATOM     35  O   UNL     1       1.688   8.031  -2.528  1.00  0.00    -0.464 OA
ATOM     36  C   UNL     1       1.896   9.825  -3.875  1.00  0.00     0.042 A 
ATOM     37  C   UNL     1       1.827   9.384  -2.578  1.00  0.00     0.195 A 
ENDBRANCH  17  33
ENDBRANCH   8   9
ENDBRANCH   7   8
ENDBRANCH   4   7
ENDBRANCH   2   3
ENDBRANCH   1   2
BRANCH   1  38
ATOM     38  C   UNL     1       3.900   6.900  -0.373  1.00  0.00     0.023 C 
BRANCH  38  39
ATOM     39  C   UNL     1       3.551   8.254   0.229  1.00  0.00     0.116 C 
BRANCH  39  40
ATOM     40  N   UNL     1       4.105   8.456   1.556  1.00  0.00    -0.352 N 
ATOM     41  C   UNL     1       4.659   9.606   2.069  1.00  0.00     0.251 C 
ATOM     42  H   UNL     1       4.080   7.679   2.160  1.00  0.00     0.163 HD
ATOM     43  O   UNL     1       5.216   9.586   3.167  1.00  0.00    -0.269 OA
BRANCH  41  44
ATOM     44  C   UNL     1       4.607  10.865   1.288  1.00  0.00     0.039 A 
ATOM     45  C   UNL     1       5.779  11.607   1.111  1.00  0.00     0.014 A 
ATOM     46  C   UNL     1       3.405  11.319   0.737  1.00  0.00     0.014 A 
ATOM     47  C   UNL     1       5.755  12.779   0.346  1.00  0.00     0.010 A 
ATOM     48  C   UNL     1       3.396  12.458  -0.071  1.00  0.00     0.010 A 
ATOM     49  C   UNL     1       4.568  13.207  -0.269  1.00  0.00    -0.014 A 
BRANCH  49  50
ATOM     50  C   UNL     1       4.516  14.445  -1.098  1.00  0.00     0.031 A 
ATOM     51  C   UNL     1       3.654  15.603  -0.665  1.00  0.00     0.074 A 
ATOM     52  C   UNL     1       5.167  14.507  -2.277  1.00  0.00     0.049 A 
ATOM     53  N   UNL     1       3.379  16.713  -1.301  1.00  0.00    -0.248 NA
ATOM     54  C   UNL     1       2.996  15.487   0.647  1.00  0.00     0.031 C 
ATOM     55  C   UNL     1       6.006  13.447  -2.837  1.00  0.00     0.029 A 
ATOM     56  N   UNL     1       5.197  15.494  -3.234  1.00  0.00    -0.354 N 
ATOM     57  C   UNL     1       2.485  17.405  -0.492  1.00  0.00     0.074 A 
ATOM     58  C   UNL     1       2.246  16.579   0.672  1.00  0.00     0.031 C 
ATOM     59  C   UNL     1       6.460  13.835  -4.041  1.00  0.00     0.029 A 
ATOM     60  C   UNL     1       5.912  15.152  -4.359  1.00  0.00     0.049 A 
ATOM     61  H   UNL     1       4.748  16.363  -3.125  1.00  0.00     0.167 HD
ATOM     62  C   UNL     1       1.928  18.625  -0.685  1.00  0.00     0.034 A 
ATOM     63  C   UNL     1       6.089  15.808  -5.524  1.00  0.00     0.034 A 
ATOM     64  C   UNL     1       2.193  19.465  -1.822  1.00  0.00     0.049 A 
ATOM     65  C   UNL     1       5.460  17.164  -5.715  1.00  0.00     0.074 A 
ATOM     66  C   UNL     1       1.730  20.746  -2.069  1.00  0.00     0.029 A 
ATOM     67  N   UNL     1       2.982  19.110  -2.904  1.00  0.00    -0.354 N 
ATOM     68  N   UNL     1       4.715  17.852  -4.885  1.00  0.00    -0.248 NA
ATOM     69  C   UNL     1       5.722  17.851  -6.991  1.00  0.00     0.031 C 
ATOM     70  C   UNL     1       2.209  21.151  -3.317  1.00  0.00     0.029 A 
ATOM     71  C   UNL     1       3.010  20.142  -3.826  1.00  0.00     0.049 A 
ATOM     72  H   UNL     1       3.452  18.250  -3.003  1.00  0.00     0.167 HD
ATOM     73  C   UNL     1       4.465  19.068  -5.513  1.00  0.00     0.074 A 
ATOM     74  C   UNL     1       5.138  19.026  -6.794  1.00  0.00     0.031 C 
ATOM     75  C   UNL     1       3.741  20.122  -5.067  1.00  0.00     0.034 A 
BRANCH  62  76
ATOM     76  C   UNL     1       0.991  19.147   0.373  1.00  0.00     0.023 A 
ATOM     77  C   UNL     1       1.501  19.541   1.627  1.00  0.00     0.012 A 
ATOM     78  C   UNL     1      -0.382  19.311   0.103  1.00  0.00     0.148 A 
ATOM     79  C   UNL     1       0.654  20.054   2.609  1.00  0.00     0.002 A 
ATOM     80  C   UNL     1      -1.211  19.869   1.069  1.00  0.00     0.091 A 
ATOM     81  F   UNL     1      -0.851  18.917  -1.089  1.00  0.00    -0.205 F 
ATOM     82  C   UNL     1      -0.698  20.227   2.326  1.00  0.00     0.022 A 
BRANCH  80  83
ATOM     83  S   UNL     1      -2.949  20.215   0.771  1.00  0.00     0.127 S 
ATOM     84  O   UNL     1      -3.597  19.225   1.631  1.00  0.00    -0.237 OA
ATOM     85  O   UNL     1      -3.071  21.597   1.234  1.00  0.00    -0.237 OA
ATOM     86  O   UNL     1      -3.157  20.031  -0.658  1.00  0.00    -0.744 OA
ENDBRANCH  80  83
ENDBRANCH  62  76
BRANCH  63  87
ATOM     87  C   UNL     1       6.932  15.210  -6.600  1.00  0.00     0.023 A 
ATOM     88  C   UNL     1       8.170  15.800  -6.921  1.00  0.00     0.012 A 
ATOM     89  C   UNL     1       6.517  14.060  -7.300  1.00  0.00     0.148 A 
ATOM     90  C   UNL     1       8.962  15.280  -7.946  1.00  0.00     0.002 A 
ATOM     91  C   UNL     1       7.337  13.514  -8.280  1.00  0.00     0.091 A 
ATOM     92  F   UNL     1       5.332  13.520  -6.986  1.00  0.00    -0.205 F 
ATOM     93  C   UNL     1       8.550  14.133  -8.618  1.00  0.00     0.022 A 
BRANCH  91  94
ATOM     94  S   UNL     1       6.948  11.972  -9.115  1.00  0.00     0.127 S 
ATOM     95  O   UNL     1       6.701  12.425 -10.481  1.00  0.00    -0.237 OA
ATOM     96  O   UNL     1       8.185  11.212  -8.932  1.00  0.00    -0.237 OA
ATOM     97  O   UNL     1       5.795  11.423  -8.415  1.00  0.00    -0.744 OA
ENDBRANCH  91  94
ENDBRANCH  63  87
BRANCH  75  98
ATOM     98  C   UNL     1       3.688  21.367  -5.914  1.00  0.00     0.023 A 
ATOM     99  C   UNL     1       2.914  21.397  -7.090  1.00  0.00     0.012 A 
ATOM    100  C   UNL     1       4.318  22.547  -5.468  1.00  0.00     0.148 A 
ATOM    101  C   UNL     1       2.783  22.580  -7.819  1.00  0.00     0.002 A 
ATOM    102  C   UNL     1       4.140  23.733  -6.170  1.00  0.00     0.091 A 
ATOM    103  F   UNL     1       5.064  22.491  -4.356  1.00  0.00    -0.205 F 
ATOM    104  C   UNL     1       3.382  23.749  -7.352  1.00  0.00     0.022 A 
BRANCH 102 105
ATOM    105  S   UNL     1       4.784  25.306  -5.589  1.00  0.00     0.127 S 
ATOM    106  O   UNL     1       5.793  25.607  -6.604  1.00  0.00    -0.237 OA
ATOM    107  O   UNL     1       3.597  26.160  -5.636  1.00  0.00    -0.237 OA
ATOM    108  O   UNL     1       5.304  25.061  -4.251  1.00  0.00    -0.744 OA
ENDBRANCH 102 105
ENDBRANCH  75  98
ENDBRANCH  49  50
ENDBRANCH  41  44
ENDBRANCH  39  40
ENDBRANCH  38  39
ENDBRANCH   1  38
TORSDOF 20
