REMARK SMILES CCn1c(N2CCC(C(=O)NCCCCNC(=O)c3ccc(-c4c5nc(c(-c6cccc(S(=O)(=O)[O-])c6F)c6ccc([nH]6)c(-c6cccc(S(=O)(=O)[O-])c6F)c6nc(c(-c7cccc(S(=O)(=O)[O-])c7F)c7ccc4[nH]7)C=C6)C=C5)cc3)CC2)nc2cc(C)ccc21
REMARK SMILES IDX 14 1 13 2 12 3 11 4 9 5 10 6 8 8 5 9 6 10 83 11 7 12 82 13
REMARK SMILES IDX 4 14 3 15 91 16 84 17 85 18 90 19 86 20 89 21 87 22 88 23
REMARK SMILES IDX 2 24 1 25 15 26 16 27 17 28 18 30 19 31 20 32 81 33 21 34
REMARK SMILES IDX 80 35 22 36 23 37 24 38 74 39 25 40 79 41 73 42 75 43 26 44
REMARK SMILES IDX 78 45 72 46 71 47 27 49 59 50 39 51 58 52 40 53 43 54 57 55
REMARK SMILES IDX 76 56 41 57 42 58 56 60 77 61 44 62 28 63 29 64 37 65 30 66
REMARK SMILES IDX 32 67 38 68 31 69 33 70 34 71 35 72 36 73 60 74 61 75 69 76
REMARK SMILES IDX 62 77 64 78 70 79 63 80 65 81 66 82 67 83 68 84 45 85 46 86
REMARK SMILES IDX 54 87 47 88 49 89 55 90 48 91 50 92 51 93 52 94 53 95
REMARK H PARENT 11 7 16 29 75 48 43 59
REMARK Flexibility Score: inf
ROOT
ATOM      1  C   UNL     1       2.001  10.187  -0.228  1.00  0.00     0.023 C 
ENDROOT
BRANCH   1   2
ATOM      2  C   UNL     1       1.415   8.775  -0.334  1.00  0.00     0.023 C 
BRANCH   2   3
ATOM      3  C   UNL     1       1.663   7.886   0.879  1.00  0.00     0.116 C 
BRANCH   3   4
ATOM      4  N   UNL     1       0.927   8.338   2.050  1.00  0.00    -0.356 N 
ATOM      5  C   UNL     1       0.011   7.693   2.823  1.00  0.00     0.223 C 
ATOM      6  O   UNL     1      -0.438   8.284   3.809  1.00  0.00    -0.275 OA
ATOM      7  H   UNL     1       1.122   9.262   2.328  1.00  0.00     0.163 HD
BRANCH   5   8
ATOM      8  C   UNL     1      -0.429   6.269   2.520  1.00  0.00     0.082 C 
ATOM      9  N   UNL     1      -0.161   3.915   0.912  1.00  0.00    -0.342 N 
ATOM     10  C   UNL     1      -1.360   4.721   0.726  1.00  0.00     0.120 C 
ATOM     11  C   UNL     1       0.415   3.886   2.246  1.00  0.00     0.120 C 
ATOM     12  C   UNL     1      -1.142   6.160   1.167  1.00  0.00     0.035 C 
ATOM     13  C   UNL     1       0.731   5.290   2.735  1.00  0.00     0.035 C 
BRANCH   9  14
ATOM     14  C   UNL     1       0.553   3.521  -0.175  1.00  0.00     0.206 A 
ATOM     15  N   UNL     1       0.899   2.188  -0.374  1.00  0.00    -0.310 N 
ATOM     16  C   UNL     1       1.562   2.100  -1.581  1.00  0.00     0.070 A 
ATOM     17  N   UNL     1       0.894   4.255  -1.207  1.00  0.00    -0.213 NA
ATOM     18  C   UNL     1       1.534   3.406  -2.076  1.00  0.00     0.091 A 
ATOM     19  C   UNL     1       2.156   1.059  -2.310  1.00  0.00     0.029 A 
ATOM     20  C   UNL     1       2.109   3.688  -3.330  1.00  0.00     0.034 A 
ATOM     21  C   UNL     1       2.718   1.357  -3.558  1.00  0.00     0.006 A 
ATOM     22  C   UNL     1       2.699   2.653  -4.077  1.00  0.00    -0.049 A 
ATOM     23  C   UNL     1       3.306   2.946  -5.420  1.00  0.00     0.044 C 
BRANCH  15  24
ATOM     24  C   UNL     1       0.449   1.131   0.512  1.00  0.00     0.122 C 
ATOM     25  C   UNL     1       0.787  -0.314   0.197  1.00  0.00     0.028 C 
ENDBRANCH  15  24
ENDBRANCH   9  14
ENDBRANCH   5   8
ENDBRANCH   3   4
ENDBRANCH   2   3
ENDBRANCH   1   2
BRANCH   1  26
ATOM     26  C   UNL     1       3.485  10.245   0.144  1.00  0.00     0.116 C 
BRANCH  26  27
ATOM     27  N   UNL     1       4.327   9.413  -0.691  1.00  0.00    -0.352 N 
ATOM     28  C   UNL     1       5.013   9.598  -1.859  1.00  0.00     0.251 C 
ATOM     29  H   UNL     1       4.428   8.501  -0.335  1.00  0.00     0.163 HD
ATOM     30  O   UNL     1       5.735   8.659  -2.207  1.00  0.00    -0.269 OA
BRANCH  28  31
ATOM     31  C   UNL     1       4.928  10.804  -2.730  1.00  0.00     0.039 A 
ATOM     32  C   UNL     1       4.112  11.910  -2.500  1.00  0.00     0.014 A 
ATOM     33  C   UNL     1       5.704  10.781  -3.906  1.00  0.00     0.014 A 
ATOM     34  C   UNL     1       4.024  12.932  -3.439  1.00  0.00     0.010 A 
ATOM     35  C   UNL     1       5.629  11.809  -4.845  1.00  0.00     0.010 A 
ATOM     36  C   UNL     1       4.759  12.871  -4.626  1.00  0.00    -0.014 A 
BRANCH  36  37
ATOM     37  C   UNL     1       4.583  13.967  -5.574  1.00  0.00     0.031 A 
ATOM     38  C   UNL     1       4.923  15.333  -5.081  1.00  0.00     0.074 A 
ATOM     39  C   UNL     1       4.171  13.808  -6.846  1.00  0.00     0.049 A 
ATOM     40  N   UNL     1       4.116  16.320  -4.853  1.00  0.00    -0.248 NA
ATOM     41  C   UNL     1       6.323  15.607  -4.737  1.00  0.00     0.031 C 
ATOM     42  C   UNL     1       4.055  12.572  -7.622  1.00  0.00     0.029 A 
ATOM     43  N   UNL     1       3.863  14.778  -7.754  1.00  0.00    -0.354 N 
ATOM     44  C   UNL     1       4.923  17.403  -4.505  1.00  0.00     0.074 A 
ATOM     45  C   UNL     1       6.258  16.881  -4.346  1.00  0.00     0.031 C 
ATOM     46  C   UNL     1       3.939  12.885  -8.933  1.00  0.00     0.029 A 
ATOM     47  C   UNL     1       3.821  14.326  -9.065  1.00  0.00     0.049 A 
ATOM     48  H   UNL     1       3.688  15.713  -7.503  1.00  0.00     0.167 HD
ATOM     49  C   UNL     1       4.479  18.690  -4.528  1.00  0.00     0.034 A 
ATOM     50  C   UNL     1       3.764  15.104 -10.171  1.00  0.00     0.034 A 
ATOM     51  C   UNL     1       3.052  18.782  -4.646  1.00  0.00     0.049 A 
ATOM     52  C   UNL     1       3.199  16.411  -9.759  1.00  0.00     0.074 A 
ATOM     53  C   UNL     1       1.968  18.401  -3.883  1.00  0.00     0.029 A 
ATOM     54  N   UNL     1       2.551  19.107  -5.881  1.00  0.00    -0.354 N 
ATOM     55  N   UNL     1       1.972  16.584  -9.355  1.00  0.00    -0.248 NA
ATOM     56  C   UNL     1       4.110  17.510  -9.484  1.00  0.00     0.031 C 
ATOM     57  C   UNL     1       0.950  18.075  -4.827  1.00  0.00     0.029 A 
ATOM     58  C   UNL     1       1.479  18.286  -6.102  1.00  0.00     0.049 A 
ATOM     59  H   UNL     1       2.896  19.798  -6.491  1.00  0.00     0.167 HD
ATOM     60  C   UNL     1       2.050  17.611  -8.425  1.00  0.00     0.074 A 
ATOM     61  C   UNL     1       3.355  18.223  -8.645  1.00  0.00     0.031 C 
ATOM     62  C   UNL     1       1.172  17.688  -7.383  1.00  0.00     0.034 A 
BRANCH  49  63
ATOM     63  C   UNL     1       5.341  19.907  -4.737  1.00  0.00     0.023 A 
ATOM     64  C   UNL     1       4.801  21.169  -4.402  1.00  0.00     0.012 A 
ATOM     65  C   UNL     1       6.531  19.893  -5.497  1.00  0.00     0.148 A 
ATOM     66  C   UNL     1       5.402  22.360  -4.823  1.00  0.00     0.002 A 
ATOM     67  C   UNL     1       7.160  21.081  -5.856  1.00  0.00     0.091 A 
ATOM     68  F   UNL     1       6.988  18.735  -5.987  1.00  0.00    -0.205 F 
ATOM     69  C   UNL     1       6.589  22.316  -5.543  1.00  0.00     0.022 A 
BRANCH  67  70
ATOM     70  S   UNL     1       8.718  21.070  -6.750  1.00  0.00     0.127 S 
ATOM     71  O   UNL     1       8.267  21.327  -8.121  1.00  0.00    -0.237 OA
ATOM     72  O   UNL     1       9.436  22.185  -6.122  1.00  0.00    -0.237 OA
ATOM     73  O   UNL     1       9.296  19.768  -6.491  1.00  0.00    -0.744 OA
ENDBRANCH  67  70
ENDBRANCH  49  63
BRANCH  50  74
ATOM     74  C   UNL     1       4.369  14.901 -11.510  1.00  0.00     0.023 A 
ATOM     75  C   UNL     1       3.948  15.718 -12.580  1.00  0.00     0.012 A 
ATOM     76  C   UNL     1       5.542  14.134 -11.683  1.00  0.00     0.148 A 
ATOM     77  C   UNL     1       4.700  15.813 -13.757  1.00  0.00     0.002 A 
ATOM     78  C   UNL     1       6.278  14.221 -12.862  1.00  0.00     0.091 A 
ATOM     79  F   UNL     1       5.999  13.399 -10.661  1.00  0.00    -0.205 F 
ATOM     80  C   UNL     1       5.870  15.073 -13.895  1.00  0.00     0.022 A 
BRANCH  78  81
ATOM     81  S   UNL     1       7.798  13.290 -13.097  1.00  0.00     0.127 S 
ATOM     82  O   UNL     1       7.702  12.886 -14.501  1.00  0.00    -0.237 OA
ATOM     83  O   UNL     1       8.818  14.296 -12.819  1.00  0.00    -0.237 OA
ATOM     84  O   UNL     1       7.723  12.179 -12.156  1.00  0.00    -0.744 OA
ENDBRANCH  78  81
ENDBRANCH  50  74
BRANCH  62  85
ATOM     85  C   UNL     1      -0.060  16.824  -7.422  1.00  0.00     0.023 A 
ATOM     86  C   UNL     1       0.024  15.420  -7.325  1.00  0.00     0.012 A 
ATOM     87  C   UNL     1      -1.319  17.444  -7.339  1.00  0.00     0.148 A 
ATOM     88  C   UNL     1      -1.128  14.647  -7.160  1.00  0.00     0.002 A 
ATOM     89  C   UNL     1      -2.458  16.675  -7.136  1.00  0.00     0.091 A 
ATOM     90  F   UNL     1      -1.371  18.782  -7.413  1.00  0.00    -0.205 F 
ATOM     91  C   UNL     1      -2.367  15.275  -7.052  1.00  0.00     0.022 A 
BRANCH  89  92
ATOM     92  S   UNL     1      -4.071  17.414  -6.862  1.00  0.00     0.127 S 
ATOM     93  O   UNL     1      -4.803  17.003  -8.058  1.00  0.00    -0.237 OA
ATOM     94  O   UNL     1      -4.504  16.762  -5.625  1.00  0.00    -0.237 OA
ATOM     95  O   UNL     1      -3.845  18.848  -6.736  1.00  0.00    -0.744 OA
ENDBRANCH  89  92
ENDBRANCH  62  85
ENDBRANCH  36  37
ENDBRANCH  28  31
ENDBRANCH  26  27
ENDBRANCH   1  26
TORSDOF 16
