REMARK SMILES C[C@@H](C(=O)NCCCCNC(=O)c1ccc(-c2c3nc(c(-c4cccc(S(=O)(=O)[O-])c4F)c4ccc([nH]4)c(-c4cccc(S(=O)(=O)[O-])c4F)c4nc(c(-c5cccc(S(=O)(=O)[O-])c5F)c5ccc2[nH]5)C=C4)C=C3)cc1)[C@@H](C)C(=O)c1ccc(Br)cc1
REMARK SMILES IDX 7 1 6 2 5 3 3 4 4 5 2 7 1 8 76 9 77 10 78 11 79 12 80 13
REMARK SMILES IDX 81 14 86 15 82 16 85 17 83 18 84 19 8 20 9 21 10 22 11 23
REMARK SMILES IDX 12 25 13 26 14 27 75 28 15 29 74 30 16 31 17 32 18 33 68 34
REMARK SMILES IDX 19 35 73 36 67 37 69 38 20 39 72 40 66 41 65 42 21 44 53 45
REMARK SMILES IDX 33 46 52 47 34 48 37 49 51 50 70 51 35 52 36 53 50 55 71 56
REMARK SMILES IDX 38 57 22 58 23 59 31 60 24 61 26 62 32 63 25 64 27 65 28 66
REMARK SMILES IDX 29 67 30 68 54 69 55 70 63 71 56 72 58 73 64 74 57 75 59 76
REMARK SMILES IDX 60 77 61 78 62 79 39 80 40 81 48 82 41 83 43 84 49 85 42 86
REMARK SMILES IDX 44 87 45 88 46 89 47 90
REMARK H PARENT 5 6 10 24 69 43 37 54
REMARK Flexibility Score: inf
ROOT
ATOM      1  C   UNL     1       4.275   0.803   0.976  1.00  0.00     0.023 C 
ENDROOT
BRANCH   1   2
ATOM      2  C   UNL     1       3.459  -0.291   1.665  1.00  0.00     0.116 C 
BRANCH   2   3
ATOM      3  N   UNL     1       2.392   0.274   2.467  1.00  0.00    -0.356 N 
ATOM      4  C   UNL     1       1.055   0.348   2.222  1.00  0.00     0.223 C 
ATOM      5  O   UNL     1       0.365   1.004   2.999  1.00  0.00    -0.275 OA
ATOM      6  H   UNL     1       2.679   0.664   3.324  1.00  0.00     0.163 HD
BRANCH   4   7
ATOM      7  C   UNL     1       0.459  -0.385   1.021  1.00  0.00     0.086 C 
ATOM      8  C   UNL     1       0.724   0.431  -0.251  1.00  0.00     0.019 C 
BRANCH   7   9
ATOM      9  C   UNL     1      -1.053  -0.640   1.217  1.00  0.00     0.070 C 
ATOM     10  C   UNL     1      -1.656  -1.509   0.109  1.00  0.00     0.017 C 
BRANCH   9  11
ATOM     11  C   UNL     1      -1.520  -1.200   2.572  1.00  0.00     0.166 C 
ATOM     12  O   UNL     1      -2.434  -0.645   3.187  1.00  0.00    -0.294 OA
BRANCH  11  13
ATOM     13  C   UNL     1      -1.085  -2.541   3.070  1.00  0.00     0.018 A 
ATOM     14  C   UNL     1      -2.079  -3.361   3.630  1.00  0.00     0.013 A 
ATOM     15  C   UNL     1       0.233  -3.005   3.037  1.00  0.00     0.013 A 
ATOM     16  C   UNL     1      -1.769  -4.635   4.113  1.00  0.00     0.016 A 
ATOM     17  C   UNL     1       0.544  -4.285   3.515  1.00  0.00     0.016 A 
ATOM     18  C   UNL     1      -0.458  -5.095   4.044  1.00  0.00     0.018 A 
ATOM     19  Br  UNL     1      -0.032  -6.821   4.685  1.00  0.00    -0.051 Br
ENDBRANCH  11  13
ENDBRANCH   9  11
ENDBRANCH   7   9
ENDBRANCH   4   7
ENDBRANCH   2   3
ENDBRANCH   1   2
BRANCH   1  20
ATOM     20  C   UNL     1       5.055   1.715   1.925  1.00  0.00     0.023 C 
BRANCH  20  21
ATOM     21  C   UNL     1       6.030   1.002   2.850  1.00  0.00     0.116 C 
BRANCH  21  22
ATOM     22  N   UNL     1       7.011   0.208   2.127  1.00  0.00    -0.352 N 
ATOM     23  C   UNL     1       8.364   0.109   2.328  1.00  0.00     0.251 C 
ATOM     24  H   UNL     1       6.653  -0.335   1.387  1.00  0.00     0.163 HD
ATOM     25  O   UNL     1       9.054  -0.500   1.511  1.00  0.00    -0.269 OA
BRANCH  23  26
ATOM     26  C   UNL     1       8.991   0.745   3.507  1.00  0.00     0.039 A 
ATOM     27  C   UNL     1      10.215   1.399   3.347  1.00  0.00     0.014 A 
ATOM     28  C   UNL     1       8.390   0.684   4.767  1.00  0.00     0.014 A 
ATOM     29  C   UNL     1      10.818   2.018   4.444  1.00  0.00     0.010 A 
ATOM     30  C   UNL     1       8.946   1.378   5.837  1.00  0.00     0.010 A 
ATOM     31  C   UNL     1      10.181   2.027   5.696  1.00  0.00    -0.014 A 
BRANCH  31  32
ATOM     32  C   UNL     1      10.814   2.678   6.871  1.00  0.00     0.031 A 
ATOM     33  C   UNL     1      11.196   1.858   8.077  1.00  0.00     0.074 A 
ATOM     34  C   UNL     1      11.000   4.013   6.878  1.00  0.00     0.049 A 
ATOM     35  N   UNL     1      11.768   2.244   9.188  1.00  0.00    -0.248 NA
ATOM     36  C   UNL     1      10.867   0.423   8.044  1.00  0.00     0.031 C 
ATOM     37  C   UNL     1      10.601   4.928   5.807  1.00  0.00     0.029 A 
ATOM     38  N   UNL     1      11.562   4.833   7.823  1.00  0.00    -0.354 N 
ATOM     39  C   UNL     1      11.831   1.114   9.996  1.00  0.00     0.074 A 
ATOM     40  C   UNL     1      11.202   0.037   9.266  1.00  0.00     0.031 C 
ATOM     41  C   UNL     1      10.950   6.180   6.145  1.00  0.00     0.029 A 
ATOM     42  C   UNL     1      11.572   6.162   7.465  1.00  0.00     0.049 A 
ATOM     43  H   UNL     1      11.923   4.503   8.677  1.00  0.00     0.167 HD
ATOM     44  C   UNL     1      12.387   0.976  11.223  1.00  0.00     0.034 A 
ATOM     45  C   UNL     1      12.037   7.241   8.124  1.00  0.00     0.034 A 
ATOM     46  C   UNL     1      13.051   2.038  11.927  1.00  0.00     0.049 A 
ATOM     47  C   UNL     1      12.695   7.050   9.465  1.00  0.00     0.074 A 
ATOM     48  C   UNL     1      13.732   1.980  13.130  1.00  0.00     0.029 A 
ATOM     49  N   UNL     1      13.108   3.356  11.499  1.00  0.00    -0.354 N 
ATOM     50  N   UNL     1      12.894   5.943  10.138  1.00  0.00    -0.248 NA
ATOM     51  C   UNL     1      13.232   8.254  10.116  1.00  0.00     0.031 C 
ATOM     52  C   UNL     1      14.170   3.270  13.447  1.00  0.00     0.029 A 
ATOM     53  C   UNL     1      13.801   4.123  12.419  1.00  0.00     0.049 A 
ATOM     54  H   UNL     1      12.713   3.695  10.664  1.00  0.00     0.167 HD
ATOM     55  C   UNL     1      13.619   6.309  11.267  1.00  0.00     0.074 A 
ATOM     56  C   UNL     1      13.839   7.738  11.175  1.00  0.00     0.031 C 
ATOM     57  C   UNL     1      14.058   5.534  12.290  1.00  0.00     0.034 A 
BRANCH  44  58
ATOM     58  C   UNL     1      12.334  -0.386  11.868  1.00  0.00     0.023 A 
ATOM     59  C   UNL     1      13.100  -1.446  11.339  1.00  0.00     0.012 A 
ATOM     60  C   UNL     1      11.565  -0.605  13.028  1.00  0.00     0.148 A 
ATOM     61  C   UNL     1      13.069  -2.710  11.927  1.00  0.00     0.002 A 
ATOM     62  C   UNL     1      11.580  -1.853  13.639  1.00  0.00     0.091 A 
ATOM     63  F   UNL     1      10.826   0.407  13.506  1.00  0.00    -0.205 F 
ATOM     64  C   UNL     1      12.319  -2.910  13.082  1.00  0.00     0.022 A 
BRANCH  62  65
ATOM     65  S   UNL     1      10.716  -2.189  15.177  1.00  0.00     0.127 S 
ATOM     66  O   UNL     1       9.641  -3.071  14.725  1.00  0.00    -0.237 OA
ATOM     67  O   UNL     1      11.752  -2.850  15.972  1.00  0.00    -0.237 OA
ATOM     68  O   UNL     1      10.289  -0.895  15.690  1.00  0.00    -0.744 OA
ENDBRANCH  62  65
ENDBRANCH  44  58
BRANCH  45  69
ATOM     69  C   UNL     1      11.971   8.590   7.493  1.00  0.00     0.023 A 
ATOM     70  C   UNL     1      13.163   9.217   7.078  1.00  0.00     0.012 A 
ATOM     71  C   UNL     1      10.743   9.246   7.290  1.00  0.00     0.148 A 
ATOM     72  C   UNL     1      13.136  10.491   6.509  1.00  0.00     0.002 A 
ATOM     73  C   UNL     1      10.718  10.491   6.671  1.00  0.00     0.091 A 
ATOM     74  F   UNL     1       9.622   8.635   7.697  1.00  0.00    -0.205 F 
ATOM     75  C   UNL     1      11.915  11.124   6.298  1.00  0.00     0.022 A 
BRANCH  73  76
ATOM     76  S   UNL     1       9.187  11.326   6.243  1.00  0.00     0.127 S 
ATOM     77  O   UNL     1       9.206  12.469   7.151  1.00  0.00    -0.237 OA
ATOM     78  O   UNL     1       9.408  11.653   4.834  1.00  0.00    -0.237 OA
ATOM     79  O   UNL     1       8.129  10.352   6.475  1.00  0.00    -0.744 OA
ENDBRANCH  73  76
ENDBRANCH  45  69
BRANCH  57  80
ATOM     80  C   UNL     1      14.873   6.199  13.370  1.00  0.00     0.023 A 
ATOM     81  C   UNL     1      14.264   7.095  14.271  1.00  0.00     0.012 A 
ATOM     82  C   UNL     1      16.238   5.886  13.524  1.00  0.00     0.148 A 
ATOM     83  C   UNL     1      15.011   7.703  15.279  1.00  0.00     0.002 A 
ATOM     84  C   UNL     1      16.963   6.452  14.566  1.00  0.00     0.091 A 
ATOM     85  F   UNL     1      16.806   5.045  12.647  1.00  0.00    -0.205 F 
ATOM     86  C   UNL     1      16.355   7.373  15.434  1.00  0.00     0.022 A 
BRANCH  84  87
ATOM     87  S   UNL     1      18.669   6.003  14.902  1.00  0.00     0.127 S 
ATOM     88  O   UNL     1      19.386   7.190  14.438  1.00  0.00    -0.237 OA
ATOM     89  O   UNL     1      18.663   5.822  16.354  1.00  0.00    -0.237 OA
ATOM     90  O   UNL     1      18.919   4.784  14.145  1.00  0.00    -0.744 OA
ENDBRANCH  84  87
ENDBRANCH  57  80
ENDBRANCH  31  32
ENDBRANCH  23  26
ENDBRANCH  21  22
ENDBRANCH  20  21
ENDBRANCH   1  20
TORSDOF 17
