REMARK SMILES CC(=O)Nc1cccc(-c2ccc(F)c(C(=O)NCCCCNC(=O)c3ccc(-c4c5nc(c(-c6cccc(S(=O)(=O)[O-])c6F)c6ccc([nH]6)c(-c6cccc(S(=O)(=O)[O-])c6F)c6nc(c(-c7cccc(S(=O)(=O)[O-])c7F)c7ccc4[nH]7)C=C6)C=C5)cc3)c2)c1
REMARK SMILES IDX 21 1 20 2 19 3 18 4 16 5 17 6 15 8 10 9 11 10 89 11 12 12
REMARK SMILES IDX 13 13 14 14 9 15 5 16 6 17 90 18 7 19 8 20 4 21 1 22 2 23
REMARK SMILES IDX 3 24 22 26 23 27 24 28 25 30 26 31 27 32 88 33 28 34 87 35
REMARK SMILES IDX 29 36 30 37 31 38 81 39 32 40 86 41 80 42 82 43 33 44 85 45
REMARK SMILES IDX 79 46 78 47 34 49 66 50 46 51 65 52 47 53 50 54 64 55 83 56
REMARK SMILES IDX 48 57 49 58 63 60 84 61 51 62 35 63 36 64 44 65 37 66 39 67
REMARK SMILES IDX 45 68 38 69 40 70 41 71 42 72 43 73 67 74 68 75 76 76 69 77
REMARK SMILES IDX 71 78 77 79 70 80 72 81 73 82 74 83 75 84 52 85 53 86 61 87
REMARK SMILES IDX 54 88 56 89 62 90 55 91 57 92 58 93 59 94 60 95
REMARK H PARENT 18 7 4 25 23 29 82 48 50 59
REMARK Flexibility Score: inf
ROOT
ATOM      1  C   UNL     1       7.814  -1.250   5.031  1.00  0.00     0.023 C 
ENDROOT
BRANCH   1   2
ATOM      2  C   UNL     1       7.036  -2.123   4.057  1.00  0.00     0.023 C 
BRANCH   2   3
ATOM      3  C   UNL     1       6.556  -1.462   2.772  1.00  0.00     0.116 C 
BRANCH   3   4
ATOM      4  N   UNL     1       7.607  -0.976   1.889  1.00  0.00    -0.352 N 
ATOM      5  C   UNL     1       7.769  -1.069   0.518  1.00  0.00     0.254 C 
ATOM      6  O   UNL     1       8.723  -0.499  -0.003  1.00  0.00    -0.269 OA
ATOM      7  H   UNL     1       8.332  -0.494   2.349  1.00  0.00     0.163 HD
BRANCH   5   8
ATOM      8  C   UNL     1       6.838  -1.858  -0.327  1.00  0.00     0.076 A 
ATOM      9  C   UNL     1       4.641  -2.884  -0.632  1.00  0.00    -0.017 A 
ATOM     10  C   UNL     1       5.160  -3.643  -1.690  1.00  0.00     0.012 A 
ATOM     11  C   UNL     1       5.471  -1.909  -0.051  1.00  0.00     0.025 A 
ATOM     12  C   UNL     1       6.489  -3.482  -2.090  1.00  0.00     0.041 A 
ATOM     13  C   UNL     1       7.331  -2.621  -1.384  1.00  0.00     0.135 A 
ATOM     14  F   UNL     1       8.626  -2.592  -1.727  1.00  0.00    -0.206 F 
BRANCH   9  15
ATOM     15  C   UNL     1       3.353  -3.198   0.018  1.00  0.00    -0.016 A 
ATOM     16  C   UNL     1       1.384  -2.451   1.267  1.00  0.00     0.041 A 
ATOM     17  C   UNL     1       1.167  -3.765   1.692  1.00  0.00     0.026 A 
ATOM     18  C   UNL     1       2.477  -2.180   0.440  1.00  0.00     0.034 A 
ATOM     19  C   UNL     1       1.988  -4.799   1.246  1.00  0.00     0.003 A 
ATOM     20  C   UNL     1       3.070  -4.517   0.413  1.00  0.00     0.009 A 
BRANCH  16  21
ATOM     21  N   UNL     1       0.527  -1.466   1.784  1.00  0.00    -0.326 N 
ATOM     22  C   UNL     1       0.664   0.295   0.022  1.00  0.00     0.114 C 
ATOM     23  C   UNL     1       0.236  -0.197   1.375  1.00  0.00     0.221 C 
ATOM     24  O   UNL     1      -0.444   0.519   2.114  1.00  0.00    -0.275 OA
ATOM     25  H   UNL     1       0.044  -1.744   2.595  1.00  0.00     0.169 HD
ENDBRANCH  16  21
ENDBRANCH   9  15
ENDBRANCH   5   8
ENDBRANCH   3   4
ENDBRANCH   2   3
ENDBRANCH   1   2
BRANCH   1  26
ATOM     26  C   UNL     1       7.180   0.085   5.403  1.00  0.00     0.116 C 
BRANCH  26  27
ATOM     27  N   UNL     1       5.837  -0.025   5.955  1.00  0.00    -0.352 N 
ATOM     28  C   UNL     1       5.306   0.544   7.092  1.00  0.00     0.251 C 
ATOM     29  H   UNL     1       5.217  -0.590   5.440  1.00  0.00     0.163 HD
ATOM     30  O   UNL     1       4.159   0.275   7.428  1.00  0.00    -0.269 OA
BRANCH  28  31
ATOM     31  C   UNL     1       6.133   1.446   7.929  1.00  0.00     0.039 A 
ATOM     32  C   UNL     1       6.134   1.266   9.316  1.00  0.00     0.014 A 
ATOM     33  C   UNL     1       6.923   2.443   7.355  1.00  0.00     0.014 A 
ATOM     34  C   UNL     1       6.990   2.029  10.115  1.00  0.00     0.010 A 
ATOM     35  C   UNL     1       7.835   3.141   8.140  1.00  0.00     0.010 A 
ATOM     36  C   UNL     1       7.879   2.945   9.529  1.00  0.00    -0.014 A 
BRANCH  36  37
ATOM     37  C   UNL     1       8.858   3.712  10.344  1.00  0.00     0.031 A 
ATOM     38  C   UNL     1       8.790   5.216  10.383  1.00  0.00     0.074 A 
ATOM     39  C   UNL     1       9.862   3.067  10.972  1.00  0.00     0.049 A 
ATOM     40  N   UNL     1       9.596   6.065  10.968  1.00  0.00    -0.248 NA
ATOM     41  C   UNL     1       7.690   5.853   9.639  1.00  0.00     0.031 C 
ATOM     42  C   UNL     1      10.089   1.620  10.946  1.00  0.00     0.029 A 
ATOM     43  N   UNL     1      10.896   3.548  11.736  1.00  0.00    -0.354 N 
ATOM     44  C   UNL     1       9.126   7.329  10.633  1.00  0.00     0.074 A 
ATOM     45  C   UNL     1       7.989   7.138   9.759  1.00  0.00     0.031 C 
ATOM     46  C   UNL     1      11.185   1.332  11.667  1.00  0.00     0.029 A 
ATOM     47  C   UNL     1      11.753   2.571  12.188  1.00  0.00     0.049 A 
ATOM     48  H   UNL     1      11.014   4.504  11.941  1.00  0.00     0.167 HD
ATOM     49  C   UNL     1       9.572   8.540  11.043  1.00  0.00     0.034 A 
ATOM     50  C   UNL     1      12.867   2.663  12.941  1.00  0.00     0.034 A 
ATOM     51  C   UNL     1      10.664   8.726  11.959  1.00  0.00     0.049 A 
ATOM     52  C   UNL     1      13.302   4.017  13.438  1.00  0.00     0.074 A 
ATOM     53  C   UNL     1      11.151   9.907  12.491  1.00  0.00     0.029 A 
ATOM     54  N   UNL     1      11.433   7.702  12.488  1.00  0.00    -0.354 N 
ATOM     55  N   UNL     1      12.754   5.189  13.228  1.00  0.00    -0.248 NA
ATOM     56  C   UNL     1      14.482   4.056  14.315  1.00  0.00     0.031 C 
ATOM     57  C   UNL     1      12.216   9.595  13.344  1.00  0.00     0.029 A 
ATOM     58  C   UNL     1      12.383   8.220  13.351  1.00  0.00     0.049 A 
ATOM     59  H   UNL     1      11.320   6.746  12.281  1.00  0.00     0.167 HD
ATOM     60  C   UNL     1      13.491   6.095  13.981  1.00  0.00     0.074 A 
ATOM     61  C   UNL     1      14.515   5.334  14.666  1.00  0.00     0.031 C 
ATOM     62  C   UNL     1      13.344   7.439  14.085  1.00  0.00     0.034 A 
BRANCH  49  63
ATOM     63  C   UNL     1       8.824   9.757  10.563  1.00  0.00     0.023 A 
ATOM     64  C   UNL     1       7.534  10.017  11.072  1.00  0.00     0.012 A 
ATOM     65  C   UNL     1       9.402  10.663   9.654  1.00  0.00     0.148 A 
ATOM     66  C   UNL     1       6.816  11.136  10.655  1.00  0.00     0.002 A 
ATOM     67  C   UNL     1       8.698  11.801   9.277  1.00  0.00     0.091 A 
ATOM     68  F   UNL     1      10.620  10.390   9.164  1.00  0.00    -0.205 F 
ATOM     69  C   UNL     1       7.402  12.033   9.766  1.00  0.00     0.022 A 
BRANCH  67  70
ATOM     70  S   UNL     1       9.395  13.058   8.198  1.00  0.00     0.127 S 
ATOM     71  O   UNL     1       8.651  12.830   6.960  1.00  0.00    -0.237 OA
ATOM     72  O   UNL     1       9.047  14.295   8.898  1.00  0.00    -0.237 OA
ATOM     73  O   UNL     1      10.823  12.781   8.132  1.00  0.00    -0.744 OA
ENDBRANCH  67  70
ENDBRANCH  49  63
BRANCH  50  74
ATOM     74  C   UNL     1      13.596   1.430  13.358  1.00  0.00     0.023 A 
ATOM     75  C   UNL     1      13.539   1.026  14.707  1.00  0.00     0.012 A 
ATOM     76  C   UNL     1      14.326   0.653  12.440  1.00  0.00     0.148 A 
ATOM     77  C   UNL     1      14.227  -0.107  15.142  1.00  0.00     0.002 A 
ATOM     78  C   UNL     1      14.967  -0.505  12.870  1.00  0.00     0.091 A 
ATOM     79  F   UNL     1      14.382   1.058  11.164  1.00  0.00    -0.205 F 
ATOM     80  C   UNL     1      14.933  -0.877  14.223  1.00  0.00     0.022 A 
BRANCH  78  81
ATOM     81  S   UNL     1      15.792  -1.623  11.731  1.00  0.00     0.127 S 
ATOM     82  O   UNL     1      17.199  -1.323  11.983  1.00  0.00    -0.237 OA
ATOM     83  O   UNL     1      15.346  -2.933  12.209  1.00  0.00    -0.237 OA
ATOM     84  O   UNL     1      15.290  -1.269  10.410  1.00  0.00    -0.744 OA
ENDBRANCH  78  81
ENDBRANCH  50  74
BRANCH  62  85
ATOM     85  C   UNL     1      14.272   8.175  15.015  1.00  0.00     0.023 A 
ATOM     86  C   UNL     1      15.617   8.375  14.651  1.00  0.00     0.012 A 
ATOM     87  C   UNL     1      13.789   8.731  16.216  1.00  0.00     0.148 A 
ATOM     88  C   UNL     1      16.477   9.091  15.483  1.00  0.00     0.002 A 
ATOM     89  C   UNL     1      14.640   9.483  17.018  1.00  0.00     0.091 A 
ATOM     90  F   UNL     1      12.511   8.511  16.558  1.00  0.00    -0.205 F 
ATOM     91  C   UNL     1      15.986   9.655  16.659  1.00  0.00     0.022 A 
BRANCH  89  92
ATOM     92  S   UNL     1      14.062  10.321  18.499  1.00  0.00     0.127 S 
ATOM     93  O   UNL     1      14.546   9.432  19.553  1.00  0.00    -0.237 OA
ATOM     94  O   UNL     1      14.755  11.608  18.422  1.00  0.00    -0.237 OA
ATOM     95  O   UNL     1      12.615  10.411  18.363  1.00  0.00    -0.744 OA
ENDBRANCH  89  92
ENDBRANCH  62  85
ENDBRANCH  36  37
ENDBRANCH  28  31
ENDBRANCH  26  27
ENDBRANCH   1  26
TORSDOF 16
