REMARK SMILES Cc1ccc(-c2nc(NC(=O)[C@H]3[C@@H](C(=O)NCCCCNC(=O)c4ccc(-c5c6nc(c(-c7cccc(S(=O)(=O)[O-])c7F)c7ccc([nH]7)c(-c7cccc(S(=O)(=O)[O-])c7F)c7nc(c(-c8cccc(S(=O)(=O)[O-])c8F)c8ccc5[nH]8)C=C7)C=C6)cc4)[C@@H]4CC[C@H]3O4)sc2C)cc1
REMARK SMILES IDX 18 1 17 2 16 3 14 4 15 5 13 7 12 8 90 9 87 10 89 11 91 12
REMARK SMILES IDX 88 13 10 14 9 15 11 17 8 18 6 19 7 20 93 21 92 22 94 23 5 24
REMARK SMILES IDX 1 25 2 26 3 27 96 28 4 29 95 30 19 31 20 32 21 33 22 34
REMARK SMILES IDX 23 36 24 37 25 38 86 39 26 40 85 41 27 42 28 43 29 44 79 45
REMARK SMILES IDX 30 46 84 47 78 48 80 49 31 50 83 51 77 52 76 53 32 55 64 56
REMARK SMILES IDX 44 57 63 58 45 59 48 60 62 61 81 62 46 63 47 64 61 66 82 67
REMARK SMILES IDX 49 68 33 69 34 70 42 71 35 72 37 73 43 74 36 75 38 76 39 77
REMARK SMILES IDX 40 78 41 79 65 80 66 81 74 82 67 83 69 84 75 85 68 86 70 87
REMARK SMILES IDX 71 88 72 89 73 90 50 91 51 92 59 93 52 94 54 95 60 96 53 97
REMARK SMILES IDX 55 98 56 99 57 100 58 101
REMARK H PARENT 16 6 9 16 21 35 80 54 48 65
REMARK Flexibility Score: inf
ROOT
ATOM      1  C   UNL     1      -5.696  -0.870   0.194  1.00  0.00     0.023 C 
ENDROOT
BRANCH   1   2
ATOM      2  C   UNL     1      -6.402  -0.581   1.522  1.00  0.00     0.116 C 
BRANCH   2   3
ATOM      3  N   UNL     1      -7.329   0.536   1.618  1.00  0.00    -0.356 N 
ATOM      4  C   UNL     1      -8.695   0.466   1.513  1.00  0.00     0.226 C 
ATOM      5  O   UNL     1      -9.409   0.899   2.418  1.00  0.00    -0.275 OA
ATOM      6  H   UNL     1      -6.939   1.427   1.772  1.00  0.00     0.163 HD
BRANCH   4   7
ATOM      7  C   UNL     1      -9.278  -0.188   0.301  1.00  0.00     0.122 C 
ATOM      8  C   UNL     1      -8.738  -0.034  -1.120  1.00  0.00     0.123 C 
ATOM      9  C   UNL     1      -9.992  -0.533  -1.874  1.00  0.00     0.132 C 
ATOM     10  C   UNL     1     -10.813  -0.033   0.071  1.00  0.00     0.132 C 
ATOM     11  C   UNL     1     -10.556  -1.885  -1.334  1.00  0.00     0.035 C 
ATOM     12  O   UNL     1     -10.925   0.414  -1.315  1.00  0.00    -0.373 OA
ATOM     13  C   UNL     1     -11.399  -1.426  -0.130  1.00  0.00     0.035 C 
BRANCH   8  14
ATOM     14  C   UNL     1      -8.135   1.140  -1.970  1.00  0.00     0.232 C 
ATOM     15  N   UNL     1      -7.994   2.485  -1.865  1.00  0.00    -0.302 N 
ATOM     16  H   UNL     1      -7.605   2.857  -2.689  1.00  0.00     0.172 HD
ATOM     17  O   UNL     1      -7.668   0.737  -3.065  1.00  0.00    -0.274 OA
BRANCH  15  18
ATOM     18  C   UNL     1      -8.231   3.478  -0.953  1.00  0.00     0.190 A 
ATOM     19  C   UNL     1      -8.475   5.480   0.034  1.00  0.00     0.086 A 
ATOM     20  N   UNL     1      -7.989   4.774  -1.101  1.00  0.00    -0.220 NA
ATOM     21  C   UNL     1      -9.236   4.678   0.870  1.00  0.00     0.031 A 
ATOM     22  S   UNL     1      -8.885   3.079   0.509  1.00  0.00    -0.101 S 
ATOM     23  C   UNL     1     -10.204   4.892   1.971  1.00  0.00     0.059 C 
BRANCH  19  24
ATOM     24  C   UNL     1      -8.261   6.907   0.320  1.00  0.00     0.001 A 
ATOM     25  C   UNL     1      -7.946  11.103   1.400  1.00  0.00     0.044 C 
ATOM     26  C   UNL     1      -8.030   9.653   1.019  1.00  0.00    -0.051 A 
ATOM     27  C   UNL     1      -8.004   9.241  -0.323  1.00  0.00     0.004 A 
ATOM     28  C   UNL     1      -8.107   8.681   2.012  1.00  0.00     0.004 A 
ATOM     29  C   UNL     1      -8.121   7.879  -0.672  1.00  0.00     0.010 A 
ATOM     30  C   UNL     1      -8.195   7.334   1.663  1.00  0.00     0.010 A 
ENDBRANCH  19  24
ENDBRANCH  15  18
ENDBRANCH   8  14
ENDBRANCH   4   7
ENDBRANCH   2   3
ENDBRANCH   1   2
BRANCH   1  31
ATOM     31  C   UNL     1      -5.112   0.308  -0.575  1.00  0.00     0.023 C 
BRANCH  31  32
ATOM     32  C   UNL     1      -3.889   0.918   0.075  1.00  0.00     0.116 C 
BRANCH  32  33
ATOM     33  N   UNL     1      -2.713   0.068  -0.015  1.00  0.00    -0.352 N 
ATOM     34  C   UNL     1      -1.396   0.310   0.368  1.00  0.00     0.251 C 
ATOM     35  H   UNL     1      -2.873  -0.819  -0.410  1.00  0.00     0.163 HD
ATOM     36  O   UNL     1      -0.521  -0.412  -0.018  1.00  0.00    -0.269 OA
BRANCH  34  37
ATOM     37  C   UNL     1      -1.155   1.363   1.395  1.00  0.00     0.039 A 
ATOM     38  C   UNL     1      -0.417   0.975   2.520  1.00  0.00     0.014 A 
ATOM     39  C   UNL     1      -1.920   2.520   1.416  1.00  0.00     0.014 A 
ATOM     40  C   UNL     1      -0.679   1.579   3.744  1.00  0.00     0.010 A 
ATOM     41  C   UNL     1      -2.289   3.023   2.637  1.00  0.00     0.010 A 
ATOM     42  C   UNL     1      -1.705   2.513   3.802  1.00  0.00    -0.014 A 
BRANCH  42  43
ATOM     43  C   UNL     1      -2.205   3.121   5.016  1.00  0.00     0.031 A 
ATOM     44  C   UNL     1      -1.644   4.422   5.410  1.00  0.00     0.074 A 
ATOM     45  C   UNL     1      -3.304   2.613   5.612  1.00  0.00     0.049 A 
ATOM     46  N   UNL     1      -1.788   4.944   6.575  1.00  0.00    -0.248 NA
ATOM     47  C   UNL     1      -0.860   5.240   4.490  1.00  0.00     0.031 C 
ATOM     48  C   UNL     1      -4.180   3.283   6.564  1.00  0.00     0.029 A 
ATOM     49  N   UNL     1      -3.736   1.284   5.627  1.00  0.00    -0.354 N 
ATOM     50  C   UNL     1      -1.368   6.252   6.485  1.00  0.00     0.074 A 
ATOM     51  C   UNL     1      -0.744   6.370   5.189  1.00  0.00     0.031 C 
ATOM     52  C   UNL     1      -4.831   2.350   7.277  1.00  0.00     0.029 A 
ATOM     53  C   UNL     1      -4.257   1.064   6.917  1.00  0.00     0.049 A 
ATOM     54  H   UNL     1      -3.686   0.635   4.888  1.00  0.00     0.167 HD
ATOM     55  C   UNL     1      -1.736   7.127   7.459  1.00  0.00     0.034 A 
ATOM     56  C   UNL     1      -3.712   0.166   7.791  1.00  0.00     0.034 A 
ATOM     57  C   UNL     1      -2.493   6.446   8.518  1.00  0.00     0.049 A 
ATOM     58  C   UNL     1      -3.172   0.816   9.062  1.00  0.00     0.074 A 
ATOM     59  C   UNL     1      -3.840   6.266   8.784  1.00  0.00     0.029 A 
ATOM     60  N   UNL     1      -1.826   5.531   9.310  1.00  0.00    -0.354 N 
ATOM     61  N   UNL     1      -3.245   2.090   9.338  1.00  0.00    -0.248 NA
ATOM     62  C   UNL     1      -2.423   0.076  10.079  1.00  0.00     0.031 C 
ATOM     63  C   UNL     1      -3.967   5.189   9.714  1.00  0.00     0.029 A 
ATOM     64  C   UNL     1      -2.699   4.732  10.027  1.00  0.00     0.049 A 
ATOM     65  H   UNL     1      -0.845   5.456   9.358  1.00  0.00     0.167 HD
ATOM     66  C   UNL     1      -2.443   2.371  10.417  1.00  0.00     0.074 A 
ATOM     67  C   UNL     1      -1.986   1.069  10.872  1.00  0.00     0.031 C 
ATOM     68  C   UNL     1      -2.151   3.644  10.828  1.00  0.00     0.034 A 
BRANCH  55  69
ATOM     69  C   UNL     1      -1.670   8.629   7.307  1.00  0.00     0.023 A 
ATOM     70  C   UNL     1      -2.630   9.385   8.014  1.00  0.00     0.012 A 
ATOM     71  C   UNL     1      -0.782   9.358   6.482  1.00  0.00     0.148 A 
ATOM     72  C   UNL     1      -2.776  10.762   7.840  1.00  0.00     0.002 A 
ATOM     73  C   UNL     1      -0.977  10.722   6.247  1.00  0.00     0.091 A 
ATOM     74  F   UNL     1       0.304   8.758   5.981  1.00  0.00    -0.205 F 
ATOM     75  C   UNL     1      -1.975  11.426   6.926  1.00  0.00     0.022 A 
BRANCH  73  76
ATOM     76  S   UNL     1      -0.057  11.630   4.992  1.00  0.00     0.127 S 
ATOM     77  O   UNL     1      -1.122  12.352   4.290  1.00  0.00    -0.237 OA
ATOM     78  O   UNL     1       0.821  12.478   5.794  1.00  0.00    -0.237 OA
ATOM     79  O   UNL     1       0.605  10.620   4.175  1.00  0.00    -0.744 OA
ENDBRANCH  73  76
ENDBRANCH  55  69
BRANCH  56  80
ATOM     80  C   UNL     1      -3.112  -1.019   7.105  1.00  0.00     0.023 A 
ATOM     81  C   UNL     1      -3.993  -1.831   6.348  1.00  0.00     0.012 A 
ATOM     82  C   UNL     1      -1.731  -1.106   6.859  1.00  0.00     0.148 A 
ATOM     83  C   UNL     1      -3.524  -2.589   5.274  1.00  0.00     0.002 A 
ATOM     84  C   UNL     1      -1.270  -1.878   5.795  1.00  0.00     0.091 A 
ATOM     85  F   UNL     1      -0.898  -0.371   7.605  1.00  0.00    -0.205 F 
ATOM     86  C   UNL     1      -2.167  -2.581   4.975  1.00  0.00     0.022 A 
BRANCH  84  87
ATOM     87  S   UNL     1       0.468  -1.912   5.342  1.00  0.00     0.127 S 
ATOM     88  O   UNL     1       0.913  -3.136   6.001  1.00  0.00    -0.237 OA
ATOM     89  O   UNL     1       0.407  -1.984   3.883  1.00  0.00    -0.237 OA
ATOM     90  O   UNL     1       1.013  -0.665   5.857  1.00  0.00    -0.744 OA
ENDBRANCH  84  87
ENDBRANCH  56  80
BRANCH  68  91
ATOM     91  C   UNL     1      -1.318   3.957  12.056  1.00  0.00     0.023 A 
ATOM     92  C   UNL     1      -1.482   3.203  13.236  1.00  0.00     0.012 A 
ATOM     93  C   UNL     1      -0.474   5.094  12.136  1.00  0.00     0.148 A 
ATOM     94  C   UNL     1      -0.805   3.528  14.417  1.00  0.00     0.002 A 
ATOM     95  C   UNL     1       0.105   5.478  13.341  1.00  0.00     0.091 A 
ATOM     96  F   UNL     1      -0.179   5.785  11.029  1.00  0.00    -0.205 F 
ATOM     97  C   UNL     1      -0.031   4.679  14.477  1.00  0.00     0.022 A 
BRANCH  95  98
ATOM     98  S   UNL     1       0.930   7.065  13.546  1.00  0.00     0.127 S 
ATOM     99  O   UNL     1       0.296   7.576  14.763  1.00  0.00    -0.237 OA
ATOM    100  O   UNL     1       2.324   6.660  13.709  1.00  0.00    -0.237 OA
ATOM    101  O   UNL     1       0.624   7.831  12.346  1.00  0.00    -0.744 OA
ENDBRANCH  95  98
ENDBRANCH  68  91
ENDBRANCH  42  43
ENDBRANCH  34  37
ENDBRANCH  32  33
ENDBRANCH  31  32
ENDBRANCH   1  31
TORSDOF 17
