REMARK SMILES CC[C@H]1SC[C@H](C(=O)NCCCCNC(=O)c2ccc(-c3c4nc(c(-c5cccc(S(=O)(=O)[O-])c5F)c5ccc([nH]5)c(-c5cccc(S(=O)(=O)[O-])c5F)c5nc(c(-c6cccc(S(=O)(=O)[O-])c6F)c6ccc3[nH]6)C=C5)C=C4)cc2)N1C(=O)Cc1ccc(F)c(F)c1
REMARK SMILES IDX 11 1 10 2 9 3 7 4 8 5 6 7 3 8 4 9 80 10 5 11 2 12 1 13 81 14
REMARK SMILES IDX 82 15 83 16 84 17 85 18 91 19 86 20 89 21 87 22 90 23 88 24
REMARK SMILES IDX 12 25 13 26 14 27 15 28 16 30 17 31 18 32 79 33 19 34 78 35
REMARK SMILES IDX 20 36 21 37 22 38 72 39 23 40 77 41 71 42 73 43 24 44 76 45
REMARK SMILES IDX 70 46 69 47 25 49 57 50 37 51 56 52 38 53 41 54 55 55 74 56
REMARK SMILES IDX 39 57 40 58 54 60 75 61 42 62 26 63 27 64 35 65 28 66 30 67
REMARK SMILES IDX 36 68 29 69 31 70 32 71 33 72 34 73 58 74 59 75 67 76 60 77
REMARK SMILES IDX 62 78 68 79 61 80 63 81 64 82 65 83 66 84 43 85 44 86 52 87
REMARK SMILES IDX 45 88 47 89 53 90 46 91 48 92 49 93 50 94 51 95
REMARK H PARENT 9 6 14 29 73 48 41 59
REMARK Flexibility Score: inf
ROOT
ATOM      1  C   UNL     1       5.644   1.129   1.373  1.00  0.00     0.023 C 
ENDROOT
BRANCH   1   2
ATOM      2  C   UNL     1       5.756   0.032   0.314  1.00  0.00     0.116 C 
BRANCH   2   3
ATOM      3  N   UNL     1       5.716  -1.298   0.900  1.00  0.00    -0.354 N 
ATOM      4  C   UNL     1       4.663  -2.169   1.007  1.00  0.00     0.243 C 
ATOM      5  O   UNL     1       4.807  -3.201   1.664  1.00  0.00    -0.273 OA
ATOM      6  H   UNL     1       6.569  -1.620   1.274  1.00  0.00     0.163 HD
BRANCH   4   7
ATOM      7  C   UNL     1       3.370  -1.871   0.231  1.00  0.00     0.185 C 
ATOM      8  C   UNL     1       1.036  -2.590   0.242  1.00  0.00     0.143 C 
ATOM      9  S   UNL     1       1.821  -3.767  -0.893  1.00  0.00    -0.134 SA
ATOM     10  N   UNL     1       2.137  -2.043   1.010  1.00  0.00    -0.318 N 
ATOM     11  C   UNL     1       3.357  -2.816  -0.982  1.00  0.00     0.107 C 
BRANCH   8  12
ATOM     12  C   UNL     1       0.227  -1.556  -0.592  1.00  0.00     0.033 C 
ATOM     13  C   UNL     1       0.701  -0.106  -0.608  1.00  0.00     0.007 C 
ENDBRANCH   8  12
BRANCH  10  14
ATOM     14  C   UNL     1       2.011  -1.384   2.220  1.00  0.00     0.228 C 
ATOM     15  O   UNL     1       2.829  -0.530   2.571  1.00  0.00    -0.274 OA
BRANCH  14  16
ATOM     16  C   UNL     1       0.844  -1.738   3.132  1.00  0.00     0.135 C 
BRANCH  16  17
ATOM     17  C   UNL     1      -0.396  -0.923   2.853  1.00  0.00    -0.036 A 
ATOM     18  C   UNL     1      -0.360   0.480   2.937  1.00  0.00     0.007 A 
ATOM     19  C   UNL     1      -1.588  -1.552   2.467  1.00  0.00     0.046 A 
ATOM     20  C   UNL     1      -1.471   1.241   2.566  1.00  0.00     0.043 A 
ATOM     21  C   UNL     1      -2.688  -0.785   2.095  1.00  0.00     0.159 A 
ATOM     22  C   UNL     1      -2.626   0.602   2.131  1.00  0.00     0.158 A 
ATOM     23  F   UNL     1      -3.799  -1.401   1.665  1.00  0.00    -0.204 F 
ATOM     24  F   UNL     1      -3.675   1.335   1.735  1.00  0.00    -0.204 F 
ENDBRANCH  16  17
ENDBRANCH  14  16
ENDBRANCH  10  14
ENDBRANCH   4   7
ENDBRANCH   2   3
ENDBRANCH   1   2
BRANCH   1  25
ATOM     25  C   UNL     1       6.858   1.236   2.299  1.00  0.00     0.023 C 
BRANCH  25  26
ATOM     26  C   UNL     1       8.189   1.455   1.589  1.00  0.00     0.116 C 
BRANCH  26  27
ATOM     27  N   UNL     1       8.211   2.663   0.776  1.00  0.00    -0.352 N 
ATOM     28  C   UNL     1       9.258   3.531   0.576  1.00  0.00     0.251 C 
ATOM     29  H   UNL     1       7.372   2.887   0.312  1.00  0.00     0.163 HD
ATOM     30  O   UNL     1       9.091   4.575  -0.048  1.00  0.00    -0.269 OA
BRANCH  28  31
ATOM     31  C   UNL     1      10.579   3.205   1.152  1.00  0.00     0.039 A 
ATOM     32  C   UNL     1      11.230   4.157   1.939  1.00  0.00     0.014 A 
ATOM     33  C   UNL     1      11.141   1.941   0.956  1.00  0.00     0.014 A 
ATOM     34  C   UNL     1      12.419   3.817   2.590  1.00  0.00     0.010 A 
ATOM     35  C   UNL     1      12.288   1.585   1.656  1.00  0.00     0.010 A 
ATOM     36  C   UNL     1      12.938   2.517   2.481  1.00  0.00    -0.014 A 
BRANCH  36  37
ATOM     37  C   UNL     1      14.156   2.093   3.216  1.00  0.00     0.031 A 
ATOM     38  C   UNL     1      15.376   1.665   2.447  1.00  0.00     0.074 A 
ATOM     39  C   UNL     1      14.124   1.979   4.559  1.00  0.00     0.049 A 
ATOM     40  N   UNL     1      16.478   1.117   2.887  1.00  0.00    -0.248 NA
ATOM     41  C   UNL     1      15.340   1.850   0.986  1.00  0.00     0.031 C 
ATOM     42  C   UNL     1      12.977   2.300   5.411  1.00  0.00     0.029 A 
ATOM     43  N   UNL     1      15.072   1.521   5.440  1.00  0.00    -0.354 N 
ATOM     44  C   UNL     1      17.245   0.852   1.759  1.00  0.00     0.074 A 
ATOM     45  C   UNL     1      16.474   1.276   0.612  1.00  0.00     0.031 C 
ATOM     46  C   UNL     1      13.283   2.015   6.687  1.00  0.00     0.029 A 
ATOM     47  C   UNL     1      14.633   1.464   6.743  1.00  0.00     0.049 A 
ATOM     48  H   UNL     1      15.981   1.258   5.165  1.00  0.00     0.167 HD
ATOM     49  C   UNL     1      18.492   0.329   1.687  1.00  0.00     0.034 A 
ATOM     50  C   UNL     1      15.243   1.002   7.853  1.00  0.00     0.034 A 
ATOM     51  C   UNL     1      19.277  -0.039   2.832  1.00  0.00     0.049 A 
ATOM     52  C   UNL     1      16.650   0.474   7.748  1.00  0.00     0.074 A 
ATOM     53  C   UNL     1      20.576  -0.516   2.867  1.00  0.00     0.029 A 
ATOM     54  N   UNL     1      18.843   0.039   4.146  1.00  0.00    -0.354 N 
ATOM     55  N   UNL     1      17.408   0.356   6.685  1.00  0.00    -0.248 NA
ATOM     56  C   UNL     1      17.299   0.051   8.998  1.00  0.00     0.031 C 
ATOM     57  C   UNL     1      20.926  -0.730   4.204  1.00  0.00     0.029 A 
ATOM     58  C   UNL     1      19.850  -0.371   5.000  1.00  0.00     0.049 A 
ATOM     59  H   UNL     1      17.950   0.340   4.429  1.00  0.00     0.167 HD
ATOM     60  C   UNL     1      18.636  -0.108   7.143  1.00  0.00     0.074 A 
ATOM     61  C   UNL     1      18.525  -0.238   8.581  1.00  0.00     0.031 C 
ATOM     62  C   UNL     1      19.751  -0.413   6.436  1.00  0.00     0.034 A 
BRANCH  49  63
ATOM     63  C   UNL     1      19.117   0.189   0.325  1.00  0.00     0.023 A 
ATOM     64  C   UNL     1      19.559   1.344  -0.352  1.00  0.00     0.012 A 
ATOM     65  C   UNL     1      19.337  -1.077  -0.251  1.00  0.00     0.148 A 
ATOM     66  C   UNL     1      20.185   1.244  -1.593  1.00  0.00     0.002 A 
ATOM     67  C   UNL     1      20.000  -1.172  -1.469  1.00  0.00     0.091 A 
ATOM     68  F   UNL     1      18.892  -2.162   0.399  1.00  0.00    -0.205 F 
ATOM     69  C   UNL     1      20.416  -0.012  -2.145  1.00  0.00     0.022 A 
BRANCH  67  70
ATOM     70  S   UNL     1      20.415  -2.746  -2.230  1.00  0.00     0.127 S 
ATOM     71  O   UNL     1      19.516  -2.761  -3.383  1.00  0.00    -0.237 OA
ATOM     72  O   UNL     1      21.828  -2.564  -2.561  1.00  0.00    -0.237 OA
ATOM     73  O   UNL     1      20.153  -3.761  -1.220  1.00  0.00    -0.744 OA
ENDBRANCH  67  70
ENDBRANCH  49  63
BRANCH  50  74
ATOM     74  C   UNL     1      14.555   1.079   9.174  1.00  0.00     0.023 A 
ATOM     75  C   UNL     1      15.022   1.990  10.142  1.00  0.00     0.012 A 
ATOM     76  C   UNL     1      13.442   0.271   9.474  1.00  0.00     0.148 A 
ATOM     77  C   UNL     1      14.418   2.067  11.397  1.00  0.00     0.002 A 
ATOM     78  C   UNL     1      12.811   0.391  10.708  1.00  0.00     0.091 A 
ATOM     79  F   UNL     1      13.020  -0.603   8.548  1.00  0.00    -0.205 F 
ATOM     80  C   UNL     1      13.308   1.276  11.677  1.00  0.00     0.022 A 
BRANCH  78  81
ATOM     81  S   UNL     1      11.299  -0.497  11.095  1.00  0.00     0.127 S 
ATOM     82  O   UNL     1      11.794  -1.581  11.938  1.00  0.00    -0.237 OA
ATOM     83  O   UNL     1      10.514   0.521  11.796  1.00  0.00    -0.237 OA
ATOM     84  O   UNL     1      10.744  -0.890   9.806  1.00  0.00    -0.744 OA
ENDBRANCH  78  81
ENDBRANCH  50  74
BRANCH  62  85
ATOM     85  C   UNL     1      20.971  -0.856   7.196  1.00  0.00     0.023 A 
ATOM     86  C   UNL     1      21.029  -2.156   7.733  1.00  0.00     0.012 A 
ATOM     87  C   UNL     1      22.099  -0.017   7.283  1.00  0.00     0.148 A 
ATOM     88  C   UNL     1      22.187  -2.608   8.365  1.00  0.00     0.002 A 
ATOM     89  C   UNL     1      23.264  -0.489   7.875  1.00  0.00     0.091 A 
ATOM     90  F   UNL     1      22.014   1.224   6.781  1.00  0.00    -0.205 F 
ATOM     91  C   UNL     1      23.307  -1.781   8.424  1.00  0.00     0.022 A 
BRANCH  89  92
ATOM     92  S   UNL     1      24.783   0.470   7.910  1.00  0.00     0.127 S 
ATOM     93  O   UNL     1      24.862   0.851   9.319  1.00  0.00    -0.237 OA
ATOM     94  O   UNL     1      25.781  -0.513   7.486  1.00  0.00    -0.237 OA
ATOM     95  O   UNL     1      24.585   1.570   6.975  1.00  0.00    -0.744 OA
ENDBRANCH  89  92
ENDBRANCH  62  85
ENDBRANCH  36  37
ENDBRANCH  28  31
ENDBRANCH  26  27
ENDBRANCH  25  26
ENDBRANCH   1  25
TORSDOF 18
