REMARK SMILES Cc1cc(C)n(C)c(=O)c1C(=O)N1CCC2(CC1)C[NH2+][C@@H](C(=O)NCCCCNC(=O)c1ccc(-c3c4nc(c(-c5cccc(S(=O)(=O)[O-])c5F)c5ccc([nH]5)c(-c5cccc(S(=O)(=O)[O-])c5F)c5nc(c(-c6cccc(S(=O)(=O)[O-])c6F)c6ccc3[nH]6)C=C5)C=C4)cc1)C2
REMARK SMILES IDX 27 1 26 2 25 3 24 4 22 5 23 6 21 8 11 9 12 10 13 11 14 12
REMARK SMILES IDX 18 13 15 14 17 15 16 16 19 17 95 18 20 19 10 22 1 23 2 24
REMARK SMILES IDX 3 25 4 26 8 27 5 28 6 29 9 30 7 31 28 32 29 33 30 34 31 36
REMARK SMILES IDX 32 37 33 38 94 39 34 40 93 41 35 42 36 43 37 44 87 45 38 46
REMARK SMILES IDX 92 47 86 48 88 49 39 50 91 51 85 52 84 53 40 55 72 56 52 57
REMARK SMILES IDX 71 58 53 59 56 60 70 61 89 62 54 63 55 64 69 66 90 67 57 68
REMARK SMILES IDX 41 69 42 70 50 71 43 72 45 73 51 74 44 75 46 76 47 77 48 78
REMARK SMILES IDX 49 79 73 80 74 81 82 82 75 83 77 84 83 85 76 86 78 87 79 88
REMARK SMILES IDX 80 89 81 90 58 91 59 92 67 93 60 94 62 95 68 96 61 97 63 98
REMARK SMILES IDX 64 99 65 100 66 101
REMARK H PARENT 24 7 20 20 20 21 29 35 88 54 56 65
REMARK Flexibility Score: inf
ROOT
ATOM      1  C   UNL     1       5.197  -4.628  -4.846  1.00  0.00     0.023 C 
ENDROOT
BRANCH   1   2
ATOM      2  C   UNL     1       4.587  -3.956  -3.618  1.00  0.00     0.023 C 
BRANCH   2   3
ATOM      3  C   UNL     1       4.620  -4.800  -2.347  1.00  0.00     0.116 C 
BRANCH   3   4
ATOM      4  N   UNL     1       5.971  -5.001  -1.858  1.00  0.00    -0.351 N 
ATOM      5  C   UNL     1       6.557  -4.558  -0.709  1.00  0.00     0.278 C 
ATOM      6  O   UNL     1       7.720  -4.904  -0.479  1.00  0.00    -0.268 OA
ATOM      7  H   UNL     1       6.552  -5.539  -2.443  1.00  0.00     0.163 HD
BRANCH   5   8
ATOM      8  C   UNL     1       5.824  -3.635   0.272  1.00  0.00     0.273 C 
ATOM      9  C   UNL     1       2.699   2.104   0.357  1.00  0.00     0.259 C 
ATOM     10  O   UNL     1       3.220   2.930   1.115  1.00  0.00    -0.269 OA
ATOM     11  N   UNL     1       3.397   0.969  -0.035  1.00  0.00    -0.338 N 
ATOM     12  C   UNL     1       4.640   0.677   0.665  1.00  0.00     0.120 C 
ATOM     13  C   UNL     1       3.091   0.019  -1.105  1.00  0.00     0.120 C 
ATOM     14  C   UNL     1       4.470  -0.643   1.400  1.00  0.00     0.034 C 
ATOM     15  C   UNL     1       3.111  -1.448  -0.618  1.00  0.00     0.034 C 
ATOM     16  C   UNL     1       4.209  -1.811   0.428  1.00  0.00     0.029 C 
ATOM     17  C   UNL     1       3.804  -3.054   1.260  1.00  0.00     0.268 C 
ATOM     18  C   UNL     1       5.522  -2.243  -0.270  1.00  0.00     0.088 C 
ATOM     19  N   UNL     1       4.511  -4.176   0.666  1.00  0.00    -0.336 N 
ATOM     20  H   UNL     1       4.008  -4.526  -0.149  1.00  0.00     0.346 HD
ATOM     21  H   UNL     1       4.598  -4.960   1.314  1.00  0.00     0.346 HD
BRANCH   9  22
ATOM     22  C   UNL     1       1.260   2.334   0.007  1.00  0.00     0.108 A 
ATOM     23  C   UNL     1       0.444   0.061   0.838  1.00  0.00     0.045 C 
ATOM     24  C   UNL     1       0.281   1.446   0.290  1.00  0.00    -0.031 A 
ATOM     25  C   UNL     1      -1.112   1.852   0.247  1.00  0.00     0.026 A 
ATOM     26  C   UNL     1      -1.464   3.145   0.218  1.00  0.00     0.018 A 
ATOM     27  C   UNL     1       0.847   3.758  -0.286  1.00  0.00     0.263 A 
ATOM     28  C   UNL     1      -2.912   3.508   0.403  1.00  0.00     0.064 C 
ATOM     29  N   UNL     1      -0.482   4.109   0.016  1.00  0.00    -0.315 N 
ATOM     30  O   UNL     1       1.656   4.565  -0.743  1.00  0.00    -0.268 OA
ATOM     31  C   UNL     1      -0.807   5.528   0.068  1.00  0.00     0.153 C 
ENDBRANCH   9  22
ENDBRANCH   5   8
ENDBRANCH   3   4
ENDBRANCH   2   3
ENDBRANCH   1   2
BRANCH   1  32
ATOM     32  C   UNL     1       4.604  -5.986  -5.200  1.00  0.00     0.116 C 
BRANCH  32  33
ATOM     33  N   UNL     1       3.166  -5.941  -5.429  1.00  0.00    -0.352 N 
ATOM     34  C   UNL     1       2.437  -6.606  -6.385  1.00  0.00     0.251 C 
ATOM     35  H   UNL     1       2.652  -5.361  -4.823  1.00  0.00     0.163 HD
ATOM     36  O   UNL     1       1.238  -6.376  -6.525  1.00  0.00    -0.269 OA
BRANCH  34  37
ATOM     37  C   UNL     1       3.122  -7.577  -7.263  1.00  0.00     0.039 A 
ATOM     38  C   UNL     1       2.979  -7.457  -8.647  1.00  0.00     0.014 A 
ATOM     39  C   UNL     1       3.946  -8.564  -6.716  1.00  0.00     0.014 A 
ATOM     40  C   UNL     1       3.727  -8.283  -9.489  1.00  0.00     0.010 A 
ATOM     41  C   UNL     1       4.736  -9.342  -7.555  1.00  0.00     0.010 A 
ATOM     42  C   UNL     1       4.639  -9.204  -8.948  1.00  0.00    -0.014 A 
BRANCH  42  43
ATOM     43  C   UNL     1       5.521 -10.024  -9.815  1.00  0.00     0.031 A 
ATOM     44  C   UNL     1       5.371 -11.519  -9.838  1.00  0.00     0.074 A 
ATOM     45  C   UNL     1       6.510  -9.428 -10.510  1.00  0.00     0.049 A 
ATOM     46  N   UNL     1       6.105 -12.411 -10.448  1.00  0.00    -0.248 NA
ATOM     47  C   UNL     1       4.260 -12.088  -9.056  1.00  0.00     0.031 C 
ATOM     48  C   UNL     1       6.783  -7.989 -10.528  1.00  0.00     0.029 A 
ATOM     49  N   UNL     1       7.484  -9.960 -11.318  1.00  0.00    -0.354 N 
ATOM     50  C   UNL     1       5.561 -13.644 -10.112  1.00  0.00     0.074 A 
ATOM     51  C   UNL     1       4.458 -13.390  -9.211  1.00  0.00     0.031 C 
ATOM     52  C   UNL     1       7.841  -7.752 -11.320  1.00  0.00     0.029 A 
ATOM     53  C   UNL     1       8.345  -9.020 -11.837  1.00  0.00     0.049 A 
ATOM     54  H   UNL     1       7.558 -10.922 -11.510  1.00  0.00     0.167 HD
ATOM     55  C   UNL     1       5.925 -14.875 -10.543  1.00  0.00     0.034 A 
ATOM     56  C   UNL     1       9.420  -9.167 -12.637  1.00  0.00     0.034 A 
ATOM     57  C   UNL     1       7.001 -15.119 -11.464  1.00  0.00     0.049 A 
ATOM     58  C   UNL     1       9.799 -10.548 -13.102  1.00  0.00     0.074 A 
ATOM     59  C   UNL     1       7.432 -16.328 -11.980  1.00  0.00     0.029 A 
ATOM     60  N   UNL     1       7.809 -14.137 -12.017  1.00  0.00    -0.354 N 
ATOM     61  N   UNL     1       9.213 -11.693 -12.851  1.00  0.00    -0.248 NA
ATOM     62  C   UNL     1      10.970 -10.655 -13.986  1.00  0.00     0.031 C 
ATOM     63  C   UNL     1       8.503 -16.078 -12.843  1.00  0.00     0.029 A 
ATOM     64  C   UNL     1       8.728 -14.711 -12.877  1.00  0.00     0.049 A 
ATOM     65  H   UNL     1       7.738 -13.174 -11.826  1.00  0.00     0.167 HD
ATOM     66  C   UNL     1       9.914 -12.649 -13.576  1.00  0.00     0.074 A 
ATOM     67  C   UNL     1      10.960 -11.946 -14.290  1.00  0.00     0.031 C 
ATOM     68  C   UNL     1       9.720 -13.989 -13.633  1.00  0.00     0.034 A 
BRANCH  55  69
ATOM     69  C   UNL     1       5.101 -16.050 -10.086  1.00  0.00     0.023 A 
ATOM     70  C   UNL     1       3.809 -16.228 -10.622  1.00  0.00     0.012 A 
ATOM     71  C   UNL     1       5.623 -17.016  -9.204  1.00  0.00     0.148 A 
ATOM     72  C   UNL     1       3.040 -17.336 -10.272  1.00  0.00     0.002 A 
ATOM     73  C   UNL     1       4.867 -18.141  -8.893  1.00  0.00     0.091 A 
ATOM     74  F   UNL     1       6.845 -16.819  -8.689  1.00  0.00    -0.205 F 
ATOM     75  C   UNL     1       3.573 -18.298  -9.419  1.00  0.00     0.022 A 
BRANCH  73  76
ATOM     76  S   UNL     1       5.488 -19.479  -7.867  1.00  0.00     0.127 S 
ATOM     77  O   UNL     1       4.656 -19.345  -6.672  1.00  0.00    -0.237 OA
ATOM     78  O   UNL     1       5.195 -20.655  -8.685  1.00  0.00    -0.237 OA
ATOM     79  O   UNL     1       6.906 -19.210  -7.671  1.00  0.00    -0.744 OA
ENDBRANCH  73  76
ENDBRANCH  55  69
BRANCH  56  80
ATOM     80  C   UNL     1      10.150  -7.964 -13.131  1.00  0.00     0.023 A 
ATOM     81  C   UNL     1      10.044  -7.613 -14.491  1.00  0.00     0.012 A 
ATOM     82  C   UNL     1      10.907  -7.145 -12.270  1.00  0.00     0.148 A 
ATOM     83  C   UNL     1      10.695  -6.486 -14.991  1.00  0.00     0.002 A 
ATOM     84  C   UNL     1      11.508  -5.992 -12.763  1.00  0.00     0.091 A 
ATOM     85  F   UNL     1      11.011  -7.502 -10.982  1.00  0.00    -0.205 F 
ATOM     86  C   UNL     1      11.417  -5.669 -14.126  1.00  0.00     0.022 A 
BRANCH  84  87
ATOM     87  S   UNL     1      12.340  -4.809 -11.697  1.00  0.00     0.127 S 
ATOM     88  O   UNL     1      13.742  -5.024 -12.046  1.00  0.00    -0.237 OA
ATOM     89  O   UNL     1      11.778  -3.538 -12.157  1.00  0.00    -0.237 OA
ATOM     90  O   UNL     1      11.960  -5.173 -10.339  1.00  0.00    -0.744 OA
ENDBRANCH  84  87
ENDBRANCH  56  80
BRANCH  68  91
ATOM     91  C   UNL     1      10.628 -14.796 -14.523  1.00  0.00     0.023 A 
ATOM     92  C   UNL     1      11.959 -15.035 -14.129  1.00  0.00     0.012 A 
ATOM     93  C   UNL     1      10.132 -15.404 -15.694  1.00  0.00     0.148 A 
ATOM     94  C   UNL     1      12.790 -15.848 -14.899  1.00  0.00     0.002 A 
ATOM     95  C   UNL     1      10.952 -16.250 -16.431  1.00  0.00     0.091 A 
ATOM     96  F   UNL     1       8.868 -15.148 -16.063  1.00  0.00    -0.205 F 
ATOM     97  C   UNL     1      12.284 -16.465 -16.040  1.00  0.00     0.022 A 
BRANCH  95  98
ATOM     98  S   UNL     1      10.353 -17.168 -17.855  1.00  0.00     0.127 S 
ATOM     99  O   UNL     1      10.954 -16.426 -18.962  1.00  0.00    -0.237 OA
ATOM    100  O   UNL     1      10.922 -18.498 -17.632  1.00  0.00    -0.237 OA
ATOM    101  O   UNL     1       8.899 -17.115 -17.780  1.00  0.00    -0.744 OA
ENDBRANCH  95  98
ENDBRANCH  68  91
ENDBRANCH  42  43
ENDBRANCH  34  37
ENDBRANCH  32  33
ENDBRANCH   1  32
TORSDOF 15
