REMARK SMILES CC(=O)Nc1cc(NC(C)=O)cc(C(=O)Nc2ccc(Br)cc2C(=O)NCCCCNC(=O)c2ccc(-c3c4nc(c(-c5cccc(S(=O)(=O)[O-])c5F)c5ccc([nH]5)c(-c5cccc(S(=O)(=O)[O-])c5F)c5nc(c(-c6cccc(S(=O)(=O)[O-])c6F)c6ccc3[nH]6)C=C5)C=C4)cc2)c1
REMARK SMILES IDX 28 1 27 2 26 3 24 4 25 5 23 7 17 8 18 9 19 10 22 11 20 12
REMARK SMILES IDX 21 13 16 14 14 15 15 16 13 18 5 19 6 20 97 21 7 22 12 23
REMARK SMILES IDX 4 24 1 25 2 26 3 27 8 29 9 30 10 32 11 33 29 34 30 35 31 36
REMARK SMILES IDX 32 37 33 39 34 40 35 41 96 42 36 43 95 44 37 45 38 46 39 47
REMARK SMILES IDX 89 48 40 49 94 50 88 51 90 52 41 53 93 54 87 55 86 56 42 58
REMARK SMILES IDX 74 59 54 60 73 61 55 62 58 63 72 64 91 65 56 66 57 67 71 69
REMARK SMILES IDX 92 70 59 71 43 72 44 73 52 74 45 75 47 76 53 77 46 78 48 79
REMARK SMILES IDX 49 80 50 81 51 82 75 83 76 84 84 85 77 86 79 87 85 88 78 89
REMARK SMILES IDX 80 90 81 91 82 92 83 93 60 94 61 95 69 96 62 97 64 98 70 99
REMARK SMILES IDX 63 100 65 101 66 102 67 103 68 104
REMARK H PARENT 26 6 16 17 4 28 8 31 31 38 90 57 58 68
REMARK Flexibility Score: inf
ROOT
ATOM      1  C   UNL     1       7.985   1.765  -2.200  1.00  0.00     0.023 C 
ENDROOT
BRANCH   1   2
ATOM      2  C   UNL     1       6.635   1.373  -1.612  1.00  0.00     0.116 C 
BRANCH   2   3
ATOM      3  N   UNL     1       5.613   1.092  -2.600  1.00  0.00    -0.352 N 
ATOM      4  C   UNL     1       4.459   0.361  -2.477  1.00  0.00     0.253 C 
ATOM      5  O   UNL     1       3.736   0.214  -3.460  1.00  0.00    -0.269 OA
ATOM      6  H   UNL     1       5.771   1.483  -3.490  1.00  0.00     0.163 HD
BRANCH   4   7
ATOM      7  C   UNL     1       4.098  -0.333  -1.213  1.00  0.00     0.064 A 
ATOM      8  C   UNL     1       4.147   0.209   0.086  1.00  0.00     0.054 A 
ATOM      9  C   UNL     1       3.984  -0.654   1.183  1.00  0.00     0.028 A 
ATOM     10  C   UNL     1       3.610  -1.987   0.999  1.00  0.00     0.018 A 
ATOM     11  C   UNL     1       3.687  -1.670  -1.388  1.00  0.00     0.031 A 
ATOM     12  C   UNL     1       3.423  -2.478  -0.287  1.00  0.00     0.018 A 
ATOM     13  Br  UNL     1       2.804  -4.245  -0.536  1.00  0.00    -0.051 Br
BRANCH   8  14
ATOM     14  N   UNL     1       4.269   1.574   0.432  1.00  0.00    -0.321 N 
ATOM     15  C   UNL     1       3.823   2.719  -0.201  1.00  0.00     0.255 C 
ATOM     16  O   UNL     1       4.274   3.809   0.146  1.00  0.00    -0.269 OA
ATOM     17  H   UNL     1       4.756   1.738   1.272  1.00  0.00     0.170 HD
BRANCH  15  18
ATOM     18  C   UNL     1       2.749   2.673  -1.222  1.00  0.00     0.044 A 
ATOM     19  C   UNL     1       0.820   1.569  -2.171  1.00  0.00     0.044 A 
ATOM     20  C   UNL     1       0.884   2.460  -3.253  1.00  0.00     0.052 A 
ATOM     21  C   UNL     1       1.716   1.734  -1.125  1.00  0.00     0.040 A 
ATOM     22  C   UNL     1       1.820   3.501  -3.295  1.00  0.00     0.044 A 
ATOM     23  C   UNL     1       2.776   3.587  -2.280  1.00  0.00     0.040 A 
BRANCH  19  24
ATOM     24  N   UNL     1      -0.086   0.496  -2.275  1.00  0.00    -0.326 N 
ATOM     25  C   UNL     1      -0.250  -0.360   0.068  1.00  0.00     0.114 C 
ATOM     26  C   UNL     1      -0.499  -0.473  -1.409  1.00  0.00     0.221 C 
ATOM     27  O   UNL     1      -1.128  -1.439  -1.850  1.00  0.00    -0.275 OA
ATOM     28  H   UNL     1      -0.511   0.431  -3.161  1.00  0.00     0.169 HD
ENDBRANCH  19  24
BRANCH  22  29
ATOM     29  N   UNL     1       1.869   4.473  -4.319  1.00  0.00    -0.326 N 
ATOM     30  C   UNL     1       0.959   4.648  -5.346  1.00  0.00     0.221 C 
ATOM     31  H   UNL     1       2.634   5.093  -4.299  1.00  0.00     0.169 HD
ATOM     32  C   UNL     1       1.306   5.797  -6.262  1.00  0.00     0.114 C 
ATOM     33  O   UNL     1      -0.062   3.993  -5.534  1.00  0.00    -0.275 OA
ENDBRANCH  22  29
ENDBRANCH  15  18
ENDBRANCH   8  14
ENDBRANCH   4   7
ENDBRANCH   2   3
ENDBRANCH   1   2
BRANCH   1  34
ATOM     34  C   UNL     1       7.988   2.988  -3.120  1.00  0.00     0.023 C 
BRANCH  34  35
ATOM     35  C   UNL     1       7.187   4.201  -2.652  1.00  0.00     0.116 C 
BRANCH  35  36
ATOM     36  N   UNL     1       7.647   4.763  -1.389  1.00  0.00    -0.352 N 
ATOM     37  C   UNL     1       8.219   5.991  -1.122  1.00  0.00     0.251 C 
ATOM     38  H   UNL     1       7.532   4.178  -0.606  1.00  0.00     0.163 HD
ATOM     39  O   UNL     1       8.636   6.256  -0.008  1.00  0.00    -0.269 OA
BRANCH  37  40
ATOM     40  C   UNL     1       8.358   6.971  -2.222  1.00  0.00     0.039 A 
ATOM     41  C   UNL     1       9.621   7.495  -2.507  1.00  0.00     0.014 A 
ATOM     42  C   UNL     1       7.255   7.312  -3.007  1.00  0.00     0.014 A 
ATOM     43  C   UNL     1       9.801   8.264  -3.660  1.00  0.00     0.010 A 
ATOM     44  C   UNL     1       7.452   8.011  -4.193  1.00  0.00     0.010 A 
ATOM     45  C   UNL     1       8.731   8.470  -4.547  1.00  0.00    -0.014 A 
BRANCH  45  46
ATOM     46  C   UNL     1       8.927   9.098  -5.881  1.00  0.00     0.031 A 
ATOM     47  C   UNL     1       8.189  10.357  -6.242  1.00  0.00     0.074 A 
ATOM     48  C   UNL     1       9.659   8.456  -6.815  1.00  0.00     0.049 A 
ATOM     49  N   UNL     1       8.108  10.962  -7.397  1.00  0.00    -0.248 NA
ATOM     50  C   UNL     1       7.411  11.000  -5.170  1.00  0.00     0.031 C 
ATOM     51  C   UNL     1      10.364   7.187  -6.616  1.00  0.00     0.029 A 
ATOM     52  N   UNL     1       9.904   8.765  -8.131  1.00  0.00    -0.354 N 
ATOM     53  C   UNL     1       7.238  12.028  -7.207  1.00  0.00     0.074 A 
ATOM     54  C   UNL     1       6.795  11.970  -5.830  1.00  0.00     0.031 C 
ATOM     55  C   UNL     1      10.962   6.829  -7.764  1.00  0.00     0.029 A 
ATOM     56  C   UNL     1      10.655   7.819  -8.790  1.00  0.00     0.049 A 
ATOM     57  H   UNL     1       9.572   9.586  -8.562  1.00  0.00     0.167 HD
ATOM     58  C   UNL     1       6.863  12.986  -8.087  1.00  0.00     0.034 A 
ATOM     59  C   UNL     1      11.046   7.750 -10.079  1.00  0.00     0.034 A 
ATOM     60  C   UNL     1       7.350  13.078  -9.437  1.00  0.00     0.049 A 
ATOM     61  C   UNL     1      10.656   8.855 -11.023  1.00  0.00     0.074 A 
ATOM     62  C   UNL     1       7.093  14.058 -10.379  1.00  0.00     0.029 A 
ATOM     63  N   UNL     1       8.199  12.160 -10.036  1.00  0.00    -0.354 N 
ATOM     64  N   UNL     1       9.947   9.931 -10.784  1.00  0.00    -0.248 NA
ATOM     65  C   UNL     1      11.146   8.754 -12.406  1.00  0.00     0.031 C 
ATOM     66  C   UNL     1       7.785  13.730 -11.550  1.00  0.00     0.029 A 
ATOM     67  C   UNL     1       8.479  12.551 -11.333  1.00  0.00     0.049 A 
ATOM     68  H   UNL     1       8.550  11.349  -9.602  1.00  0.00     0.167 HD
ATOM     69  C   UNL     1       9.939  10.654 -11.971  1.00  0.00     0.074 A 
ATOM     70  C   UNL     1      10.727   9.900 -12.925  1.00  0.00     0.031 C 
ATOM     71  C   UNL     1       9.323  11.828 -12.250  1.00  0.00     0.034 A 
BRANCH  58  72
ATOM     72  C   UNL     1       5.927  14.056  -7.593  1.00  0.00     0.023 A 
ATOM     73  C   UNL     1       6.410  15.040  -6.706  1.00  0.00     0.012 A 
ATOM     74  C   UNL     1       4.591  14.118  -8.033  1.00  0.00     0.148 A 
ATOM     75  C   UNL     1       5.570  16.048  -6.237  1.00  0.00     0.002 A 
ATOM     76  C   UNL     1       3.770  15.151  -7.593  1.00  0.00     0.091 A 
ATOM     77  F   UNL     1       4.140  13.159  -8.855  1.00  0.00    -0.205 F 
ATOM     78  C   UNL     1       4.255  16.110  -6.688  1.00  0.00     0.022 A 
BRANCH  76  79
ATOM     79  S   UNL     1       2.083  15.353  -8.176  1.00  0.00     0.127 S 
ATOM     80  O   UNL     1       1.316  14.856  -7.035  1.00  0.00    -0.237 OA
ATOM     81  O   UNL     1       1.996  16.799  -8.386  1.00  0.00    -0.237 OA
ATOM     82  O   UNL     1       1.988  14.560  -9.393  1.00  0.00    -0.744 OA
ENDBRANCH  76  79
ENDBRANCH  58  72
BRANCH  59  83
ATOM     83  C   UNL     1      11.923   6.633 -10.532  1.00  0.00     0.023 A 
ATOM     84  C   UNL     1      13.272   6.904 -10.834  1.00  0.00     0.012 A 
ATOM     85  C   UNL     1      11.449   5.312 -10.634  1.00  0.00     0.148 A 
ATOM     86  C   UNL     1      14.126   5.886 -11.258  1.00  0.00     0.002 A 
ATOM     87  C   UNL     1      12.319   4.292 -11.007  1.00  0.00     0.091 A 
ATOM     88  F   UNL     1      10.160   5.075 -10.356  1.00  0.00    -0.205 F 
ATOM     89  C   UNL     1      13.653   4.579 -11.334  1.00  0.00     0.022 A 
BRANCH  87  90
ATOM     90  S   UNL     1      11.829   2.564 -11.002  1.00  0.00     0.127 S 
ATOM     91  O   UNL     1      11.704   2.284 -12.430  1.00  0.00    -0.237 OA
ATOM     92  O   UNL     1      12.969   1.924 -10.345  1.00  0.00    -0.237 OA
ATOM     93  O   UNL     1      10.593   2.513 -10.232  1.00  0.00    -0.744 OA
ENDBRANCH  87  90
ENDBRANCH  59  83
BRANCH  71  94
ATOM     94  C   UNL     1       9.504  12.406 -13.628  1.00  0.00     0.023 A 
ATOM     95  C   UNL     1       8.810  11.844 -14.717  1.00  0.00     0.012 A 
ATOM     96  C   UNL     1      10.287  13.560 -13.825  1.00  0.00     0.148 A 
ATOM     97  C   UNL     1       8.910  12.411 -15.987  1.00  0.00     0.002 A 
ATOM     98  C   UNL     1      10.348  14.144 -15.084  1.00  0.00     0.091 A 
ATOM     99  F   UNL     1      10.957  14.065 -12.778  1.00  0.00    -0.205 F 
ATOM    100  C   UNL     1       9.668  13.566 -16.168  1.00  0.00     0.022 A 
BRANCH  98 101
ATOM    101  S   UNL     1      11.224  15.683 -15.387  1.00  0.00     0.127 S 
ATOM    102  O   UNL     1      12.414  15.215 -16.096  1.00  0.00    -0.237 OA
ATOM    103  O   UNL     1      10.273  16.426 -16.216  1.00  0.00    -0.237 OA
ATOM    104  O   UNL     1      11.466  16.270 -14.076  1.00  0.00    -0.744 OA
ENDBRANCH  98 101
ENDBRANCH  71  94
ENDBRANCH  45  46
ENDBRANCH  37  40
ENDBRANCH  35  36
ENDBRANCH  34  35
ENDBRANCH   1  34
TORSDOF 18
