REMARK SMILES Cc1ccccc1CNC(=O)N1CCC(CC(=O)NCCCCNC(=O)c2ccc(-c3c4nc(c(-c5cccc(S(=O)(=O)[O-])c5F)c5ccc([nH]5)c(-c5cccc(S(=O)(=O)[O-])c5F)c5nc(c(-c6cccc(S(=O)(=O)[O-])c6F)c6ccc3[nH]6)C=C5)C=C4)cc2)CC1
REMARK SMILES IDX 21 1 20 2 19 3 17 4 18 5 16 7 15 8 9 9 10 10 11 12 12 13
REMARK SMILES IDX 13 14 91 15 14 16 90 17 8 18 7 19 1 20 2 21 3 22 4 23 6 24
REMARK SMILES IDX 5 25 22 26 23 27 24 28 25 29 26 31 27 32 28 33 89 34 29 35
REMARK SMILES IDX 88 36 30 37 31 38 32 39 82 40 33 41 87 42 81 43 83 44 34 45
REMARK SMILES IDX 86 46 80 47 79 48 35 50 67 51 47 52 66 53 48 54 51 55 65 56
REMARK SMILES IDX 84 57 49 58 50 59 64 61 85 62 52 63 36 64 37 65 45 66 38 67
REMARK SMILES IDX 40 68 46 69 39 70 41 71 42 72 43 73 44 74 68 75 69 76 77 77
REMARK SMILES IDX 70 78 72 79 78 80 71 81 73 82 74 83 75 84 76 85 53 86 54 87
REMARK SMILES IDX 62 88 55 89 57 90 63 91 56 92 58 93 59 94 60 95 61 96
REMARK H PARENT 19 6 9 11 24 30 83 49 51 60
REMARK Flexibility Score: inf
ROOT
ATOM      1  C   UNL     1      -3.179   8.317   0.430  1.00  0.00     0.023 C 
ENDROOT
BRANCH   1   2
ATOM      2  C   UNL     1      -2.166   9.452   0.710  1.00  0.00     0.116 C 
BRANCH   2   3
ATOM      3  N   UNL     1      -1.827   9.638   2.122  1.00  0.00    -0.356 N 
ATOM      4  C   UNL     1      -0.680   9.403   2.829  1.00  0.00     0.220 C 
ATOM      5  O   UNL     1      -0.659   9.711   4.024  1.00  0.00    -0.275 OA
ATOM      6  H   UNL     1      -2.564  10.000   2.665  1.00  0.00     0.163 HD
BRANCH   4   7
ATOM      7  C   UNL     1       0.533   8.725   2.198  1.00  0.00     0.103 C 
BRANCH   7   8
ATOM      8  C   UNL     1       0.494   7.182   2.312  1.00  0.00     0.002 C 
ATOM      9  N   UNL     1       0.920   3.230  -0.916  1.00  0.00    -0.334 N 
ATOM     10  C   UNL     1       0.276   4.373  -0.571  1.00  0.00     0.317 C 
ATOM     11  H   UNL     1       1.115   3.099  -1.872  1.00  0.00     0.165 HD
ATOM     12  O   UNL     1      -0.395   4.964  -1.411  1.00  0.00    -0.249 OA
ATOM     13  N   UNL     1       0.316   4.721   0.754  1.00  0.00    -0.325 N 
ATOM     14  C   UNL     1      -0.885   5.208   1.377  1.00  0.00     0.121 C 
ATOM     15  C   UNL     1       1.553   5.013   1.469  1.00  0.00     0.121 C 
ATOM     16  C   UNL     1      -0.771   6.684   1.636  1.00  0.00     0.026 C 
ATOM     17  C   UNL     1       1.733   6.524   1.678  1.00  0.00     0.026 C 
BRANCH   9  18
ATOM     18  C   UNL     1       1.348   2.186  -0.013  1.00  0.00     0.153 C 
BRANCH  18  19
ATOM     19  C   UNL     1       0.529   0.919  -0.135  1.00  0.00    -0.026 A 
ATOM     20  C   UNL     1       2.594  -0.620  -0.055  1.00  0.00     0.044 C 
ATOM     21  C   UNL     1       1.112  -0.365  -0.103  1.00  0.00    -0.046 A 
ATOM     22  C   UNL     1       0.277  -1.498  -0.113  1.00  0.00     0.004 A 
ATOM     23  C   UNL     1      -1.112  -1.377  -0.138  1.00  0.00     0.000 A 
ATOM     24  C   UNL     1      -0.880   1.018  -0.154  1.00  0.00     0.006 A 
ATOM     25  C   UNL     1      -1.691  -0.116  -0.160  1.00  0.00     0.000 A 
ENDBRANCH  18  19
ENDBRANCH   9  18
ENDBRANCH   7   8
ENDBRANCH   4   7
ENDBRANCH   2   3
ENDBRANCH   1   2
BRANCH   1  26
ATOM     26  C   UNL     1      -4.567   8.493   1.033  1.00  0.00     0.023 C 
BRANCH  26  27
ATOM     27  C   UNL     1      -5.444   9.294   0.103  1.00  0.00     0.116 C 
BRANCH  27  28
ATOM     28  N   UNL     1      -5.988   8.532  -1.011  1.00  0.00    -0.352 N 
ATOM     29  C   UNL     1      -6.697   8.959  -2.131  1.00  0.00     0.251 C 
ATOM     30  H   UNL     1      -5.831   7.561  -0.966  1.00  0.00     0.163 HD
ATOM     31  O   UNL     1      -7.207   8.125  -2.849  1.00  0.00    -0.269 OA
BRANCH  29  32
ATOM     32  C   UNL     1      -6.668  10.402  -2.514  1.00  0.00     0.039 A 
ATOM     33  C   UNL     1      -6.569  10.719  -3.875  1.00  0.00     0.014 A 
ATOM     34  C   UNL     1      -6.395  11.375  -1.567  1.00  0.00     0.014 A 
ATOM     35  C   UNL     1      -5.899  11.879  -4.258  1.00  0.00     0.010 A 
ATOM     36  C   UNL     1      -5.555  12.396  -1.922  1.00  0.00     0.010 A 
ATOM     37  C   UNL     1      -5.275  12.625  -3.270  1.00  0.00    -0.014 A 
BRANCH  37  38
ATOM     38  C   UNL     1      -4.364  13.733  -3.472  1.00  0.00     0.031 A 
ATOM     39  C   UNL     1      -4.874  15.092  -3.206  1.00  0.00     0.074 A 
ATOM     40  C   UNL     1      -3.048  13.481  -3.618  1.00  0.00     0.049 A 
ATOM     41  N   UNL     1      -4.204  16.170  -3.390  1.00  0.00    -0.248 NA
ATOM     42  C   UNL     1      -6.223  15.330  -2.704  1.00  0.00     0.031 C 
ATOM     43  C   UNL     1      -1.925  14.375  -3.355  1.00  0.00     0.029 A 
ATOM     44  N   UNL     1      -2.437  12.383  -4.189  1.00  0.00    -0.354 N 
ATOM     45  C   UNL     1      -4.907  17.207  -2.815  1.00  0.00     0.074 A 
ATOM     46  C   UNL     1      -6.181  16.640  -2.458  1.00  0.00     0.031 C 
ATOM     47  C   UNL     1      -0.834  13.906  -3.989  1.00  0.00     0.029 A 
ATOM     48  C   UNL     1      -1.276  12.809  -4.832  1.00  0.00     0.049 A 
ATOM     49  H   UNL     1      -2.766  11.456  -4.148  1.00  0.00     0.167 HD
ATOM     50  C   UNL     1      -4.254  18.384  -2.611  1.00  0.00     0.034 A 
ATOM     51  C   UNL     1      -1.203  12.819  -6.201  1.00  0.00     0.034 A 
ATOM     52  C   UNL     1      -2.952  18.357  -3.300  1.00  0.00     0.049 A 
ATOM     53  C   UNL     1      -1.056  14.217  -6.791  1.00  0.00     0.074 A 
ATOM     54  C   UNL     1      -1.659  18.092  -2.880  1.00  0.00     0.029 A 
ATOM     55  N   UNL     1      -2.932  18.297  -4.691  1.00  0.00    -0.354 N 
ATOM     56  N   UNL     1      -1.273  15.326  -6.135  1.00  0.00    -0.248 NA
ATOM     57  C   UNL     1      -0.622  14.472  -8.162  1.00  0.00     0.031 C 
ATOM     58  C   UNL     1      -0.887  17.764  -4.030  1.00  0.00     0.029 A 
ATOM     59  C   UNL     1      -1.696  17.869  -5.150  1.00  0.00     0.049 A 
ATOM     60  H   UNL     1      -3.694  18.527  -5.271  1.00  0.00     0.167 HD
ATOM     61  C   UNL     1      -1.129  16.406  -6.967  1.00  0.00     0.074 A 
ATOM     62  C   UNL     1      -0.649  15.817  -8.207  1.00  0.00     0.031 C 
ATOM     63  C   UNL     1      -1.463  17.680  -6.581  1.00  0.00     0.034 A 
BRANCH  50  64
ATOM     64  C   UNL     1      -4.642  19.466  -1.614  1.00  0.00     0.023 A 
ATOM     65  C   UNL     1      -3.649  20.423  -1.299  1.00  0.00     0.012 A 
ATOM     66  C   UNL     1      -5.852  19.583  -0.887  1.00  0.00     0.148 A 
ATOM     67  C   UNL     1      -3.811  21.379  -0.288  1.00  0.00     0.002 A 
ATOM     68  C   UNL     1      -6.009  20.519   0.141  1.00  0.00     0.091 A 
ATOM     69  F   UNL     1      -6.896  18.819  -1.191  1.00  0.00    -0.205 F 
ATOM     70  C   UNL     1      -4.985  21.415   0.448  1.00  0.00     0.022 A 
BRANCH  68  71
ATOM     71  S   UNL     1      -7.496  20.605   1.161  1.00  0.00     0.127 S 
ATOM     72  O   UNL     1      -6.954  20.415   2.507  1.00  0.00    -0.237 OA
ATOM     73  O   UNL     1      -7.985  21.955   0.888  1.00  0.00    -0.237 OA
ATOM     74  O   UNL     1      -8.372  19.529   0.712  1.00  0.00    -0.744 OA
ENDBRANCH  68  71
ENDBRANCH  50  64
BRANCH  51  75
ATOM     75  C   UNL     1      -1.951  11.677  -6.823  1.00  0.00     0.023 A 
ATOM     76  C   UNL     1      -1.542  10.376  -6.432  1.00  0.00     0.012 A 
ATOM     77  C   UNL     1      -3.223  11.834  -7.404  1.00  0.00     0.148 A 
ATOM     78  C   UNL     1      -2.438   9.306  -6.438  1.00  0.00     0.002 A 
ATOM     79  C   UNL     1      -4.102  10.747  -7.442  1.00  0.00     0.091 A 
ATOM     80  F   UNL     1      -3.580  13.042  -7.856  1.00  0.00    -0.205 F 
ATOM     81  C   UNL     1      -3.731   9.502  -6.905  1.00  0.00     0.022 A 
BRANCH  79  82
ATOM     82  S   UNL     1      -5.781  10.902  -8.074  1.00  0.00     0.127 S 
ATOM     83  O   UNL     1      -5.613  10.474  -9.460  1.00  0.00    -0.237 OA
ATOM     84  O   UNL     1      -6.530   9.969  -7.232  1.00  0.00    -0.237 OA
ATOM     85  O   UNL     1      -6.133  12.300  -7.869  1.00  0.00    -0.744 OA
ENDBRANCH  79  82
ENDBRANCH  51  75
BRANCH  63  86
ATOM     86  C   UNL     1      -1.615  18.875  -7.515  1.00  0.00     0.023 A 
ATOM     87  C   UNL     1      -1.771  18.731  -8.907  1.00  0.00     0.012 A 
ATOM     88  C   UNL     1      -1.767  20.192  -7.002  1.00  0.00     0.148 A 
ATOM     89  C   UNL     1      -2.001  19.825  -9.751  1.00  0.00     0.002 A 
ATOM     90  C   UNL     1      -2.120  21.256  -7.830  1.00  0.00     0.091 A 
ATOM     91  F   UNL     1      -1.552  20.436  -5.701  1.00  0.00    -0.205 F 
ATOM     92  C   UNL     1      -2.203  21.085  -9.210  1.00  0.00     0.022 A 
BRANCH  90  93
ATOM     93  S   UNL     1      -2.651  22.829  -7.133  1.00  0.00     0.127 S 
ATOM     94  O   UNL     1      -1.402  23.586  -7.099  1.00  0.00    -0.237 OA
ATOM     95  O   UNL     1      -3.622  23.302  -8.123  1.00  0.00    -0.237 OA
ATOM     96  O   UNL     1      -3.236  22.487  -5.844  1.00  0.00    -0.744 OA
ENDBRANCH  90  93
ENDBRANCH  63  86
ENDBRANCH  37  38
ENDBRANCH  29  32
ENDBRANCH  27  28
ENDBRANCH  26  27
ENDBRANCH   1  26
TORSDOF 17
