REMARK SMILES C[C@@H](C(=O)NCCCCNC(=O)c1ccc(-c2c3nc(c(-c4cccc(S(=O)(=O)[O-])c4F)c4ccc([nH]4)c(-c4cccc(S(=O)(=O)[O-])c4F)c4nc(c(-c5cccc(S(=O)(=O)[O-])c5F)c5ccc2[nH]5)C=C4)C=C3)cc1)c1ccccc1-c1ccn(C(F)F)c(=O)c1
REMARK SMILES IDX 7 1 6 2 5 3 3 4 4 5 2 7 1 8 76 9 77 10 81 11 78 12 80 13
REMARK SMILES IDX 79 14 82 15 83 16 91 17 84 18 89 19 85 20 90 21 86 22 87 23
REMARK SMILES IDX 88 24 8 25 9 26 10 27 11 28 12 30 13 31 14 32 75 33 15 34
REMARK SMILES IDX 74 35 16 36 17 37 18 38 68 39 19 40 73 41 67 42 69 43 20 44
REMARK SMILES IDX 72 45 66 46 65 47 21 49 53 50 33 51 52 52 34 53 37 54 51 55
REMARK SMILES IDX 70 56 35 57 36 58 50 60 71 61 38 62 22 63 23 64 31 65 24 66
REMARK SMILES IDX 26 67 32 68 25 69 27 70 28 71 29 72 30 73 54 74 55 75 63 76
REMARK SMILES IDX 56 77 58 78 64 79 57 80 59 81 60 82 61 83 62 84 39 85 40 86
REMARK SMILES IDX 48 87 41 88 43 89 49 90 42 91 44 92 45 93 46 94 47 95
REMARK H PARENT 5 6 10 29 69 48 37 59
REMARK Flexibility Score: inf
ROOT
ATOM      1  C   UNL     1       4.265   0.966  -1.079  1.00  0.00     0.023 C 
ENDROOT
BRANCH   1   2
ATOM      2  C   UNL     1       3.466   2.217  -0.698  1.00  0.00     0.116 C 
BRANCH   2   3
ATOM      3  N   UNL     1       2.289   2.351  -1.533  1.00  0.00    -0.356 N 
ATOM      4  C   UNL     1       1.013   1.897  -1.345  1.00  0.00     0.227 C 
ATOM      5  O   UNL     1       0.227   2.043  -2.283  1.00  0.00    -0.274 OA
ATOM      6  H   UNL     1       2.432   2.849  -2.371  1.00  0.00     0.163 HD
BRANCH   4   7
ATOM      7  C   UNL     1       0.580   1.313   0.019  1.00  0.00     0.106 C 
ATOM      8  C   UNL     1       1.371   0.065   0.393  1.00  0.00     0.023 C 
BRANCH   7   9
ATOM      9  C   UNL     1      -0.959   1.201   0.131  1.00  0.00    -0.028 A 
ATOM     10  C   UNL     1      -1.641   2.438   0.246  1.00  0.00     0.005 A 
ATOM     11  C   UNL     1      -1.747   0.021   0.087  1.00  0.00    -0.014 A 
ATOM     12  C   UNL     1      -3.031   2.512   0.334  1.00  0.00     0.000 A 
ATOM     13  C   UNL     1      -3.149   0.114   0.202  1.00  0.00     0.009 A 
ATOM     14  C   UNL     1      -3.786   1.348   0.322  1.00  0.00     0.001 A 
BRANCH  11  15
ATOM     15  C   UNL     1      -1.210  -1.344  -0.095  1.00  0.00    -0.011 A 
ATOM     16  C   UNL     1      -0.739  -2.160   1.012  1.00  0.00     0.027 A 
ATOM     17  C   UNL     1      -1.093  -1.812  -1.349  1.00  0.00     0.080 A 
ATOM     18  C   UNL     1       0.052  -3.213   0.773  1.00  0.00     0.095 A 
ATOM     19  C   UNL     1      -0.356  -3.080  -1.613  1.00  0.00     0.255 A 
ATOM     20  N   UNL     1       0.313  -3.618  -0.522  1.00  0.00    -0.258 N 
ATOM     21  O   UNL     1      -0.340  -3.536  -2.751  1.00  0.00    -0.269 OA
BRANCH  20  22
ATOM     22  C   UNL     1       1.261  -4.669  -0.785  1.00  0.00     0.451 C 
ATOM     23  F   UNL     1       0.637  -5.822  -1.121  1.00  0.00    -0.185 F 
ATOM     24  F   UNL     1       2.108  -4.335  -1.789  1.00  0.00    -0.185 F 
ENDBRANCH  20  22
ENDBRANCH  11  15
ENDBRANCH   7   9
ENDBRANCH   4   7
ENDBRANCH   2   3
ENDBRANCH   1   2
BRANCH   1  25
ATOM     25  C   UNL     1       5.120   1.119  -2.335  1.00  0.00     0.023 C 
BRANCH  25  26
ATOM     26  C   UNL     1       6.237   2.146  -2.219  1.00  0.00     0.116 C 
BRANCH  26  27
ATOM     27  N   UNL     1       7.185   1.854  -1.150  1.00  0.00    -0.352 N 
ATOM     28  C   UNL     1       8.535   2.134  -1.127  1.00  0.00     0.251 C 
ATOM     29  H   UNL     1       6.819   1.406  -0.354  1.00  0.00     0.163 HD
ATOM     30  O   UNL     1       9.242   1.756  -0.207  1.00  0.00    -0.269 OA
BRANCH  28  31
ATOM     31  C   UNL     1       9.106   2.869  -2.274  1.00  0.00     0.039 A 
ATOM     32  C   UNL     1      10.146   2.289  -3.002  1.00  0.00     0.014 A 
ATOM     33  C   UNL     1       8.521   4.067  -2.687  1.00  0.00     0.014 A 
ATOM     34  C   UNL     1      10.551   2.877  -4.202  1.00  0.00     0.010 A 
ATOM     35  C   UNL     1       8.872   4.605  -3.917  1.00  0.00     0.010 A 
ATOM     36  C   UNL     1       9.886   4.014  -4.688  1.00  0.00    -0.014 A 
BRANCH  36  37
ATOM     37  C   UNL     1      10.207   4.612  -6.007  1.00  0.00     0.031 A 
ATOM     38  C   UNL     1      10.694   6.032  -6.075  1.00  0.00     0.074 A 
ATOM     39  C   UNL     1       9.910   3.941  -7.137  1.00  0.00     0.049 A 
ATOM     40  N   UNL     1      10.861   6.798  -7.120  1.00  0.00    -0.248 NA
ATOM     41  C   UNL     1      10.986   6.692  -4.792  1.00  0.00     0.031 C 
ATOM     42  C   UNL     1       9.341   2.593  -7.197  1.00  0.00     0.029 A 
ATOM     43  N   UNL     1       9.996   4.325  -8.453  1.00  0.00    -0.354 N 
ATOM     44  C   UNL     1      11.217   8.043  -6.620  1.00  0.00     0.074 A 
ATOM     45  C   UNL     1      11.218   7.938  -5.177  1.00  0.00     0.031 C 
ATOM     46  C   UNL     1       9.109   2.272  -8.480  1.00  0.00     0.029 A 
ATOM     47  C   UNL     1       9.482   3.399  -9.330  1.00  0.00     0.049 A 
ATOM     48  H   UNL     1      10.387   5.181  -8.740  1.00  0.00     0.167 HD
ATOM     49  C   UNL     1      11.540   9.168  -7.300  1.00  0.00     0.034 A 
ATOM     50  C   UNL     1       9.310   3.457 -10.666  1.00  0.00     0.034 A 
ATOM     51  C   UNL     1      11.607   9.245  -8.733  1.00  0.00     0.049 A 
ATOM     52  C   UNL     1       9.758   4.686 -11.408  1.00  0.00     0.074 A 
ATOM     53  C   UNL     1      12.051  10.293  -9.518  1.00  0.00     0.029 A 
ATOM     54  N   UNL     1      11.216   8.233  -9.596  1.00  0.00    -0.354 N 
ATOM     55  N   UNL     1      10.266   5.796 -10.930  1.00  0.00    -0.248 NA
ATOM     56  C   UNL     1       9.645   4.661 -12.874  1.00  0.00     0.031 C 
ATOM     57  C   UNL     1      11.916   9.920 -10.859  1.00  0.00     0.029 A 
ATOM     58  C   UNL     1      11.401   8.633 -10.908  1.00  0.00     0.049 A 
ATOM     59  H   UNL     1      10.859   7.359  -9.318  1.00  0.00     0.167 HD
ATOM     60  C   UNL     1      10.564   6.588 -12.032  1.00  0.00     0.074 A 
ATOM     61  C   UNL     1      10.192   5.824 -13.206  1.00  0.00     0.031 C 
ATOM     62  C   UNL     1      11.085   7.839 -12.067  1.00  0.00     0.034 A 
BRANCH  49  63
ATOM     63  C   UNL     1      11.903  10.387  -6.495  1.00  0.00     0.023 A 
ATOM     64  C   UNL     1      13.124  10.416  -5.790  1.00  0.00     0.012 A 
ATOM     65  C   UNL     1      11.056  11.510  -6.456  1.00  0.00     0.148 A 
ATOM     66  C   UNL     1      13.476  11.527  -5.025  1.00  0.00     0.002 A 
ATOM     67  C   UNL     1      11.434  12.631  -5.726  1.00  0.00     0.091 A 
ATOM     68  F   UNL     1       9.885  11.456  -7.108  1.00  0.00    -0.205 F 
ATOM     69  C   UNL     1      12.636  12.637  -5.000  1.00  0.00     0.022 A 
BRANCH  67  70
ATOM     70  S   UNL     1      10.450  14.134  -5.703  1.00  0.00     0.127 S 
ATOM     71  O   UNL     1       9.759  14.016  -4.420  1.00  0.00    -0.237 OA
ATOM     72  O   UNL     1      11.472  15.180  -5.750  1.00  0.00    -0.237 OA
ATOM     73  O   UNL     1       9.604  14.068  -6.887  1.00  0.00    -0.744 OA
ENDBRANCH  67  70
ENDBRANCH  49  63
BRANCH  50  74
ATOM     74  C   UNL     1       8.739   2.283 -11.383  1.00  0.00     0.023 A 
ATOM     75  C   UNL     1       9.586   1.472 -12.162  1.00  0.00     0.012 A 
ATOM     76  C   UNL     1       7.384   1.926 -11.239  1.00  0.00     0.148 A 
ATOM     77  C   UNL     1       9.090   0.336 -12.803  1.00  0.00     0.002 A 
ATOM     78  C   UNL     1       6.909   0.764 -11.837  1.00  0.00     0.091 A 
ATOM     79  F   UNL     1       6.595   2.717 -10.500  1.00  0.00    -0.205 F 
ATOM     80  C   UNL     1       7.756  -0.025 -12.630  1.00  0.00     0.022 A 
BRANCH  78  81
ATOM     81  S   UNL     1       5.244   0.148 -11.560  1.00  0.00     0.127 S 
ATOM     82  O   UNL     1       4.631   0.349 -12.870  1.00  0.00    -0.237 OA
ATOM     83  O   UNL     1       5.497  -1.249 -11.205  1.00  0.00    -0.237 OA
ATOM     84  O   UNL     1       4.702   0.956 -10.476  1.00  0.00    -0.744 OA
ENDBRANCH  78  81
ENDBRANCH  50  74
BRANCH  62  85
ATOM     85  C   UNL     1      11.325   8.466 -13.414  1.00  0.00     0.023 A 
ATOM     86  C   UNL     1      10.238   8.972 -14.151  1.00  0.00     0.012 A 
ATOM     87  C   UNL     1      12.637   8.659 -13.889  1.00  0.00     0.148 A 
ATOM     88  C   UNL     1      10.452   9.650 -15.351  1.00  0.00     0.002 A 
ATOM     89  C   UNL     1      12.845   9.374 -15.063  1.00  0.00     0.091 A 
ATOM     90  F   UNL     1      13.656   8.153 -13.179  1.00  0.00    -0.205 F 
ATOM     91  C   UNL     1      11.754   9.863 -15.799  1.00  0.00     0.022 A 
BRANCH  89  92
ATOM     92  S   UNL     1      14.489   9.781 -15.664  1.00  0.00     0.127 S 
ATOM     93  O   UNL     1      14.601   8.913 -16.835  1.00  0.00    -0.237 OA
ATOM     94  O   UNL     1      14.364  11.206 -15.970  1.00  0.00    -0.237 OA
ATOM     95  O   UNL     1      15.403   9.476 -14.572  1.00  0.00    -0.744 OA
ENDBRANCH  89  92
ENDBRANCH  62  85
ENDBRANCH  36  37
ENDBRANCH  28  31
ENDBRANCH  26  27
ENDBRANCH  25  26
ENDBRANCH   1  25
TORSDOF 17
