REMARK SMILES COc1cc([C@@H]2[NH2+][C@H](C(=O)NCCCCNC(=O)c3ccc(-c4c5nc(c(-c6cccc(S(=O)(=O)[O-])c6F)c6ccc([nH]6)c(-c6cccc(S(=O)(=O)[O-])c6F)c6nc(c(-c7cccc(S(=O)(=O)[O-])c7F)c7ccc4[nH]7)C=C6)C=C5)cc3)CS2)ccc1OCc1ccc(Cl)cc1
REMARK SMILES IDX 13 1 12 2 11 3 9 4 10 5 8 7 6 8 7 9 83 10 82 13 5 14 3 15
REMARK SMILES IDX 4 16 86 17 85 18 84 19 2 20 1 21 87 22 88 23 89 24 90 25
REMARK SMILES IDX 95 26 91 27 94 28 92 29 93 30 14 31 15 32 16 33 17 34 18 36
REMARK SMILES IDX 19 37 20 38 81 39 21 40 80 41 22 42 23 43 24 44 74 45 25 46
REMARK SMILES IDX 79 47 73 48 75 49 26 50 78 51 72 52 71 53 27 55 59 56 39 57
REMARK SMILES IDX 58 58 40 59 43 60 57 61 76 62 41 63 42 64 56 66 77 67 44 68
REMARK SMILES IDX 28 69 29 70 37 71 30 72 32 73 38 74 31 75 33 76 34 77 35 78
REMARK SMILES IDX 36 79 60 80 61 81 69 82 62 83 64 84 70 85 63 86 65 87 66 88
REMARK SMILES IDX 67 89 68 90 45 91 46 92 54 93 47 94 49 95 55 96 48 97 50 98
REMARK SMILES IDX 51 99 52 100 53 101
REMARK H PARENT 11 6 7 11 7 12 16 35 75 54 43 65
REMARK Flexibility Score: inf
ROOT
ATOM      1  C   UNL     1       2.898   1.938   3.792  1.00  0.00     0.023 C 
ENDROOT
BRANCH   1   2
ATOM      2  C   UNL     1       3.008   1.360   5.200  1.00  0.00     0.116 C 
BRANCH   2   3
ATOM      3  N   UNL     1       3.130   2.398   6.209  1.00  0.00    -0.351 N 
ATOM      4  C   UNL     1       2.259   2.817   7.172  1.00  0.00     0.279 C 
ATOM      5  O   UNL     1       2.640   3.713   7.933  1.00  0.00    -0.268 OA
ATOM      6  H   UNL     1       3.988   2.882   6.196  1.00  0.00     0.163 HD
BRANCH   4   7
ATOM      7  C   UNL     1       0.864   2.193   7.359  1.00  0.00     0.283 C 
ATOM      8  C   UNL     1      -0.896   1.161   6.035  1.00  0.00     0.274 C 
ATOM      9  N   UNL     1       0.101   2.235   6.103  1.00  0.00    -0.321 N 
ATOM     10  S   UNL     1      -0.672   0.078   7.470  1.00  0.00    -0.088 SA
ATOM     11  H   UNL     1      -0.376   3.134   6.037  1.00  0.00     0.348 HD
ATOM     12  H   UNL     1       0.755   2.109   5.331  1.00  0.00     0.348 HD
ATOM     13  C   UNL     1       0.940   0.775   7.896  1.00  0.00     0.151 C 
BRANCH   8  14
ATOM     14  C   UNL     1      -0.759   0.515   4.659  1.00  0.00     0.024 A 
ATOM     15  C   UNL     1      -0.646   1.059   2.267  1.00  0.00     0.161 A 
ATOM     16  C   UNL     1      -1.173   1.274   3.548  1.00  0.00     0.061 A 
ATOM     17  C   UNL     1       0.265   0.017   2.079  1.00  0.00     0.161 A 
ATOM     18  C   UNL     1       0.471  -0.901   3.119  1.00  0.00     0.051 A 
ATOM     19  C   UNL     1      -0.022  -0.648   4.405  1.00  0.00     0.015 A 
BRANCH  15  20
ATOM     20  O   UNL     1      -1.091   1.975   1.357  1.00  0.00    -0.493 OA
ATOM     21  C   UNL     1      -0.170   2.454   0.395  1.00  0.00     0.278 C 
ENDBRANCH  15  20
BRANCH  17  22
ATOM     22  O   UNL     1       1.284   0.114   1.169  1.00  0.00    -0.485 OA
BRANCH  22  23
ATOM     23  C   UNL     1       1.224  -0.507  -0.109  1.00  0.00     0.265 C 
BRANCH  23  24
ATOM     24  C   UNL     1       0.275  -1.651  -0.302  1.00  0.00    -0.011 A 
ATOM     25  C   UNL     1      -1.084  -1.395  -0.515  1.00  0.00     0.009 A 
ATOM     26  C   UNL     1       0.725  -2.974  -0.231  1.00  0.00     0.009 A 
ATOM     27  C   UNL     1      -1.988  -2.450  -0.587  1.00  0.00     0.021 A 
ATOM     28  C   UNL     1      -0.177  -4.030  -0.311  1.00  0.00     0.021 A 
ATOM     29  C   UNL     1      -1.533  -3.762  -0.467  1.00  0.00     0.041 A 
ATOM     30  Cl  UNL     1      -2.661  -5.059  -0.483  1.00  0.00    -0.084 Cl
ENDBRANCH  23  24
ENDBRANCH  22  23
ENDBRANCH  17  22
ENDBRANCH   8  14
ENDBRANCH   4   7
ENDBRANCH   2   3
ENDBRANCH   1   2
BRANCH   1  31
ATOM     31  C   UNL     1       3.911   1.477   2.739  1.00  0.00     0.023 C 
BRANCH  31  32
ATOM     32  C   UNL     1       4.662   0.164   2.918  1.00  0.00     0.116 C 
BRANCH  32  33
ATOM     33  N   UNL     1       3.879  -1.052   2.756  1.00  0.00    -0.352 N 
ATOM     34  C   UNL     1       4.000  -2.063   1.817  1.00  0.00     0.251 C 
ATOM     35  H   UNL     1       3.155  -1.175   3.412  1.00  0.00     0.163 HD
ATOM     36  O   UNL     1       3.252  -3.022   1.821  1.00  0.00    -0.269 OA
BRANCH  34  37
ATOM     37  C   UNL     1       5.053  -1.951   0.785  1.00  0.00     0.039 A 
ATOM     38  C   UNL     1       4.735  -2.035  -0.577  1.00  0.00     0.014 A 
ATOM     39  C   UNL     1       6.359  -1.704   1.194  1.00  0.00     0.014 A 
ATOM     40  C   UNL     1       5.705  -1.744  -1.535  1.00  0.00     0.010 A 
ATOM     41  C   UNL     1       7.299  -1.331   0.253  1.00  0.00     0.010 A 
ATOM     42  C   UNL     1       6.981  -1.363  -1.115  1.00  0.00    -0.014 A 
BRANCH  42  43
ATOM     43  C   UNL     1       8.103  -1.156  -2.049  1.00  0.00     0.031 A 
ATOM     44  C   UNL     1       9.215  -2.159  -1.984  1.00  0.00     0.074 A 
ATOM     45  C   UNL     1       8.194  -0.026  -2.768  1.00  0.00     0.049 A 
ATOM     46  N   UNL     1      10.443  -2.065  -2.405  1.00  0.00    -0.248 NA
ATOM     47  C   UNL     1       8.912  -3.413  -1.266  1.00  0.00     0.031 C 
ATOM     48  C   UNL     1       7.163   1.009  -2.867  1.00  0.00     0.029 A 
ATOM     49  N   UNL     1       9.235   0.466  -3.510  1.00  0.00    -0.354 N 
ATOM     50  C   UNL     1      11.079  -3.208  -1.936  1.00  0.00     0.074 A 
ATOM     51  C   UNL     1      10.113  -3.958  -1.169  1.00  0.00     0.031 C 
ATOM     52  C   UNL     1       7.632   2.025  -3.612  1.00  0.00     0.029 A 
ATOM     53  C   UNL     1       9.008   1.732  -3.999  1.00  0.00     0.049 A 
ATOM     54  H   UNL     1      10.065  -0.037  -3.676  1.00  0.00     0.167 HD
ATOM     55  C   UNL     1      12.356  -3.600  -2.147  1.00  0.00     0.034 A 
ATOM     56  C   UNL     1       9.842   2.559  -4.659  1.00  0.00     0.034 A 
ATOM     57  C   UNL     1      13.271  -2.849  -2.957  1.00  0.00     0.049 A 
ATOM     58  C   UNL     1      11.248   2.082  -4.922  1.00  0.00     0.074 A 
ATOM     59  C   UNL     1      14.565  -3.161  -3.320  1.00  0.00     0.029 A 
ATOM     60  N   UNL     1      12.970  -1.623  -3.540  1.00  0.00    -0.354 N 
ATOM     61  N   UNL     1      11.819   0.956  -4.560  1.00  0.00    -0.248 NA
ATOM     62  C   UNL     1      12.115   2.972  -5.704  1.00  0.00     0.031 C 
ATOM     63  C   UNL     1      15.054  -2.115  -4.110  1.00  0.00     0.029 A 
ATOM     64  C   UNL     1      14.053  -1.165  -4.264  1.00  0.00     0.049 A 
ATOM     65  H   UNL     1      12.111  -1.151  -3.449  1.00  0.00     0.167 HD
ATOM     66  C   UNL     1      13.096   0.981  -5.107  1.00  0.00     0.074 A 
ATOM     67  C   UNL     1      13.208   2.232  -5.834  1.00  0.00     0.031 C 
ATOM     68  C   UNL     1      14.094   0.065  -5.016  1.00  0.00     0.034 A 
BRANCH  55  69
ATOM     69  C   UNL     1      12.793  -4.897  -1.516  1.00  0.00     0.023 A 
ATOM     70  C   UNL     1      12.220  -6.114  -1.943  1.00  0.00     0.012 A 
ATOM     71  C   UNL     1      13.750  -4.915  -0.483  1.00  0.00     0.148 A 
ATOM     72  C   UNL     1      12.542  -7.316  -1.313  1.00  0.00     0.002 A 
ATOM     73  C   UNL     1      14.109  -6.124   0.103  1.00  0.00     0.091 A 
ATOM     74  F   UNL     1      14.267  -3.750  -0.067  1.00  0.00    -0.205 F 
ATOM     75  C   UNL     1      13.492  -7.321  -0.296  1.00  0.00     0.022 A 
BRANCH  73  76
ATOM     76  S   UNL     1      15.381  -6.251   1.364  1.00  0.00     0.127 S 
ATOM     77  O   UNL     1      14.588  -6.559   2.554  1.00  0.00    -0.237 OA
ATOM     78  O   UNL     1      16.193  -7.362   0.869  1.00  0.00    -0.237 OA
ATOM     79  O   UNL     1      16.059  -4.963   1.380  1.00  0.00    -0.744 OA
ENDBRANCH  73  76
ENDBRANCH  55  69
BRANCH  56  80
ATOM     80  C   UNL     1       9.350   3.866  -5.182  1.00  0.00     0.023 A 
ATOM     81  C   UNL     1       9.185   4.022  -6.573  1.00  0.00     0.012 A 
ATOM     82  C   UNL     1       9.002   4.933  -4.330  1.00  0.00     0.148 A 
ATOM     83  C   UNL     1       8.712   5.220  -7.108  1.00  0.00     0.002 A 
ATOM     84  C   UNL     1       8.484   6.108  -4.866  1.00  0.00     0.091 A 
ATOM     85  F   UNL     1       9.170   4.771  -3.010  1.00  0.00    -0.205 F 
ATOM     86  C   UNL     1       8.353   6.259  -6.256  1.00  0.00     0.022 A 
BRANCH  84  87
ATOM     87  S   UNL     1       7.875   7.457  -3.846  1.00  0.00     0.127 S 
ATOM     88  O   UNL     1       8.849   8.509  -4.127  1.00  0.00    -0.237 OA
ATOM     89  O   UNL     1       6.543   7.683  -4.409  1.00  0.00    -0.237 OA
ATOM     90  O   UNL     1       7.872   6.947  -2.481  1.00  0.00    -0.744 OA
ENDBRANCH  84  87
ENDBRANCH  56  80
BRANCH  68  91
ATOM     91  C   UNL     1      15.366   0.356  -5.763  1.00  0.00     0.023 A 
ATOM     92  C   UNL     1      16.257   1.335  -5.284  1.00  0.00     0.012 A 
ATOM     93  C   UNL     1      15.714  -0.412  -6.891  1.00  0.00     0.148 A 
ATOM     94  C   UNL     1      17.466   1.565  -5.936  1.00  0.00     0.002 A 
ATOM     95  C   UNL     1      16.944  -0.214  -7.503  1.00  0.00     0.091 A 
ATOM     96  F   UNL     1      14.839  -1.326  -7.338  1.00  0.00    -0.205 F 
ATOM     97  C   UNL     1      17.815   0.783  -7.035  1.00  0.00     0.022 A 
BRANCH  95  98
ATOM     98  S   UNL     1      17.521  -1.249  -8.851  1.00  0.00     0.127 S 
ATOM     99  O   UNL     1      17.437  -0.331  -9.986  1.00  0.00    -0.237 OA
ATOM    100  O   UNL     1      18.884  -1.575  -8.429  1.00  0.00    -0.237 OA
ATOM    101  O   UNL     1      16.615  -2.388  -8.901  1.00  0.00    -0.744 OA
ENDBRANCH  95  98
ENDBRANCH  68  91
ENDBRANCH  42  43
ENDBRANCH  34  37
ENDBRANCH  32  33
ENDBRANCH  31  32
ENDBRANCH   1  31
TORSDOF 19
