REMARK SMILES C[C@@H](C(=O)NCCCCNC(=O)c1ccc(-c2c3nc(c(-c4cccc(S(=O)(=O)[O-])c4F)c4ccc([nH]4)c(-c4cccc(S(=O)(=O)[O-])c4F)c4nc(c(-c5cccc(S(=O)(=O)[O-])c5F)c5ccc2[nH]5)C=C4)C=C3)cc1)c1ccc(C[C@H]2CCC[C@@H]2O)cc1F
REMARK SMILES IDX 7 1 6 2 5 3 3 4 4 5 2 7 1 8 76 9 77 10 88 11 78 12 87 13
REMARK SMILES IDX 89 14 79 15 80 16 81 17 82 18 85 19 83 20 84 21 86 22 8 24
REMARK SMILES IDX 9 25 10 26 11 27 12 29 13 30 14 31 75 32 15 33 74 34 16 35
REMARK SMILES IDX 17 36 18 37 68 38 19 39 73 40 67 41 69 42 20 43 72 44 66 45
REMARK SMILES IDX 65 46 21 48 53 49 33 50 52 51 34 52 37 53 51 54 70 55 35 56
REMARK SMILES IDX 36 57 50 59 71 60 38 61 22 62 23 63 31 64 24 65 26 66 32 67
REMARK SMILES IDX 25 68 27 69 28 70 29 71 30 72 54 73 55 74 63 75 56 76 58 77
REMARK SMILES IDX 64 78 57 79 59 80 60 81 61 82 62 83 39 84 40 85 48 86 41 87
REMARK SMILES IDX 43 88 49 89 42 90 44 91 45 92 46 93 47 94
REMARK H PARENT 5 6 86 23 10 28 69 47 37 58
REMARK Flexibility Score: inf
ROOT
ATOM      1  C   UNL     1       4.250   0.926  -0.676  1.00  0.00     0.023 C 
ENDROOT
BRANCH   1   2
ATOM      2  C   UNL     1       3.348   1.707   0.286  1.00  0.00     0.116 C 
BRANCH   2   3
ATOM      3  N   UNL     1       2.310   2.416  -0.436  1.00  0.00    -0.356 N 
ATOM      4  C   UNL     1       1.014   2.057  -0.677  1.00  0.00     0.227 C 
ATOM      5  O   UNL     1       0.432   2.656  -1.582  1.00  0.00    -0.274 OA
ATOM      6  H   UNL     1       2.580   3.286  -0.809  1.00  0.00     0.163 HD
BRANCH   4   7
ATOM      7  C   UNL     1       0.349   0.961   0.179  1.00  0.00     0.108 C 
ATOM      8  C   UNL     1       0.781  -0.400  -0.381  1.00  0.00     0.023 C 
BRANCH   7   9
ATOM      9  C   UNL     1      -1.173   1.097   0.318  1.00  0.00    -0.000 A 
ATOM     10  C   UNL     1      -1.811   2.345   0.213  1.00  0.00     0.008 A 
ATOM     11  C   UNL     1      -1.994  -0.001   0.611  1.00  0.00     0.127 A 
ATOM     12  C   UNL     1      -3.201   2.469   0.313  1.00  0.00     0.004 A 
ATOM     13  C   UNL     1      -3.377   0.118   0.737  1.00  0.00     0.043 A 
ATOM     14  F   UNL     1      -1.474  -1.220   0.809  1.00  0.00    -0.207 F 
ATOM     15  C   UNL     1      -3.999   1.360   0.597  1.00  0.00    -0.045 A 
BRANCH  15  16
ATOM     16  C   UNL     1      -5.490   1.492   0.780  1.00  0.00     0.041 C 
BRANCH  16  17
ATOM     17  C   UNL     1      -5.953   2.011   2.151  1.00  0.00     0.022 C 
ATOM     18  C   UNL     1      -5.398   1.277   3.383  1.00  0.00     0.007 C 
ATOM     19  C   UNL     1      -5.662   3.491   2.417  1.00  0.00     0.117 C 
ATOM     20  C   UNL     1      -5.129   2.358   4.434  1.00  0.00     0.003 C 
ATOM     21  C   UNL     1      -5.833   3.603   3.923  1.00  0.00     0.032 C 
BRANCH  19  22
ATOM     22  O   UNL     1      -6.577   4.319   1.725  1.00  0.00    -0.393 OA
ATOM     23  H   UNL     1      -7.483   4.087   1.984  1.00  0.00     0.210 HD
ENDBRANCH  19  22
ENDBRANCH  16  17
ENDBRANCH  15  16
ENDBRANCH   7   9
ENDBRANCH   4   7
ENDBRANCH   2   3
ENDBRANCH   1   2
BRANCH   1  24
ATOM     24  C   UNL     1       5.032   1.789  -1.666  1.00  0.00     0.023 C 
BRANCH  24  25
ATOM     25  C   UNL     1       6.003   2.768  -1.027  1.00  0.00     0.116 C 
BRANCH  25  26
ATOM     26  N   UNL     1       7.027   2.104  -0.230  1.00  0.00    -0.352 N 
ATOM     27  C   UNL     1       8.370   2.388  -0.171  1.00  0.00     0.251 C 
ATOM     28  H   UNL     1       6.717   1.361   0.337  1.00  0.00     0.163 HD
ATOM     29  O   UNL     1       9.139   1.658   0.448  1.00  0.00    -0.269 OA
BRANCH  27  30
ATOM     30  C   UNL     1       8.875   3.570  -0.894  1.00  0.00     0.039 A 
ATOM     31  C   UNL     1       9.926   3.420  -1.802  1.00  0.00     0.014 A 
ATOM     32  C   UNL     1       8.248   4.807  -0.724  1.00  0.00     0.014 A 
ATOM     33  C   UNL     1      10.305   4.502  -2.599  1.00  0.00     0.010 A 
ATOM     34  C   UNL     1       8.579   5.859  -1.566  1.00  0.00     0.010 A 
ATOM     35  C   UNL     1       9.608   5.718  -2.511  1.00  0.00    -0.014 A 
BRANCH  35  36
ATOM     36  C   UNL     1       9.916   6.871  -3.391  1.00  0.00     0.031 A 
ATOM     37  C   UNL     1      10.381   8.162  -2.780  1.00  0.00     0.074 A 
ATOM     38  C   UNL     1       9.629   6.806  -4.705  1.00  0.00     0.049 A 
ATOM     39  N   UNL     1      10.519   9.336  -3.334  1.00  0.00    -0.248 NA
ATOM     40  C   UNL     1      10.688   8.135  -1.339  1.00  0.00     0.031 C 
ATOM     41  C   UNL     1       9.094   5.633  -5.399  1.00  0.00     0.029 A 
ATOM     42  N   UNL     1       9.697   7.768  -5.683  1.00  0.00    -0.354 N 
ATOM     43  C   UNL     1      10.866  10.200  -2.303  1.00  0.00     0.074 A 
ATOM     44  C   UNL     1      10.898   9.418  -1.087  1.00  0.00     0.031 C 
ATOM     45  C   UNL     1       8.863   5.949  -6.683  1.00  0.00     0.029 A 
ATOM     46  C   UNL     1       9.202   7.353  -6.897  1.00  0.00     0.049 A 
ATOM     47  H   UNL     1      10.065   8.668  -5.529  1.00  0.00     0.167 HD
ATOM     48  C   UNL     1      11.157  11.521  -2.367  1.00  0.00     0.034 A 
ATOM     49  C   UNL     1       9.022   8.032  -8.047  1.00  0.00     0.034 A 
ATOM     50  C   UNL     1      11.191  12.274  -3.590  1.00  0.00     0.049 A 
ATOM     51  C   UNL     1       9.431   9.478  -8.115  1.00  0.00     0.074 A 
ATOM     52  C   UNL     1      11.585  13.587  -3.781  1.00  0.00     0.029 A 
ATOM     53  N   UNL     1      10.820  11.781  -4.831  1.00  0.00    -0.354 N 
ATOM     54  N   UNL     1       9.913  10.242  -7.165  1.00  0.00    -0.248 NA
ATOM     55  C   UNL     1       9.309  10.147  -9.419  1.00  0.00     0.031 C 
ATOM     56  C   UNL     1      11.444  13.889  -5.140  1.00  0.00     0.029 A 
ATOM     57  C   UNL     1      10.975  12.761  -5.795  1.00  0.00     0.049 A 
ATOM     58  H   UNL     1      10.495  10.868  -5.002  1.00  0.00     0.167 HD
ATOM     59  C   UNL     1      10.184  11.468  -7.760  1.00  0.00     0.074 A 
ATOM     60  C   UNL     1       9.825  11.342  -9.158  1.00  0.00     0.031 C 
ATOM     61  C   UNL     1      10.675  12.599  -7.196  1.00  0.00     0.034 A 
BRANCH  48  62
ATOM     62  C   UNL     1      11.515  12.214  -1.080  1.00  0.00     0.023 A 
ATOM     63  C   UNL     1      12.754  11.938  -0.465  1.00  0.00     0.012 A 
ATOM     64  C   UNL     1      10.646  13.151  -0.491  1.00  0.00     0.148 A 
ATOM     65  C   UNL     1      13.101  12.549   0.739  1.00  0.00     0.002 A 
ATOM     66  C   UNL     1      11.019  13.790   0.686  1.00  0.00     0.091 A 
ATOM     67  F   UNL     1       9.459  13.382  -1.072  1.00  0.00    -0.205 F 
ATOM     68  C   UNL     1      12.239  13.481   1.309  1.00  0.00     0.022 A 
BRANCH  66  69
ATOM     69  S   UNL     1       9.999  15.059   1.445  1.00  0.00     0.127 S 
ATOM     70  O   UNL     1       9.306  14.302   2.485  1.00  0.00    -0.237 OA
ATOM     71  O   UNL     1      10.995  16.008   1.944  1.00  0.00    -0.237 OA
ATOM     72  O   UNL     1       9.161  15.579   0.372  1.00  0.00    -0.744 OA
ENDBRANCH  66  69
ENDBRANCH  48  62
BRANCH  49  73
ATOM     73  C   UNL     1       8.492   7.318  -9.242  1.00  0.00     0.023 A 
ATOM     74  C   UNL     1       9.370   6.996 -10.295  1.00  0.00     0.012 A 
ATOM     75  C   UNL     1       7.151   6.891  -9.308  1.00  0.00     0.148 A 
ATOM     76  C   UNL     1       8.919   6.277 -11.402  1.00  0.00     0.002 A 
ATOM     77  C   UNL     1       6.721   6.130 -10.390  1.00  0.00     0.091 A 
ATOM     78  F   UNL     1       6.332   7.213  -8.297  1.00  0.00    -0.205 F 
ATOM     79  C   UNL     1       7.600   5.833 -11.444  1.00  0.00     0.022 A 
BRANCH  77  80
ATOM     80  S   UNL     1       5.081   5.401 -10.470  1.00  0.00     0.127 S 
ATOM     81  O   UNL     1       4.477   6.146 -11.572  1.00  0.00    -0.237 OA
ATOM     82  O   UNL     1       5.389   4.002 -10.767  1.00  0.00    -0.237 OA
ATOM     83  O   UNL     1       4.487   5.622  -9.159  1.00  0.00    -0.744 OA
ENDBRANCH  77  80
ENDBRANCH  49  73
BRANCH  61  84
ATOM     84  C   UNL     1      10.897  13.792  -8.086  1.00  0.00     0.023 A 
ATOM     85  C   UNL     1       9.796  14.564  -8.505  1.00  0.00     0.012 A 
ATOM     86  C   UNL     1      12.203  14.209  -8.412  1.00  0.00     0.148 A 
ATOM     87  C   UNL     1       9.992  15.727  -9.248  1.00  0.00     0.002 A 
ATOM     88  C   UNL     1      12.391  15.392  -9.116  1.00  0.00     0.091 A 
ATOM     89  F   UNL     1      13.234  13.447  -8.020  1.00  0.00    -0.205 F 
ATOM     90  C   UNL     1      11.287  16.148  -9.542  1.00  0.00     0.022 A 
BRANCH  88  91
ATOM     91  S   UNL     1      14.026  16.058  -9.454  1.00  0.00     0.127 S 
ATOM     92  O   UNL     1      14.168  15.788 -10.884  1.00  0.00    -0.237 OA
ATOM     93  O   UNL     1      13.863  17.472  -9.114  1.00  0.00    -0.237 OA
ATOM     94  O   UNL     1      14.941  15.331  -8.585  1.00  0.00    -0.744 OA
ENDBRANCH  88  91
ENDBRANCH  61  84
ENDBRANCH  35  36
ENDBRANCH  27  30
ENDBRANCH  25  26
ENDBRANCH  24  25
ENDBRANCH   1  24
TORSDOF 18
