REMARK SMILES Cc1c(NC(=O)c2ccc(Br)cc2N)cccc1C(=O)NCCCCNC(=O)c1ccc(-c2c3nc(c(-c4cccc(S(=O)(=O)[O-])c4F)c4ccc([nH]4)c(-c4cccc(S(=O)(=O)[O-])c4F)c4nc(c(-c5cccc(S(=O)(=O)[O-])c5F)c5ccc2[nH]5)C=C4)C=C3)cc1
REMARK SMILES IDX 23 1 22 2 21 3 19 4 20 5 18 7 1 8 2 9 3 10 15 11 17 12 16 13
REMARK SMILES IDX 4 14 5 15 6 17 7 18 8 19 13 20 9 21 12 22 10 23 11 24 14 25
REMARK SMILES IDX 24 28 25 29 26 30 27 31 28 33 29 34 30 35 91 36 31 37 90 38
REMARK SMILES IDX 32 39 33 40 34 41 84 42 35 43 89 44 83 45 85 46 36 47 88 48
REMARK SMILES IDX 82 49 81 50 37 52 69 53 49 54 68 55 50 56 53 57 67 58 86 59
REMARK SMILES IDX 51 60 52 61 66 63 87 64 54 65 38 66 39 67 47 68 40 69 42 70
REMARK SMILES IDX 48 71 41 72 43 73 44 74 45 75 46 76 70 77 71 78 79 79 72 80
REMARK SMILES IDX 74 81 80 82 73 83 75 84 76 85 77 86 78 87 55 88 56 89 64 90
REMARK SMILES IDX 57 91 59 92 65 93 58 94 60 95 61 96 62 97 63 98
REMARK H PARENT 21 6 4 16 14 26 14 27 26 32 85 51 53 62
REMARK Flexibility Score: inf
ROOT
ATOM      1  C   UNL     1       4.051   1.556  -1.306  1.00  0.00     0.023 C 
ENDROOT
BRANCH   1   2
ATOM      2  C   UNL     1       3.483   1.979   0.058  1.00  0.00     0.116 C 
BRANCH   2   3
ATOM      3  N   UNL     1       2.213   2.649  -0.117  1.00  0.00    -0.352 N 
ATOM      4  C   UNL     1       0.900   2.284  -0.222  1.00  0.00     0.251 C 
ATOM      5  O   UNL     1       0.159   3.213  -0.571  1.00  0.00    -0.269 OA
ATOM      6  H   UNL     1       2.323   3.625  -0.176  1.00  0.00     0.163 HD
BRANCH   4   7
ATOM      7  C   UNL     1       0.246   0.952   0.080  1.00  0.00     0.044 A 
ATOM      8  C   UNL     1       2.074  -0.756  -0.538  1.00  0.00     0.047 C 
ATOM      9  C   UNL     1       0.738  -0.374   0.032  1.00  0.00    -0.015 A 
ATOM     10  C   UNL     1      -0.136  -1.461   0.338  1.00  0.00     0.045 A 
ATOM     11  C   UNL     1      -1.492  -1.262   0.585  1.00  0.00     0.026 A 
ATOM     12  C   UNL     1      -1.140   1.104   0.356  1.00  0.00     0.014 A 
ATOM     13  C   UNL     1      -1.998   0.026   0.580  1.00  0.00     0.003 A 
BRANCH  10  14
ATOM     14  N   UNL     1       0.409  -2.756   0.362  1.00  0.00    -0.322 N 
ATOM     15  C   UNL     1      -0.025  -3.938  -0.186  1.00  0.00     0.257 C 
ATOM     16  H   UNL     1       1.254  -2.829   0.862  1.00  0.00     0.170 HD
ATOM     17  O   UNL     1       0.583  -4.973   0.092  1.00  0.00    -0.269 OA
BRANCH  15  18
ATOM     18  C   UNL     1      -1.160  -4.019  -1.143  1.00  0.00     0.063 A 
ATOM     19  C   UNL     1      -1.992  -5.141  -0.968  1.00  0.00     0.017 A 
ATOM     20  C   UNL     1      -1.406  -3.120  -2.204  1.00  0.00     0.045 A 
ATOM     21  C   UNL     1      -3.090  -5.352  -1.798  1.00  0.00     0.016 A 
ATOM     22  C   UNL     1      -2.535  -3.336  -3.010  1.00  0.00     0.042 A 
ATOM     23  C   UNL     1      -3.368  -4.435  -2.804  1.00  0.00     0.020 A 
ATOM     24  Br  UNL     1      -4.859  -4.705  -3.933  1.00  0.00    -0.051 Br
BRANCH  20  25
ATOM     25  N   UNL     1      -0.516  -2.134  -2.620  1.00  0.00    -0.398 N 
ATOM     26  H   UNL     1       0.291  -1.944  -2.090  1.00  0.00     0.156 HD
ATOM     27  H   UNL     1      -0.694  -1.627  -3.445  1.00  0.00     0.156 HD
ENDBRANCH  20  25
ENDBRANCH  15  18
ENDBRANCH  10  14
ENDBRANCH   4   7
ENDBRANCH   2   3
ENDBRANCH   1   2
BRANCH   1  28
ATOM     28  C   UNL     1       4.727   2.630  -2.164  1.00  0.00     0.023 C 
BRANCH  28  29
ATOM     29  C   UNL     1       6.151   2.995  -1.785  1.00  0.00     0.116 C 
BRANCH  29  30
ATOM     30  N   UNL     1       7.032   1.831  -1.803  1.00  0.00    -0.352 N 
ATOM     31  C   UNL     1       8.238   1.634  -1.161  1.00  0.00     0.251 C 
ATOM     32  H   UNL     1       6.720   1.076  -2.353  1.00  0.00     0.163 HD
ATOM     33  O   UNL     1       9.067   0.905  -1.690  1.00  0.00    -0.269 OA
BRANCH  31  34
ATOM     34  C   UNL     1       8.457   2.221   0.176  1.00  0.00     0.039 A 
ATOM     35  C   UNL     1       9.714   2.234   0.795  1.00  0.00     0.014 A 
ATOM     36  C   UNL     1       7.332   2.583   0.902  1.00  0.00     0.014 A 
ATOM     37  C   UNL     1       9.786   2.453   2.171  1.00  0.00     0.010 A 
ATOM     38  C   UNL     1       7.442   3.099   2.147  1.00  0.00     0.010 A 
ATOM     39  C   UNL     1       8.614   2.797   2.831  1.00  0.00    -0.014 A 
BRANCH  39  40
ATOM     40  C   UNL     1       8.341   2.672   4.250  1.00  0.00     0.031 A 
ATOM     41  C   UNL     1       8.600   3.817   5.122  1.00  0.00     0.074 A 
ATOM     42  C   UNL     1       7.364   1.762   4.495  1.00  0.00     0.049 A 
ATOM     43  N   UNL     1       8.366   3.832   6.384  1.00  0.00    -0.248 NA
ATOM     44  C   UNL     1       9.158   5.063   4.611  1.00  0.00     0.031 C 
ATOM     45  C   UNL     1       6.271   1.850   5.449  1.00  0.00     0.029 A 
ATOM     46  N   UNL     1       7.111   0.552   3.830  1.00  0.00    -0.354 N 
ATOM     47  C   UNL     1       8.371   5.160   6.760  1.00  0.00     0.074 A 
ATOM     48  C   UNL     1       9.068   5.837   5.696  1.00  0.00     0.031 C 
ATOM     49  C   UNL     1       5.653   0.656   5.506  1.00  0.00     0.029 A 
ATOM     50  C   UNL     1       6.473  -0.282   4.752  1.00  0.00     0.049 A 
ATOM     51  H   UNL     1       7.338   0.334   2.897  1.00  0.00     0.167 HD
ATOM     52  C   UNL     1       7.590   5.537   7.813  1.00  0.00     0.034 A 
ATOM     53  C   UNL     1       7.104  -1.377   5.279  1.00  0.00     0.034 A 
ATOM     54  C   UNL     1       6.968   4.344   8.434  1.00  0.00     0.049 A 
ATOM     55  C   UNL     1       7.408  -1.194   6.762  1.00  0.00     0.074 A 
ATOM     56  C   UNL     1       5.684   3.824   8.406  1.00  0.00     0.029 A 
ATOM     57  N   UNL     1       7.780   3.330   8.940  1.00  0.00    -0.354 N 
ATOM     58  N   UNL     1       7.164  -0.098   7.429  1.00  0.00    -0.248 NA
ATOM     59  C   UNL     1       8.006  -2.218   7.614  1.00  0.00     0.031 C 
ATOM     60  C   UNL     1       5.759   2.447   8.774  1.00  0.00     0.029 A 
ATOM     61  C   UNL     1       7.077   2.137   9.068  1.00  0.00     0.049 A 
ATOM     62  H   UNL     1       8.729   3.443   9.177  1.00  0.00     0.167 HD
ATOM     63  C   UNL     1       7.684  -0.175   8.689  1.00  0.00     0.074 A 
ATOM     64  C   UNL     1       8.118  -1.561   8.784  1.00  0.00     0.031 C 
ATOM     65  C   UNL     1       7.766   0.920   9.511  1.00  0.00     0.034 A 
BRANCH  52  66
ATOM     66  C   UNL     1       7.138   6.962   8.144  1.00  0.00     0.023 A 
ATOM     67  C   UNL     1       6.182   7.101   9.178  1.00  0.00     0.012 A 
ATOM     68  C   UNL     1       7.509   8.171   7.502  1.00  0.00     0.148 A 
ATOM     69  C   UNL     1       5.596   8.331   9.513  1.00  0.00     0.002 A 
ATOM     70  C   UNL     1       6.934   9.403   7.838  1.00  0.00     0.091 A 
ATOM     71  F   UNL     1       8.429   8.174   6.544  1.00  0.00    -0.205 F 
ATOM     72  C   UNL     1       5.966   9.483   8.838  1.00  0.00     0.022 A 
BRANCH  70  73
ATOM     73  S   UNL     1       7.374  10.946   7.007  1.00  0.00     0.127 S 
ATOM     74  O   UNL     1       6.083  11.389   6.479  1.00  0.00    -0.237 OA
ATOM     75  O   UNL     1       7.891  11.757   8.109  1.00  0.00    -0.237 OA
ATOM     76  O   UNL     1       8.358  10.606   5.985  1.00  0.00    -0.744 OA
ENDBRANCH  70  73
ENDBRANCH  52  66
BRANCH  53  77
ATOM     77  C   UNL     1       7.964  -2.085   4.274  1.00  0.00     0.023 A 
ATOM     78  C   UNL     1       7.282  -2.734   3.216  1.00  0.00     0.012 A 
ATOM     79  C   UNL     1       9.309  -1.714   4.083  1.00  0.00     0.148 A 
ATOM     80  C   UNL     1       7.865  -2.852   1.951  1.00  0.00     0.002 A 
ATOM     81  C   UNL     1       9.874  -1.809   2.810  1.00  0.00     0.091 A 
ATOM     82  F   UNL     1       9.971  -1.169   5.111  1.00  0.00    -0.205 F 
ATOM     83  C   UNL     1       9.140  -2.341   1.736  1.00  0.00     0.022 A 
BRANCH  81  84
ATOM     84  S   UNL     1      11.483  -1.097   2.429  1.00  0.00     0.127 S 
ATOM     85  O   UNL     1      12.338  -2.278   2.435  1.00  0.00    -0.237 OA
ATOM     86  O   UNL     1      11.265  -0.503   1.113  1.00  0.00    -0.237 OA
ATOM     87  O   UNL     1      11.726  -0.123   3.487  1.00  0.00    -0.744 OA
ENDBRANCH  81  84
ENDBRANCH  53  77
BRANCH  65  88
ATOM     88  C   UNL     1       8.533   0.962  10.820  1.00  0.00     0.023 A 
ATOM     89  C   UNL     1       9.594   0.082  11.105  1.00  0.00     0.012 A 
ATOM     90  C   UNL     1       8.308   2.009  11.752  1.00  0.00     0.148 A 
ATOM     91  C   UNL     1      10.346   0.187  12.280  1.00  0.00     0.002 A 
ATOM     92  C   UNL     1       9.145   2.189  12.848  1.00  0.00     0.091 A 
ATOM     93  F   UNL     1       7.261   2.833  11.596  1.00  0.00    -0.205 F 
ATOM     94  C   UNL     1      10.141   1.258  13.139  1.00  0.00     0.022 A 
BRANCH  92  95
ATOM     95  S   UNL     1       9.088   3.710  13.807  1.00  0.00     0.127 S 
ATOM     96  O   UNL     1       8.196   3.345  14.904  1.00  0.00    -0.237 OA
ATOM     97  O   UNL     1      10.489   3.890  14.194  1.00  0.00    -0.237 OA
ATOM     98  O   UNL     1       8.594   4.721  12.881  1.00  0.00    -0.744 OA
ENDBRANCH  92  95
ENDBRANCH  65  88
ENDBRANCH  39  40
ENDBRANCH  31  34
ENDBRANCH  29  30
ENDBRANCH  28  29
ENDBRANCH   1  28
TORSDOF 17
