REMARK SMILES CC(C)NC(=O)C[N@@H+]1CCC[C@H]1C(=O)NCCCCNC(=O)c1ccc(-c2c3nc(c(-c4cccc(S(=O)(=O)[O-])c4F)c4ccc([nH]4)c(-c4cccc(S(=O)(=O)[O-])c4F)c4nc(c(-c5cccc(S(=O)(=O)[O-])c5F)c5ccc2[nH]5)C=C4)C=C3)cc1
REMARK SMILES IDX 17 1 16 2 15 3 13 4 14 5 12 7 8 8 9 9 10 11 11 12 7 13 5 14
REMARK SMILES IDX 4 15 6 17 2 18 1 19 3 20 18 21 19 22 20 23 21 24 22 26 23 27
REMARK SMILES IDX 24 28 85 29 25 30 84 31 26 32 27 33 28 34 78 35 29 36 83 37
REMARK SMILES IDX 77 38 79 39 30 40 82 41 76 42 75 43 31 45 63 46 43 47 62 48
REMARK SMILES IDX 44 49 47 50 61 51 80 52 45 53 46 54 60 56 81 57 48 58 32 59
REMARK SMILES IDX 33 60 41 61 34 62 36 63 42 64 35 65 37 66 38 67 39 68 40 69
REMARK SMILES IDX 64 70 65 71 73 72 66 73 68 74 74 75 67 76 69 77 70 78 71 79
REMARK SMILES IDX 72 80 49 81 50 82 58 83 51 84 53 85 59 86 52 87 54 88 55 89
REMARK SMILES IDX 56 90 57 91
REMARK H PARENT 15 6 8 10 4 16 20 25 79 44 47 55
REMARK Flexibility Score: inf
ROOT
ATOM      1  C   UNL     1       4.046   1.034  -2.977  1.00  0.00     0.023 C 
ENDROOT
BRANCH   1   2
ATOM      2  C   UNL     1       2.737   1.532  -2.355  1.00  0.00     0.116 C 
BRANCH   2   3
ATOM      3  N   UNL     1       1.640   1.405  -3.295  1.00  0.00    -0.351 N 
ATOM      4  C   UNL     1       0.761   0.368  -3.484  1.00  0.00     0.278 C 
ATOM      5  O   UNL     1      -0.003   0.459  -4.447  1.00  0.00    -0.268 OA
ATOM      6  H   UNL     1       1.505   2.180  -3.886  1.00  0.00     0.163 HD
BRANCH   4   7
ATOM      7  C   UNL     1       0.705  -0.799  -2.448  1.00  0.00     0.274 C 
ATOM      8  N   UNL     1      -0.272  -1.838  -2.876  1.00  0.00    -0.317 N 
ATOM      9  C   UNL     1       0.549  -2.824  -3.606  1.00  0.00     0.263 C 
ATOM     10  H   UNL     1      -1.010  -1.386  -3.417  1.00  0.00     0.349 HD
ATOM     11  C   UNL     1       1.786  -2.972  -2.742  1.00  0.00     0.068 C 
ATOM     12  C   UNL     1       2.035  -1.548  -2.291  1.00  0.00     0.081 C 
BRANCH   8  13
ATOM     13  C   UNL     1      -1.010  -2.529  -1.794  1.00  0.00     0.364 C 
BRANCH  13  14
ATOM     14  C   UNL     1      -1.845  -1.629  -0.885  1.00  0.00     0.275 C 
ATOM     15  N   UNL     1      -1.355  -1.285   0.350  1.00  0.00    -0.349 N 
ATOM     16  H   UNL     1      -2.012  -0.900   0.973  1.00  0.00     0.163 HD
ATOM     17  O   UNL     1      -2.985  -1.263  -1.177  1.00  0.00    -0.268 OA
BRANCH  15  18
ATOM     18  C   UNL     1       0.001  -1.409   0.869  1.00  0.00     0.076 C 
ATOM     19  C   UNL     1       0.495  -0.035   1.315  1.00  0.00     0.030 C 
ATOM     20  C   UNL     1       0.094  -2.428   1.995  1.00  0.00     0.030 C 
ENDBRANCH  15  18
ENDBRANCH  13  14
ENDBRANCH   8  13
ENDBRANCH   4   7
ENDBRANCH   2   3
ENDBRANCH   1   2
BRANCH   1  21
ATOM     21  C   UNL     1       4.848   2.080  -3.736  1.00  0.00     0.023 C 
BRANCH  21  22
ATOM     22  C   UNL     1       5.420   3.191  -2.878  1.00  0.00     0.116 C 
BRANCH  22  23
ATOM     23  N   UNL     1       6.280   2.716  -1.800  1.00  0.00    -0.352 N 
ATOM     24  C   UNL     1       7.449   3.281  -1.338  1.00  0.00     0.251 C 
ATOM     25  H   UNL     1       5.991   1.891  -1.348  1.00  0.00     0.163 HD
ATOM     26  O   UNL     1       8.113   2.729  -0.474  1.00  0.00    -0.269 OA
BRANCH  24  27
ATOM     27  C   UNL     1       7.899   4.549  -1.950  1.00  0.00     0.039 A 
ATOM     28  C   UNL     1       9.186   4.623  -2.485  1.00  0.00     0.014 A 
ATOM     29  C   UNL     1       7.003   5.611  -2.092  1.00  0.00     0.014 A 
ATOM     30  C   UNL     1       9.548   5.741  -3.238  1.00  0.00     0.010 A 
ATOM     31  C   UNL     1       7.334   6.675  -2.919  1.00  0.00     0.010 A 
ATOM     32  C   UNL     1       8.611   6.755  -3.496  1.00  0.00    -0.014 A 
BRANCH  32  33
ATOM     33  C   UNL     1       8.937   7.911  -4.367  1.00  0.00     0.031 A 
ATOM     34  C   UNL     1       8.892   9.305  -3.803  1.00  0.00     0.074 A 
ATOM     35  C   UNL     1       9.159   7.716  -5.683  1.00  0.00     0.049 A 
ATOM     36  N   UNL     1       9.072  10.446  -4.415  1.00  0.00    -0.248 NA
ATOM     37  C   UNL     1       8.564   9.440  -2.373  1.00  0.00     0.031 C 
ATOM     38  C   UNL     1       9.117   6.423  -6.370  1.00  0.00     0.029 A 
ATOM     39  N   UNL     1       9.432   8.613  -6.686  1.00  0.00    -0.354 N 
ATOM     40  C   UNL     1       8.828  11.428  -3.463  1.00  0.00     0.074 A 
ATOM     41  C   UNL     1       8.457  10.754  -2.240  1.00  0.00     0.031 C 
ATOM     42  C   UNL     1       9.354   6.610  -7.679  1.00  0.00     0.029 A 
ATOM     43  C   UNL     1       9.547   8.035  -7.929  1.00  0.00     0.049 A 
ATOM     44  H   UNL     1       9.536   9.579  -6.530  1.00  0.00     0.167 HD
ATOM     45  C   UNL     1       8.939  12.771  -3.586  1.00  0.00     0.034 A 
ATOM     46  C   UNL     1       9.781   8.592  -9.134  1.00  0.00     0.034 A 
ATOM     47  C   UNL     1       9.391  13.431  -4.778  1.00  0.00     0.049 A 
ATOM     48  C   UNL     1      10.004  10.079  -9.216  1.00  0.00     0.074 A 
ATOM     49  C   UNL     1       9.667  14.773  -4.964  1.00  0.00     0.029 A 
ATOM     50  N   UNL     1       9.634  12.798  -5.986  1.00  0.00    -0.354 N 
ATOM     51  N   UNL     1       9.967  10.972  -8.257  1.00  0.00    -0.248 NA
ATOM     52  C   UNL     1      10.343  10.631 -10.537  1.00  0.00     0.031 C 
ATOM     53  C   UNL     1      10.069  14.954  -6.291  1.00  0.00     0.029 A 
ATOM     54  C   UNL     1      10.055  13.722  -6.925  1.00  0.00     0.049 A 
ATOM     55  H   UNL     1       9.525  11.834  -6.151  1.00  0.00     0.167 HD
ATOM     56  C   UNL     1      10.312  12.182  -8.849  1.00  0.00     0.074 A 
ATOM     57  C   UNL     1      10.578  11.903 -10.245  1.00  0.00     0.031 C 
ATOM     58  C   UNL     1      10.381  13.416  -8.293  1.00  0.00     0.034 A 
BRANCH  45  59
ATOM     59  C   UNL     1       8.642  13.615  -2.377  1.00  0.00     0.023 A 
ATOM     60  C   UNL     1       9.556  13.637  -1.304  1.00  0.00     0.012 A 
ATOM     61  C   UNL     1       7.503  14.442  -2.333  1.00  0.00     0.148 A 
ATOM     62  C   UNL     1       9.330  14.449  -0.195  1.00  0.00     0.002 A 
ATOM     63  C   UNL     1       7.305  15.281  -1.243  1.00  0.00     0.091 A 
ATOM     64  F   UNL     1       6.634  14.389  -3.353  1.00  0.00    -0.205 F 
ATOM     65  C   UNL     1       8.212  15.279  -0.170  1.00  0.00     0.022 A 
BRANCH  63  66
ATOM     66  S   UNL     1       5.939  16.443  -1.146  1.00  0.00     0.127 S 
ATOM     67  O   UNL     1       5.132  15.860  -0.075  1.00  0.00    -0.237 OA
ATOM     68  O   UNL     1       6.620  17.687  -0.787  1.00  0.00    -0.237 OA
ATOM     69  O   UNL     1       5.319  16.446  -2.463  1.00  0.00    -0.744 OA
ENDBRANCH  63  66
ENDBRANCH  45  59
BRANCH  46  70
ATOM     70  C   UNL     1       9.897   7.734 -10.348  1.00  0.00     0.023 A 
ATOM     71  C   UNL     1      11.157   7.561 -10.954  1.00  0.00     0.012 A 
ATOM     72  C   UNL     1       8.778   7.079 -10.896  1.00  0.00     0.148 A 
ATOM     73  C   UNL     1      11.294   6.783 -12.104  1.00  0.00     0.002 A 
ATOM     74  C   UNL     1       8.932   6.261 -12.011  1.00  0.00     0.091 A 
ATOM     75  F   UNL     1       7.583   7.266 -10.319  1.00  0.00    -0.205 F 
ATOM     76  C   UNL     1      10.185   6.125 -12.627  1.00  0.00     0.022 A 
BRANCH  74  77
ATOM     77  S   UNL     1       7.577   5.275 -12.659  1.00  0.00     0.127 S 
ATOM     78  O   UNL     1       7.148   6.070 -13.805  1.00  0.00    -0.237 OA
ATOM     79  O   UNL     1       8.244   4.016 -12.996  1.00  0.00    -0.237 OA
ATOM     80  O   UNL     1       6.625   5.166 -11.560  1.00  0.00    -0.744 OA
ENDBRANCH  74  77
ENDBRANCH  46  70
BRANCH  58  81
ATOM     81  C   UNL     1      10.792  14.561  -9.178  1.00  0.00     0.023 A 
ATOM     82  C   UNL     1       9.883  15.069 -10.126  1.00  0.00     0.012 A 
ATOM     83  C   UNL     1      12.041  15.189  -9.009  1.00  0.00     0.148 A 
ATOM     84  C   UNL     1      10.222  16.169 -10.912  1.00  0.00     0.002 A 
ATOM     85  C   UNL     1      12.354  16.313  -9.763  1.00  0.00     0.091 A 
ATOM     86  F   UNL     1      12.900  14.677  -8.115  1.00  0.00    -0.205 F 
ATOM     87  C   UNL     1      11.450  16.799 -10.721  1.00  0.00     0.022 A 
BRANCH  85  88
ATOM     88  S   UNL     1      13.872  17.241  -9.511  1.00  0.00     0.127 S 
ATOM     89  O   UNL     1      14.675  16.813 -10.655  1.00  0.00    -0.237 OA
ATOM     90  O   UNL     1      13.407  18.627  -9.576  1.00  0.00    -0.237 OA
ATOM     91  O   UNL     1      14.372  16.836  -8.204  1.00  0.00    -0.744 OA
ENDBRANCH  85  88
ENDBRANCH  58  81
ENDBRANCH  32  33
ENDBRANCH  24  27
ENDBRANCH  22  23
ENDBRANCH  21  22
ENDBRANCH   1  21
TORSDOF 17
