REMARK SMILES CC(C)(C)c1cc(NC(=O)CSC[C@H]([NH3+])C(=O)NCCCCNC(=O)c2ccc(-c3c4nc(c(-c5cccc(S(=O)(=O)[O-])c5F)c5ccc([nH]5)c(-c5cccc(S(=O)(=O)[O-])c5F)c5nc(c(-c6cccc(S(=O)(=O)[O-])c6F)c6ccc3[nH]6)C=C5)C=C4)cc2)on1
REMARK SMILES IDX 19 1 18 2 16 3 17 4 14 6 13 7 12 8 11 9 9 10 8 11 10 13 7 14
REMARK SMILES IDX 5 15 6 16 90 17 89 18 2 19 1 20 3 21 4 22 15 23 20 27 21 28
REMARK SMILES IDX 22 29 23 30 24 31 25 33 26 34 27 35 88 36 28 37 87 38 29 39
REMARK SMILES IDX 30 40 31 41 81 42 32 43 86 44 80 45 82 46 33 47 85 48 79 49
REMARK SMILES IDX 78 50 34 52 66 53 46 54 65 55 47 56 50 57 64 58 83 59 48 60
REMARK SMILES IDX 49 61 63 63 84 64 51 65 35 66 36 67 44 68 37 69 39 70 45 71
REMARK SMILES IDX 38 72 40 73 41 74 42 75 43 76 67 77 68 78 76 79 69 80 71 81
REMARK SMILES IDX 77 82 70 83 72 84 73 85 74 86 75 87 52 88 53 89 61 90 54 91
REMARK SMILES IDX 56 92 62 93 55 94 57 95 58 96 59 97 60 98
REMARK H PARENT 18 5 8 12 15 24 15 25 15 26 23 32 82 51 50 62
REMARK Flexibility Score: inf
ROOT
ATOM      1  C   UNL     1      -1.495   5.625   7.341  1.00  0.00     0.116 C 
ENDROOT
BRANCH   1   2
ATOM      2  N   UNL     1      -1.760   5.012   8.623  1.00  0.00    -0.351 N 
ATOM      3  C   UNL     1      -1.203   3.897   9.171  1.00  0.00     0.279 C 
ATOM      4  O   UNL     1      -1.522   3.601  10.328  1.00  0.00    -0.268 OA
ATOM      5  H   UNL     1      -2.438   5.463   9.177  1.00  0.00     0.163 HD
BRANCH   3   6
ATOM      6  C   UNL     1      -0.211   3.002   8.396  1.00  0.00     0.280 C 
BRANCH   6   7
ATOM      7  C   UNL     1       1.195   3.631   8.259  1.00  0.00     0.145 C 
BRANCH   7   8
ATOM      8  S   UNL     1       1.720   4.528   6.736  1.00  0.00    -0.145 SA
BRANCH   8   9
ATOM      9  C   UNL     1       1.615   3.221   5.456  1.00  0.00     0.170 C 
BRANCH   9  10
ATOM     10  C   UNL     1       2.398   1.988   5.873  1.00  0.00     0.236 C 
ATOM     11  N   UNL     1       3.766   1.994   5.937  1.00  0.00    -0.294 N 
ATOM     12  H   UNL     1       4.192   1.187   6.307  1.00  0.00     0.173 HD
ATOM     13  O   UNL     1       1.806   0.968   6.250  1.00  0.00    -0.274 OA
BRANCH  11  14
ATOM     14  C   UNL     1       4.604   3.002   5.540  1.00  0.00     0.231 A 
ATOM     15  C   UNL     1       6.223   4.464   5.189  1.00  0.00     0.091 A 
ATOM     16  C   UNL     1       5.925   3.230   5.830  1.00  0.00     0.097 A 
ATOM     17  N   UNL     1       5.172   4.888   4.477  1.00  0.00    -0.082 NA
ATOM     18  O   UNL     1       4.170   3.977   4.705  1.00  0.00    -0.338 OA
BRANCH  15  19
ATOM     19  C   UNL     1       7.505   5.268   5.241  1.00  0.00     0.008 C 
ATOM     20  C   UNL     1       7.402   6.581   4.433  1.00  0.00     0.018 C 
ATOM     21  C   UNL     1       8.661   4.434   4.659  1.00  0.00     0.018 C 
ATOM     22  C   UNL     1       7.830   5.640   6.702  1.00  0.00     0.018 C 
ENDBRANCH  15  19
ENDBRANCH  11  14
ENDBRANCH   9  10
ENDBRANCH   8   9
ENDBRANCH   7   8
ENDBRANCH   6   7
BRANCH   6  23
ATOM     23  N   UNL     1      -0.847   2.437   7.189  1.00  0.00    -0.347 N 
ATOM     24  H   UNL     1      -1.112   3.194   6.559  1.00  0.00     0.345 HD
ATOM     25  H   UNL     1      -1.678   1.911   7.457  1.00  0.00     0.345 HD
ATOM     26  H   UNL     1      -0.189   1.817   6.717  1.00  0.00     0.345 HD
ENDBRANCH   6  23
ENDBRANCH   3   6
ENDBRANCH   1   2
BRANCH   1  27
ATOM     27  C   UNL     1      -2.723   5.777   6.456  1.00  0.00     0.023 C 
BRANCH  27  28
ATOM     28  C   UNL     1      -3.836   6.652   7.018  1.00  0.00     0.023 C 
BRANCH  28  29
ATOM     29  C   UNL     1      -3.409   8.029   7.510  1.00  0.00     0.116 C 
BRANCH  29  30
ATOM     30  N   UNL     1      -2.769   8.841   6.484  1.00  0.00    -0.352 N 
ATOM     31  C   UNL     1      -3.038  10.136   6.106  1.00  0.00     0.251 C 
ATOM     32  H   UNL     1      -2.039   8.401   5.992  1.00  0.00     0.163 HD
ATOM     33  O   UNL     1      -2.458  10.628   5.142  1.00  0.00    -0.269 OA
BRANCH  31  34
ATOM     34  C   UNL     1      -4.054  10.923   6.839  1.00  0.00     0.039 A 
ATOM     35  C   UNL     1      -5.011  11.633   6.110  1.00  0.00     0.014 A 
ATOM     36  C   UNL     1      -4.085  10.938   8.236  1.00  0.00     0.014 A 
ATOM     37  C   UNL     1      -6.045  12.290   6.781  1.00  0.00     0.010 A 
ATOM     38  C   UNL     1      -5.162  11.521   8.898  1.00  0.00     0.010 A 
ATOM     39  C   UNL     1      -6.154  12.204   8.179  1.00  0.00    -0.014 A 
BRANCH  39  40
ATOM     40  C   UNL     1      -7.314  12.794   8.897  1.00  0.00     0.031 A 
ATOM     41  C   UNL     1      -7.114  13.878   9.921  1.00  0.00     0.074 A 
ATOM     42  C   UNL     1      -8.546  12.284   8.696  1.00  0.00     0.049 A 
ATOM     43  N   UNL     1      -8.005  14.491  10.656  1.00  0.00    -0.248 NA
ATOM     44  C   UNL     1      -5.730  14.310  10.176  1.00  0.00     0.031 C 
ATOM     45  C   UNL     1      -8.861  11.158   7.814  1.00  0.00     0.029 A 
ATOM     46  N   UNL     1      -9.759  12.626   9.242  1.00  0.00    -0.354 N 
ATOM     47  C   UNL     1      -7.292  15.345  11.488  1.00  0.00     0.074 A 
ATOM     48  C   UNL     1      -5.890  15.149  11.189  1.00  0.00     0.031 C 
ATOM     49  C   UNL     1     -10.177  10.904   7.877  1.00  0.00     0.029 A 
ATOM     50  C   UNL     1     -10.798  11.831   8.818  1.00  0.00     0.049 A 
ATOM     51  H   UNL     1      -9.874  13.370   9.876  1.00  0.00     0.167 HD
ATOM     52  C   UNL     1      -7.759  16.235  12.396  1.00  0.00     0.034 A 
ATOM     53  C   UNL     1     -12.104  11.841   9.150  1.00  0.00     0.034 A 
ATOM     54  C   UNL     1      -9.155  16.464  12.655  1.00  0.00     0.049 A 
ATOM     55  C   UNL     1     -12.610  12.890  10.102  1.00  0.00     0.074 A 
ATOM     56  C   UNL     1      -9.734  17.428  13.461  1.00  0.00     0.029 A 
ATOM     57  N   UNL     1     -10.193  15.712  12.125  1.00  0.00    -0.354 N 
ATOM     58  N   UNL     1     -11.940  13.828  10.727  1.00  0.00    -0.248 NA
ATOM     59  C   UNL     1     -14.057  12.912  10.361  1.00  0.00     0.031 C 
ATOM     60  C   UNL     1     -11.120  17.242  13.440  1.00  0.00     0.029 A 
ATOM     61  C   UNL     1     -11.407  16.178  12.600  1.00  0.00     0.049 A 
ATOM     62  H   UNL     1     -10.082  14.957  11.503  1.00  0.00     0.167 HD
ATOM     63  C   UNL     1     -12.883  14.566  11.433  1.00  0.00     0.074 A 
ATOM     64  C   UNL     1     -14.175  13.983  11.134  1.00  0.00     0.031 C 
ATOM     65  C   UNL     1     -12.693  15.619  12.266  1.00  0.00     0.034 A 
BRANCH  52  66
ATOM     66  C   UNL     1      -6.749  17.068  13.142  1.00  0.00     0.023 A 
ATOM     67  C   UNL     1      -6.034  18.074  12.458  1.00  0.00     0.012 A 
ATOM     68  C   UNL     1      -6.541  16.893  14.523  1.00  0.00     0.148 A 
ATOM     69  C   UNL     1      -5.100  18.863  13.127  1.00  0.00     0.002 A 
ATOM     70  C   UNL     1      -5.642  17.715  15.194  1.00  0.00     0.091 A 
ATOM     71  F   UNL     1      -7.211  15.917  15.154  1.00  0.00    -0.205 F 
ATOM     72  C   UNL     1      -4.912  18.691  14.496  1.00  0.00     0.022 A 
BRANCH  70  73
ATOM     73  S   UNL     1      -5.390  17.625  16.970  1.00  0.00     0.127 S 
ATOM     74  O   UNL     1      -4.078  16.985  17.050  1.00  0.00    -0.237 OA
ATOM     75  O   UNL     1      -5.404  19.036  17.357  1.00  0.00    -0.237 OA
ATOM     76  O   UNL     1      -6.503  16.844  17.492  1.00  0.00    -0.744 OA
ENDBRANCH  70  73
ENDBRANCH  52  66
BRANCH  53  77
ATOM     77  C   UNL     1     -13.033  10.863   8.516  1.00  0.00     0.023 A 
ATOM     78  C   UNL     1     -13.958  11.310   7.553  1.00  0.00     0.012 A 
ATOM     79  C   UNL     1     -12.967   9.490   8.822  1.00  0.00     0.148 A 
ATOM     80  C   UNL     1     -14.819  10.410   6.924  1.00  0.00     0.002 A 
ATOM     81  C   UNL     1     -13.788   8.592   8.151  1.00  0.00     0.091 A 
ATOM     82  F   UNL     1     -12.086   9.089   9.749  1.00  0.00    -0.205 F 
ATOM     83  C   UNL     1     -14.726   9.051   7.214  1.00  0.00     0.022 A 
BRANCH  81  84
ATOM     84  S   UNL     1     -13.643   6.813   8.358  1.00  0.00     0.127 S 
ATOM     85  O   UNL     1     -14.885   6.491   9.055  1.00  0.00    -0.237 OA
ATOM     86  O   UNL     1     -13.577   6.354   6.970  1.00  0.00    -0.237 OA
ATOM     87  O   UNL     1     -12.418   6.604   9.117  1.00  0.00    -0.744 OA
ENDBRANCH  81  84
ENDBRANCH  53  77
BRANCH  65  88
ATOM     88  C   UNL     1     -13.912  16.229  12.909  1.00  0.00     0.023 A 
ATOM     89  C   UNL     1     -14.589  15.529  13.928  1.00  0.00     0.012 A 
ATOM     90  C   UNL     1     -14.348  17.520  12.551  1.00  0.00     0.148 A 
ATOM     91  C   UNL     1     -15.700  16.089  14.556  1.00  0.00     0.002 A 
ATOM     92  C   UNL     1     -15.426  18.092  13.216  1.00  0.00     0.091 A 
ATOM     93  F   UNL     1     -13.704  18.163  11.566  1.00  0.00    -0.205 F 
ATOM     94  C   UNL     1     -16.112  17.374  14.208  1.00  0.00     0.022 A 
BRANCH  92  95
ATOM     95  S   UNL     1     -15.964  19.777  12.900  1.00  0.00     0.127 S 
ATOM     96  O   UNL     1     -17.186  19.561  12.128  1.00  0.00    -0.237 OA
ATOM     97  O   UNL     1     -16.180  20.295  14.252  1.00  0.00    -0.237 OA
ATOM     98  O   UNL     1     -14.871  20.416  12.179  1.00  0.00    -0.744 OA
ENDBRANCH  92  95
ENDBRANCH  65  88
ENDBRANCH  39  40
ENDBRANCH  31  34
ENDBRANCH  29  30
ENDBRANCH  28  29
ENDBRANCH  27  28
ENDBRANCH   1  27
TORSDOF 21
