REMARK SMILES COc1ccccc1[C@H]([NH3+])c1nc(C(=O)NCCCCNC(=O)c2ccc(-c3c4nc(c(-c5cccc(S(=O)(=O)[O-])c5F)c5ccc([nH]5)c(-c5cccc(S(=O)(=O)[O-])c5F)c5nc(c(-c6cccc(S(=O)(=O)[O-])c6F)c6ccc3[nH]6)C=C5)C=C4)cc2)c[nH]1
REMARK SMILES IDX 18 1 17 2 16 3 14 4 15 5 13 7 11 8 12 9 88 10 87 11 9 13
REMARK SMILES IDX 8 14 3 15 4 16 5 17 7 18 6 19 2 20 1 21 10 22 19 26 20 27
REMARK SMILES IDX 21 28 22 29 23 31 24 32 25 33 86 34 26 35 85 36 27 37 28 38
REMARK SMILES IDX 29 39 79 40 30 41 84 42 78 43 80 44 31 45 83 46 77 47 76 48
REMARK SMILES IDX 32 50 64 51 44 52 63 53 45 54 48 55 62 56 81 57 46 58 47 59
REMARK SMILES IDX 61 61 82 62 49 63 33 64 34 65 42 66 35 67 37 68 43 69 36 70
REMARK SMILES IDX 38 71 39 72 40 73 41 74 65 75 66 76 74 77 67 78 69 79 75 80
REMARK SMILES IDX 68 81 70 82 71 83 72 84 73 85 50 86 51 87 59 88 52 89 54 90
REMARK SMILES IDX 60 91 53 92 55 93 56 94 57 95 58 96
REMARK H PARENT 16 6 88 12 10 23 10 24 10 25 21 30 80 49 48 60
REMARK Flexibility Score: inf
ROOT
ATOM      1  C   UNL     1       0.134  -2.668  -3.473  1.00  0.00     0.023 C 
ENDROOT
BRANCH   1   2
ATOM      2  C   UNL     1       0.849  -3.858  -2.840  1.00  0.00     0.116 C 
BRANCH   2   3
ATOM      3  N   UNL     1       1.946  -4.332  -3.666  1.00  0.00    -0.351 N 
ATOM      4  C   UNL     1       3.299  -4.151  -3.499  1.00  0.00     0.271 C 
ATOM      5  O   UNL     1       4.072  -4.731  -4.266  1.00  0.00    -0.267 OA
ATOM      6  H   UNL     1       1.684  -4.858  -4.456  1.00  0.00     0.163 HD
BRANCH   4   7
ATOM      7  C   UNL     1       3.790  -3.324  -2.394  1.00  0.00     0.146 A 
ATOM      8  C   UNL     1       3.793  -1.947  -0.708  1.00  0.00     0.170 A 
ATOM      9  N   UNL     1       3.033  -2.418  -1.678  1.00  0.00    -0.222 NA
ATOM     10  N   UNL     1       5.055  -2.488  -0.814  1.00  0.00    -0.342 N 
ATOM     11  C   UNL     1       5.076  -3.325  -1.893  1.00  0.00     0.118 A 
ATOM     12  H   UNL     1       5.813  -2.302  -0.213  1.00  0.00     0.167 HD
BRANCH   8  13
ATOM     13  C   UNL     1       3.338  -0.973   0.371  1.00  0.00     0.283 C 
BRANCH  13  14
ATOM     14  C   UNL     1       4.357  -0.781   1.496  1.00  0.00     0.059 A 
ATOM     15  C   UNL     1       4.205  -1.224   2.821  1.00  0.00     0.128 A 
ATOM     16  C   UNL     1       5.226  -1.044   3.763  1.00  0.00     0.047 A 
ATOM     17  C   UNL     1       6.420  -0.423   3.396  1.00  0.00     0.004 A 
ATOM     18  C   UNL     1       5.559  -0.111   1.168  1.00  0.00     0.014 A 
ATOM     19  C   UNL     1       6.582   0.053   2.100  1.00  0.00     0.001 A 
BRANCH  15  20
ATOM     20  O   UNL     1       2.993  -1.687   3.261  1.00  0.00    -0.496 OA
ATOM     21  C   UNL     1       2.994  -3.089   3.521  1.00  0.00     0.278 C 
ENDBRANCH  15  20
ENDBRANCH  13  14
BRANCH  13  22
ATOM     22  N   UNL     1       1.985  -1.347   0.807  1.00  0.00    -0.345 N 
ATOM     23  H   UNL     1       2.004  -2.285   1.208  1.00  0.00     0.345 HD
ATOM     24  H   UNL     1       1.353  -1.333   0.006  1.00  0.00     0.345 HD
ATOM     25  H   UNL     1       1.658  -0.684   1.510  1.00  0.00     0.345 HD
ENDBRANCH  13  22
ENDBRANCH   8  13
ENDBRANCH   4   7
ENDBRANCH   2   3
ENDBRANCH   1   2
BRANCH   1  26
ATOM     26  C   UNL     1      -0.698  -3.035  -4.705  1.00  0.00     0.023 C 
BRANCH  26  27
ATOM     27  C   UNL     1      -1.752  -4.112  -4.471  1.00  0.00     0.116 C 
BRANCH  27  28
ATOM     28  N   UNL     1      -2.743  -3.741  -3.468  1.00  0.00    -0.352 N 
ATOM     29  C   UNL     1      -4.101  -3.963  -3.503  1.00  0.00     0.251 C 
ATOM     30  H   UNL     1      -2.401  -3.277  -2.671  1.00  0.00     0.163 HD
ATOM     31  O   UNL     1      -4.842  -3.497  -2.644  1.00  0.00    -0.269 OA
BRANCH  29  32
ATOM     32  C   UNL     1      -4.655  -4.749  -4.624  1.00  0.00     0.039 A 
ATOM     33  C   UNL     1      -5.664  -4.194  -5.413  1.00  0.00     0.014 A 
ATOM     34  C   UNL     1      -4.098  -5.989  -4.945  1.00  0.00     0.014 A 
ATOM     35  C   UNL     1      -6.063  -4.851  -6.579  1.00  0.00     0.010 A 
ATOM     36  C   UNL     1      -4.440  -6.599  -6.145  1.00  0.00     0.010 A 
ATOM     37  C   UNL     1      -5.422  -6.035  -6.977  1.00  0.00    -0.014 A 
BRANCH  37  38
ATOM     38  C   UNL     1      -5.735  -6.704  -8.266  1.00  0.00     0.031 A 
ATOM     39  C   UNL     1      -6.249  -8.116  -8.268  1.00  0.00     0.074 A 
ATOM     40  C   UNL     1      -5.424  -6.098  -9.429  1.00  0.00     0.049 A 
ATOM     41  N   UNL     1      -6.434  -8.926  -9.276  1.00  0.00    -0.248 NA
ATOM     42  C   UNL     1      -6.559  -8.707  -6.956  1.00  0.00     0.031 C 
ATOM     43  C   UNL     1      -4.846  -4.760  -9.558  1.00  0.00     0.029 A 
ATOM     44  N   UNL     1      -5.504  -6.552 -10.723  1.00  0.00    -0.354 N 
ATOM     45  C   UNL     1      -6.826 -10.137  -8.720  1.00  0.00     0.074 A 
ATOM     46  C   UNL     1      -6.828  -9.961  -7.284  1.00  0.00     0.031 C 
ATOM     47  C   UNL     1      -4.603  -4.509 -10.854  1.00  0.00     0.029 A 
ATOM     48  C   UNL     1      -4.967  -5.681 -11.644  1.00  0.00     0.049 A 
ATOM     49  H   UNL     1      -5.906  -7.417 -10.969  1.00  0.00     0.167 HD
ATOM     50  C   UNL     1      -7.170 -11.287  -9.347  1.00  0.00     0.034 A 
ATOM     51  C   UNL     1      -4.757  -5.821 -12.968  1.00  0.00     0.034 A 
ATOM     52  C   UNL     1      -7.199 -11.444 -10.775  1.00  0.00     0.049 A 
ATOM     53  C   UNL     1      -5.182  -7.091 -13.652  1.00  0.00     0.074 A 
ATOM     54  C   UNL     1      -7.639 -12.529 -11.511  1.00  0.00     0.029 A 
ATOM     55  N   UNL     1      -6.748 -10.499 -11.685  1.00  0.00    -0.354 N 
ATOM     56  N   UNL     1      -5.707  -8.171 -13.126  1.00  0.00    -0.248 NA
ATOM     57  C   UNL     1      -5.019  -7.152 -15.111  1.00  0.00     0.031 C 
ATOM     58  C   UNL     1      -7.412 -12.259 -12.864  1.00  0.00     0.029 A 
ATOM     59  C   UNL     1      -6.878 -10.984 -12.974  1.00  0.00     0.049 A 
ATOM     60  H   UNL     1      -6.389  -9.614 -11.448  1.00  0.00     0.167 HD
ATOM     61  C   UNL     1      -5.971  -9.025 -14.191  1.00  0.00     0.074 A 
ATOM     62  C   UNL     1      -5.556  -8.333 -15.394  1.00  0.00     0.031 C 
ATOM     63  C   UNL     1      -6.506 -10.270 -14.170  1.00  0.00     0.034 A 
BRANCH  50  64
ATOM     64  C   UNL     1      -7.558 -12.461  -8.486  1.00  0.00     0.023 A 
ATOM     65  C   UNL     1      -8.752 -12.422  -7.735  1.00  0.00     0.012 A 
ATOM     66  C   UNL     1      -6.752 -13.616  -8.440  1.00  0.00     0.148 A 
ATOM     67  C   UNL     1      -9.109 -13.489  -6.912  1.00  0.00     0.002 A 
ATOM     68  C   UNL     1      -7.143 -14.697  -7.658  1.00  0.00     0.091 A 
ATOM     69  F   UNL     1      -5.611 -13.629  -9.142  1.00  0.00    -0.205 F 
ATOM     70  C   UNL     1      -8.310 -14.628  -6.881  1.00  0.00     0.022 A 
BRANCH  68  71
ATOM     71  S   UNL     1      -6.226 -16.240  -7.623  1.00  0.00     0.127 S 
ATOM     72  O   UNL     1      -5.596 -16.179  -6.305  1.00  0.00    -0.237 OA
ATOM     73  O   UNL     1      -7.293 -17.235  -7.743  1.00  0.00    -0.237 OA
ATOM     74  O   UNL     1      -5.315 -16.191  -8.757  1.00  0.00    -0.744 OA
ENDBRANCH  68  71
ENDBRANCH  50  64
BRANCH  51  75
ATOM     75  C   UNL     1      -4.136  -4.702 -13.731  1.00  0.00     0.023 A 
ATOM     76  C   UNL     1      -4.923  -3.935 -14.611  1.00  0.00     0.012 A 
ATOM     77  C   UNL     1      -2.784  -4.356 -13.537  1.00  0.00     0.148 A 
ATOM     78  C   UNL     1      -4.370  -2.855 -15.300  1.00  0.00     0.002 A 
ATOM     79  C   UNL     1      -2.255  -3.245 -14.182  1.00  0.00     0.091 A 
ATOM     80  F   UNL     1      -2.053  -5.104 -12.698  1.00  0.00    -0.205 F 
ATOM     81  C   UNL     1      -3.041  -2.503 -15.077  1.00  0.00     0.022 A 
BRANCH  79  82
ATOM     82  S   UNL     1      -0.598  -2.634 -13.854  1.00  0.00     0.127 S 
ATOM     83  O   UNL     1       0.054  -2.830 -15.146  1.00  0.00    -0.237 OA
ATOM     84  O   UNL     1      -0.861  -1.239 -13.500  1.00  0.00    -0.237 OA
ATOM     85  O   UNL     1      -0.084  -3.449 -12.761  1.00  0.00    -0.744 OA
ENDBRANCH  79  82
ENDBRANCH  51  75
BRANCH  63  86
ATOM     86  C   UNL     1      -6.734 -10.968 -15.486  1.00  0.00     0.023 A 
ATOM     87  C   UNL     1      -5.645 -11.487 -16.212  1.00  0.00     0.012 A 
ATOM     88  C   UNL     1      -8.047 -11.205 -15.941  1.00  0.00     0.148 A 
ATOM     89  C   UNL     1      -5.859 -12.216 -17.382  1.00  0.00     0.002 A 
ATOM     90  C   UNL     1      -8.254 -11.977 -17.077  1.00  0.00     0.091 A 
ATOM     91  F   UNL     1      -9.068 -10.687 -15.243  1.00  0.00    -0.205 F 
ATOM     92  C   UNL     1      -7.161 -12.474 -17.805  1.00  0.00     0.022 A 
BRANCH  90  93
ATOM     93  S   UNL     1      -9.895 -12.448 -17.638  1.00  0.00     0.127 S 
ATOM     94  O   UNL     1     -10.002 -11.710 -18.896  1.00  0.00    -0.237 OA
ATOM     95  O   UNL     1      -9.764 -13.897 -17.790  1.00  0.00    -0.237 OA
ATOM     96  O   UNL     1     -10.817 -12.028 -16.592  1.00  0.00    -0.744 OA
ENDBRANCH  90  93
ENDBRANCH  63  86
ENDBRANCH  37  38
ENDBRANCH  29  32
ENDBRANCH  27  28
ENDBRANCH  26  27
ENDBRANCH   1  26
TORSDOF 18
