REMARK SMILES Cc1ccc(C(=O)NCCCCNC(=O)c2ccc(-c3c4nc(c(-c5cccc(S(=O)(=O)[O-])c5F)c5ccc([nH]5)c(-c5cccc(S(=O)(=O)[O-])c5F)c5nc(c(-c6cccc(S(=O)(=O)[O-])c6F)c6ccc3[nH]6)C=C5)C=C4)cc2)cc1S(=O)(=O)C[C@@H]1C[C@H]2CC[C@@H]1C2
REMARK SMILES IDX 10 1 9 2 8 3 6 4 7 5 5 7 1 8 2 9 3 10 80 11 4 12 79 13 81 14
REMARK SMILES IDX 82 15 83 16 84 17 85 18 86 19 90 20 87 21 89 22 91 23 88 24
REMARK SMILES IDX 11 25 12 26 13 27 14 28 15 30 16 31 17 32 78 33 18 34 77 35
REMARK SMILES IDX 19 36 20 37 21 38 71 39 22 40 76 41 70 42 72 43 23 44 75 45
REMARK SMILES IDX 69 46 68 47 24 49 56 50 36 51 55 52 37 53 40 54 54 55 73 56
REMARK SMILES IDX 38 57 39 58 53 60 74 61 41 62 25 63 26 64 34 65 27 66 29 67
REMARK SMILES IDX 35 68 28 69 30 70 31 71 32 72 33 73 57 74 58 75 66 76 59 77
REMARK SMILES IDX 61 78 67 79 60 80 62 81 63 82 64 83 65 84 42 85 43 86 51 87
REMARK SMILES IDX 44 88 46 89 52 90 45 91 47 92 48 93 49 94 50 95
REMARK H PARENT 8 6 13 29 72 48 40 59
REMARK Flexibility Score: inf
ROOT
ATOM      1  C   UNL     1      -3.522   3.094  -1.872  1.00  0.00     0.023 C 
ENDROOT
BRANCH   1   2
ATOM      2  C   UNL     1      -3.442   2.797  -0.371  1.00  0.00     0.116 C 
BRANCH   2   3
ATOM      3  N   UNL     1      -3.897   1.470   0.024  1.00  0.00    -0.352 N 
ATOM      4  C   UNL     1      -3.264   0.294   0.355  1.00  0.00     0.251 C 
ATOM      5  O   UNL     1      -3.969  -0.670   0.660  1.00  0.00    -0.269 OA
ATOM      6  H   UNL     1      -4.878   1.399   0.063  1.00  0.00     0.163 HD
BRANCH   4   7
ATOM      7  C   UNL     1      -1.793   0.078   0.243  1.00  0.00     0.041 A 
ATOM      8  C   UNL     1       2.076  -0.648  -1.444  1.00  0.00     0.046 C 
ATOM      9  C   UNL     1       0.862  -0.353  -0.621  1.00  0.00    -0.032 A 
ATOM     10  C   UNL     1      -0.054  -1.419  -0.524  1.00  0.00     0.005 A 
ATOM     11  C   UNL     1       0.497   0.884  -0.066  1.00  0.00     0.071 A 
ATOM     12  C   UNL     1      -1.372  -1.201  -0.127  1.00  0.00     0.014 A 
ATOM     13  C   UNL     1      -0.821   1.060   0.419  1.00  0.00     0.034 A 
BRANCH  11  14
ATOM     14  S   UNL     1       1.449   2.404  -0.172  1.00  0.00     0.178 S 
ATOM     15  O   UNL     1       1.343   2.814  -1.559  1.00  0.00    -0.224 OA
ATOM     16  O   UNL     1       0.935   3.273   0.878  1.00  0.00    -0.224 OA
BRANCH  14  17
ATOM     17  C   UNL     1       3.177   2.212   0.187  1.00  0.00     0.146 C 
BRANCH  17  18
ATOM     18  C   UNL     1       3.501   1.495   1.491  1.00  0.00     0.008 C 
ATOM     19  C   UNL     1       4.635   2.167   2.309  1.00  0.00     0.008 C 
ATOM     20  C   UNL     1       4.088   0.077   1.276  1.00  0.00    -0.007 C 
ATOM     21  C   UNL     1       5.551   0.984   2.671  1.00  0.00    -0.011 C 
ATOM     22  C   UNL     1       3.839  -0.718   2.559  1.00  0.00     0.004 C 
ATOM     23  C   UNL     1       5.605   0.270   1.329  1.00  0.00     0.007 C 
ATOM     24  C   UNL     1       4.787  -0.030   3.550  1.00  0.00     0.004 C 
ENDBRANCH  17  18
ENDBRANCH  14  17
ENDBRANCH  11  14
ENDBRANCH   4   7
ENDBRANCH   2   3
ENDBRANCH   1   2
BRANCH   1  25
ATOM     25  C   UNL     1      -4.916   3.278  -2.495  1.00  0.00     0.023 C 
BRANCH  25  26
ATOM     26  C   UNL     1      -5.850   4.203  -1.731  1.00  0.00     0.116 C 
BRANCH  26  27
ATOM     27  N   UNL     1      -5.289   5.532  -1.543  1.00  0.00    -0.352 N 
ATOM     28  C   UNL     1      -5.759   6.626  -0.850  1.00  0.00     0.251 C 
ATOM     29  H   UNL     1      -4.422   5.674  -1.987  1.00  0.00     0.163 HD
ATOM     30  O   UNL     1      -5.425   7.733  -1.270  1.00  0.00    -0.269 OA
BRANCH  28  31
ATOM     31  C   UNL     1      -6.505   6.507   0.426  1.00  0.00     0.039 A 
ATOM     32  C   UNL     1      -6.916   7.676   1.095  1.00  0.00     0.014 A 
ATOM     33  C   UNL     1      -6.571   5.293   1.094  1.00  0.00     0.014 A 
ATOM     34  C   UNL     1      -7.198   7.639   2.461  1.00  0.00     0.010 A 
ATOM     35  C   UNL     1      -6.914   5.238   2.409  1.00  0.00     0.010 A 
ATOM     36  C   UNL     1      -7.083   6.426   3.112  1.00  0.00    -0.014 A 
BRANCH  36  37
ATOM     37  C   UNL     1      -7.040   6.193   4.538  1.00  0.00     0.031 A 
ATOM     38  C   UNL     1      -8.293   5.861   5.215  1.00  0.00     0.074 A 
ATOM     39  C   UNL     1      -5.830   5.752   4.955  1.00  0.00     0.049 A 
ATOM     40  N   UNL     1      -8.363   5.492   6.441  1.00  0.00    -0.248 NA
ATOM     41  C   UNL     1      -9.590   5.903   4.540  1.00  0.00     0.031 C 
ATOM     42  C   UNL     1      -5.499   4.730   5.940  1.00  0.00     0.029 A 
ATOM     43  N   UNL     1      -4.584   6.203   4.527  1.00  0.00    -0.354 N 
ATOM     44  C   UNL     1      -9.598   4.908   6.596  1.00  0.00     0.074 A 
ATOM     45  C   UNL     1     -10.376   5.350   5.469  1.00  0.00     0.031 C 
ATOM     46  C   UNL     1      -4.186   4.815   6.233  1.00  0.00     0.029 A 
ATOM     47  C   UNL     1      -3.691   6.024   5.592  1.00  0.00     0.049 A 
ATOM     48  H   UNL     1      -4.370   6.578   3.643  1.00  0.00     0.167 HD
ATOM     49  C   UNL     1      -9.736   3.964   7.564  1.00  0.00     0.034 A 
ATOM     50  C   UNL     1      -3.278   7.148   6.263  1.00  0.00     0.034 A 
ATOM     51  C   UNL     1      -8.543   3.944   8.429  1.00  0.00     0.049 A 
ATOM     52  C   UNL     1      -3.843   7.221   7.673  1.00  0.00     0.074 A 
ATOM     53  C   UNL     1      -7.473   3.075   8.548  1.00  0.00     0.029 A 
ATOM     54  N   UNL     1      -8.171   5.114   9.093  1.00  0.00    -0.354 N 
ATOM     55  N   UNL     1      -4.821   6.476   8.113  1.00  0.00    -0.248 NA
ATOM     56  C   UNL     1      -3.316   8.095   8.716  1.00  0.00     0.031 C 
ATOM     57  C   UNL     1      -6.397   3.798   9.147  1.00  0.00     0.029 A 
ATOM     58  C   UNL     1      -6.830   5.082   9.444  1.00  0.00     0.049 A 
ATOM     59  H   UNL     1      -8.780   5.863   9.286  1.00  0.00     0.167 HD
ATOM     60  C   UNL     1      -5.124   6.793   9.406  1.00  0.00     0.074 A 
ATOM     61  C   UNL     1      -4.108   7.775   9.756  1.00  0.00     0.031 C 
ATOM     62  C   UNL     1      -6.198   6.250  10.063  1.00  0.00     0.034 A 
BRANCH  49  63
ATOM     63  C   UNL     1     -10.838   2.924   7.636  1.00  0.00     0.023 A 
ATOM     64  C   UNL     1     -10.866   2.111   8.790  1.00  0.00     0.012 A 
ATOM     65  C   UNL     1     -11.794   2.612   6.633  1.00  0.00     0.148 A 
ATOM     66  C   UNL     1     -11.781   1.062   8.947  1.00  0.00     0.002 A 
ATOM     67  C   UNL     1     -12.757   1.615   6.823  1.00  0.00     0.091 A 
ATOM     68  F   UNL     1     -11.731   3.199   5.435  1.00  0.00    -0.205 F 
ATOM     69  C   UNL     1     -12.741   0.827   7.974  1.00  0.00     0.022 A 
BRANCH  67  70
ATOM     70  S   UNL     1     -14.076   1.297   5.633  1.00  0.00     0.127 S 
ATOM     71  O   UNL     1     -13.694  -0.006   5.088  1.00  0.00    -0.237 OA
ATOM     72  O   UNL     1     -15.267   1.274   6.483  1.00  0.00    -0.237 OA
ATOM     73  O   UNL     1     -14.042   2.402   4.682  1.00  0.00    -0.744 OA
ENDBRANCH  67  70
ENDBRANCH  49  63
BRANCH  50  74
ATOM     74  C   UNL     1      -3.091   8.302   5.306  1.00  0.00     0.023 A 
ATOM     75  C   UNL     1      -2.150   8.085   4.263  1.00  0.00     0.012 A 
ATOM     76  C   UNL     1      -4.106   9.258   5.102  1.00  0.00     0.148 A 
ATOM     77  C   UNL     1      -2.356   8.620   2.989  1.00  0.00     0.002 A 
ATOM     78  C   UNL     1      -4.278   9.822   3.834  1.00  0.00     0.091 A 
ATOM     79  F   UNL     1      -4.926   9.552   6.119  1.00  0.00    -0.205 F 
ATOM     80  C   UNL     1      -3.448   9.450   2.763  1.00  0.00     0.022 A 
BRANCH  78  81
ATOM     81  S   UNL     1      -5.619  10.973   3.494  1.00  0.00     0.127 S 
ATOM     82  O   UNL     1      -4.993  12.255   3.808  1.00  0.00    -0.237 OA
ATOM     83  O   UNL     1      -5.888  10.765   2.070  1.00  0.00    -0.237 OA
ATOM     84  O   UNL     1      -6.706  10.558   4.368  1.00  0.00    -0.744 OA
ENDBRANCH  78  81
ENDBRANCH  50  74
BRANCH  62  85
ATOM     85  C   UNL     1      -6.753   6.781  11.372  1.00  0.00     0.023 A 
ATOM     86  C   UNL     1      -6.499   8.094  11.814  1.00  0.00     0.012 A 
ATOM     87  C   UNL     1      -7.681   6.024  12.135  1.00  0.00     0.148 A 
ATOM     88  C   UNL     1      -7.053   8.602  12.992  1.00  0.00     0.002 A 
ATOM     89  C   UNL     1      -8.327   6.579  13.236  1.00  0.00     0.091 A 
ATOM     90  F   UNL     1      -7.933   4.748  11.810  1.00  0.00    -0.205 F 
ATOM     91  C   UNL     1      -7.984   7.852  13.694  1.00  0.00     0.022 A 
BRANCH  89  92
ATOM     92  S   UNL     1      -9.725   5.756  14.013  1.00  0.00     0.127 S 
ATOM     93  O   UNL     1      -9.097   5.122  15.169  1.00  0.00    -0.237 OA
ATOM     94  O   UNL     1     -10.605   6.880  14.338  1.00  0.00    -0.237 OA
ATOM     95  O   UNL     1     -10.259   4.857  12.999  1.00  0.00    -0.744 OA
ENDBRANCH  89  92
ENDBRANCH  62  85
ENDBRANCH  36  37
ENDBRANCH  28  31
ENDBRANCH  26  27
ENDBRANCH  25  26
ENDBRANCH   1  25
TORSDOF 17
