REMARK SMILES CCc1cc(C(=O)N2CCO[C@@H](CC(=O)NCCCCNC(=O)c3ccc(-c4c5nc(c(-c6cccc(S(=O)(=O)[O-])c6F)c6ccc([nH]6)c(-c6cccc(S(=O)(=O)[O-])c6F)c6nc(c(-c7cccc(S(=O)(=O)[O-])c7F)c7ccc4[nH]7)C=C6)C=C5)cc3)C2)sc1C
REMARK SMILES IDX 18 1 17 2 16 3 14 4 15 5 13 7 12 8 8 9 9 10 87 11 10 12
REMARK SMILES IDX 11 13 6 14 7 15 5 16 3 17 4 18 89 19 88 20 90 21 2 22 1 23
REMARK SMILES IDX 19 24 20 25 21 26 22 27 23 29 24 30 25 31 86 32 26 33 85 34
REMARK SMILES IDX 27 35 28 36 29 37 79 38 30 39 84 40 78 41 80 42 31 43 83 44
REMARK SMILES IDX 77 45 76 46 32 48 64 49 44 50 63 51 45 52 48 53 62 54 81 55
REMARK SMILES IDX 46 56 47 57 61 59 82 60 49 61 33 62 34 63 42 64 35 65 37 66
REMARK SMILES IDX 43 67 36 68 38 69 39 70 40 71 41 72 65 73 66 74 74 75 67 76
REMARK SMILES IDX 69 77 75 78 68 79 70 80 71 81 72 82 73 83 50 84 51 85 59 86
REMARK SMILES IDX 52 87 54 88 60 89 53 90 55 91 56 92 57 93 58 94
REMARK H PARENT 16 6 21 28 80 47 48 58
REMARK Flexibility Score: inf
ROOT
ATOM      1  C   UNL     1       1.624  -2.565   8.592  1.00  0.00     0.023 C 
ENDROOT
BRANCH   1   2
ATOM      2  C   UNL     1       1.821  -3.891   9.332  1.00  0.00     0.116 C 
BRANCH   2   3
ATOM      3  N   UNL     1       0.731  -4.821   9.059  1.00  0.00    -0.356 N 
ATOM      4  C   UNL     1       0.661  -5.908   8.238  1.00  0.00     0.222 C 
ATOM      5  O   UNL     1      -0.422  -6.484   8.122  1.00  0.00    -0.275 OA
ATOM      6  H   UNL     1      -0.099  -4.631   9.554  1.00  0.00     0.163 HD
BRANCH   4   7
ATOM      7  C   UNL     1       1.869  -6.396   7.463  1.00  0.00     0.133 C 
BRANCH   7   8
ATOM      8  C   UNL     1       1.857  -5.921   6.002  1.00  0.00     0.147 C 
ATOM      9  N   UNL     1       2.433  -3.817   4.690  1.00  0.00    -0.333 N 
ATOM     10  C   UNL     1       3.415  -4.603   3.961  1.00  0.00     0.148 C 
ATOM     11  C   UNL     1       2.036  -4.403   5.956  1.00  0.00     0.152 C 
ATOM     12  C   UNL     1       3.041  -6.085   3.956  1.00  0.00     0.182 C 
ATOM     13  O   UNL     1       2.932  -6.581   5.301  1.00  0.00    -0.374 OA
BRANCH   9  14
ATOM     14  C   UNL     1       2.677  -2.433   4.780  1.00  0.00     0.264 C 
ATOM     15  O   UNL     1       3.357  -1.990   5.707  1.00  0.00    -0.268 OA
BRANCH  14  16
ATOM     16  C   UNL     1       2.006  -1.607   3.792  1.00  0.00     0.093 A 
ATOM     17  C   UNL     1       0.825  -0.820   1.916  1.00  0.00    -0.034 A 
ATOM     18  C   UNL     1       1.405  -1.945   2.599  1.00  0.00     0.029 A 
ATOM     19  C   UNL     1       0.948   0.334   2.673  1.00  0.00     0.005 A 
ATOM     20  S   UNL     1       1.851   0.069   4.100  1.00  0.00    -0.135 S 
ATOM     21  C   UNL     1       0.439   1.712   2.399  1.00  0.00     0.056 C 
BRANCH  17  22
ATOM     22  C   UNL     1       0.162  -0.923   0.572  1.00  0.00     0.033 C 
ATOM     23  C   UNL     1       0.954  -0.218  -0.521  1.00  0.00     0.009 C 
ENDBRANCH  17  22
ENDBRANCH  14  16
ENDBRANCH   9  14
ENDBRANCH   7   8
ENDBRANCH   4   7
ENDBRANCH   2   3
ENDBRANCH   1   2
BRANCH   1  24
ATOM     24  C   UNL     1       0.892  -1.476   9.358  1.00  0.00     0.023 C 
BRANCH  24  25
ATOM     25  C   UNL     1       1.695  -0.847  10.480  1.00  0.00     0.116 C 
BRANCH  25  26
ATOM     26  N   UNL     1       2.935  -0.216  10.043  1.00  0.00    -0.352 N 
ATOM     27  C   UNL     1       3.482   0.989  10.426  1.00  0.00     0.251 C 
ATOM     28  H   UNL     1       3.456  -0.724   9.380  1.00  0.00     0.163 HD
ATOM     29  O   UNL     1       4.521   1.390   9.919  1.00  0.00    -0.269 OA
BRANCH  27  30
ATOM     30  C   UNL     1       2.769   1.822  11.420  1.00  0.00     0.039 A 
ATOM     31  C   UNL     1       2.595   3.182  11.157  1.00  0.00     0.014 A 
ATOM     32  C   UNL     1       2.212   1.249  12.564  1.00  0.00     0.014 A 
ATOM     33  C   UNL     1       1.785   3.947  11.998  1.00  0.00     0.010 A 
ATOM     34  C   UNL     1       1.317   1.982  13.332  1.00  0.00     0.010 A 
ATOM     35  C   UNL     1       1.101   3.341  13.065  1.00  0.00    -0.014 A 
BRANCH  35  36
ATOM     36  C   UNL     1       0.153   4.107  13.911  1.00  0.00     0.031 A 
ATOM     37  C   UNL     1       0.394   4.229  15.392  1.00  0.00     0.074 A 
ATOM     38  C   UNL     1      -0.973   4.609  13.365  1.00  0.00     0.049 A 
ATOM     39  N   UNL     1      -0.336   4.824  16.299  1.00  0.00    -0.248 NA
ATOM     40  C   UNL     1       1.588   3.559  15.935  1.00  0.00     0.031 C 
ATOM     41  C   UNL     1      -1.381   4.452  11.966  1.00  0.00     0.029 A 
ATOM     42  N   UNL     1      -1.991   5.338  13.925  1.00  0.00    -0.354 N 
ATOM     43  C   UNL     1       0.281   4.559  17.515  1.00  0.00     0.074 A 
ATOM     44  C   UNL     1       1.417   3.710  17.239  1.00  0.00     0.031 C 
ATOM     45  C   UNL     1      -2.548   5.087  11.774  1.00  0.00     0.029 A 
ATOM     46  C   UNL     1      -2.979   5.685  13.033  1.00  0.00     0.049 A 
ATOM     47  H   UNL     1      -2.013   5.589  14.877  1.00  0.00     0.167 HD
ATOM     48  C   UNL     1      -0.037   5.021  18.748  1.00  0.00     0.034 A 
ATOM     49  C   UNL     1      -4.094   6.420  13.209  1.00  0.00     0.034 A 
ATOM     50  C   UNL     1      -1.114   5.936  19.004  1.00  0.00     0.049 A 
ATOM     51  C   UNL     1      -4.359   7.021  14.562  1.00  0.00     0.074 A 
ATOM     52  C   UNL     1      -1.453   6.558  20.191  1.00  0.00     0.029 A 
ATOM     53  N   UNL     1      -2.020   6.370  18.049  1.00  0.00    -0.354 N 
ATOM     54  N   UNL     1      -3.660   6.910  15.666  1.00  0.00    -0.248 NA
ATOM     55  C   UNL     1      -5.542   7.885  14.685  1.00  0.00     0.031 C 
ATOM     56  C   UNL     1      -2.565   7.374  19.952  1.00  0.00     0.029 A 
ATOM     57  C   UNL     1      -2.917   7.258  18.616  1.00  0.00     0.049 A 
ATOM     58  H   UNL     1      -2.025   6.089  17.106  1.00  0.00     0.167 HD
ATOM     59  C   UNL     1      -4.300   7.708  16.606  1.00  0.00     0.074 A 
ATOM     60  C   UNL     1      -5.428   8.321  15.932  1.00  0.00     0.031 C 
ATOM     61  C   UNL     1      -3.998   7.899  17.914  1.00  0.00     0.034 A 
BRANCH  48  62
ATOM     62  C   UNL     1       0.853   4.610  19.890  1.00  0.00     0.023 A 
ATOM     63  C   UNL     1       2.150   5.156  19.983  1.00  0.00     0.012 A 
ATOM     64  C   UNL     1       0.411   3.710  20.879  1.00  0.00     0.148 A 
ATOM     65  C   UNL     1       3.008   4.785  21.016  1.00  0.00     0.002 A 
ATOM     66  C   UNL     1       1.259   3.376  21.930  1.00  0.00     0.091 A 
ATOM     67  F   UNL     1      -0.814   3.177  20.762  1.00  0.00    -0.205 F 
ATOM     68  C   UNL     1       2.559   3.902  21.994  1.00  0.00     0.022 A 
BRANCH  66  69
ATOM     69  S   UNL     1       0.744   2.302  23.276  1.00  0.00     0.127 S 
ATOM     70  O   UNL     1       1.405   1.047  22.922  1.00  0.00    -0.237 OA
ATOM     71  O   UNL     1       1.306   2.977  24.447  1.00  0.00    -0.237 OA
ATOM     72  O   UNL     1      -0.711   2.283  23.232  1.00  0.00    -0.744 OA
ENDBRANCH  66  69
ENDBRANCH  48  62
BRANCH  49  73
ATOM     73  C   UNL     1      -4.969   6.729  12.043  1.00  0.00     0.023 A 
ATOM     74  C   UNL     1      -4.952   8.032  11.505  1.00  0.00     0.012 A 
ATOM     75  C   UNL     1      -5.773   5.747  11.435  1.00  0.00     0.148 A 
ATOM     76  C   UNL     1      -5.740   8.358  10.401  1.00  0.00     0.002 A 
ATOM     77  C   UNL     1      -6.520   6.066  10.305  1.00  0.00     0.091 A 
ATOM     78  F   UNL     1      -5.788   4.517  11.968  1.00  0.00    -0.205 F 
ATOM     79  C   UNL     1      -6.515   7.374   9.795  1.00  0.00     0.022 A 
BRANCH  77  80
ATOM     80  S   UNL     1      -7.444   4.828   9.387  1.00  0.00     0.127 S 
ATOM     81  O   UNL     1      -8.815   5.109   9.801  1.00  0.00    -0.237 OA
ATOM     82  O   UNL     1      -7.135   5.179   8.000  1.00  0.00    -0.237 OA
ATOM     83  O   UNL     1      -6.898   3.546   9.811  1.00  0.00    -0.744 OA
ENDBRANCH  77  80
ENDBRANCH  49  73
BRANCH  61  84
ATOM     84  C   UNL     1      -4.896   8.813  18.704  1.00  0.00     0.023 A 
ATOM     85  C   UNL     1      -6.172   8.360  19.091  1.00  0.00     0.012 A 
ATOM     86  C   UNL     1      -4.455  10.083  19.120  1.00  0.00     0.148 A 
ATOM     87  C   UNL     1      -7.009   9.170  19.857  1.00  0.00     0.002 A 
ATOM     88  C   UNL     1      -5.279  10.869  19.918  1.00  0.00     0.091 A 
ATOM     89  F   UNL     1      -3.246  10.508  18.722  1.00  0.00    -0.205 F 
ATOM     90  C   UNL     1      -6.559  10.419  20.280  1.00  0.00     0.022 A 
BRANCH  88  91
ATOM     91  S   UNL     1      -4.728  12.449  20.573  1.00  0.00     0.127 S 
ATOM     92  O   UNL     1      -5.286  13.388  19.603  1.00  0.00    -0.237 OA
ATOM     93  O   UNL     1      -5.363  12.487  21.892  1.00  0.00    -0.237 OA
ATOM     94  O   UNL     1      -3.274  12.365  20.615  1.00  0.00    -0.744 OA
ENDBRANCH  88  91
ENDBRANCH  61  84
ENDBRANCH  35  36
ENDBRANCH  27  30
ENDBRANCH  25  26
ENDBRANCH  24  25
ENDBRANCH   1  24
TORSDOF 18
