REMARK SMILES COc1cc2c[nH]nc2cc1C(=O)NCCCCNC(=O)c1ccc(-c2c3nc(c(-c4cccc(S(=O)(=O)[O-])c4F)c4ccc([nH]4)c(-c4cccc(S(=O)(=O)[O-])c4F)c4nc(c(-c5cccc(S(=O)(=O)[O-])c5F)c5ccc2[nH]5)C=C4)C=C3)cc1
REMARK SMILES IDX 17 1 16 2 15 3 14 4 12 5 13 6 11 8 3 9 4 10 5 11 10 12 6 13
REMARK SMILES IDX 9 14 7 15 8 16 2 18 1 19 18 20 19 21 20 22 21 24 22 25 23 26
REMARK SMILES IDX 84 27 24 28 83 29 25 30 26 31 27 32 77 33 28 34 82 35 76 36
REMARK SMILES IDX 78 37 29 38 81 39 75 40 74 41 30 43 62 44 42 45 61 46 43 47
REMARK SMILES IDX 46 48 60 49 79 50 44 51 45 52 59 54 80 55 47 56 31 57 32 58
REMARK SMILES IDX 40 59 33 60 35 61 41 62 34 63 36 64 37 65 38 66 39 67 63 68
REMARK SMILES IDX 64 69 72 70 65 71 67 72 73 73 66 74 68 75 69 76 70 77 71 78
REMARK SMILES IDX 48 79 49 80 57 81 50 82 52 83 58 84 51 85 53 86 54 87 55 88
REMARK SMILES IDX 56 89
REMARK H PARENT 14 7 7 17 19 23 78 42 46 53
REMARK Flexibility Score: inf
ROOT
ATOM      1  C   UNL     1       2.330   1.308   3.179  1.00  0.00     0.023 C 
ENDROOT
BRANCH   1   2
ATOM      2  C   UNL     1       1.808  -0.128   3.098  1.00  0.00     0.023 C 
BRANCH   2   3
ATOM      3  C   UNL     1       1.539  -0.671   1.698  1.00  0.00     0.116 C 
BRANCH   3   4
ATOM      4  N   UNL     1       2.685  -0.645   0.811  1.00  0.00    -0.352 N 
ATOM      5  C   UNL     1       2.933  -1.378  -0.325  1.00  0.00     0.255 C 
ATOM      6  O   UNL     1       3.956  -1.141  -0.968  1.00  0.00    -0.269 OA
ATOM      7  H   UNL     1       3.392  -0.006   1.059  1.00  0.00     0.163 HD
BRANCH   5   8
ATOM      8  C   UNL     1       2.057  -2.492  -0.777  1.00  0.00     0.084 A 
ATOM      9  C   UNL     1       0.622  -2.406  -0.869  1.00  0.00     0.132 A 
ATOM     10  C   UNL     1      -0.219  -3.493  -1.206  1.00  0.00     0.059 A 
ATOM     11  C   UNL     1       0.525  -4.614  -1.542  1.00  0.00     0.023 A 
ATOM     12  C   UNL     1       2.771  -3.662  -1.164  1.00  0.00     0.048 A 
ATOM     13  C   UNL     1       0.013  -5.819  -1.933  1.00  0.00     0.114 A 
ATOM     14  C   UNL     1       1.958  -4.737  -1.553  1.00  0.00     0.093 A 
ATOM     15  N   UNL     1       1.111  -6.589  -2.187  1.00  0.00    -0.285 N 
ATOM     16  N   UNL     1       2.288  -5.972  -1.966  1.00  0.00    -0.176 NA
ATOM     17  H   UNL     1       1.048  -7.518  -2.506  1.00  0.00     0.189 HD
BRANCH   9  18
ATOM     18  O   UNL     1      -0.068  -1.248  -0.589  1.00  0.00    -0.496 OA
ATOM     19  C   UNL     1       0.085  -0.278  -1.626  1.00  0.00     0.278 C 
ENDBRANCH   9  18
ENDBRANCH   5   8
ENDBRANCH   3   4
ENDBRANCH   2   3
ENDBRANCH   1   2
BRANCH   1  20
ATOM     20  C   UNL     1       1.638   2.346   2.299  1.00  0.00     0.116 C 
BRANCH  20  21
ATOM     21  N   UNL     1       0.223   2.523   2.594  1.00  0.00    -0.352 N 
ATOM     22  C   UNL     1      -0.464   3.628   3.046  1.00  0.00     0.251 C 
ATOM     23  H   UNL     1      -0.332   1.723   2.446  1.00  0.00     0.163 HD
ATOM     24  O   UNL     1      -1.659   3.536   3.303  1.00  0.00    -0.269 OA
BRANCH  22  25
ATOM     25  C   UNL     1       0.239   4.915   3.263  1.00  0.00     0.039 A 
ATOM     26  C   UNL     1       0.026   5.602   4.463  1.00  0.00     0.014 A 
ATOM     27  C   UNL     1       1.109   5.441   2.307  1.00  0.00     0.014 A 
ATOM     28  C   UNL     1       0.761   6.759   4.744  1.00  0.00     0.010 A 
ATOM     29  C   UNL     1       1.897   6.548   2.621  1.00  0.00     0.010 A 
ATOM     30  C   UNL     1       1.742   7.213   3.847  1.00  0.00    -0.014 A 
BRANCH  30  31
ATOM     31  C   UNL     1       2.637   8.354   4.182  1.00  0.00     0.031 A 
ATOM     32  C   UNL     1       2.639   9.596   3.329  1.00  0.00     0.074 A 
ATOM     33  C   UNL     1       3.522   8.235   5.194  1.00  0.00     0.049 A 
ATOM     34  N   UNL     1       3.418  10.645   3.402  1.00  0.00    -0.248 NA
ATOM     35  C   UNL     1       1.656   9.656   2.235  1.00  0.00     0.031 C 
ATOM     36  C   UNL     1       3.678   7.057   6.051  1.00  0.00     0.029 A 
ATOM     37  N   UNL     1       4.480   9.106   5.656  1.00  0.00    -0.354 N 
ATOM     38  C   UNL     1       3.044  11.471   2.348  1.00  0.00     0.074 A 
ATOM     39  C   UNL     1       1.991  10.787   1.630  1.00  0.00     0.031 C 
ATOM     40  C   UNL     1       4.668   7.279   6.932  1.00  0.00     0.029 A 
ATOM     41  C   UNL     1       5.237   8.600   6.689  1.00  0.00     0.049 A 
ATOM     42  H   UNL     1       4.612  10.007   5.284  1.00  0.00     0.167 HD
ATOM     43  C   UNL     1       3.507  12.703   2.026  1.00  0.00     0.034 A 
ATOM     44  C   UNL     1       6.277   9.135   7.359  1.00  0.00     0.034 A 
ATOM     45  C   UNL     1       4.515  13.409   2.771  1.00  0.00     0.049 A 
ATOM     46  C   UNL     1       6.737  10.526   7.008  1.00  0.00     0.074 A 
ATOM     47  C   UNL     1       5.006  14.685   2.558  1.00  0.00     0.029 A 
ATOM     48  N   UNL     1       5.177  12.906   3.879  1.00  0.00    -0.354 N 
ATOM     49  N   UNL     1       6.271  11.344   6.097  1.00  0.00    -0.248 NA
ATOM     50  C   UNL     1       7.843  11.082   7.804  1.00  0.00     0.031 C 
ATOM     51  C   UNL     1       5.966  14.955   3.539  1.00  0.00     0.029 A 
ATOM     52  C   UNL     1       6.064  13.850   4.368  1.00  0.00     0.049 A 
ATOM     53  H   UNL     1       5.037  12.010   4.263  1.00  0.00     0.167 HD
ATOM     54  C   UNL     1       6.994  12.524   6.239  1.00  0.00     0.074 A 
ATOM     55  C   UNL     1       7.915  12.321   7.338  1.00  0.00     0.031 C 
ATOM     56  C   UNL     1       6.916  13.665   5.513  1.00  0.00     0.034 A 
BRANCH  43  57
ATOM     57  C   UNL     1       2.869  13.409   0.859  1.00  0.00     0.023 A 
ATOM     58  C   UNL     1       1.568  13.934   1.005  1.00  0.00     0.012 A 
ATOM     59  C   UNL     1       3.571  13.625  -0.343  1.00  0.00     0.148 A 
ATOM     60  C   UNL     1       0.964  14.638  -0.034  1.00  0.00     0.002 A 
ATOM     61  C   UNL     1       2.977  14.363  -1.361  1.00  0.00     0.091 A 
ATOM     62  F   UNL     1       4.800  13.105  -0.468  1.00  0.00    -0.205 F 
ATOM     63  C   UNL     1       1.672  14.861  -1.212  1.00  0.00     0.022 A 
BRANCH  61  64
ATOM     64  S   UNL     1       3.827  14.772  -2.890  1.00  0.00     0.127 S 
ATOM     65  O   UNL     1       3.080  13.977  -3.864  1.00  0.00    -0.237 OA
ATOM     66  O   UNL     1       3.608  16.216  -2.986  1.00  0.00    -0.237 OA
ATOM     67  O   UNL     1       5.215  14.378  -2.698  1.00  0.00    -0.744 OA
ENDBRANCH  61  64
ENDBRANCH  43  57
BRANCH  44  68
ATOM     68  C   UNL     1       6.912   8.393   8.487  1.00  0.00     0.023 A 
ATOM     69  C   UNL     1       6.737   8.864   9.803  1.00  0.00     0.012 A 
ATOM     70  C   UNL     1       7.685   7.237   8.271  1.00  0.00     0.148 A 
ATOM     71  C   UNL     1       7.355   8.224  10.878  1.00  0.00     0.002 A 
ATOM     72  C   UNL     1       8.254   6.572   9.353  1.00  0.00     0.091 A 
ATOM     73  F   UNL     1       7.859   6.810   7.012  1.00  0.00    -0.205 F 
ATOM     74  C   UNL     1       8.106   7.074  10.655  1.00  0.00     0.022 A 
BRANCH  72  75
ATOM     75  S   UNL     1       9.126   5.014   9.156  1.00  0.00     0.127 S 
ATOM     76  O   UNL     1      10.520   5.446   9.164  1.00  0.00    -0.237 OA
ATOM     77  O   UNL     1       8.704   4.269  10.343  1.00  0.00    -0.237 OA
ATOM     78  O   UNL     1       8.632   4.459   7.902  1.00  0.00    -0.744 OA
ENDBRANCH  72  75
ENDBRANCH  44  68
BRANCH  56  79
ATOM     79  C   UNL     1       7.811  14.810   5.907  1.00  0.00     0.023 A 
ATOM     80  C   UNL     1       9.188  14.754   5.615  1.00  0.00     0.012 A 
ATOM     81  C   UNL     1       7.273  15.973   6.494  1.00  0.00     0.148 A 
ATOM     82  C   UNL     1      10.022  15.826   5.927  1.00  0.00     0.002 A 
ATOM     83  C   UNL     1       8.103  17.055   6.761  1.00  0.00     0.091 A 
ATOM     84  F   UNL     1       5.964  15.998   6.782  1.00  0.00    -0.205 F 
ATOM     85  C   UNL     1       9.478  16.980   6.488  1.00  0.00     0.022 A 
BRANCH  83  86
ATOM     86  S   UNL     1       7.472  18.613   7.397  1.00  0.00     0.127 S 
ATOM     87  O   UNL     1       7.894  18.557   8.795  1.00  0.00    -0.237 OA
ATOM     88  O   UNL     1       8.188  19.596   6.582  1.00  0.00    -0.237 OA
ATOM     89  O   UNL     1       6.033  18.581   7.173  1.00  0.00    -0.744 OA
ENDBRANCH  83  86
ENDBRANCH  56  79
ENDBRANCH  30  31
ENDBRANCH  22  25
ENDBRANCH  20  21
ENDBRANCH   1  20
TORSDOF 15
