REMARK SMILES CC1(C)[C@H](C(=O)NCCCCNC(=O)c2ccc(-c3c4nc(c(-c5cccc(S(=O)(=O)[O-])c5F)c5ccc([nH]5)c(-c5cccc(S(=O)(=O)[O-])c5F)c5nc(c(-c6cccc(S(=O)(=O)[O-])c6F)c6ccc3[nH]6)C=C5)C=C4)cc2)[C@H]1C(=O)Nc1cccc2[nH]ccc12
REMARK SMILES IDX 10 1 9 2 8 3 7 4 5 5 6 6 4 8 1 9 2 10 3 11 78 12 79 13 80 14
REMARK SMILES IDX 81 15 82 17 83 18 90 19 84 20 86 21 89 22 85 23 87 24 88 25
REMARK SMILES IDX 11 27 12 28 13 29 14 31 15 32 16 33 77 34 17 35 76 36 18 37
REMARK SMILES IDX 19 38 20 39 70 40 21 41 75 42 69 43 71 44 22 45 74 46 68 47
REMARK SMILES IDX 67 48 23 50 55 51 35 52 54 53 36 54 39 55 53 56 72 57 37 58
REMARK SMILES IDX 38 59 52 61 73 62 40 63 24 64 25 65 33 66 26 67 28 68 34 69
REMARK SMILES IDX 27 70 29 71 30 72 31 73 32 74 56 75 57 76 65 77 58 78 60 79
REMARK SMILES IDX 66 80 59 81 61 82 62 83 63 84 64 85 41 86 42 87 50 88 43 89
REMARK SMILES IDX 45 90 51 91 44 92 46 93 47 94 48 95 49 96
REMARK H PARENT 7 7 81 16 87 26 12 30 71 49 39 60
REMARK Flexibility Score: inf
ROOT
ATOM      1  C   UNL     1      -0.662   5.154  -1.703  1.00  0.00     0.023 C 
ENDROOT
BRANCH   1   2
ATOM      2  C   UNL     1      -0.385   3.935  -0.830  1.00  0.00     0.023 C 
BRANCH   2   3
ATOM      3  C   UNL     1      -1.620   3.182  -0.341  1.00  0.00     0.116 C 
BRANCH   3   4
ATOM      4  N   UNL     1      -2.057   2.189  -1.286  1.00  0.00    -0.356 N 
ATOM      5  C   UNL     1      -1.807   0.857  -1.432  1.00  0.00     0.224 C 
ATOM      6  O   UNL     1      -2.462   0.287  -2.309  1.00  0.00    -0.275 OA
ATOM      7  H   UNL     1      -2.665   2.547  -1.972  1.00  0.00     0.163 HD
BRANCH   5   8
ATOM      8  C   UNL     1      -0.845   0.016  -0.669  1.00  0.00     0.098 C 
ATOM      9  C   UNL     1       1.603  -0.471  -0.359  1.00  0.00     0.013 C 
ATOM     10  C   UNL     1       0.433   0.354   0.112  1.00  0.00    -0.011 C 
ATOM     11  C   UNL     1       0.958   1.594   0.779  1.00  0.00     0.013 C 
ATOM     12  C   UNL     1      -0.841  -0.177   0.801  1.00  0.00     0.098 C 
BRANCH  12  13
ATOM     13  C   UNL     1      -0.851  -1.405   1.651  1.00  0.00     0.228 C 
ATOM     14  O   UNL     1      -0.748  -1.244   2.868  1.00  0.00    -0.274 OA
ATOM     15  N   UNL     1      -1.258  -2.632   1.185  1.00  0.00    -0.325 N 
ATOM     16  H   UNL     1      -1.915  -3.105   1.746  1.00  0.00     0.169 HD
BRANCH  15  17
ATOM     17  C   UNL     1      -0.865  -3.296   0.021  1.00  0.00     0.050 A 
ATOM     18  C   UNL     1      -1.866  -3.817  -0.806  1.00  0.00     0.027 A 
ATOM     19  C   UNL     1       0.485  -3.584  -0.286  1.00  0.00     0.023 A 
ATOM     20  C   UNL     1      -1.540  -4.423  -2.018  1.00  0.00     0.004 A 
ATOM     21  C   UNL     1       0.780  -4.131  -1.537  1.00  0.00     0.047 A 
ATOM     22  C   UNL     1       1.724  -3.516   0.418  1.00  0.00     0.030 A 
ATOM     23  C   UNL     1      -0.211  -4.534  -2.436  1.00  0.00     0.027 A 
ATOM     24  N   UNL     1       2.152  -4.146  -1.662  1.00  0.00    -0.361 N 
ATOM     25  C   UNL     1       2.735  -3.826  -0.466  1.00  0.00     0.083 A 
ATOM     26  H   UNL     1       2.641  -4.356  -2.490  1.00  0.00     0.166 HD
ENDBRANCH  15  17
ENDBRANCH  12  13
ENDBRANCH   5   8
ENDBRANCH   3   4
ENDBRANCH   2   3
ENDBRANCH   1   2
BRANCH   1  27
ATOM     27  C   UNL     1      -1.531   6.229  -1.065  1.00  0.00     0.116 C 
BRANCH  27  28
ATOM     28  N   UNL     1      -1.062   6.679   0.242  1.00  0.00    -0.352 N 
ATOM     29  C   UNL     1      -1.111   7.953   0.763  1.00  0.00     0.251 C 
ATOM     30  H   UNL     1      -0.663   5.989   0.820  1.00  0.00     0.163 HD
ATOM     31  O   UNL     1      -0.617   8.210   1.855  1.00  0.00    -0.269 OA
BRANCH  29  32
ATOM     32  C   UNL     1      -1.732   9.013  -0.053  1.00  0.00     0.039 A 
ATOM     33  C   UNL     1      -0.971  10.129  -0.405  1.00  0.00     0.014 A 
ATOM     34  C   UNL     1      -3.010   8.819  -0.582  1.00  0.00     0.014 A 
ATOM     35  C   UNL     1      -1.453  11.003  -1.380  1.00  0.00     0.010 A 
ATOM     36  C   UNL     1      -3.450   9.644  -1.608  1.00  0.00     0.010 A 
ATOM     37  C   UNL     1      -2.669  10.732  -2.030  1.00  0.00    -0.014 A 
BRANCH  37  38
ATOM     38  C   UNL     1      -3.123  11.530  -3.196  1.00  0.00     0.031 A 
ATOM     39  C   UNL     1      -4.423  12.280  -3.130  1.00  0.00     0.074 A 
ATOM     40  C   UNL     1      -2.431  11.469  -4.351  1.00  0.00     0.049 A 
ATOM     41  N   UNL     1      -5.043  12.936  -4.075  1.00  0.00    -0.248 NA
ATOM     42  C   UNL     1      -5.135  12.263  -1.842  1.00  0.00     0.031 C 
ATOM     43  C   UNL     1      -1.199  10.705  -4.562  1.00  0.00     0.029 A 
ATOM     44  N   UNL     1      -2.684  12.030  -5.579  1.00  0.00    -0.354 N 
ATOM     45  C   UNL     1      -6.232  13.378  -3.510  1.00  0.00     0.074 A 
ATOM     46  C   UNL     1      -6.264  12.886  -2.150  1.00  0.00     0.031 C 
ATOM     47  C   UNL     1      -0.805  10.845  -5.838  1.00  0.00     0.029 A 
ATOM     48  C   UNL     1      -1.773  11.675  -6.547  1.00  0.00     0.049 A 
ATOM     49  H   UNL     1      -3.446  12.629  -5.750  1.00  0.00     0.167 HD
ATOM     50  C   UNL     1      -7.196  14.150  -4.063  1.00  0.00     0.034 A 
ATOM     51  C   UNL     1      -1.730  11.972  -7.861  1.00  0.00     0.034 A 
ATOM     52  C   UNL     1      -7.137  14.672  -5.401  1.00  0.00     0.049 A 
ATOM     53  C   UNL     1      -2.806  12.846  -8.447  1.00  0.00     0.074 A 
ATOM     54  C   UNL     1      -8.009  15.549  -6.019  1.00  0.00     0.029 A 
ATOM     55  N   UNL     1      -6.160  14.354  -6.331  1.00  0.00    -0.354 N 
ATOM     56  N   UNL     1      -3.833  13.399  -7.849  1.00  0.00    -0.248 NA
ATOM     57  C   UNL     1      -2.705  13.156  -9.880  1.00  0.00     0.031 C 
ATOM     58  C   UNL     1      -7.573  15.742  -7.334  1.00  0.00     0.029 A 
ATOM     59  C   UNL     1      -6.418  15.000  -7.527  1.00  0.00     0.049 A 
ATOM     60  H   UNL     1      -5.395  13.757  -6.165  1.00  0.00     0.167 HD
ATOM     61  C   UNL     1      -4.487  14.143  -8.825  1.00  0.00     0.074 A 
ATOM     62  C   UNL     1      -3.725  13.988 -10.048  1.00  0.00     0.031 C 
ATOM     63  C   UNL     1      -5.625  14.872  -8.723  1.00  0.00     0.034 A 
BRANCH  50  64
ATOM     64  C   UNL     1      -8.370  14.523  -3.198  1.00  0.00     0.023 A 
ATOM     65  C   UNL     1      -8.190  15.441  -2.142  1.00  0.00     0.012 A 
ATOM     66  C   UNL     1      -9.656  14.009  -3.455  1.00  0.00     0.148 A 
ATOM     67  C   UNL     1      -9.262  15.812  -1.332  1.00  0.00     0.002 A 
ATOM     68  C   UNL     1     -10.728  14.418  -2.671  1.00  0.00     0.091 A 
ATOM     69  F   UNL     1      -9.803  13.120  -4.448  1.00  0.00    -0.205 F 
ATOM     70  C   UNL     1     -10.531  15.309  -1.603  1.00  0.00     0.022 A 
BRANCH  68  71
ATOM     71  S   UNL     1     -12.415  13.887  -2.986  1.00  0.00     0.127 S 
ATOM     72  O   UNL     1     -12.647  12.968  -1.873  1.00  0.00    -0.237 OA
ATOM     73  O   UNL     1     -13.156  15.146  -2.901  1.00  0.00    -0.237 OA
ATOM     74  O   UNL     1     -12.403  13.279  -4.309  1.00  0.00    -0.744 OA
ENDBRANCH  68  71
ENDBRANCH  50  64
BRANCH  51  75
ATOM     75  C   UNL     1      -0.597  11.483  -8.698  1.00  0.00     0.023 A 
ATOM     76  C   UNL     1       0.359  12.404  -9.167  1.00  0.00     0.012 A 
ATOM     77  C   UNL     1      -0.440  10.116  -9.000  1.00  0.00     0.148 A 
ATOM     78  C   UNL     1       1.438  11.978  -9.944  1.00  0.00     0.002 A 
ATOM     79  C   UNL     1       0.666   9.691  -9.728  1.00  0.00     0.091 A 
ATOM     80  F   UNL     1      -1.367   9.257  -8.556  1.00  0.00    -0.205 F 
ATOM     81  C   UNL     1       1.597  10.622 -10.215  1.00  0.00     0.022 A 
BRANCH  79  82
ATOM     82  S   UNL     1       1.024   7.953 -10.012  1.00  0.00     0.127 S 
ATOM     83  O   UNL     1       0.769   7.825 -11.444  1.00  0.00    -0.237 OA
ATOM     84  O   UNL     1       2.433   7.869  -9.626  1.00  0.00    -0.237 OA
ATOM     85  O   UNL     1       0.119   7.219  -9.139  1.00  0.00    -0.744 OA
ENDBRANCH  79  82
ENDBRANCH  51  75
BRANCH  63  86
ATOM     86  C   UNL     1      -6.120  15.574  -9.960  1.00  0.00     0.023 A 
ATOM     87  C   UNL     1      -6.724  14.824 -10.989  1.00  0.00     0.012 A 
ATOM     88  C   UNL     1      -6.075  16.978 -10.060  1.00  0.00     0.148 A 
ATOM     89  C   UNL     1      -7.256  15.460 -12.109  1.00  0.00     0.002 A 
ATOM     90  C   UNL     1      -6.650  17.608 -11.157  1.00  0.00     0.091 A 
ATOM     91  F   UNL     1      -5.483  17.670  -9.076  1.00  0.00    -0.205 F 
ATOM     92  C   UNL     1      -7.231  16.851 -12.187  1.00  0.00     0.022 A 
BRANCH  90  93
ATOM     93  S   UNL     1      -6.750  19.396 -11.304  1.00  0.00     0.127 S 
ATOM     94  O   UNL     1      -5.841  19.655 -12.419  1.00  0.00    -0.237 OA
ATOM     95  O   UNL     1      -8.166  19.601 -11.611  1.00  0.00    -0.237 OA
ATOM     96  O   UNL     1      -6.324  19.931 -10.018  1.00  0.00    -0.744 OA
ENDBRANCH  90  93
ENDBRANCH  63  86
ENDBRANCH  37  38
ENDBRANCH  29  32
ENDBRANCH  27  28
ENDBRANCH   1  27
TORSDOF 16
