REMARK SMILES COc1ccc(F)c(NC(=O)N2CCCC[C@@H]2C(=O)NCCCCNC(=O)c2ccc(-c3c4nc(c(-c5cccc(S(=O)(=O)[O-])c5F)c5ccc([nH]5)c(-c5cccc(S(=O)(=O)[O-])c5F)c5nc(c(-c6cccc(S(=O)(=O)[O-])c6F)c6ccc3[nH]6)C=C5)C=C4)cc2)c1
REMARK SMILES IDX 22 1 21 2 20 3 18 4 19 5 17 7 12 8 13 9 14 10 16 11 15 12
REMARK SMILES IDX 10 13 9 14 11 16 8 17 3 18 4 19 91 20 5 21 6 22 7 23 2 24
REMARK SMILES IDX 1 25 23 26 24 27 25 28 26 29 27 31 28 32 29 33 90 34 30 35
REMARK SMILES IDX 89 36 31 37 32 38 33 39 83 40 34 41 88 42 82 43 84 44 35 45
REMARK SMILES IDX 87 46 81 47 80 48 36 50 68 51 48 52 67 53 49 54 52 55 66 56
REMARK SMILES IDX 85 57 50 58 51 59 65 61 86 62 53 63 37 64 38 65 46 66 39 67
REMARK SMILES IDX 41 68 47 69 40 70 42 71 43 72 44 73 45 74 69 75 70 76 78 77
REMARK SMILES IDX 71 78 73 79 79 80 72 81 74 82 75 83 76 84 77 85 54 86 55 87
REMARK SMILES IDX 63 88 56 89 58 90 64 91 57 92 59 93 60 94 61 95 62 96
REMARK H PARENT 20 6 9 15 25 30 84 49 52 60
REMARK Flexibility Score: inf
ROOT
ATOM      1  C   UNL     1      -5.097  -4.481  -1.355  1.00  0.00     0.023 C 
ENDROOT
BRANCH   1   2
ATOM      2  C   UNL     1      -4.106  -4.882  -0.259  1.00  0.00     0.116 C 
BRANCH   2   3
ATOM      3  N   UNL     1      -2.741  -4.747  -0.728  1.00  0.00    -0.354 N 
ATOM      4  C   UNL     1      -1.818  -3.786  -0.444  1.00  0.00     0.242 C 
ATOM      5  O   UNL     1      -0.818  -3.716  -1.166  1.00  0.00    -0.273 OA
ATOM      6  H   UNL     1      -2.436  -5.453  -1.342  1.00  0.00     0.163 HD
BRANCH   4   7
ATOM      7  C   UNL     1      -2.045  -2.737   0.669  1.00  0.00     0.176 C 
ATOM      8  N   UNL     1      -2.392  -3.332   1.989  1.00  0.00    -0.313 N 
ATOM      9  C   UNL     1      -3.148  -2.535   2.952  1.00  0.00     0.122 C 
ATOM     10  C   UNL     1      -4.148  -1.560   2.355  1.00  0.00     0.022 C 
ATOM     11  C   UNL     1      -3.047  -1.689   0.153  1.00  0.00     0.035 C 
ATOM     12  C   UNL     1      -3.505  -0.743   1.249  1.00  0.00     0.004 C 
BRANCH   8  13
ATOM     13  C   UNL     1      -1.782  -4.452   2.534  1.00  0.00     0.322 C 
ATOM     14  N   UNL     1      -0.549  -4.846   2.124  1.00  0.00    -0.305 N 
ATOM     15  H   UNL     1      -0.445  -5.819   2.021  1.00  0.00     0.171 HD
ATOM     16  O   UNL     1      -2.369  -5.155   3.361  1.00  0.00    -0.248 OA
BRANCH  14  17
ATOM     17  C   UNL     1       0.606  -4.099   1.821  1.00  0.00     0.082 A 
ATOM     18  C   UNL     1       1.814  -2.027   1.598  1.00  0.00     0.121 A 
ATOM     19  C   UNL     1       2.853  -2.672   0.930  1.00  0.00     0.049 A 
ATOM     20  C   UNL     1       0.741  -2.745   2.122  1.00  0.00     0.075 A 
ATOM     21  C   UNL     1       2.793  -4.053   0.752  1.00  0.00     0.045 A 
ATOM     22  C   UNL     1       1.670  -4.753   1.190  1.00  0.00     0.147 A 
ATOM     23  F   UNL     1       1.605  -6.076   0.976  1.00  0.00    -0.205 F 
BRANCH  18  24
ATOM     24  O   UNL     1       1.792  -0.664   1.732  1.00  0.00    -0.497 OA
ATOM     25  C   UNL     1       1.500  -0.058   0.467  1.00  0.00     0.278 C 
ENDBRANCH  18  24
ENDBRANCH  14  17
ENDBRANCH   8  13
ENDBRANCH   4   7
ENDBRANCH   2   3
ENDBRANCH   1   2
BRANCH   1  26
ATOM     26  C   UNL     1      -5.142  -5.433  -2.551  1.00  0.00     0.023 C 
BRANCH  26  27
ATOM     27  C   UNL     1      -5.510  -6.872  -2.213  1.00  0.00     0.116 C 
BRANCH  27  28
ATOM     28  N   UNL     1      -6.807  -6.981  -1.552  1.00  0.00    -0.352 N 
ATOM     29  C   UNL     1      -7.833  -7.851  -1.820  1.00  0.00     0.251 C 
ATOM     30  H   UNL     1      -6.967  -6.345  -0.818  1.00  0.00     0.163 HD
ATOM     31  O   UNL     1      -8.919  -7.729  -1.271  1.00  0.00    -0.269 OA
BRANCH  29  32
ATOM     32  C   UNL     1      -7.611  -8.923  -2.812  1.00  0.00     0.039 A 
ATOM     33  C   UNL     1      -8.481  -9.035  -3.898  1.00  0.00     0.014 A 
ATOM     34  C   UNL     1      -6.496  -9.760  -2.700  1.00  0.00     0.014 A 
ATOM     35  C   UNL     1      -8.183  -9.930  -4.926  1.00  0.00     0.010 A 
ATOM     36  C   UNL     1      -6.172 -10.611  -3.751  1.00  0.00     0.010 A 
ATOM     37  C   UNL     1      -7.001 -10.688  -4.881  1.00  0.00    -0.014 A 
BRANCH  37  38
ATOM     38  C   UNL     1      -6.567 -11.522  -6.029  1.00  0.00     0.031 A 
ATOM     39  C   UNL     1      -6.459 -13.013  -5.882  1.00  0.00     0.074 A 
ATOM     40  C   UNL     1      -6.159 -10.918  -7.163  1.00  0.00     0.049 A 
ATOM     41  N   UNL     1      -5.975 -13.888  -6.723  1.00  0.00    -0.248 NA
ATOM     42  C   UNL     1      -6.937 -13.595  -4.616  1.00  0.00     0.031 C 
ATOM     43  C   UNL     1      -6.159  -9.472  -7.399  1.00  0.00     0.029 A 
ATOM     44  N   UNL     1      -5.633 -11.441  -8.319  1.00  0.00    -0.354 N 
ATOM     45  C   UNL     1      -6.059 -15.117  -6.082  1.00  0.00     0.074 A 
ATOM     46  C   UNL     1      -6.623 -14.874  -4.771  1.00  0.00     0.031 C 
ATOM     47  C   UNL     1      -5.659  -9.224  -8.620  1.00  0.00     0.029 A 
ATOM     48  C   UNL     1      -5.271 -10.486  -9.242  1.00  0.00     0.049 A 
ATOM     49  H   UNL     1      -5.526 -12.407  -8.473  1.00  0.00     0.167 HD
ATOM     50  C   UNL     1      -5.720 -16.340  -6.553  1.00  0.00     0.034 A 
ATOM     51  C   UNL     1      -4.686 -10.612 -10.450  1.00  0.00     0.034 A 
ATOM     52  C   UNL     1      -5.200 -16.580  -7.872  1.00  0.00     0.049 A 
ATOM     53  C   UNL     1      -4.365 -11.990 -10.963  1.00  0.00     0.074 A 
ATOM     54  C   UNL     1      -4.863 -17.790  -8.454  1.00  0.00     0.029 A 
ATOM     55  N   UNL     1      -4.954 -15.598  -8.818  1.00  0.00    -0.354 N 
ATOM     56  N   UNL     1      -4.557 -13.150 -10.384  1.00  0.00    -0.248 NA
ATOM     57  C   UNL     1      -3.782 -12.081 -12.310  1.00  0.00     0.031 C 
ATOM     58  C   UNL     1      -4.415 -17.540  -9.753  1.00  0.00     0.029 A 
ATOM     59  C   UNL     1      -4.485 -16.176  -9.985  1.00  0.00     0.049 A 
ATOM     60  H   UNL     1      -5.092 -14.633  -8.681  1.00  0.00     0.167 HD
ATOM     61  C   UNL     1      -4.161 -14.108 -11.310  1.00  0.00     0.074 A 
ATOM     62  C   UNL     1      -3.732 -13.394 -12.494  1.00  0.00     0.031 C 
ATOM     63  C   UNL     1      -4.139 -15.457 -11.183  1.00  0.00     0.034 A 
BRANCH  50  64
ATOM     64  C   UNL     1      -5.968 -17.533  -5.671  1.00  0.00     0.023 A 
ATOM     65  C   UNL     1      -7.286 -18.004  -5.513  1.00  0.00     0.012 A 
ATOM     66  C   UNL     1      -4.900 -18.252  -5.098  1.00  0.00     0.148 A 
ATOM     67  C   UNL     1      -7.542 -19.167  -4.789  1.00  0.00     0.002 A 
ATOM     68  C   UNL     1      -5.159 -19.432  -4.411  1.00  0.00     0.091 A 
ATOM     69  F   UNL     1      -3.656 -17.775  -5.248  1.00  0.00    -0.205 F 
ATOM     70  C   UNL     1      -6.479 -19.887  -4.250  1.00  0.00     0.022 A 
BRANCH  68  71
ATOM     71  S   UNL     1      -3.858 -20.477  -3.745  1.00  0.00     0.127 S 
ATOM     72  O   UNL     1      -4.102 -20.372  -2.307  1.00  0.00    -0.237 OA
ATOM     73  O   UNL     1      -4.186 -21.780  -4.326  1.00  0.00    -0.237 OA
ATOM     74  O   UNL     1      -2.602 -19.901  -4.204  1.00  0.00    -0.744 OA
ENDBRANCH  68  71
ENDBRANCH  50  64
BRANCH  51  75
ATOM     75  C   UNL     1      -4.452  -9.405 -11.293  1.00  0.00     0.023 A 
ATOM     76  C   UNL     1      -5.236  -9.216 -12.447  1.00  0.00     0.012 A 
ATOM     77  C   UNL     1      -3.498  -8.430 -10.945  1.00  0.00     0.148 A 
ATOM     78  C   UNL     1      -5.055  -8.094 -13.256  1.00  0.00     0.002 A 
ATOM     79  C   UNL     1      -3.361  -7.286 -11.725  1.00  0.00     0.091 A 
ATOM     80  F   UNL     1      -2.747  -8.633  -9.853  1.00  0.00    -0.205 F 
ATOM     81  C   UNL     1      -4.127  -7.124 -12.889  1.00  0.00     0.022 A 
BRANCH  79  82
ATOM     82  S   UNL     1      -2.293  -5.925 -11.241  1.00  0.00     0.127 S 
ATOM     83  O   UNL     1      -1.137  -6.126 -12.110  1.00  0.00    -0.237 OA
ATOM     84  O   UNL     1      -3.113  -4.757 -11.566  1.00  0.00    -0.237 OA
ATOM     85  O   UNL     1      -2.061  -6.108  -9.814  1.00  0.00    -0.744 OA
ENDBRANCH  79  82
ENDBRANCH  51  75
BRANCH  63  86
ATOM     86  C   UNL     1      -3.685 -16.269 -12.366  1.00  0.00     0.023 A 
ATOM     87  C   UNL     1      -2.316 -16.325 -12.691  1.00  0.00     0.012 A 
ATOM     88  C   UNL     1      -4.602 -17.058 -13.088  1.00  0.00     0.148 A 
ATOM     89  C   UNL     1      -1.870 -17.136 -13.733  1.00  0.00     0.002 A 
ATOM     90  C   UNL     1      -4.144 -17.897 -14.097  1.00  0.00     0.091 A 
ATOM     91  F   UNL     1      -5.905 -16.974 -12.779  1.00  0.00    -0.205 F 
ATOM     92  C   UNL     1      -2.780 -17.931 -14.426  1.00  0.00     0.022 A 
BRANCH  90  93
ATOM     93  S   UNL     1      -5.241 -19.023 -14.967  1.00  0.00     0.127 S 
ATOM     94  O   UNL     1      -5.487 -18.299 -16.212  1.00  0.00    -0.237 OA
ATOM     95  O   UNL     1      -4.414 -20.222 -15.112  1.00  0.00    -0.237 OA
ATOM     96  O   UNL     1      -6.397 -19.196 -14.097  1.00  0.00    -0.744 OA
ENDBRANCH  90  93
ENDBRANCH  63  86
ENDBRANCH  37  38
ENDBRANCH  29  32
ENDBRANCH  27  28
ENDBRANCH  26  27
ENDBRANCH   1  26
TORSDOF 17
