REMARK SMILES Cc1ccc(/C=C2/SC(=O)N(CC(=O)NCCCCNC(=O)c3ccc(-c4c5nc(c(-c6cccc(S(=O)(=O)[O-])c6F)c6ccc([nH]6)c(-c6cccc(S(=O)(=O)[O-])c6F)c6nc(c(-c7cccc(S(=O)(=O)[O-])c7F)c7ccc4[nH]7)C=C6)C=C5)cc3)C2=O)cc1
REMARK SMILES IDX 18 1 17 2 16 3 15 4 13 5 14 6 12 8 11 9 6 10 7 11 8 12 86 13
REMARK SMILES IDX 9 14 87 15 10 16 5 17 1 18 2 19 3 20 89 21 4 22 88 23 19 24
REMARK SMILES IDX 20 25 21 26 22 28 23 29 24 30 85 31 25 32 84 33 26 34 27 35
REMARK SMILES IDX 28 36 78 37 29 38 83 39 77 40 79 41 30 42 82 43 76 44 75 45
REMARK SMILES IDX 31 47 63 48 43 49 62 50 44 51 47 52 61 53 80 54 45 55 46 56
REMARK SMILES IDX 60 58 81 59 48 60 32 61 33 62 41 63 34 64 36 65 42 66 35 67
REMARK SMILES IDX 37 68 38 69 39 70 40 71 64 72 65 73 73 74 66 75 68 76 74 77
REMARK SMILES IDX 67 78 69 79 70 80 71 81 72 82 49 83 50 84 58 85 51 86 53 87
REMARK SMILES IDX 59 88 52 89 54 90 55 91 56 92 57 93
REMARK H PARENT 15 7 20 27 79 46 47 57
REMARK Flexibility Score: inf
ROOT
ATOM      1  C   UNL     1      -4.233   5.170  -0.610  1.00  0.00     0.023 C 
ENDROOT
BRANCH   1   2
ATOM      2  C   UNL     1      -5.031   4.243  -1.522  1.00  0.00     0.023 C 
BRANCH   2   3
ATOM      3  C   UNL     1      -4.899   4.509  -3.026  1.00  0.00     0.116 C 
BRANCH   3   4
ATOM      4  N   UNL     1      -3.531   4.404  -3.499  1.00  0.00    -0.355 N 
ATOM      5  C   UNL     1      -2.924   3.415  -4.216  1.00  0.00     0.240 C 
ATOM      6  O   UNL     1      -1.814   3.655  -4.699  1.00  0.00    -0.273 OA
ATOM      7  H   UNL     1      -2.951   5.165  -3.266  1.00  0.00     0.163 HD
BRANCH   5   8
ATOM      8  C   UNL     1      -3.638   2.093  -4.514  1.00  0.00     0.229 C 
BRANCH   8   9
ATOM      9  N   UNL     1      -4.066   1.416  -3.303  1.00  0.00    -0.259 N 
ATOM     10  C   UNL     1      -3.219  -0.024  -0.080  1.00  0.00     0.029 C 
ATOM     11  C   UNL     1      -3.803   0.357  -1.226  1.00  0.00     0.083 C 
ATOM     12  S   UNL     1      -5.511   0.335  -1.477  1.00  0.00    -0.022 SA
ATOM     13  C   UNL     1      -3.129   0.884  -2.450  1.00  0.00     0.268 C 
ATOM     14  C   UNL     1      -5.368   1.137  -3.033  1.00  0.00     0.294 C 
ATOM     15  O   UNL     1      -1.932   0.831  -2.675  1.00  0.00    -0.268 OA
ATOM     16  O   UNL     1      -6.345   1.374  -3.739  1.00  0.00    -0.261 OA
BRANCH  10  17
ATOM     17  C   UNL     1      -1.770  -0.015   0.124  1.00  0.00    -0.024 A 
ATOM     18  C   UNL     1       2.533  -0.040   0.073  1.00  0.00     0.044 C 
ATOM     19  C   UNL     1       1.036  -0.026   0.162  1.00  0.00    -0.051 A 
ATOM     20  C   UNL     1       0.323  -1.230   0.108  1.00  0.00     0.004 A 
ATOM     21  C   UNL     1       0.333   1.181   0.254  1.00  0.00     0.004 A 
ATOM     22  C   UNL     1      -1.072  -1.225   0.089  1.00  0.00     0.008 A 
ATOM     23  C   UNL     1      -1.063   1.187   0.245  1.00  0.00     0.008 A 
ENDBRANCH  10  17
ENDBRANCH   8   9
ENDBRANCH   5   8
ENDBRANCH   3   4
ENDBRANCH   2   3
ENDBRANCH   1   2
BRANCH   1  24
ATOM     24  C   UNL     1      -4.583   6.639  -0.732  1.00  0.00     0.116 C 
BRANCH  24  25
ATOM     25  N   UNL     1      -5.740   7.059   0.034  1.00  0.00    -0.352 N 
ATOM     26  C   UNL     1      -6.195   8.345   0.289  1.00  0.00     0.251 C 
ATOM     27  H   UNL     1      -6.276   6.332   0.427  1.00  0.00     0.163 HD
ATOM     28  O   UNL     1      -7.020   8.503   1.184  1.00  0.00    -0.269 OA
BRANCH  26  29
ATOM     29  C   UNL     1      -5.829   9.464  -0.626  1.00  0.00     0.039 A 
ATOM     30  C   UNL     1      -6.882  10.291  -1.036  1.00  0.00     0.014 A 
ATOM     31  C   UNL     1      -4.660   9.426  -1.373  1.00  0.00     0.014 A 
ATOM     32  C   UNL     1      -6.921  10.734  -2.351  1.00  0.00     0.010 A 
ATOM     33  C   UNL     1      -4.744   9.742  -2.704  1.00  0.00     0.010 A 
ATOM     34  C   UNL     1      -5.923  10.295  -3.203  1.00  0.00    -0.014 A 
BRANCH  34  35
ATOM     35  C   UNL     1      -5.937  10.408  -4.642  1.00  0.00     0.031 A 
ATOM     36  C   UNL     1      -5.325  11.602  -5.235  1.00  0.00     0.074 A 
ATOM     37  C   UNL     1      -6.206   9.294  -5.356  1.00  0.00     0.049 A 
ATOM     38  N   UNL     1      -5.310  11.853  -6.492  1.00  0.00    -0.248 NA
ATOM     39  C   UNL     1      -4.680  12.630  -4.424  1.00  0.00     0.031 C 
ATOM     40  C   UNL     1      -5.749   8.958  -6.698  1.00  0.00     0.029 A 
ATOM     41  N   UNL     1      -6.996   8.206  -5.040  1.00  0.00    -0.354 N 
ATOM     42  C   UNL     1      -4.399  12.867  -6.687  1.00  0.00     0.074 A 
ATOM     43  C   UNL     1      -4.165  13.412  -5.375  1.00  0.00     0.031 C 
ATOM     44  C   UNL     1      -6.465   7.915  -7.160  1.00  0.00     0.029 A 
ATOM     45  C   UNL     1      -7.544   7.687  -6.215  1.00  0.00     0.049 A 
ATOM     46  H   UNL     1      -7.148   7.854  -4.134  1.00  0.00     0.167 HD
ATOM     47  C   UNL     1      -3.841  12.985  -7.923  1.00  0.00     0.034 A 
ATOM     48  C   UNL     1      -8.875   7.856  -6.513  1.00  0.00     0.034 A 
ATOM     49  C   UNL     1      -4.543  12.105  -8.881  1.00  0.00     0.049 A 
ATOM     50  C   UNL     1      -9.123   8.820  -7.679  1.00  0.00     0.074 A 
ATOM     51  C   UNL     1      -4.286  10.862  -9.435  1.00  0.00     0.029 A 
ATOM     52  N   UNL     1      -5.884  12.351  -9.123  1.00  0.00    -0.354 N 
ATOM     53  N   UNL     1      -8.186   9.393  -8.387  1.00  0.00    -0.248 NA
ATOM     54  C   UNL     1     -10.458   9.268  -8.082  1.00  0.00     0.031 C 
ATOM     55  C   UNL     1      -5.530  10.329  -9.912  1.00  0.00     0.029 A 
ATOM     56  C   UNL     1      -6.529  11.264  -9.688  1.00  0.00     0.049 A 
ATOM     57  H   UNL     1      -6.330  13.204  -8.916  1.00  0.00     0.167 HD
ATOM     58  C   UNL     1      -8.729  10.390  -9.153  1.00  0.00     0.074 A 
ATOM     59  C   UNL     1     -10.164  10.238  -8.965  1.00  0.00     0.031 C 
ATOM     60  C   UNL     1      -7.985  11.313  -9.840  1.00  0.00     0.034 A 
BRANCH  47  61
ATOM     61  C   UNL     1      -2.548  13.713  -8.261  1.00  0.00     0.023 A 
ATOM     62  C   UNL     1      -2.050  13.525  -9.570  1.00  0.00     0.012 A 
ATOM     63  C   UNL     1      -1.732  14.495  -7.403  1.00  0.00     0.148 A 
ATOM     64  C   UNL     1      -0.815  14.032  -9.990  1.00  0.00     0.002 A 
ATOM     65  C   UNL     1      -0.502  15.012  -7.822  1.00  0.00     0.091 A 
ATOM     66  F   UNL     1      -2.110  14.750  -6.154  1.00  0.00    -0.205 F 
ATOM     67  C   UNL     1      -0.036  14.771  -9.115  1.00  0.00     0.022 A 
BRANCH  65  68
ATOM     68  S   UNL     1       0.574  15.980  -6.742  1.00  0.00     0.127 S 
ATOM     69  O   UNL     1       1.788  15.164  -6.712  1.00  0.00    -0.237 OA
ATOM     70  O   UNL     1       0.705  17.236  -7.480  1.00  0.00    -0.237 OA
ATOM     71  O   UNL     1      -0.110  16.093  -5.460  1.00  0.00    -0.744 OA
ENDBRANCH  65  68
ENDBRANCH  47  61
BRANCH  48  72
ATOM     72  C   UNL     1      -9.729   7.757  -5.282  1.00  0.00     0.023 A 
ATOM     73  C   UNL     1      -9.653   6.540  -4.559  1.00  0.00     0.012 A 
ATOM     74  C   UNL     1     -10.172   8.912  -4.615  1.00  0.00     0.148 A 
ATOM     75  C   UNL     1      -9.776   6.532  -3.169  1.00  0.00     0.002 A 
ATOM     76  C   UNL     1     -10.322   8.889  -3.231  1.00  0.00     0.091 A 
ATOM     77  F   UNL     1     -10.376  10.032  -5.319  1.00  0.00    -0.205 F 
ATOM     78  C   UNL     1     -10.056   7.720  -2.500  1.00  0.00     0.022 A 
BRANCH  76  79
ATOM     79  S   UNL     1     -10.752  10.383  -2.331  1.00  0.00     0.127 S 
ATOM     80  O   UNL     1     -12.210  10.312  -2.323  1.00  0.00    -0.237 OA
ATOM     81  O   UNL     1     -10.125  10.170  -1.028  1.00  0.00    -0.237 OA
ATOM     82  O   UNL     1     -10.165  11.467  -3.105  1.00  0.00    -0.744 OA
ENDBRANCH  76  79
ENDBRANCH  48  72
BRANCH  60  83
ATOM     83  C   UNL     1      -8.621  12.350 -10.746  1.00  0.00     0.023 A 
ATOM     84  C   UNL     1      -9.688  11.982 -11.590  1.00  0.00     0.012 A 
ATOM     85  C   UNL     1      -8.100  13.657 -10.908  1.00  0.00     0.148 A 
ATOM     86  C   UNL     1     -10.252  12.880 -12.501  1.00  0.00     0.002 A 
ATOM     87  C   UNL     1      -8.578  14.503 -11.903  1.00  0.00     0.091 A 
ATOM     88  F   UNL     1      -7.172  14.118 -10.062  1.00  0.00    -0.205 F 
ATOM     89  C   UNL     1      -9.680  14.133 -12.676  1.00  0.00     0.022 A 
BRANCH  87  90
ATOM     90  S   UNL     1      -7.733  16.027 -12.350  1.00  0.00     0.127 S 
ATOM     91  O   UNL     1      -7.618  15.887 -13.804  1.00  0.00    -0.237 OA
ATOM     92  O   UNL     1      -8.687  17.041 -11.909  1.00  0.00    -0.237 OA
ATOM     93  O   UNL     1      -6.460  15.999 -11.644  1.00  0.00    -0.744 OA
ENDBRANCH  87  90
ENDBRANCH  60  83
ENDBRANCH  34  35
ENDBRANCH  26  29
ENDBRANCH  24  25
ENDBRANCH   1  24
TORSDOF 16
