REMARK SMILES C[C@@H](c1ccccn1)S(=O)(=O)N1CC[NH2+]C[C@@H]1C(=O)NCCCCNC(=O)c1ccc(-c2c3nc(c(-c4cccc(S(=O)(=O)[O-])c4F)c4ccc([nH]4)c(-c4cccc(S(=O)(=O)[O-])c4F)c4nc(c(-c5cccc(S(=O)(=O)[O-])c5F)c5ccc2[nH]5)C=C4)C=C3)cc1
REMARK SMILES IDX 22 1 21 2 20 3 18 4 19 5 17 7 12 8 13 9 14 10 16 11 15 12
REMARK SMILES IDX 9 15 10 16 11 17 2 18 1 19 3 20 4 21 8 22 5 23 7 24 6 25
REMARK SMILES IDX 23 26 24 27 25 28 26 29 27 31 28 32 29 33 90 34 30 35 89 36
REMARK SMILES IDX 31 37 32 38 33 39 83 40 34 41 88 42 82 43 84 44 35 45 87 46
REMARK SMILES IDX 81 47 80 48 36 50 68 51 48 52 67 53 49 54 52 55 66 56 85 57
REMARK SMILES IDX 50 58 51 59 65 61 86 62 53 63 37 64 38 65 46 66 39 67 41 68
REMARK SMILES IDX 47 69 40 70 42 71 43 72 44 73 45 74 69 75 70 76 78 77 71 78
REMARK SMILES IDX 73 79 79 80 72 81 74 82 75 83 76 84 77 85 54 86 55 87 63 88
REMARK SMILES IDX 56 89 58 90 64 91 57 92 59 93 60 94 61 95 62 96
REMARK H PARENT 20 6 15 13 15 14 25 30 84 49 52 60
REMARK Flexibility Score: inf
ROOT
ATOM      1  C   UNL     1      -0.376   6.254   1.148  1.00  0.00     0.023 C 
ENDROOT
BRANCH   1   2
ATOM      2  C   UNL     1      -1.195   5.257   1.964  1.00  0.00     0.116 C 
BRANCH   2   3
ATOM      3  N   UNL     1      -2.257   4.667   1.174  1.00  0.00    -0.355 N 
ATOM      4  C   UNL     1      -2.575   3.354   0.958  1.00  0.00     0.244 C 
ATOM      5  O   UNL     1      -3.486   3.150   0.153  1.00  0.00    -0.273 OA
ATOM      6  H   UNL     1      -2.843   5.315   0.720  1.00  0.00     0.163 HD
BRANCH   4   7
ATOM      7  C   UNL     1      -1.824   2.227   1.711  1.00  0.00     0.216 C 
ATOM      8  N   UNL     1      -2.060   0.850   1.135  1.00  0.00    -0.177 NA
ATOM      9  C   UNL     1      -3.517   0.465   1.383  1.00  0.00     0.164 C 
ATOM     10  C   UNL     1      -3.933   0.633   2.867  1.00  0.00     0.277 C 
ATOM     11  C   UNL     1      -2.192   2.269   3.210  1.00  0.00     0.291 C 
ATOM     12  N   UNL     1      -3.603   1.934   3.481  1.00  0.00    -0.343 N 
ATOM     13  H   UNL     1      -3.751   1.881   4.489  1.00  0.00     0.346 HD
ATOM     14  H   UNL     1      -4.203   2.657   3.084  1.00  0.00     0.346 HD
BRANCH   8  15
ATOM     15  S   UNL     1      -1.025  -0.448   1.531  1.00  0.00     0.223 S 
ATOM     16  O   UNL     1      -1.400  -1.512   0.615  1.00  0.00    -0.211 OA
ATOM     17  O   UNL     1      -1.172  -0.709   2.949  1.00  0.00    -0.211 OA
BRANCH  15  18
ATOM     18  C   UNL     1       0.716  -0.061   1.157  1.00  0.00     0.170 C 
ATOM     19  C   UNL     1       0.964   0.149  -0.332  1.00  0.00     0.033 C 
BRANCH  18  20
ATOM     20  C   UNL     1       1.260   0.981   2.104  1.00  0.00     0.060 A 
ATOM     21  C   UNL     1       1.605   2.272   1.702  1.00  0.00     0.025 A 
ATOM     22  N   UNL     1       1.450   0.585   3.386  1.00  0.00    -0.260 NA
ATOM     23  C   UNL     1       2.034   3.195   2.655  1.00  0.00     0.004 A 
ATOM     24  C   UNL     1       1.879   1.489   4.292  1.00  0.00     0.111 A 
ATOM     25  C   UNL     1       2.160   2.803   3.980  1.00  0.00     0.020 A 
ENDBRANCH  18  20
ENDBRANCH  15  18
ENDBRANCH   8  15
ENDBRANCH   4   7
ENDBRANCH   2   3
ENDBRANCH   1   2
BRANCH   1  26
ATOM     26  C   UNL     1      -1.125   7.528   0.747  1.00  0.00     0.023 C 
BRANCH  26  27
ATOM     27  C   UNL     1      -1.677   8.356   1.903  1.00  0.00     0.116 C 
BRANCH  27  28
ATOM     28  N   UNL     1      -0.640   8.826   2.810  1.00  0.00    -0.352 N 
ATOM     29  C   UNL     1      -0.423  10.094   3.298  1.00  0.00     0.251 C 
ATOM     30  H   UNL     1      -0.003   8.141   3.116  1.00  0.00     0.163 HD
ATOM     31  O   UNL     1       0.594  10.332   3.944  1.00  0.00    -0.269 OA
BRANCH  29  32
ATOM     32  C   UNL     1      -1.400  11.170   3.019  1.00  0.00     0.039 A 
ATOM     33  C   UNL     1      -0.932  12.417   2.595  1.00  0.00     0.014 A 
ATOM     34  C   UNL     1      -2.772  10.946   3.156  1.00  0.00     0.014 A 
ATOM     35  C   UNL     1      -1.844  13.414   2.239  1.00  0.00     0.010 A 
ATOM     36  C   UNL     1      -3.677  11.911   2.724  1.00  0.00     0.010 A 
ATOM     37  C   UNL     1      -3.225  13.157   2.263  1.00  0.00    -0.014 A 
BRANCH  37  38
ATOM     38  C   UNL     1      -4.209  14.168   1.794  1.00  0.00     0.031 A 
ATOM     39  C   UNL     1      -5.250  14.713   2.734  1.00  0.00     0.074 A 
ATOM     40  C   UNL     1      -4.228  14.526   0.494  1.00  0.00     0.049 A 
ATOM     41  N   UNL     1      -6.225  15.550   2.490  1.00  0.00    -0.248 NA
ATOM     42  C   UNL     1      -5.209  14.230   4.123  1.00  0.00     0.031 C 
ATOM     43  C   UNL     1      -3.328  14.009  -0.538  1.00  0.00     0.029 A 
ATOM     44  N   UNL     1      -5.055  15.386  -0.187  1.00  0.00    -0.354 N 
ATOM     45  C   UNL     1      -6.935  15.664   3.679  1.00  0.00     0.074 A 
ATOM     46  C   UNL     1      -6.300  14.781   4.633  1.00  0.00     0.031 C 
ATOM     47  C   UNL     1      -3.648  14.563  -1.718  1.00  0.00     0.029 A 
ATOM     48  C   UNL     1      -4.797  15.445  -1.536  1.00  0.00     0.049 A 
ATOM     49  H   UNL     1      -5.764  15.911   0.250  1.00  0.00     0.167 HD
ATOM     50  C   UNL     1      -8.000  16.451   3.962  1.00  0.00     0.034 A 
ATOM     51  C   UNL     1      -5.421  16.120  -2.522  1.00  0.00     0.034 A 
ATOM     52  C   UNL     1      -8.611  17.350   3.019  1.00  0.00     0.049 A 
ATOM     53  C   UNL     1      -6.583  17.012  -2.180  1.00  0.00     0.074 A 
ATOM     54  C   UNL     1      -9.633  18.258   3.235  1.00  0.00     0.029 A 
ATOM     55  N   UNL     1      -8.271  17.443   1.679  1.00  0.00    -0.354 N 
ATOM     56  N   UNL     1      -7.138  17.231  -1.013  1.00  0.00    -0.248 NA
ATOM     57  C   UNL     1      -7.181  17.778  -3.283  1.00  0.00     0.031 C 
ATOM     58  C   UNL     1      -9.937  18.871   2.014  1.00  0.00     0.029 A 
ATOM     59  C   UNL     1      -9.075  18.378   1.048  1.00  0.00     0.049 A 
ATOM     60  H   UNL     1      -7.562  16.921   1.239  1.00  0.00     0.167 HD
ATOM     61  C   UNL     1      -8.126  18.184  -1.233  1.00  0.00     0.074 A 
ATOM     62  C   UNL     1      -8.081  18.513  -2.643  1.00  0.00     0.031 C 
ATOM     63  C   UNL     1      -8.997  18.729  -0.347  1.00  0.00     0.034 A 
BRANCH  50  64
ATOM     64  C   UNL     1      -8.553  16.396   5.364  1.00  0.00     0.023 A 
ATOM     65  C   UNL     1      -7.793  16.905   6.438  1.00  0.00     0.012 A 
ATOM     66  C   UNL     1      -9.835  15.870   5.617  1.00  0.00     0.148 A 
ATOM     67  C   UNL     1      -8.276  16.844   7.745  1.00  0.00     0.002 A 
ATOM     68  C   UNL     1     -10.331  15.860   6.916  1.00  0.00     0.091 A 
ATOM     69  F   UNL     1     -10.537  15.372   4.590  1.00  0.00    -0.205 F 
ATOM     70  C   UNL     1      -9.547  16.331   7.982  1.00  0.00     0.022 A 
BRANCH  68  71
ATOM     71  S   UNL     1     -11.990  15.298   7.312  1.00  0.00     0.127 S 
ATOM     72  O   UNL     1     -11.718  14.026   7.981  1.00  0.00    -0.237 OA
ATOM     73  O   UNL     1     -12.472  16.360   8.196  1.00  0.00    -0.237 OA
ATOM     74  O   UNL     1     -12.694  15.200   6.042  1.00  0.00    -0.744 OA
ENDBRANCH  68  71
ENDBRANCH  50  64
BRANCH  51  75
ATOM     75  C   UNL     1      -4.917  16.014  -3.920  1.00  0.00     0.023 A 
ATOM     76  C   UNL     1      -4.263  17.114  -4.508  1.00  0.00     0.012 A 
ATOM     77  C   UNL     1      -5.036  14.815  -4.648  1.00  0.00     0.148 A 
ATOM     78  C   UNL     1      -3.757  17.029  -5.806  1.00  0.00     0.002 A 
ATOM     79  C   UNL     1      -4.479  14.718  -5.918  1.00  0.00     0.091 A 
ATOM     80  F   UNL     1      -5.667  13.783  -4.070  1.00  0.00    -0.205 F 
ATOM     81  C   UNL     1      -3.855  15.829  -6.506  1.00  0.00     0.022 A 
BRANCH  79  82
ATOM     82  S   UNL     1      -4.434  13.177  -6.839  1.00  0.00     0.127 S 
ATOM     83  O   UNL     1      -5.288  13.487  -7.983  1.00  0.00    -0.237 OA
ATOM     84  O   UNL     1      -3.009  13.056  -7.146  1.00  0.00    -0.237 OA
ATOM     85  O   UNL     1      -4.944  12.158  -5.931  1.00  0.00    -0.744 OA
ENDBRANCH  79  82
ENDBRANCH  51  75
BRANCH  63  86
ATOM     86  C   UNL     1      -9.956  19.774  -0.859  1.00  0.00     0.023 A 
ATOM     87  C   UNL     1     -11.027  19.402  -1.696  1.00  0.00     0.012 A 
ATOM     88  C   UNL     1      -9.837  21.116  -0.445  1.00  0.00     0.148 A 
ATOM     89  C   UNL     1     -11.944  20.355  -2.139  1.00  0.00     0.002 A 
ATOM     90  C   UNL     1     -10.784  22.049  -0.847  1.00  0.00     0.091 A 
ATOM     91  F   UNL     1      -8.801  21.454   0.336  1.00  0.00    -0.205 F 
ATOM     92  C   UNL     1     -11.831  21.674  -1.705  1.00  0.00     0.022 A 
BRANCH  90  93
ATOM     93  S   UNL     1     -10.776  23.747  -0.259  1.00  0.00     0.127 S 
ATOM     94  O   UNL     1     -10.398  24.478  -1.467  1.00  0.00    -0.237 OA
ATOM     95  O   UNL     1     -12.166  23.936   0.159  1.00  0.00    -0.237 OA
ATOM     96  O   UNL     1      -9.806  23.793   0.827  1.00  0.00    -0.744 OA
ENDBRANCH  90  93
ENDBRANCH  63  86
ENDBRANCH  37  38
ENDBRANCH  29  32
ENDBRANCH  27  28
ENDBRANCH  26  27
ENDBRANCH   1  26
TORSDOF 17
