REMARK SMILES CC[C@](C)([NH3+])C(=O)N1CC[NH+]([C@H](C)C(=O)NCCCCNC(=O)c2ccc(-c3c4nc(c(-c5cccc(S(=O)(=O)[O-])c5F)c5ccc([nH]5)c(-c5cccc(S(=O)(=O)[O-])c5F)c5nc(c(-c6cccc(S(=O)(=O)[O-])c6F)c6ccc3[nH]6)C=C5)C=C4)cc2)CC1
REMARK SMILES IDX 18 1 17 2 16 3 14 4 15 5 12 7 13 8 11 9 6 10 7 11 8 12 9 13
REMARK SMILES IDX 88 14 10 15 87 16 3 18 4 19 2 20 1 21 5 22 19 26 20 27 21 28
REMARK SMILES IDX 22 29 23 31 24 32 25 33 86 34 26 35 85 36 27 37 28 38 29 39
REMARK SMILES IDX 79 40 30 41 84 42 78 43 80 44 31 45 83 46 77 47 76 48 32 50
REMARK SMILES IDX 64 51 44 52 63 53 45 54 48 55 62 56 81 57 46 58 47 59 61 61
REMARK SMILES IDX 82 62 49 63 33 64 34 65 42 66 35 67 37 68 43 69 36 70 38 71
REMARK SMILES IDX 39 72 40 73 41 74 65 75 66 76 74 77 67 78 69 79 75 80 68 81
REMARK SMILES IDX 70 82 71 83 72 84 73 85 50 86 51 87 59 88 52 89 54 90 60 91
REMARK SMILES IDX 53 92 55 93 56 94 57 95 58 96
REMARK H PARENT 16 6 11 17 5 23 5 24 5 25 21 30 80 49 48 60
REMARK Flexibility Score: inf
ROOT
ATOM      1  C   UNL     1       5.280   5.017   1.844  1.00  0.00     0.023 C 
ENDROOT
BRANCH   1   2
ATOM      2  C   UNL     1       5.542   3.868   2.807  1.00  0.00     0.116 C 
BRANCH   2   3
ATOM      3  N   UNL     1       6.165   4.263   4.053  1.00  0.00    -0.351 N 
ATOM      4  C   UNL     1       6.028   3.745   5.311  1.00  0.00     0.278 C 
ATOM      5  O   UNL     1       6.859   4.101   6.155  1.00  0.00    -0.268 OA
ATOM      6  H   UNL     1       6.785   5.024   3.983  1.00  0.00     0.163 HD
BRANCH   4   7
ATOM      7  C   UNL     1       4.881   2.777   5.700  1.00  0.00     0.271 C 
ATOM      8  C   UNL     1       3.496   3.287   5.284  1.00  0.00     0.086 C 
BRANCH   7   9
ATOM      9  N   UNL     1       5.190   1.333   5.475  1.00  0.00    -0.322 N 
ATOM     10  C   UNL     1       4.172  -1.733   3.020  1.00  0.00     0.283 C 
ATOM     11  O   UNL     1       4.869  -1.985   2.023  1.00  0.00    -0.268 OA
ATOM     12  N   UNL     1       4.787  -1.205   4.142  1.00  0.00    -0.326 N 
ATOM     13  C   UNL     1       6.056  -0.504   3.963  1.00  0.00     0.181 C 
ATOM     14  C   UNL     1       4.285  -1.038   5.500  1.00  0.00     0.181 C 
ATOM     15  C   UNL     1       5.796   1.004   4.171  1.00  0.00     0.284 C 
ATOM     16  C   UNL     1       4.042   0.455   5.800  1.00  0.00     0.284 C 
ATOM     17  H   UNL     1       5.934   1.137   6.144  1.00  0.00     0.348 HD
BRANCH  10  18
ATOM     18  C   UNL     1       2.608  -1.797   2.855  1.00  0.00     0.171 C 
ATOM     19  C   UNL     1       2.313  -2.792   1.711  1.00  0.00     0.090 C 
BRANCH  18  20
ATOM     20  C   UNL     1       2.120  -0.362   2.505  1.00  0.00     0.075 C 
ATOM     21  C   UNL     1       0.804  -0.271   1.740  1.00  0.00     0.011 C 
ENDBRANCH  18  20
BRANCH  18  22
ATOM     22  N   UNL     1       1.890  -2.311   4.043  1.00  0.00    -0.345 N 
ATOM     23  H   UNL     1       2.221  -3.251   4.260  1.00  0.00     0.345 HD
ATOM     24  H   UNL     1       0.889  -2.338   3.851  1.00  0.00     0.345 HD
ATOM     25  H   UNL     1       2.067  -1.697   4.839  1.00  0.00     0.345 HD
ENDBRANCH  18  22
ENDBRANCH  10  18
ENDBRANCH   7   9
ENDBRANCH   4   7
ENDBRANCH   2   3
ENDBRANCH   1   2
BRANCH   1  26
ATOM     26  C   UNL     1       6.526   5.691   1.276  1.00  0.00     0.023 C 
BRANCH  26  27
ATOM     27  C   UNL     1       7.596   4.757   0.719  1.00  0.00     0.116 C 
BRANCH  27  28
ATOM     28  N   UNL     1       7.107   3.856  -0.316  1.00  0.00    -0.352 N 
ATOM     29  C   UNL     1       7.584   3.648  -1.592  1.00  0.00     0.251 C 
ATOM     30  H   UNL     1       6.321   3.317  -0.068  1.00  0.00     0.163 HD
ATOM     31  O   UNL     1       6.983   2.912  -2.362  1.00  0.00    -0.269 OA
BRANCH  29  32
ATOM     32  C   UNL     1       8.803   4.358  -2.035  1.00  0.00     0.039 A 
ATOM     33  C   UNL     1       8.771   5.065  -3.240  1.00  0.00     0.014 A 
ATOM     34  C   UNL     1       9.948   4.375  -1.236  1.00  0.00     0.014 A 
ATOM     35  C   UNL     1       9.857   5.870  -3.595  1.00  0.00     0.010 A 
ATOM     36  C   UNL     1      10.990   5.241  -1.549  1.00  0.00     0.010 A 
ATOM     37  C   UNL     1      10.954   6.003  -2.727  1.00  0.00    -0.014 A 
BRANCH  37  38
ATOM     38  C   UNL     1      12.059   6.954  -3.013  1.00  0.00     0.031 A 
ATOM     39  C   UNL     1      13.466   6.447  -3.184  1.00  0.00     0.074 A 
ATOM     40  C   UNL     1      11.818   8.280  -3.005  1.00  0.00     0.049 A 
ATOM     41  N   UNL     1      14.571   7.125  -3.349  1.00  0.00    -0.248 NA
ATOM     42  C   UNL     1      13.660   4.988  -3.130  1.00  0.00     0.031 C 
ATOM     43  C   UNL     1      10.515   8.903  -2.757  1.00  0.00     0.029 A 
ATOM     44  N   UNL     1      12.665   9.347  -3.177  1.00  0.00    -0.354 N 
ATOM     45  C   UNL     1      15.594   6.184  -3.372  1.00  0.00     0.074 A 
ATOM     46  C   UNL     1      14.981   4.889  -3.172  1.00  0.00     0.031 C 
ATOM     47  C   UNL     1      10.649  10.239  -2.797  1.00  0.00     0.029 A 
ATOM     48  C   UNL     1      12.049  10.570  -3.045  1.00  0.00     0.049 A 
ATOM     49  H   UNL     1      13.623   9.246  -3.377  1.00  0.00     0.167 HD
ATOM     50  C   UNL     1      16.919   6.375  -3.575  1.00  0.00     0.034 A 
ATOM     51  C   UNL     1      12.553  11.818  -3.112  1.00  0.00     0.034 A 
ATOM     52  C   UNL     1      17.517   7.655  -3.836  1.00  0.00     0.049 A 
ATOM     53  C   UNL     1      14.018  11.999  -3.408  1.00  0.00     0.074 A 
ATOM     54  C   UNL     1      18.832   7.941  -4.157  1.00  0.00     0.029 A 
ATOM     55  N   UNL     1      16.840   8.864  -3.808  1.00  0.00    -0.354 N 
ATOM     56  N   UNL     1      14.940  11.086  -3.598  1.00  0.00    -0.248 NA
ATOM     57  C   UNL     1      14.506  13.380  -3.538  1.00  0.00     0.031 C 
ATOM     58  C   UNL     1      18.952   9.325  -4.313  1.00  0.00     0.029 A 
ATOM     59  C   UNL     1      17.709   9.900  -4.104  1.00  0.00     0.049 A 
ATOM     60  H   UNL     1      15.882   8.971  -3.608  1.00  0.00     0.167 HD
ATOM     61  C   UNL     1      16.105  11.779  -3.904  1.00  0.00     0.074 A 
ATOM     62  C   UNL     1      15.769  13.188  -3.895  1.00  0.00     0.031 C 
ATOM     63  C   UNL     1      17.346  11.293  -4.153  1.00  0.00     0.034 A 
BRANCH  50  64
ATOM     64  C   UNL     1      17.804   5.157  -3.591  1.00  0.00     0.023 A 
ATOM     65  C   UNL     1      17.737   4.268  -4.684  1.00  0.00     0.012 A 
ATOM     66  C   UNL     1      18.735   4.918  -2.562  1.00  0.00     0.148 A 
ATOM     67  C   UNL     1      18.556   3.141  -4.735  1.00  0.00     0.002 A 
ATOM     68  C   UNL     1      19.579   3.816  -2.642  1.00  0.00     0.091 A 
ATOM     69  F   UNL     1      18.769   5.761  -1.520  1.00  0.00    -0.205 F 
ATOM     70  C   UNL     1      19.483   2.921  -3.721  1.00  0.00     0.022 A 
BRANCH  68  71
ATOM     71  S   UNL     1      20.861   3.489  -1.426  1.00  0.00     0.127 S 
ATOM     72  O   UNL     1      20.298   2.349  -0.704  1.00  0.00    -0.237 OA
ATOM     73  O   UNL     1      22.013   3.167  -2.269  1.00  0.00    -0.237 OA
ATOM     74  O   UNL     1      21.000   4.715  -0.653  1.00  0.00    -0.744 OA
ENDBRANCH  68  71
ENDBRANCH  50  64
BRANCH  51  75
ATOM     75  C   UNL     1      11.649  12.996  -2.979  1.00  0.00     0.023 A 
ATOM     76  C   UNL     1      11.364  13.775  -4.118  1.00  0.00     0.012 A 
ATOM     77  C   UNL     1      11.046  13.329  -1.751  1.00  0.00     0.148 A 
ATOM     78  C   UNL     1      10.521  14.883  -4.030  1.00  0.00     0.002 A 
ATOM     79  C   UNL     1      10.165  14.403  -1.682  1.00  0.00     0.091 A 
ATOM     80  F   UNL     1      11.338  12.584  -0.676  1.00  0.00    -0.205 F 
ATOM     81  C   UNL     1       9.913  15.191  -2.816  1.00  0.00     0.022 A 
BRANCH  79  82
ATOM     82  S   UNL     1       9.236  14.790  -0.193  1.00  0.00     0.127 S 
ATOM     83  O   UNL     1       9.914  15.995   0.278  1.00  0.00    -0.237 OA
ATOM     84  O   UNL     1       7.889  15.007  -0.722  1.00  0.00    -0.237 OA
ATOM     85  O   UNL     1       9.360  13.615   0.659  1.00  0.00    -0.744 OA
ENDBRANCH  79  82
ENDBRANCH  51  75
BRANCH  63  86
ATOM     86  C   UNL     1      18.435  12.282  -4.473  1.00  0.00     0.023 A 
ATOM     87  C   UNL     1      18.983  13.074  -3.446  1.00  0.00     0.012 A 
ATOM     88  C   UNL     1      18.973  12.364  -5.773  1.00  0.00     0.148 A 
ATOM     89  C   UNL     1      20.033  13.952  -3.711  1.00  0.00     0.002 A 
ATOM     90  C   UNL     1      20.050  13.208  -6.020  1.00  0.00     0.091 A 
ATOM     91  F   UNL     1      18.424  11.617  -6.742  1.00  0.00    -0.205 F 
ATOM     92  C   UNL     1      20.574  14.010  -4.994  1.00  0.00     0.022 A 
BRANCH  90  93
ATOM     93  S   UNL     1      20.869  13.275  -7.618  1.00  0.00     0.127 S 
ATOM     94  O   UNL     1      20.381  14.545  -8.151  1.00  0.00    -0.237 OA
ATOM     95  O   UNL     1      22.284  13.274  -7.244  1.00  0.00    -0.237 OA
ATOM     96  O   UNL     1      20.436  12.084  -8.338  1.00  0.00    -0.744 OA
ENDBRANCH  90  93
ENDBRANCH  63  86
ENDBRANCH  37  38
ENDBRANCH  29  32
ENDBRANCH  27  28
ENDBRANCH  26  27
ENDBRANCH   1  26
TORSDOF 18
