REMARK SMILES Cc1cccc(CC(=O)N2CCC3(CCC(=O)N([C@H](C)C(=O)NCCCCNC(=O)c4ccc(-c5c6nc(c(-c7cccc(S(=O)(=O)[O-])c7F)c7ccc([nH]7)c(-c7cccc(S(=O)(=O)[O-])c7F)c7nc(c(-c8cccc(S(=O)(=O)[O-])c8F)c8ccc5[nH]8)C=C7)C=C6)cc4)C3)CC2)c1
REMARK SMILES IDX 25 1 24 2 23 3 21 4 22 5 19 7 20 8 18 9 8 10 9 11 10 12
REMARK SMILES IDX 11 13 96 14 12 15 95 16 13 17 14 18 94 19 15 20 16 21 17 22
REMARK SMILES IDX 7 23 6 24 1 25 2 26 3 27 97 28 4 29 5 30 26 31 27 32 28 33
REMARK SMILES IDX 29 34 30 36 31 37 32 38 93 39 33 40 92 41 34 42 35 43 36 44
REMARK SMILES IDX 86 45 37 46 91 47 85 48 87 49 38 50 90 51 84 52 83 53 39 55
REMARK SMILES IDX 71 56 51 57 70 58 52 59 55 60 69 61 88 62 53 63 54 64 68 66
REMARK SMILES IDX 89 67 56 68 40 69 41 70 49 71 42 72 44 73 50 74 43 75 45 76
REMARK SMILES IDX 46 77 47 78 48 79 72 80 73 81 81 82 74 83 76 84 82 85 75 86
REMARK SMILES IDX 77 87 78 88 79 89 80 90 57 91 58 92 66 93 59 94 61 95 67 96
REMARK SMILES IDX 60 97 62 98 63 99 64 100 65 101
REMARK H PARENT 23 6 28 35 87 54 55 65
REMARK Flexibility Score: inf
ROOT
ATOM      1  C   UNL     1      -2.127   4.032  -8.205  1.00  0.00     0.023 C 
ENDROOT
BRANCH   1   2
ATOM      2  C   UNL     1      -1.317   5.307  -8.408  1.00  0.00     0.116 C 
BRANCH   2   3
ATOM      3  N   UNL     1      -1.625   6.348  -7.440  1.00  0.00    -0.354 N 
ATOM      4  C   UNL     1      -0.786   7.087  -6.653  1.00  0.00     0.242 C 
ATOM      5  O   UNL     1      -1.265   8.041  -6.031  1.00  0.00    -0.273 OA
ATOM      6  H   UNL     1      -2.582   6.552  -7.337  1.00  0.00     0.163 HD
BRANCH   4   7
ATOM      7  C   UNL     1       0.706   6.716  -6.481  1.00  0.00     0.171 C 
ATOM      8  C   UNL     1       0.896   5.270  -6.011  1.00  0.00     0.042 C 
BRANCH   7   9
ATOM      9  N   UNL     1       1.647   7.082  -7.557  1.00  0.00    -0.330 N 
ATOM     10  C   UNL     1       7.886   5.248  -6.999  1.00  0.00     0.226 C 
ATOM     11  O   UNL     1       8.099   4.048  -6.782  1.00  0.00    -0.275 OA
ATOM     12  N   UNL     1       6.757   5.650  -7.696  1.00  0.00    -0.342 N 
ATOM     13  C   UNL     1       5.620   4.740  -7.808  1.00  0.00     0.120 C 
ATOM     14  C   UNL     1       6.583   6.897  -8.430  1.00  0.00     0.120 C 
ATOM     15  C   UNL     1       4.343   5.441  -7.321  1.00  0.00     0.030 C 
ATOM     16  C   UNL     1       5.399   7.665  -7.868  1.00  0.00     0.030 C 
ATOM     17  C   UNL     1       4.100   6.830  -7.979  1.00  0.00    -0.008 C 
ATOM     18  C   UNL     1       3.720   6.715  -9.479  1.00  0.00     0.019 C 
ATOM     19  C   UNL     1       2.975   7.572  -7.226  1.00  0.00     0.127 C 
ATOM     20  C   UNL     1       2.314   6.204  -9.698  1.00  0.00     0.101 C 
ATOM     21  C   UNL     1       1.318   6.996  -8.896  1.00  0.00     0.223 C 
ATOM     22  O   UNL     1       0.265   7.384  -9.384  1.00  0.00    -0.275 OA
BRANCH  10  23
ATOM     23  C   UNL     1       8.754   6.276  -6.275  1.00  0.00     0.135 C 
BRANCH  23  24
ATOM     24  C   UNL     1       9.320   7.429  -7.059  1.00  0.00    -0.038 A 
ATOM     25  C   UNL     1       8.798  11.204  -7.262  1.00  0.00     0.044 C 
ATOM     26  C   UNL     1       9.307   9.821  -7.543  1.00  0.00    -0.051 A 
ATOM     27  C   UNL     1      10.121   9.583  -8.656  1.00  0.00     0.003 A 
ATOM     28  C   UNL     1       8.934   8.743  -6.734  1.00  0.00     0.007 A 
ATOM     29  C   UNL     1      10.555   8.290  -8.954  1.00  0.00     0.001 A 
ATOM     30  C   UNL     1      10.159   7.214  -8.158  1.00  0.00     0.004 A 
ENDBRANCH  23  24
ENDBRANCH  10  23
ENDBRANCH   7   9
ENDBRANCH   4   7
ENDBRANCH   2   3
ENDBRANCH   1   2
BRANCH   1  31
ATOM     31  C   UNL     1      -3.638   4.207  -8.340  1.00  0.00     0.023 C 
BRANCH  31  32
ATOM     32  C   UNL     1      -4.083   4.808  -9.665  1.00  0.00     0.116 C 
BRANCH  32  33
ATOM     33  N   UNL     1      -4.019   3.891 -10.782  1.00  0.00    -0.352 N 
ATOM     34  C   UNL     1      -4.371   4.060 -12.114  1.00  0.00     0.251 C 
ATOM     35  H   UNL     1      -3.666   2.999 -10.561  1.00  0.00     0.163 HD
ATOM     36  O   UNL     1      -4.435   3.059 -12.802  1.00  0.00    -0.269 OA
BRANCH  34  37
ATOM     37  C   UNL     1      -4.505   5.421 -12.722  1.00  0.00     0.039 A 
ATOM     38  C   UNL     1      -4.248   5.541 -14.099  1.00  0.00     0.014 A 
ATOM     39  C   UNL     1      -4.630   6.577 -11.960  1.00  0.00     0.014 A 
ATOM     40  C   UNL     1      -3.836   6.763 -14.628  1.00  0.00     0.010 A 
ATOM     41  C   UNL     1      -4.127   7.759 -12.445  1.00  0.00     0.010 A 
ATOM     42  C   UNL     1      -3.651   7.822 -13.755  1.00  0.00    -0.014 A 
BRANCH  42  43
ATOM     43  C   UNL     1      -2.904   9.031 -14.042  1.00  0.00     0.031 A 
ATOM     44  C   UNL     1      -3.617  10.277 -14.348  1.00  0.00     0.074 A 
ATOM     45  C   UNL     1      -1.605   9.031 -13.678  1.00  0.00     0.049 A 
ATOM     46  N   UNL     1      -3.038  11.379 -14.666  1.00  0.00    -0.248 NA
ATOM     47  C   UNL     1      -5.070  10.363 -14.332  1.00  0.00     0.031 C 
ATOM     48  C   UNL     1      -0.752  10.166 -13.343  1.00  0.00     0.029 A 
ATOM     49  N   UNL     1      -0.729   7.940 -13.691  1.00  0.00    -0.354 N 
ATOM     50  C   UNL     1      -3.988  12.375 -14.610  1.00  0.00     0.074 A 
ATOM     51  C   UNL     1      -5.245  11.675 -14.516  1.00  0.00     0.031 C 
ATOM     52  C   UNL     1       0.533   9.788 -13.448  1.00  0.00     0.029 A 
ATOM     53  C   UNL     1       0.525   8.469 -14.057  1.00  0.00     0.049 A 
ATOM     54  H   UNL     1      -0.943   7.001 -13.489  1.00  0.00     0.167 HD
ATOM     55  C   UNL     1      -3.557  13.663 -14.500  1.00  0.00     0.034 A 
ATOM     56  C   UNL     1       1.049   8.179 -15.289  1.00  0.00     0.034 A 
ATOM     57  C   UNL     1      -2.096  13.730 -14.705  1.00  0.00     0.049 A 
ATOM     58  C   UNL     1       1.270   9.401 -16.165  1.00  0.00     0.074 A 
ATOM     59  C   UNL     1      -1.014  13.847 -13.847  1.00  0.00     0.029 A 
ATOM     60  N   UNL     1      -1.573  13.360 -15.941  1.00  0.00    -0.354 N 
ATOM     61  N   UNL     1       0.791  10.592 -15.923  1.00  0.00    -0.248 NA
ATOM     62  C   UNL     1       2.073   9.374 -17.382  1.00  0.00     0.031 C 
ATOM     63  C   UNL     1       0.156  13.456 -14.560  1.00  0.00     0.029 A 
ATOM     64  C   UNL     1      -0.207  13.139 -15.860  1.00  0.00     0.049 A 
ATOM     65  H   UNL     1      -2.104  13.269 -16.765  1.00  0.00     0.167 HD
ATOM     66  C   UNL     1       1.087  11.444 -16.958  1.00  0.00     0.074 A 
ATOM     67  C   UNL     1       1.966  10.648 -17.801  1.00  0.00     0.031 C 
ATOM     68  C   UNL     1       0.536  12.701 -17.044  1.00  0.00     0.034 A 
BRANCH  55  69
ATOM     69  C   UNL     1      -4.367  14.842 -13.968  1.00  0.00     0.023 A 
ATOM     70  C   UNL     1      -3.650  16.017 -13.643  1.00  0.00     0.012 A 
ATOM     71  C   UNL     1      -5.753  14.878 -13.673  1.00  0.00     0.148 A 
ATOM     72  C   UNL     1      -4.241  17.117 -13.007  1.00  0.00     0.002 A 
ATOM     73  C   UNL     1      -6.346  15.968 -13.026  1.00  0.00     0.091 A 
ATOM     74  F   UNL     1      -6.543  13.870 -14.027  1.00  0.00    -0.205 F 
ATOM     75  C   UNL     1      -5.588  17.088 -12.682  1.00  0.00     0.022 A 
BRANCH  73  76
ATOM     76  S   UNL     1      -8.090  15.992 -12.559  1.00  0.00     0.127 S 
ATOM     77  O   UNL     1      -8.015  16.184 -11.110  1.00  0.00    -0.237 OA
ATOM     78  O   UNL     1      -8.596  17.148 -13.298  1.00  0.00    -0.237 OA
ATOM     79  O   UNL     1      -8.650  14.710 -12.967  1.00  0.00    -0.744 OA
ENDBRANCH  73  76
ENDBRANCH  55  69
BRANCH  56  80
ATOM     80  C   UNL     1       0.657   6.809 -15.766  1.00  0.00     0.023 A 
ATOM     81  C   UNL     1       0.982   5.721 -14.914  1.00  0.00     0.012 A 
ATOM     82  C   UNL     1      -0.321   6.614 -16.757  1.00  0.00     0.148 A 
ATOM     83  C   UNL     1       0.225   4.547 -14.923  1.00  0.00     0.002 A 
ATOM     84  C   UNL     1      -1.049   5.422 -16.783  1.00  0.00     0.091 A 
ATOM     85  F   UNL     1      -0.564   7.603 -17.628  1.00  0.00    -0.205 F 
ATOM     86  C   UNL     1      -0.816   4.414 -15.833  1.00  0.00     0.022 A 
BRANCH  84  87
ATOM     87  S   UNL     1      -2.388   5.167 -17.958  1.00  0.00     0.127 S 
ATOM     88  O   UNL     1      -1.683   4.537 -19.072  1.00  0.00    -0.237 OA
ATOM     89  O   UNL     1      -3.297   4.279 -17.233  1.00  0.00    -0.237 OA
ATOM     90  O   UNL     1      -2.928   6.496 -18.205  1.00  0.00    -0.744 OA
ENDBRANCH  84  87
ENDBRANCH  56  80
BRANCH  68  91
ATOM     91  C   UNL     1       0.604  13.645 -18.247  1.00  0.00     0.023 A 
ATOM     92  C   UNL     1       1.084  13.248 -19.509  1.00  0.00     0.012 A 
ATOM     93  C   UNL     1       0.062  14.961 -18.180  1.00  0.00     0.148 A 
ATOM     94  C   UNL     1       1.068  14.098 -20.624  1.00  0.00     0.002 A 
ATOM     95  C   UNL     1      -0.060  15.759 -19.317  1.00  0.00     0.091 A 
ATOM     96  F   UNL     1      -0.315  15.476 -17.002  1.00  0.00    -0.205 F 
ATOM     97  C   UNL     1       0.469  15.343 -20.537  1.00  0.00     0.022 A 
BRANCH  95  98
ATOM     98  S   UNL     1      -1.031  17.275 -19.292  1.00  0.00     0.127 S 
ATOM     99  O   UNL     1      -0.004  18.289 -19.066  1.00  0.00    -0.237 OA
ATOM    100  O   UNL     1      -1.618  17.293 -20.634  1.00  0.00    -0.237 OA
ATOM    101  O   UNL     1      -2.000  17.087 -18.221  1.00  0.00    -0.744 OA
ENDBRANCH  95  98
ENDBRANCH  68  91
ENDBRANCH  42  43
ENDBRANCH  34  37
ENDBRANCH  32  33
ENDBRANCH  31  32
ENDBRANCH   1  31
TORSDOF 17
