REMARK SMILES CCC[C@H](Cc1ccn(-c2ccccc2)n1)C(=O)NCCCCNC(=O)c1ccc(-c2c3nc(c(-c4cccc(S(=O)(=O)[O-])c4F)c4ccc([nH]4)c(-c4cccc(S(=O)(=O)[O-])c4F)c4nc(c(-c5cccc(S(=O)(=O)[O-])c5F)c5ccc2[nH]5)C=C4)C=C3)cc1
REMARK SMILES IDX 21 1 20 2 19 3 17 4 18 5 4 7 3 8 2 9 1 10 5 11 6 12 7 13
REMARK SMILES IDX 16 14 8 15 9 16 10 17 11 18 15 19 12 20 14 21 13 22 22 23
REMARK SMILES IDX 23 24 24 25 25 26 26 28 27 29 28 30 89 31 29 32 88 33 30 34
REMARK SMILES IDX 31 35 32 36 82 37 33 38 87 39 81 40 83 41 34 42 86 43 80 44
REMARK SMILES IDX 79 45 35 47 67 48 47 49 66 50 48 51 51 52 65 53 84 54 49 55
REMARK SMILES IDX 50 56 64 58 85 59 52 60 36 61 37 62 45 63 38 64 40 65 46 66
REMARK SMILES IDX 39 67 41 68 42 69 43 70 44 71 68 72 69 73 77 74 70 75 72 76
REMARK SMILES IDX 78 77 71 78 73 79 74 80 75 81 76 82 53 83 54 84 62 85 55 86
REMARK SMILES IDX 57 87 63 88 56 89 58 90 59 91 60 92 61 93
REMARK H PARENT 19 6 24 27 83 46 51 57
REMARK Flexibility Score: inf
ROOT
ATOM      1  C   UNL     1       0.731   4.666  -3.863  1.00  0.00     0.023 C 
ENDROOT
BRANCH   1   2
ATOM      2  C   UNL     1      -0.180   3.470  -4.161  1.00  0.00     0.116 C 
BRANCH   2   3
ATOM      3  N   UNL     1       0.504   2.357  -4.798  1.00  0.00    -0.356 N 
ATOM      4  C   UNL     1       0.878   1.132  -4.319  1.00  0.00     0.223 C 
ATOM      5  O   UNL     1       1.504   0.387  -5.074  1.00  0.00    -0.275 OA
ATOM      6  H   UNL     1       0.741   2.513  -5.741  1.00  0.00     0.163 HD
BRANCH   4   7
ATOM      7  C   UNL     1       0.602   0.721  -2.872  1.00  0.00     0.084 C 
BRANCH   7   8
ATOM      8  C   UNL     1      -0.921   0.537  -2.666  1.00  0.00     0.013 C 
BRANCH   8   9
ATOM      9  C   UNL     1      -1.452   0.236  -1.262  1.00  0.00    -0.003 C 
ATOM     10  C   UNL     1      -1.403   1.399  -0.284  1.00  0.00     0.004 C 
ENDBRANCH   8   9
ENDBRANCH   7   8
BRANCH   7  11
ATOM     11  C   UNL     1       1.369   1.708  -1.985  1.00  0.00     0.071 C 
BRANCH  11  12
ATOM     12  C   UNL     1       2.228   1.163  -0.890  1.00  0.00     0.064 A 
ATOM     13  C   UNL     1       3.070   1.941  -0.063  1.00  0.00     0.046 A 
ATOM     14  N   UNL     1       2.326  -0.138  -0.603  1.00  0.00    -0.173 NA
ATOM     15  C   UNL     1       3.632   1.048   0.811  1.00  0.00     0.115 A 
ATOM     16  N   UNL     1       3.165  -0.199   0.458  1.00  0.00    -0.241 N 
BRANCH  16  17
ATOM     17  C   UNL     1       3.496  -1.427   1.077  1.00  0.00     0.065 A 
ATOM     18  C   UNL     1       3.836  -1.460   2.436  1.00  0.00     0.028 A 
ATOM     19  C   UNL     1       3.503  -2.603   0.319  1.00  0.00     0.028 A 
ATOM     20  C   UNL     1       4.185  -2.672   3.032  1.00  0.00     0.002 A 
ATOM     21  C   UNL     1       3.901  -3.802   0.912  1.00  0.00     0.002 A 
ATOM     22  C   UNL     1       4.235  -3.837   2.267  1.00  0.00     0.000 A 
ENDBRANCH  16  17
ENDBRANCH  11  12
ENDBRANCH   7  11
ENDBRANCH   4   7
ENDBRANCH   2   3
ENDBRANCH   1   2
BRANCH   1  23
ATOM     23  C   UNL     1       1.342   5.373  -5.076  1.00  0.00     0.023 C 
BRANCH  23  24
ATOM     24  C   UNL     1       0.323   5.927  -6.059  1.00  0.00     0.116 C 
BRANCH  24  25
ATOM     25  N   UNL     1      -0.542   6.950  -5.469  1.00  0.00    -0.352 N 
ATOM     26  C   UNL     1      -1.613   7.594  -6.068  1.00  0.00     0.251 C 
ATOM     27  H   UNL     1      -0.341   7.209  -4.541  1.00  0.00     0.163 HD
ATOM     28  O   UNL     1      -2.025   8.660  -5.651  1.00  0.00    -0.269 OA
BRANCH  26  29
ATOM     29  C   UNL     1      -2.248   6.936  -7.226  1.00  0.00     0.039 A 
ATOM     30  C   UNL     1      -2.553   7.642  -8.391  1.00  0.00     0.014 A 
ATOM     31  C   UNL     1      -2.465   5.564  -7.137  1.00  0.00     0.014 A 
ATOM     32  C   UNL     1      -2.997   6.930  -9.503  1.00  0.00     0.010 A 
ATOM     33  C   UNL     1      -2.745   4.850  -8.272  1.00  0.00     0.010 A 
ATOM     34  C   UNL     1      -3.064   5.528  -9.443  1.00  0.00    -0.014 A 
BRANCH  34  35
ATOM     35  C   UNL     1      -3.340   4.740 -10.639  1.00  0.00     0.031 A 
ATOM     36  C   UNL     1      -2.398   4.998 -11.761  1.00  0.00     0.074 A 
ATOM     37  C   UNL     1      -4.219   3.713 -10.648  1.00  0.00     0.049 A 
ATOM     38  N   UNL     1      -2.640   5.641 -12.856  1.00  0.00    -0.248 NA
ATOM     39  C   UNL     1      -0.976   4.660 -11.577  1.00  0.00     0.031 C 
ATOM     40  C   UNL     1      -4.944   3.147  -9.499  1.00  0.00     0.029 A 
ATOM     41  N   UNL     1      -4.541   2.852 -11.653  1.00  0.00    -0.354 N 
ATOM     42  C   UNL     1      -1.473   5.538 -13.612  1.00  0.00     0.074 A 
ATOM     43  C   UNL     1      -0.435   5.150 -12.696  1.00  0.00     0.031 C 
ATOM     44  C   UNL     1      -5.381   1.907  -9.807  1.00  0.00     0.029 A 
ATOM     45  C   UNL     1      -5.145   1.674 -11.217  1.00  0.00     0.049 A 
ATOM     46  H   UNL     1      -4.363   3.045 -12.602  1.00  0.00     0.167 HD
ATOM     47  C   UNL     1      -1.526   5.474 -14.972  1.00  0.00     0.034 A 
ATOM     48  C   UNL     1      -5.395   0.570 -11.959  1.00  0.00     0.034 A 
ATOM     49  C   UNL     1      -2.859   5.755 -15.440  1.00  0.00     0.049 A 
ATOM     50  C   UNL     1      -5.416   0.999 -13.371  1.00  0.00     0.074 A 
ATOM     51  C   UNL     1      -3.699   6.843 -15.496  1.00  0.00     0.029 A 
ATOM     52  N   UNL     1      -3.628   4.629 -15.586  1.00  0.00    -0.354 N 
ATOM     53  N   UNL     1      -6.310   1.813 -13.859  1.00  0.00    -0.248 NA
ATOM     54  C   UNL     1      -4.226   0.809 -14.187  1.00  0.00     0.031 C 
ATOM     55  C   UNL     1      -5.019   6.309 -15.402  1.00  0.00     0.029 A 
ATOM     56  C   UNL     1      -4.942   4.916 -15.349  1.00  0.00     0.049 A 
ATOM     57  H   UNL     1      -3.282   3.740 -15.827  1.00  0.00     0.167 HD
ATOM     58  C   UNL     1      -5.599   2.579 -14.768  1.00  0.00     0.074 A 
ATOM     59  C   UNL     1      -4.402   1.801 -15.064  1.00  0.00     0.031 C 
ATOM     60  C   UNL     1      -5.891   3.900 -14.939  1.00  0.00     0.034 A 
BRANCH  47  61
ATOM     61  C   UNL     1      -0.570   4.710 -15.871  1.00  0.00     0.023 A 
ATOM     62  C   UNL     1      -0.729   4.880 -17.267  1.00  0.00     0.012 A 
ATOM     63  C   UNL     1       0.245   3.634 -15.453  1.00  0.00     0.148 A 
ATOM     64  C   UNL     1      -0.147   4.005 -18.191  1.00  0.00     0.002 A 
ATOM     65  C   UNL     1       0.886   2.813 -16.376  1.00  0.00     0.091 A 
ATOM     66  F   UNL     1       0.301   3.302 -14.161  1.00  0.00    -0.205 F 
ATOM     67  C   UNL     1       0.669   2.974 -17.746  1.00  0.00     0.022 A 
BRANCH  65  68
ATOM     68  S   UNL     1       1.986   1.486 -15.863  1.00  0.00     0.127 S 
ATOM     69  O   UNL     1       1.212   0.305 -16.233  1.00  0.00    -0.237 OA
ATOM     70  O   UNL     1       3.164   1.743 -16.692  1.00  0.00    -0.237 OA
ATOM     71  O   UNL     1       2.203   1.688 -14.436  1.00  0.00    -0.744 OA
ENDBRANCH  65  68
ENDBRANCH  47  61
BRANCH  48  72
ATOM     72  C   UNL     1      -5.397  -0.861 -11.580  1.00  0.00     0.023 A 
ATOM     73  C   UNL     1      -6.067  -1.797 -12.394  1.00  0.00     0.012 A 
ATOM     74  C   UNL     1      -4.492  -1.345 -10.611  1.00  0.00     0.148 A 
ATOM     75  C   UNL     1      -5.803  -3.168 -12.284  1.00  0.00     0.002 A 
ATOM     76  C   UNL     1      -4.233  -2.709 -10.505  1.00  0.00     0.091 A 
ATOM     77  F   UNL     1      -3.818  -0.461  -9.862  1.00  0.00    -0.205 F 
ATOM     78  C   UNL     1      -4.875  -3.622 -11.351  1.00  0.00     0.022 A 
BRANCH  76  79
ATOM     79  S   UNL     1      -3.023  -3.370  -9.352  1.00  0.00     0.127 S 
ATOM     80  O   UNL     1      -3.786  -4.430  -8.692  1.00  0.00    -0.237 OA
ATOM     81  O   UNL     1      -1.976  -3.840 -10.255  1.00  0.00    -0.237 OA
ATOM     82  O   UNL     1      -2.661  -2.259  -8.482  1.00  0.00    -0.744 OA
ENDBRANCH  76  79
ENDBRANCH  48  72
BRANCH  60  83
ATOM     83  C   UNL     1      -7.248   4.377 -14.502  1.00  0.00     0.023 A 
ATOM     84  C   UNL     1      -7.660   4.419 -13.155  1.00  0.00     0.012 A 
ATOM     85  C   UNL     1      -8.086   4.917 -15.491  1.00  0.00     0.148 A 
ATOM     86  C   UNL     1      -8.896   4.975 -12.809  1.00  0.00     0.002 A 
ATOM     87  C   UNL     1      -9.287   5.512 -15.138  1.00  0.00     0.091 A 
ATOM     88  F   UNL     1      -7.676   4.859 -16.768  1.00  0.00    -0.205 F 
ATOM     89  C   UNL     1      -9.703   5.534 -13.798  1.00  0.00     0.022 A 
BRANCH  87  90
ATOM     90  S   UNL     1     -10.302   6.352 -16.355  1.00  0.00     0.127 S 
ATOM     91  O   UNL     1     -11.407   5.413 -16.532  1.00  0.00    -0.237 OA
ATOM     92  O   UNL     1     -10.656   7.593 -15.664  1.00  0.00    -0.237 OA
ATOM     93  O   UNL     1      -9.450   6.546 -17.522  1.00  0.00    -0.744 OA
ENDBRANCH  87  90
ENDBRANCH  60  83
ENDBRANCH  34  35
ENDBRANCH  26  29
ENDBRANCH  24  25
ENDBRANCH  23  24
ENDBRANCH   1  23
TORSDOF 19
