REMARK SMILES COC[C@H](C)CNC(=O)N[C@@H]1CCCCC[C@@H]1C(=O)NCCCCNC(=O)c1ccc(-c2c3nc(c(-c4cccc(S(=O)(=O)[O-])c4F)c4ccc([nH]4)c(-c4cccc(S(=O)(=O)[O-])c4F)c4nc(c(-c5cccc(S(=O)(=O)[O-])c5F)c5ccc2[nH]5)C=C4)C=C3)cc1
REMARK SMILES IDX 21 1 20 2 18 3 19 4 17 6 11 7 10 8 7 9 8 10 9 12 6 14 4 15
REMARK SMILES IDX 5 16 3 17 2 18 1 19 12 20 13 21 14 22 16 24 15 25 22 27
REMARK SMILES IDX 23 28 24 29 25 30 26 31 27 33 28 34 29 35 90 36 30 37 89 38
REMARK SMILES IDX 31 39 32 40 33 41 83 42 34 43 88 44 82 45 84 46 35 47 87 48
REMARK SMILES IDX 81 49 80 50 36 52 68 53 48 54 67 55 49 56 52 57 66 58 85 59
REMARK SMILES IDX 50 60 51 61 65 63 86 64 53 65 37 66 38 67 46 68 39 69 41 70
REMARK SMILES IDX 47 71 40 72 42 73 43 74 44 75 45 76 69 77 70 78 78 79 71 80
REMARK SMILES IDX 73 81 79 82 72 83 74 84 75 85 76 86 77 87 54 88 55 89 63 90
REMARK SMILES IDX 56 91 58 92 64 93 57 94 59 95 60 96 61 97 62 98
REMARK H PARENT 20 5 7 11 10 13 25 32 84 51 52 62
REMARK Flexibility Score: 100.00
ROOT
ATOM      1  C   UNL     1       2.352   1.197   9.009  1.00  0.00     0.116 C 
ENDROOT
BRANCH   1   2
ATOM      2  N   UNL     1       2.291   1.454   7.590  1.00  0.00    -0.356 N 
ATOM      3  C   UNL     1       2.332   0.547   6.577  1.00  0.00     0.225 C 
ATOM      4  O   UNL     1       2.939   0.885   5.557  1.00  0.00    -0.275 OA
ATOM      5  H   UNL     1       2.211   2.398   7.323  1.00  0.00     0.163 HD
BRANCH   3   6
ATOM      6  C   UNL     1       1.627  -0.819   6.628  1.00  0.00     0.101 C 
BRANCH   6   7
ATOM      7  C   UNL     1       0.111  -0.755   6.285  1.00  0.00     0.096 C 
BRANCH   7   8
ATOM      8  N   UNL     1      -0.490   0.572   6.413  1.00  0.00    -0.335 N 
ATOM      9  N   UNL     1      -0.308   1.607   4.282  1.00  0.00    -0.338 N 
ATOM     10  C   UNL     1      -0.758   1.559   5.545  1.00  0.00     0.315 C 
ATOM     11  H   UNL     1      -0.836   2.202   3.702  1.00  0.00     0.165 HD
ATOM     12  O   UNL     1      -1.484   2.478   5.935  1.00  0.00    -0.249 OA
ATOM     13  H   UNL     1      -0.755   0.787   7.336  1.00  0.00     0.165 HD
BRANCH   9  14
ATOM     14  C   UNL     1       0.800   0.964   3.593  1.00  0.00     0.123 C 
BRANCH  14  15
ATOM     15  C   UNL     1       0.554   0.771   2.088  1.00  0.00     0.031 C 
ATOM     16  C   UNL     1       1.060   1.991   1.313  1.00  0.00     0.012 C 
BRANCH  15  17
ATOM     17  C   UNL     1       1.245  -0.530   1.629  1.00  0.00     0.164 C 
BRANCH  17  18
ATOM     18  O   UNL     1       1.451  -0.610   0.220  1.00  0.00    -0.384 OA
ATOM     19  C   UNL     1       0.277  -0.898  -0.520  1.00  0.00     0.194 C 
ENDBRANCH  17  18
ENDBRANCH  15  17
ENDBRANCH  14  15
ENDBRANCH   9  14
ENDBRANCH   7   8
BRANCH   7  20
ATOM     20  C   UNL     1      -0.779  -1.770   7.033  1.00  0.00     0.026 C 
BRANCH  20  21
ATOM     21  C   UNL     1      -0.430  -3.230   6.737  1.00  0.00     0.002 C 
BRANCH  21  22
ATOM     22  C   UNL     1       0.619  -3.816   7.671  1.00  0.00     0.000 CG0
ATOM     23  G   UNL     1       1.999  -3.199   7.530  1.00  0.00     0.000 G0
ENDBRANCH  21  22
ENDBRANCH  20  21
ENDBRANCH   7  20
ENDBRANCH   6   7
BRANCH   6  24
ATOM     24  C   UNL     1       2.035  -1.701   7.816  1.00  0.00     0.015 C 
BRANCH  24  25
ATOM     25  C   UNL     1       1.999  -3.199   7.530  1.00  0.00     0.001 CG0
ATOM     26  G   UNL     1       0.619  -3.816   7.671  1.00  0.00     0.000 G0
ENDBRANCH  24  25
ENDBRANCH   6  24
ENDBRANCH   3   6
ENDBRANCH   1   2
BRANCH   1  27
ATOM     27  C   UNL     1       3.762   0.734   9.389  1.00  0.00     0.023 C 
BRANCH  27  28
ATOM     28  C   UNL     1       4.794   1.854   9.460  1.00  0.00     0.023 C 
BRANCH  28  29
ATOM     29  C   UNL     1       4.515   2.895  10.528  1.00  0.00     0.116 C 
BRANCH  29  30
ATOM     30  N   UNL     1       4.270   2.310  11.843  1.00  0.00    -0.352 N 
ATOM     31  C   UNL     1       4.824   2.660  13.053  1.00  0.00     0.251 C 
ATOM     32  H   UNL     1       3.624   1.568  11.867  1.00  0.00     0.163 HD
ATOM     33  O   UNL     1       4.620   1.999  14.056  1.00  0.00    -0.269 OA
BRANCH  31  34
ATOM     34  C   UNL     1       5.701   3.845  13.084  1.00  0.00     0.039 A 
ATOM     35  C   UNL     1       7.011   3.710  13.544  1.00  0.00     0.014 A 
ATOM     36  C   UNL     1       5.251   5.039  12.516  1.00  0.00     0.014 A 
ATOM     37  C   UNL     1       7.908   4.759  13.348  1.00  0.00     0.010 A 
ATOM     38  C   UNL     1       6.168   6.040  12.238  1.00  0.00     0.010 A 
ATOM     39  C   UNL     1       7.505   5.907  12.646  1.00  0.00    -0.014 A 
BRANCH  39  40
ATOM     40  C   UNL     1       8.459   6.986  12.299  1.00  0.00     0.031 A 
ATOM     41  C   UNL     1       8.226   8.375  12.819  1.00  0.00     0.074 A 
ATOM     42  C   UNL     1       9.448   6.741  11.417  1.00  0.00     0.049 A 
ATOM     43  N   UNL     1       8.868   9.478  12.540  1.00  0.00    -0.248 NA
ATOM     44  C   UNL     1       7.095   8.556  13.746  1.00  0.00     0.031 C 
ATOM     45  C   UNL     1       9.714   5.451  10.775  1.00  0.00     0.029 A 
ATOM     46  N   UNL     1      10.395   7.577  10.882  1.00  0.00    -0.354 N 
ATOM     47  C   UNL     1       8.195  10.486  13.218  1.00  0.00     0.074 A 
ATOM     48  C   UNL     1       7.070   9.873  13.888  1.00  0.00     0.031 C 
ATOM     49  C   UNL     1      10.758   5.581   9.940  1.00  0.00     0.029 A 
ATOM     50  C   UNL     1      11.216   6.966   9.962  1.00  0.00     0.049 A 
ATOM     51  H   UNL     1      10.480   8.526  11.132  1.00  0.00     0.167 HD
ATOM     52  C   UNL     1       8.508  11.799  13.308  1.00  0.00     0.034 A 
ATOM     53  C   UNL     1      12.220   7.469   9.218  1.00  0.00     0.034 A 
ATOM     54  C   UNL     1       9.663  12.387  12.691  1.00  0.00     0.049 A 
ATOM     55  C   UNL     1      12.574   8.924   9.367  1.00  0.00     0.074 A 
ATOM     56  C   UNL     1      10.138  13.680  12.810  1.00  0.00     0.029 A 
ATOM     57  N   UNL     1      10.525  11.719  11.835  1.00  0.00    -0.354 N 
ATOM     58  N   UNL     1      12.033   9.828  10.148  1.00  0.00    -0.248 NA
ATOM     59  C   UNL     1      13.694   9.423   8.556  1.00  0.00     0.031 C 
ATOM     60  C   UNL     1      11.282  13.797  12.013  1.00  0.00     0.029 A 
ATOM     61  C   UNL     1      11.524  12.574  11.407  1.00  0.00     0.049 A 
ATOM     62  H   UNL     1      10.439  10.774  11.571  1.00  0.00     0.167 HD
ATOM     63  C   UNL     1      12.759  10.995   9.943  1.00  0.00     0.074 A 
ATOM     64  C   UNL     1      13.795  10.676   8.980  1.00  0.00     0.031 C 
ATOM     65  C   UNL     1      12.575  12.223  10.486  1.00  0.00     0.034 A 
BRANCH  52  66
ATOM     66  C   UNL     1       7.623  12.664  14.165  1.00  0.00     0.023 A 
ATOM     67  C   UNL     1       7.661  12.515  15.567  1.00  0.00     0.012 A 
ATOM     68  C   UNL     1       6.779  13.636  13.596  1.00  0.00     0.148 A 
ATOM     69  C   UNL     1       6.844  13.290  16.387  1.00  0.00     0.002 A 
ATOM     70  C   UNL     1       5.998  14.435  14.423  1.00  0.00     0.091 A 
ATOM     71  F   UNL     1       6.734  13.744  12.260  1.00  0.00    -0.205 F 
ATOM     72  C   UNL     1       6.020  14.256  15.816  1.00  0.00     0.022 A 
BRANCH  70  73
ATOM     73  S   UNL     1       4.959  15.755  13.786  1.00  0.00     0.127 S 
ATOM     74  O   UNL     1       3.628  15.161  13.893  1.00  0.00    -0.237 OA
ATOM     75  O   UNL     1       5.220  16.840  14.734  1.00  0.00    -0.237 OA
ATOM     76  O   UNL     1       5.429  16.011  12.432  1.00  0.00    -0.744 OA
ENDBRANCH  70  73
ENDBRANCH  52  66
BRANCH  53  77
ATOM     77  C   UNL     1      13.010   6.571   8.330  1.00  0.00     0.023 A 
ATOM     78  C   UNL     1      14.331   6.240   8.693  1.00  0.00     0.012 A 
ATOM     79  C   UNL     1      12.458   6.007   7.163  1.00  0.00     0.148 A 
ATOM     80  C   UNL     1      15.095   5.383   7.900  1.00  0.00     0.002 A 
ATOM     81  C   UNL     1      13.207   5.114   6.405  1.00  0.00     0.091 A 
ATOM     82  F   UNL     1      11.204   6.343   6.828  1.00  0.00    -0.205 F 
ATOM     83  C   UNL     1      14.530   4.812   6.763  1.00  0.00     0.022 A 
BRANCH  81  84
ATOM     84  S   UNL     1      12.522   4.231   4.997  1.00  0.00     0.127 S 
ATOM     85  O   UNL     1      13.205   4.875   3.879  1.00  0.00    -0.237 OA
ATOM     86  O   UNL     1      12.944   2.856   5.268  1.00  0.00    -0.237 OA
ATOM     87  O   UNL     1      11.082   4.441   5.069  1.00  0.00    -0.744 OA
ENDBRANCH  81  84
ENDBRANCH  53  77
BRANCH  65  88
ATOM     88  C   UNL     1      13.518  13.319  10.067  1.00  0.00     0.023 A 
ATOM     89  C   UNL     1      13.372  13.907   8.796  1.00  0.00     0.012 A 
ATOM     90  C   UNL     1      14.477  13.829  10.963  1.00  0.00     0.148 A 
ATOM     91  C   UNL     1      14.182  14.975   8.414  1.00  0.00     0.002 A 
ATOM     92  C   UNL     1      15.250  14.922  10.592  1.00  0.00     0.091 A 
ATOM     93  F   UNL     1      14.609  13.241  12.161  1.00  0.00    -0.205 F 
ATOM     94  C   UNL     1      15.110  15.490   9.316  1.00  0.00     0.022 A 
BRANCH  92  95
ATOM     95  S   UNL     1      16.406  15.712  11.719  1.00  0.00     0.127 S 
ATOM     96  O   UNL     1      17.693  15.321  11.146  1.00  0.00    -0.237 OA
ATOM     97  O   UNL     1      16.072  17.128  11.562  1.00  0.00    -0.237 OA
ATOM     98  O   UNL     1      16.118  15.165  13.038  1.00  0.00    -0.744 OA
ENDBRANCH  92  95
ENDBRANCH  65  88
ENDBRANCH  39  40
ENDBRANCH  31  34
ENDBRANCH  29  30
ENDBRANCH  28  29
ENDBRANCH  27  28
ENDBRANCH   1  27
TORSDOF 19
