REMARK SMILES O=C(NCCCCNC(=O)c1ccc(C[NH2+][C@@H]2CCCc3sccc32)nc1)c1ccc(-c2c3nc(c(-c4cccc(S(=O)(=O)[O-])c4F)c4ccc([nH]4)c(-c4cccc(S(=O)(=O)[O-])c4F)c4nc(c(-c5cccc(S(=O)(=O)[O-])c5F)c5ccc2[nH]5)C=C4)C=C3)cc1
REMARK SMILES IDX 5 1 4 2 3 3 1 4 2 5 28 7 29 8 90 9 30 10 89 11 31 12 32 13
REMARK SMILES IDX 33 14 83 15 34 16 88 17 82 18 84 19 35 20 87 21 81 22 80 23
REMARK SMILES IDX 36 25 68 26 48 27 67 28 49 29 52 30 66 31 85 32 50 33 51 34
REMARK SMILES IDX 65 36 86 37 53 38 37 39 38 40 46 41 39 42 41 43 47 44 40 45
REMARK SMILES IDX 42 46 43 47 44 48 45 49 69 50 70 51 78 52 71 53 73 54 79 55
REMARK SMILES IDX 72 56 74 57 75 58 76 59 77 60 54 61 55 62 63 63 56 64 58 65
REMARK SMILES IDX 64 66 57 67 59 68 60 69 61 70 62 71 6 72 7 73 8 74 9 75
REMARK SMILES IDX 10 77 11 78 12 79 27 80 13 81 26 82 14 83 15 84 16 85 17 88
REMARK SMILES IDX 18 89 25 90 19 91 21 92 24 93 20 94 22 95 23 96
REMARK H PARENT 3 6 84 24 52 35 8 76 16 86 16 87
REMARK Flexibility Score: inf
ROOT
ATOM      1  C   UNL     1       4.909  -0.020   2.381  1.00  0.00     0.023 C 
ENDROOT
BRANCH   1   2
ATOM      2  C   UNL     1       4.550  -0.565   1.004  1.00  0.00     0.116 C 
BRANCH   2   3
ATOM      3  N   UNL     1       3.115  -0.698   0.815  1.00  0.00    -0.352 N 
ATOM      4  O   UNL     1       1.082  -0.188  -0.003  1.00  0.00    -0.269 OA
ATOM      5  C   UNL     1       2.300  -0.093  -0.112  1.00  0.00     0.251 C 
ATOM      6  H   UNL     1       2.662  -1.308   1.441  1.00  0.00     0.163 HD
BRANCH   5   7
ATOM      7  C   UNL     1       2.900   0.689  -1.213  1.00  0.00     0.039 A 
ATOM      8  C   UNL     1       3.981   0.182  -1.941  1.00  0.00     0.014 A 
ATOM      9  C   UNL     1       2.375   1.946  -1.517  1.00  0.00     0.014 A 
ATOM     10  C   UNL     1       4.625   0.985  -2.876  1.00  0.00     0.010 A 
ATOM     11  C   UNL     1       2.973   2.719  -2.514  1.00  0.00     0.010 A 
ATOM     12  C   UNL     1       4.120   2.258  -3.179  1.00  0.00    -0.014 A 
BRANCH  12  13
ATOM     13  C   UNL     1       4.753   3.078  -4.242  1.00  0.00     0.031 A 
ATOM     14  C   UNL     1       5.367   4.411  -3.925  1.00  0.00     0.074 A 
ATOM     15  C   UNL     1       4.710   2.637  -5.514  1.00  0.00     0.049 A 
ATOM     16  N   UNL     1       5.876   5.298  -4.741  1.00  0.00    -0.248 NA
ATOM     17  C   UNL     1       5.406   4.806  -2.509  1.00  0.00     0.031 C 
ATOM     18  C   UNL     1       4.105   1.375  -5.944  1.00  0.00     0.029 A 
ATOM     19  N   UNL     1       5.145   3.214  -6.679  1.00  0.00    -0.354 N 
ATOM     20  C   UNL     1       6.248   6.376  -3.949  1.00  0.00     0.074 A 
ATOM     21  C   UNL     1       5.906   6.032  -2.585  1.00  0.00     0.031 C 
ATOM     22  C   UNL     1       4.189   1.280  -7.278  1.00  0.00     0.029 A 
ATOM     23  C   UNL     1       4.797   2.499  -7.800  1.00  0.00     0.049 A 
ATOM     24  H   UNL     1       5.655   4.055  -6.710  1.00  0.00     0.167 HD
ATOM     25  C   UNL     1       6.826   7.543  -4.325  1.00  0.00     0.034 A 
ATOM     26  C   UNL     1       4.908   2.804  -9.107  1.00  0.00     0.034 A 
ATOM     27  C   UNL     1       7.177   7.865  -5.683  1.00  0.00     0.049 A 
ATOM     28  C   UNL     1       5.551   4.100  -9.502  1.00  0.00     0.074 A 
ATOM     29  C   UNL     1       7.839   8.983  -6.157  1.00  0.00     0.029 A 
ATOM     30  N   UNL     1       6.873   7.082  -6.787  1.00  0.00    -0.354 N 
ATOM     31  N   UNL     1       6.019   5.052  -8.732  1.00  0.00    -0.248 NA
ATOM     32  C   UNL     1       5.713   4.354 -10.940  1.00  0.00     0.031 C 
ATOM     33  C   UNL     1       7.898   8.897  -7.552  1.00  0.00     0.029 A 
ATOM     34  C   UNL     1       7.313   7.703  -7.944  1.00  0.00     0.049 A 
ATOM     35  H   UNL     1       6.412   6.213  -6.753  1.00  0.00     0.167 HD
ATOM     36  C   UNL     1       6.561   6.003  -9.587  1.00  0.00     0.074 A 
ATOM     37  C   UNL     1       6.370   5.508 -10.936  1.00  0.00     0.031 C 
ATOM     38  C   UNL     1       7.160   7.179  -9.279  1.00  0.00     0.034 A 
BRANCH  25  39
ATOM     39  C   UNL     1       7.119   8.558  -3.249  1.00  0.00     0.023 A 
ATOM     40  C   UNL     1       8.136   8.310  -2.304  1.00  0.00     0.012 A 
ATOM     41  C   UNL     1       6.412   9.776  -3.195  1.00  0.00     0.148 A 
ATOM     42  C   UNL     1       8.410   9.233  -1.295  1.00  0.00     0.002 A 
ATOM     43  C   UNL     1       6.724  10.712  -2.216  1.00  0.00     0.091 A 
ATOM     44  F   UNL     1       5.436   9.990  -4.088  1.00  0.00    -0.205 F 
ATOM     45  C   UNL     1       7.711  10.436  -1.256  1.00  0.00     0.022 A 
BRANCH  43  46
ATOM     46  S   UNL     1       5.932  12.323  -2.139  1.00  0.00     0.127 S 
ATOM     47  O   UNL     1       5.010  12.145  -1.018  1.00  0.00    -0.237 OA
ATOM     48  O   UNL     1       7.061  13.211  -1.861  1.00  0.00    -0.237 OA
ATOM     49  O   UNL     1       5.312  12.524  -3.441  1.00  0.00    -0.744 OA
ENDBRANCH  43  46
ENDBRANCH  25  39
BRANCH  26  50
ATOM     50  C   UNL     1       4.401   1.837 -10.118  1.00  0.00     0.023 A 
ATOM     51  C   UNL     1       5.312   1.088 -10.884  1.00  0.00     0.012 A 
ATOM     52  C   UNL     1       3.019   1.588 -10.247  1.00  0.00     0.148 A 
ATOM     53  C   UNL     1       4.855   0.115 -11.774  1.00  0.00     0.002 A 
ATOM     54  C   UNL     1       2.575   0.578 -11.090  1.00  0.00     0.091 A 
ATOM     55  F   UNL     1       2.172   2.317  -9.506  1.00  0.00    -0.205 F 
ATOM     56  C   UNL     1       3.490  -0.149 -11.866  1.00  0.00     0.022 A 
BRANCH  54  57
ATOM     57  S   UNL     1       0.855   0.068 -11.165  1.00  0.00     0.127 S 
ATOM     58  O   UNL     1       0.498   0.421 -12.537  1.00  0.00    -0.237 OA
ATOM     59  O   UNL     1       0.959  -1.369 -10.905  1.00  0.00    -0.237 OA
ATOM     60  O   UNL     1       0.170   0.822 -10.124  1.00  0.00    -0.744 OA
ENDBRANCH  54  57
ENDBRANCH  26  50
BRANCH  38  61
ATOM     61  C   UNL     1       7.709   8.009 -10.409  1.00  0.00     0.023 A 
ATOM     62  C   UNL     1       6.836   8.734 -11.243  1.00  0.00     0.012 A 
ATOM     63  C   UNL     1       9.102   8.158 -10.564  1.00  0.00     0.148 A 
ATOM     64  C   UNL     1       7.343   9.585 -12.225  1.00  0.00     0.002 A 
ATOM     65  C   UNL     1       9.598   9.046 -11.509  1.00  0.00     0.091 A 
ATOM     66  F   UNL     1       9.912   7.442  -9.770  1.00  0.00    -0.205 F 
ATOM     67  C   UNL     1       8.721   9.753 -12.347  1.00  0.00     0.022 A 
BRANCH  65  68
ATOM     68  S   UNL     1      11.351   9.405 -11.669  1.00  0.00     0.127 S 
ATOM     69  O   UNL     1      11.649   8.852 -12.990  1.00  0.00    -0.237 OA
ATOM     70  O   UNL     1      11.374  10.866 -11.600  1.00  0.00    -0.237 OA
ATOM     71  O   UNL     1      12.006   8.733 -10.555  1.00  0.00    -0.744 OA
ENDBRANCH  65  68
ENDBRANCH  38  61
ENDBRANCH  12  13
ENDBRANCH   5   7
ENDBRANCH   2   3
ENDBRANCH   1   2
BRANCH   1  72
ATOM     72  C   UNL     1       4.442  -0.879   3.555  1.00  0.00     0.023 C 
BRANCH  72  73
ATOM     73  C   UNL     1       4.847  -2.347   3.479  1.00  0.00     0.116 C 
BRANCH  73  74
ATOM     74  N   UNL     1       6.291  -2.525   3.462  1.00  0.00    -0.352 N 
ATOM     75  C   UNL     1       7.069  -3.274   4.307  1.00  0.00     0.252 C 
ATOM     76  H   UNL     1       6.773  -2.043   2.752  1.00  0.00     0.163 HD
ATOM     77  O   UNL     1       8.293  -3.202   4.271  1.00  0.00    -0.269 OA
BRANCH  75  78
ATOM     78  C   UNL     1       6.422  -4.162   5.279  1.00  0.00     0.058 A 
ATOM     79  C   UNL     1       5.485  -5.120   4.895  1.00  0.00     0.017 A 
ATOM     80  C   UNL     1       6.744  -4.039   6.618  1.00  0.00     0.125 A 
ATOM     81  C   UNL     1       4.859  -5.879   5.877  1.00  0.00     0.030 A 
ATOM     82  N   UNL     1       6.142  -4.760   7.592  1.00  0.00    -0.255 NA
ATOM     83  C   UNL     1       5.201  -5.665   7.212  1.00  0.00     0.094 A 
BRANCH  83  84
ATOM     84  C   UNL     1       4.559  -6.502   8.301  1.00  0.00     0.318 C 
BRANCH  84  85
ATOM     85  N   UNL     1       5.496  -7.488   8.832  1.00  0.00    -0.335 N 
ATOM     86  H   UNL     1       6.236  -6.995   9.332  1.00  0.00     0.347 HD
ATOM     87  H   UNL     1       5.856  -8.021   8.041  1.00  0.00     0.347 HD
BRANCH  85  88
ATOM     88  C   UNL     1       4.875  -8.435   9.744  1.00  0.00     0.215 C 
ATOM     89  C   UNL     1       5.819  -8.589  10.956  1.00  0.00     0.071 C 
ATOM     90  C   UNL     1       4.652  -9.765   9.059  1.00  0.00     0.023 A 
ATOM     91  C   UNL     1       5.385  -9.758  11.848  1.00  0.00     0.012 C 
ATOM     92  C   UNL     1       4.906 -10.961   9.711  1.00  0.00     0.014 A 
ATOM     93  C   UNL     1       4.144 -10.008   7.740  1.00  0.00     0.022 A 
ATOM     94  C   UNL     1       5.461 -11.094  11.097  1.00  0.00     0.047 C 
ATOM     95  S   UNL     1       4.573 -12.328   8.753  1.00  0.00    -0.148 S 
ATOM     96  C   UNL     1       4.065 -11.352   7.445  1.00  0.00     0.065 A 
ENDBRANCH  85  88
ENDBRANCH  84  85
ENDBRANCH  83  84
ENDBRANCH  75  78
ENDBRANCH  73  74
ENDBRANCH  72  73
ENDBRANCH   1  72
TORSDOF 17
