REMARK SMILES O=C(NCCCCNC(=O)[C@@H]1C=C[C@H](NC(=O)[C@@H]2Cc3ccccc3O2)C1)c1ccc(-c2c3nc(c(-c4cccc(S(=O)(=O)[O-])c4F)c4ccc([nH]4)c(-c4cccc(S(=O)(=O)[O-])c4F)c4nc(c(-c5cccc(S(=O)(=O)[O-])c5F)c5ccc2[nH]5)C=C4)C=C3)cc1
REMARK SMILES IDX 5 1 4 2 3 3 1 4 2 5 28 7 29 8 90 9 30 10 89 11 31 12 32 13
REMARK SMILES IDX 33 14 83 15 34 16 88 17 82 18 84 19 35 20 87 21 81 22 80 23
REMARK SMILES IDX 36 25 68 26 48 27 67 28 49 29 52 30 66 31 85 32 50 33 51 34
REMARK SMILES IDX 65 36 86 37 53 38 37 39 38 40 46 41 39 42 41 43 47 44 40 45
REMARK SMILES IDX 42 46 43 47 44 48 45 49 69 50 70 51 78 52 71 53 73 54 79 55
REMARK SMILES IDX 72 56 74 57 75 58 76 59 77 60 54 61 55 62 63 63 56 64 58 65
REMARK SMILES IDX 64 66 57 67 59 68 60 69 61 70 62 71 6 72 7 73 8 74 9 75
REMARK SMILES IDX 10 77 11 78 12 79 27 80 13 81 14 82 15 83 16 84 17 86 18 87
REMARK SMILES IDX 19 88 26 89 20 90 25 91 21 92 24 93 22 94 23 95
REMARK H PARENT 3 6 84 24 52 35 8 76 15 85
REMARK Flexibility Score: inf
ROOT
ATOM      1  C   UNL     1      15.773  -8.966  12.528  1.00  0.00     0.023 C 
ENDROOT
BRANCH   1   2
ATOM      2  C   UNL     1      15.239 -10.297  12.006  1.00  0.00     0.116 C 
BRANCH   2   3
ATOM      3  N   UNL     1      15.767 -10.633  10.694  1.00  0.00    -0.352 N 
ATOM      4  O   UNL     1      16.917 -11.822   9.171  1.00  0.00    -0.269 OA
ATOM      5  C   UNL     1      16.384 -11.787  10.277  1.00  0.00     0.251 C 
ATOM      6  H   UNL     1      15.668  -9.934  10.007  1.00  0.00     0.163 HD
BRANCH   5   7
ATOM      7  C   UNL     1      16.427 -12.966  11.169  1.00  0.00     0.039 A 
ATOM      8  C   UNL     1      15.281 -13.393  11.848  1.00  0.00     0.014 A 
ATOM      9  C   UNL     1      17.630 -13.658  11.318  1.00  0.00     0.014 A 
ATOM     10  C   UNL     1      15.367 -14.436  12.767  1.00  0.00     0.010 A 
ATOM     11  C   UNL     1      17.698 -14.748  12.188  1.00  0.00     0.010 A 
ATOM     12  C   UNL     1      16.575 -15.128  12.941  1.00  0.00    -0.014 A 
BRANCH  12  13
ATOM     13  C   UNL     1      16.647 -16.291  13.860  1.00  0.00     0.031 A 
ATOM     14  C   UNL     1      17.534 -16.262  15.072  1.00  0.00     0.074 A 
ATOM     15  C   UNL     1      15.955 -17.405  13.556  1.00  0.00     0.049 A 
ATOM     16  N   UNL     1      17.784 -17.215  15.932  1.00  0.00    -0.248 NA
ATOM     17  C   UNL     1      18.242 -15.002  15.348  1.00  0.00     0.031 C 
ATOM     18  C   UNL     1      15.096 -17.564  12.381  1.00  0.00     0.029 A 
ATOM     19  N   UNL     1      15.894 -18.624  14.183  1.00  0.00    -0.354 N 
ATOM     20  C   UNL     1      18.712 -16.691  16.823  1.00  0.00     0.074 A 
ATOM     21  C   UNL     1      18.983 -15.334  16.397  1.00  0.00     0.031 C 
ATOM     22  C   UNL     1      14.611 -18.814  12.359  1.00  0.00     0.029 A 
ATOM     23  C   UNL     1      15.164 -19.557  13.486  1.00  0.00     0.049 A 
ATOM     24  H   UNL     1      16.329 -18.811  15.046  1.00  0.00     0.167 HD
ATOM     25  C   UNL     1      19.279 -17.284  17.902  1.00  0.00     0.034 A 
ATOM     26  C   UNL     1      14.990 -20.876  13.700  1.00  0.00     0.034 A 
ATOM     27  C   UNL     1      18.984 -18.625  18.331  1.00  0.00     0.049 A 
ATOM     28  C   UNL     1      15.618 -21.510  14.906  1.00  0.00     0.074 A 
ATOM     29  C   UNL     1      19.439 -19.287  19.458  1.00  0.00     0.029 A 
ATOM     30  N   UNL     1      18.176 -19.518  17.642  1.00  0.00    -0.354 N 
ATOM     31  N   UNL     1      16.380 -20.959  15.820  1.00  0.00    -0.248 NA
ATOM     32  C   UNL     1      15.340 -22.935  15.133  1.00  0.00     0.031 C 
ATOM     33  C   UNL     1      18.933 -20.591  19.432  1.00  0.00     0.029 A 
ATOM     34  C   UNL     1      18.134 -20.732  18.308  1.00  0.00     0.049 A 
ATOM     35  H   UNL     1      17.702 -19.319  16.803  1.00  0.00     0.167 HD
ATOM     36  C   UNL     1      16.648 -21.959  16.747  1.00  0.00     0.074 A 
ATOM     37  C   UNL     1      15.957 -23.148  16.289  1.00  0.00     0.031 C 
ATOM     38  C   UNL     1      17.403 -21.895  17.870  1.00  0.00     0.034 A 
BRANCH  25  39
ATOM     39  C   UNL     1      20.266 -16.477  18.706  1.00  0.00     0.023 A 
ATOM     40  C   UNL     1      19.812 -15.406  19.503  1.00  0.00     0.012 A 
ATOM     41  C   UNL     1      21.636 -16.805  18.708  1.00  0.00     0.148 A 
ATOM     42  C   UNL     1      20.710 -14.648  20.254  1.00  0.00     0.002 A 
ATOM     43  C   UNL     1      22.519 -16.072  19.493  1.00  0.00     0.091 A 
ATOM     44  F   UNL     1      22.056 -17.812  17.930  1.00  0.00    -0.205 F 
ATOM     45  C   UNL     1      22.061 -14.986  20.256  1.00  0.00     0.022 A 
BRANCH  43  46
ATOM     46  S   UNL     1      24.263 -16.486  19.617  1.00  0.00     0.127 S 
ATOM     47  O   UNL     1      24.869 -15.479  18.747  1.00  0.00    -0.237 OA
ATOM     48  O   UNL     1      24.529 -16.297  21.044  1.00  0.00    -0.237 OA
ATOM     49  O   UNL     1      24.375 -17.865  19.163  1.00  0.00    -0.744 OA
ENDBRANCH  43  46
ENDBRANCH  25  39
BRANCH  26  50
ATOM     50  C   UNL     1      14.159 -21.657  12.744  1.00  0.00     0.023 A 
ATOM     51  C   UNL     1      12.873 -22.082  13.126  1.00  0.00     0.012 A 
ATOM     52  C   UNL     1      14.601 -21.888  11.425  1.00  0.00     0.148 A 
ATOM     53  C   UNL     1      12.044 -22.735  12.213  1.00  0.00     0.002 A 
ATOM     54  C   UNL     1      13.749 -22.487  10.506  1.00  0.00     0.091 A 
ATOM     55  F   UNL     1      15.831 -21.477  11.088  1.00  0.00    -0.205 F 
ATOM     56  C   UNL     1      12.476 -22.924  10.902  1.00  0.00     0.022 A 
BRANCH  54  57
ATOM     57  S   UNL     1      14.159 -22.637   8.764  1.00  0.00     0.127 S 
ATOM     58  O   UNL     1      14.259 -24.085   8.604  1.00  0.00    -0.237 OA
ATOM     59  O   UNL     1      12.991 -22.026   8.129  1.00  0.00    -0.237 OA
ATOM     60  O   UNL     1      15.400 -21.897   8.583  1.00  0.00    -0.744 OA
ENDBRANCH  54  57
ENDBRANCH  26  50
BRANCH  38  61
ATOM     61  C   UNL     1      17.502 -23.131  18.725  1.00  0.00     0.023 A 
ATOM     62  C   UNL     1      18.309 -24.208  18.312  1.00  0.00     0.012 A 
ATOM     63  C   UNL     1      16.883 -23.171  19.990  1.00  0.00     0.148 A 
ATOM     64  C   UNL     1      18.488 -25.315  19.142  1.00  0.00     0.002 A 
ATOM     65  C   UNL     1      17.104 -24.255  20.830  1.00  0.00     0.091 A 
ATOM     66  F   UNL     1      16.104 -22.142  20.353  1.00  0.00    -0.205 F 
ATOM     67  C   UNL     1      17.899 -25.332  20.404  1.00  0.00     0.022 A 
BRANCH  65  68
ATOM     68  S   UNL     1      16.470 -24.321  22.510  1.00  0.00     0.127 S 
ATOM     69  O   UNL     1      15.490 -25.402  22.416  1.00  0.00    -0.237 OA
ATOM     70  O   UNL     1      17.669 -24.649  23.280  1.00  0.00    -0.237 OA
ATOM     71  O   UNL     1      15.914 -23.003  22.784  1.00  0.00    -0.744 OA
ENDBRANCH  65  68
ENDBRANCH  38  61
ENDBRANCH  12  13
ENDBRANCH   5   7
ENDBRANCH   2   3
ENDBRANCH   1   2
BRANCH   1  72
ATOM     72  C   UNL     1      15.440  -7.745  11.666  1.00  0.00     0.023 C 
BRANCH  72  73
ATOM     73  C   UNL     1      13.947  -7.528  11.423  1.00  0.00     0.116 C 
BRANCH  73  74
ATOM     74  N   UNL     1      13.241  -7.232  12.657  1.00  0.00    -0.356 N 
ATOM     75  C   UNL     1      12.756  -6.035  13.110  1.00  0.00     0.227 C 
ATOM     76  H   UNL     1      13.089  -8.001  13.252  1.00  0.00     0.163 HD
ATOM     77  O   UNL     1      12.223  -5.997  14.218  1.00  0.00    -0.274 OA
BRANCH  75  78
ATOM     78  C   UNL     1      12.854  -4.816  12.188  1.00  0.00     0.103 C 
ATOM     79  C   UNL     1      12.688  -3.515  12.907  1.00  0.00    -0.016 C 
ATOM     80  C   UNL     1      11.687  -4.818  11.187  1.00  0.00     0.047 C 
ATOM     81  C   UNL     1      11.552  -2.895  12.573  1.00  0.00    -0.006 C 
ATOM     82  C   UNL     1      10.741  -3.675  11.592  1.00  0.00     0.106 C 
BRANCH  82  83
ATOM     83  N   UNL     1       9.562  -4.152  12.281  1.00  0.00    -0.347 N 
ATOM     84  C   UNL     1       8.306  -4.394  11.811  1.00  0.00     0.261 C 
ATOM     85  H   UNL     1       9.687  -4.330  13.242  1.00  0.00     0.164 HD
ATOM     86  O   UNL     1       7.467  -4.826  12.609  1.00  0.00    -0.271 OA
BRANCH  84  87
ATOM     87  C   UNL     1       7.923  -4.173  10.340  1.00  0.00     0.266 C 
ATOM     88  C   UNL     1       8.630  -5.134   9.375  1.00  0.00     0.095 C 
ATOM     89  O   UNL     1       8.103  -2.806   9.911  1.00  0.00    -0.480 OA
ATOM     90  C   UNL     1       8.995  -4.192   8.295  1.00  0.00    -0.002 A 
ATOM     91  C   UNL     1       8.630  -2.906   8.652  1.00  0.00     0.123 A 
ATOM     92  C   UNL     1       9.617  -4.442   7.084  1.00  0.00     0.008 A 
ATOM     93  C   UNL     1       8.832  -1.829   7.814  1.00  0.00     0.047 A 
ATOM     94  C   UNL     1       9.838  -3.364   6.221  1.00  0.00     0.001 A 
ATOM     95  C   UNL     1       9.438  -2.066   6.579  1.00  0.00     0.004 A 
ENDBRANCH  84  87
ENDBRANCH  82  83
ENDBRANCH  75  78
ENDBRANCH  73  74
ENDBRANCH  72  73
ENDBRANCH   1  72
TORSDOF 16
