REMARK SMILES Nc1c(Nc2ccc(I)cc2)ncnc1Nc1ccc(C(=O)NCCCCNC(=O)c2ccc(-c3c4nc(c(-c5cccc(S(=O)(=O)[O-])c5F)c5ccc([nH]5)c(-c5cccc(S(=O)(=O)[O-])c5F)c5nc(c(-c6cccc(S(=O)(=O)[O-])c6F)c6ccc3[nH]6)C=C5)C=C4)cc2)cc1
REMARK SMILES IDX 25 1 24 2 23 3 21 4 22 5 20 7 17 8 18 9 95 10 19 11 94 12
REMARK SMILES IDX 16 13 15 15 2 16 3 17 12 18 14 19 13 20 1 21 4 24 5 26 6 27
REMARK SMILES IDX 11 28 7 29 10 30 8 31 9 32 26 33 27 34 28 35 29 36 30 38
REMARK SMILES IDX 31 39 32 40 93 41 33 42 92 43 34 44 35 45 36 46 86 47 37 48
REMARK SMILES IDX 91 49 85 50 87 51 38 52 90 53 84 54 83 55 39 57 71 58 51 59
REMARK SMILES IDX 70 60 52 61 55 62 69 63 88 64 53 65 54 66 68 68 89 69 56 70
REMARK SMILES IDX 40 71 41 72 49 73 42 74 44 75 50 76 43 77 45 78 46 79 47 80
REMARK SMILES IDX 48 81 72 82 73 83 81 84 74 85 76 86 82 87 75 88 77 89 78 90
REMARK SMILES IDX 79 91 80 92 57 93 58 94 66 95 59 96 61 97 67 98 60 99 62 100
REMARK SMILES IDX 63 101 64 102 65 103
REMARK H PARENT 23 6 16 14 1 22 1 23 4 25 28 37 87 56 55 67
REMARK Flexibility Score: inf
ROOT
ATOM      1  C   UNL     1       4.142  -8.639  -2.610  1.00  0.00     0.023 C 
ENDROOT
BRANCH   1   2
ATOM      2  C   UNL     1       2.845  -8.838  -1.823  1.00  0.00     0.116 C 
BRANCH   2   3
ATOM      3  N   UNL     1       3.120  -8.980  -0.407  1.00  0.00    -0.352 N 
ATOM      4  C   UNL     1       3.128  -8.084   0.630  1.00  0.00     0.251 C 
ATOM      5  O   UNL     1       3.381  -8.522   1.754  1.00  0.00    -0.269 OA
ATOM      6  H   UNL     1       3.345  -9.900  -0.137  1.00  0.00     0.163 HD
BRANCH   4   7
ATOM      7  C   UNL     1       2.799  -6.634   0.489  1.00  0.00     0.039 A 
ATOM      8  C   UNL     1       2.014  -3.912   0.420  1.00  0.00     0.040 A 
ATOM      9  C   UNL     1       1.961  -4.633   1.613  1.00  0.00     0.027 A 
ATOM     10  C   UNL     1       2.504  -4.550  -0.723  1.00  0.00     0.027 A 
ATOM     11  C   UNL     1       2.341  -5.979   1.645  1.00  0.00     0.016 A 
ATOM     12  C   UNL     1       2.926  -5.885  -0.681  1.00  0.00     0.016 A 
BRANCH   8  13
ATOM     13  N   UNL     1       1.467  -2.619   0.349  1.00  0.00    -0.338 N 
ATOM     14  H   UNL     1       1.857  -1.927   0.931  1.00  0.00     0.168 HD
BRANCH  13  15
ATOM     15  C   UNL     1       0.396  -2.236  -0.499  1.00  0.00     0.159 A 
ATOM     16  C   UNL     1       0.093  -0.875  -0.633  1.00  0.00     0.118 A 
ATOM     17  C   UNL     1      -1.007  -0.586  -1.453  1.00  0.00     0.159 A 
ATOM     18  N   UNL     1      -1.761  -1.545  -2.022  1.00  0.00    -0.217 NA
ATOM     19  N   UNL     1      -0.315  -3.199  -1.117  1.00  0.00    -0.217 NA
ATOM     20  C   UNL     1      -1.366  -2.805  -1.836  1.00  0.00     0.226 A 
BRANCH  16  21
ATOM     21  N   UNL     1       0.879   0.133  -0.058  1.00  0.00    -0.393 N 
ATOM     22  H   UNL     1       0.630   1.079  -0.176  1.00  0.00     0.156 HD
ATOM     23  H   UNL     1       1.679  -0.104   0.464  1.00  0.00     0.156 HD
ENDBRANCH  16  21
BRANCH  17  24
ATOM     24  N   UNL     1      -1.318   0.774  -1.706  1.00  0.00    -0.338 N 
ATOM     25  H   UNL     1      -0.644   1.437  -1.430  1.00  0.00     0.168 HD
BRANCH  24  26
ATOM     26  C   UNL     1      -2.483   1.281  -2.306  1.00  0.00     0.040 A 
ATOM     27  C   UNL     1      -2.382   2.263  -3.300  1.00  0.00     0.027 A 
ATOM     28  C   UNL     1      -3.752   0.777  -1.994  1.00  0.00     0.027 A 
ATOM     29  C   UNL     1      -3.519   2.716  -3.978  1.00  0.00     0.017 A 
ATOM     30  C   UNL     1      -4.895   1.234  -2.657  1.00  0.00     0.017 A 
ATOM     31  C   UNL     1      -4.772   2.197  -3.654  1.00  0.00     0.013 A 
ATOM     32  I   UNL     1      -6.458   2.845  -4.680  1.00  0.00    -0.044 I 
ENDBRANCH  24  26
ENDBRANCH  17  24
ENDBRANCH  13  15
ENDBRANCH   8  13
ENDBRANCH   4   7
ENDBRANCH   2   3
ENDBRANCH   1   2
BRANCH   1  33
ATOM     33  C   UNL     1       4.951  -9.921  -2.828  1.00  0.00     0.023 C 
BRANCH  33  34
ATOM     34  C   UNL     1       4.260 -10.986  -3.673  1.00  0.00     0.116 C 
BRANCH  34  35
ATOM     35  N   UNL     1       3.874 -10.511  -4.993  1.00  0.00    -0.352 N 
ATOM     36  C   UNL     1       3.798 -11.225  -6.168  1.00  0.00     0.251 C 
ATOM     37  H   UNL     1       3.638  -9.557  -5.054  1.00  0.00     0.163 HD
ATOM     38  O   UNL     1       3.550 -10.662  -7.222  1.00  0.00    -0.269 OA
BRANCH  36  39
ATOM     39  C   UNL     1       4.061 -12.679  -6.134  1.00  0.00     0.039 A 
ATOM     40  C   UNL     1       5.021 -13.206  -7.001  1.00  0.00     0.014 A 
ATOM     41  C   UNL     1       3.399 -13.501  -5.218  1.00  0.00     0.014 A 
ATOM     42  C   UNL     1       5.365 -14.555  -6.904  1.00  0.00     0.010 A 
ATOM     43  C   UNL     1       3.786 -14.830  -5.084  1.00  0.00     0.010 A 
ATOM     44  C   UNL     1       4.773 -15.368  -5.923  1.00  0.00    -0.014 A 
BRANCH  44  45
ATOM     45  C   UNL     1       5.187 -16.781  -5.748  1.00  0.00     0.031 A 
ATOM     46  C   UNL     1       4.221 -17.892  -6.045  1.00  0.00     0.074 A 
ATOM     47  C   UNL     1       6.410 -17.056  -5.253  1.00  0.00     0.049 A 
ATOM     48  N   UNL     1       4.392 -19.182  -5.926  1.00  0.00    -0.248 NA
ATOM     49  C   UNL     1       2.882 -17.504  -6.518  1.00  0.00     0.031 C 
ATOM     50  C   UNL     1       7.406 -16.057  -4.862  1.00  0.00     0.029 A 
ATOM     51  N   UNL     1       7.017 -18.256  -4.980  1.00  0.00    -0.354 N 
ATOM     52  C   UNL     1       3.181 -19.759  -6.287  1.00  0.00     0.074 A 
ATOM     53  C   UNL     1       2.270 -18.677  -6.590  1.00  0.00     0.031 C 
ATOM     54  C   UNL     1       8.506 -16.685  -4.416  1.00  0.00     0.029 A 
ATOM     55  C   UNL     1       8.287 -18.128  -4.468  1.00  0.00     0.049 A 
ATOM     56  H   UNL     1       6.585 -19.126  -5.136  1.00  0.00     0.167 HD
ATOM     57  C   UNL     1       2.869 -21.071  -6.397  1.00  0.00     0.034 A 
ATOM     58  C   UNL     1       9.178 -19.067  -4.093  1.00  0.00     0.034 A 
ATOM     59  C   UNL     1       3.793 -22.141  -6.140  1.00  0.00     0.049 A 
ATOM     60  C   UNL     1       8.816 -20.520  -4.251  1.00  0.00     0.074 A 
ATOM     61  C   UNL     1       3.594 -23.502  -6.288  1.00  0.00     0.029 A 
ATOM     62  N   UNL     1       5.092 -21.973  -5.685  1.00  0.00    -0.354 N 
ATOM     63  N   UNL     1       7.715 -21.046  -4.733  1.00  0.00    -0.248 NA
ATOM     64  C   UNL     1       9.826 -21.508  -3.846  1.00  0.00     0.031 C 
ATOM     65  C   UNL     1       4.771 -24.157  -5.917  1.00  0.00     0.029 A 
ATOM     66  C   UNL     1       5.707 -23.204  -5.546  1.00  0.00     0.049 A 
ATOM     67  H   UNL     1       5.514 -21.105  -5.490  1.00  0.00     0.167 HD
ATOM     68  C   UNL     1       7.910 -22.422  -4.716  1.00  0.00     0.074 A 
ATOM     69  C   UNL     1       9.243 -22.648  -4.196  1.00  0.00     0.031 C 
ATOM     70  C   UNL     1       7.055 -23.409  -5.079  1.00  0.00     0.034 A 
BRANCH  57  71
ATOM     71  C   UNL     1       1.493 -21.422  -6.898  1.00  0.00     0.023 A 
ATOM     72  C   UNL     1       1.192 -21.226  -8.261  1.00  0.00     0.012 A 
ATOM     73  C   UNL     1       0.529 -22.003  -6.053  1.00  0.00     0.148 A 
ATOM     74  C   UNL     1      -0.056 -21.577  -8.771  1.00  0.00     0.002 A 
ATOM     75  C   UNL     1      -0.701 -22.387  -6.577  1.00  0.00     0.091 A 
ATOM     76  F   UNL     1       0.826 -22.161  -4.755  1.00  0.00    -0.205 F 
ATOM     77  C   UNL     1      -0.997 -22.167  -7.933  1.00  0.00     0.022 A 
BRANCH  75  78
ATOM     78  S   UNL     1      -1.955 -23.222  -5.599  1.00  0.00     0.127 S 
ATOM     79  O   UNL     1      -2.961 -22.172  -5.452  1.00  0.00    -0.237 OA
ATOM     80  O   UNL     1      -2.349 -24.325  -6.476  1.00  0.00    -0.237 OA
ATOM     81  O   UNL     1      -1.294 -23.633  -4.368  1.00  0.00    -0.744 OA
ENDBRANCH  75  78
ENDBRANCH  57  71
BRANCH  58  82
ATOM     82  C   UNL     1      10.536 -18.656  -3.637  1.00  0.00     0.023 A 
ATOM     83  C   UNL     1      11.638 -18.885  -4.484  1.00  0.00     0.012 A 
ATOM     84  C   UNL     1      10.739 -17.989  -2.413  1.00  0.00     0.148 A 
ATOM     85  C   UNL     1      12.919 -18.475  -4.115  1.00  0.00     0.002 A 
ATOM     86  C   UNL     1      12.011 -17.537  -2.074  1.00  0.00     0.091 A 
ATOM     87  F   UNL     1       9.682 -17.793  -1.613  1.00  0.00    -0.205 F 
ATOM     88  C   UNL     1      13.104 -17.791  -2.917  1.00  0.00     0.022 A 
BRANCH  86  89
ATOM     89  S   UNL     1      12.319 -16.529  -0.619  1.00  0.00     0.127 S 
ATOM     90  O   UNL     1      13.039 -17.461   0.244  1.00  0.00    -0.237 OA
ATOM     91  O   UNL     1      13.133 -15.444  -1.169  1.00  0.00    -0.237 OA
ATOM     92  O   UNL     1      11.006 -16.111  -0.147  1.00  0.00    -0.744 OA
ENDBRANCH  86  89
ENDBRANCH  58  82
BRANCH  70  93
ATOM     93  C   UNL     1       7.520 -24.834  -4.939  1.00  0.00     0.023 A 
ATOM     94  C   UNL     1       7.575 -25.419  -3.659  1.00  0.00     0.012 A 
ATOM     95  C   UNL     1       7.781 -25.626  -6.075  1.00  0.00     0.148 A 
ATOM     96  C   UNL     1       7.896 -26.767  -3.510  1.00  0.00     0.002 A 
ATOM     97  C   UNL     1       8.056 -26.980  -5.922  1.00  0.00     0.091 A 
ATOM     98  F   UNL     1       7.741 -25.045  -7.283  1.00  0.00    -0.205 F 
ATOM     99  C   UNL     1       8.121 -27.550  -4.640  1.00  0.00     0.022 A 
BRANCH  97 100
ATOM    100  S   UNL     1       8.261 -28.085  -7.323  1.00  0.00     0.127 S 
ATOM    101  O   UNL     1       9.703 -28.322  -7.309  1.00  0.00    -0.237 OA
ATOM    102  O   UNL     1       7.449 -29.239  -6.932  1.00  0.00    -0.237 OA
ATOM    103  O   UNL     1       7.757 -27.360  -8.482  1.00  0.00    -0.744 OA
ENDBRANCH  97 100
ENDBRANCH  70  93
ENDBRANCH  44  45
ENDBRANCH  36  39
ENDBRANCH  34  35
ENDBRANCH  33  34
ENDBRANCH   1  33
TORSDOF 19
