REMARK SMILES C[C@H]1[C@@H](C(=O)NCCCCNC(=O)c2ccc(-c3c4nc(c(-c5cccc(S(=O)(=O)[O-])c5F)c5ccc([nH]5)c(-c5cccc(S(=O)(=O)[O-])c5F)c5nc(c(-c6cccc(S(=O)(=O)[O-])c6F)c6ccc3[nH]6)C=C5)C=C4)cc2)CCN1C(=O)c1cc2cc(F)ccc2s1
REMARK SMILES IDX 9 1 8 2 7 3 6 4 4 5 5 6 3 8 1 9 2 10 79 11 77 12 78 13 80 14
REMARK SMILES IDX 81 15 82 16 83 17 91 18 84 19 90 20 85 21 89 22 86 23 88 24
REMARK SMILES IDX 87 25 10 26 11 27 12 28 13 30 14 31 15 32 76 33 16 34 75 35
REMARK SMILES IDX 17 36 18 37 19 38 69 39 20 40 74 41 68 42 70 43 21 44 73 45
REMARK SMILES IDX 67 46 66 47 22 49 54 50 34 51 53 52 35 53 38 54 52 55 71 56
REMARK SMILES IDX 36 57 37 58 51 60 72 61 39 62 23 63 24 64 32 65 25 66 27 67
REMARK SMILES IDX 33 68 26 69 28 70 29 71 30 72 31 73 55 74 56 75 64 76 57 77
REMARK SMILES IDX 59 78 65 79 58 80 60 81 61 82 62 83 63 84 40 85 41 86 49 87
REMARK SMILES IDX 42 88 44 89 50 90 43 91 45 92 46 93 47 94 48 95
REMARK H PARENT 6 7 11 29 70 48 38 59
REMARK Flexibility Score: inf
ROOT
ATOM      1  C   UNL     1       4.197   0.728  -3.171  1.00  0.00     0.023 C 
ENDROOT
BRANCH   1   2
ATOM      2  C   UNL     1       3.376   0.544  -1.906  1.00  0.00     0.023 C 
BRANCH   2   3
ATOM      3  C   UNL     1       2.742   1.824  -1.355  1.00  0.00     0.116 C 
BRANCH   3   4
ATOM      4  N   UNL     1       1.394   1.923  -1.857  1.00  0.00    -0.356 N 
ATOM      5  C   UNL     1       0.232   1.439  -1.353  1.00  0.00     0.225 C 
ATOM      6  O   UNL     1      -0.717   1.407  -2.143  1.00  0.00    -0.275 OA
ATOM      7  H   UNL     1       1.303   2.421  -2.701  1.00  0.00     0.163 HD
BRANCH   5   8
ATOM      8  C   UNL     1       0.059   1.110   0.140  1.00  0.00     0.102 C 
ATOM      9  C   UNL     1       1.883  -0.790   0.498  1.00  0.00     0.032 C 
ATOM     10  C   UNL     1       0.497  -0.246   0.748  1.00  0.00     0.094 C 
ATOM     11  N   UNL     1      -0.592  -1.179   0.450  1.00  0.00    -0.334 N 
ATOM     12  C   UNL     1      -1.462   1.003   0.406  1.00  0.00     0.037 C 
ATOM     13  C   UNL     1      -1.758  -0.436   0.001  1.00  0.00     0.121 C 
BRANCH  11  14
ATOM     14  C   UNL     1      -0.801  -2.298   1.242  1.00  0.00     0.264 C 
ATOM     15  O   UNL     1      -1.789  -2.384   1.972  1.00  0.00    -0.268 OA
BRANCH  14  16
ATOM     16  C   UNL     1       0.129  -3.399   1.137  1.00  0.00     0.093 A 
ATOM     17  C   UNL     1       0.648  -4.143   2.176  1.00  0.00     0.034 A 
ATOM     18  S   UNL     1       0.353  -4.204  -0.353  1.00  0.00    -0.130 S 
ATOM     19  C   UNL     1       0.605  -5.537   1.839  1.00  0.00    -0.004 A 
ATOM     20  C   UNL     1       0.374  -5.723   0.470  1.00  0.00     0.035 A 
ATOM     21  C   UNL     1       0.610  -6.670   2.682  1.00  0.00     0.048 A 
ATOM     22  C   UNL     1       0.133  -6.995  -0.078  1.00  0.00     0.022 A 
ATOM     23  C   UNL     1       0.270  -7.910   2.151  1.00  0.00     0.123 A 
ATOM     24  C   UNL     1       0.027  -8.078   0.797  1.00  0.00     0.041 A 
ATOM     25  F   UNL     1       0.121  -8.953   2.979  1.00  0.00    -0.207 F 
ENDBRANCH  14  16
ENDBRANCH  11  14
ENDBRANCH   5   8
ENDBRANCH   3   4
ENDBRANCH   2   3
ENDBRANCH   1   2
BRANCH   1  26
ATOM     26  C   UNL     1       5.502   1.467  -2.946  1.00  0.00     0.116 C 
BRANCH  26  27
ATOM     27  N   UNL     1       6.399   0.809  -2.000  1.00  0.00    -0.352 N 
ATOM     28  C   UNL     1       7.775   0.734  -2.049  1.00  0.00     0.251 C 
ATOM     29  H   UNL     1       5.968   0.364  -1.235  1.00  0.00     0.163 HD
ATOM     30  O   UNL     1       8.402   0.095  -1.222  1.00  0.00    -0.269 OA
BRANCH  28  31
ATOM     31  C   UNL     1       8.459   1.412  -3.169  1.00  0.00     0.039 A 
ATOM     32  C   UNL     1       9.308   0.671  -3.992  1.00  0.00     0.014 A 
ATOM     33  C   UNL     1       8.130   2.733  -3.481  1.00  0.00     0.014 A 
ATOM     34  C   UNL     1       9.759   1.234  -5.186  1.00  0.00     0.010 A 
ATOM     35  C   UNL     1       8.486   3.244  -4.719  1.00  0.00     0.010 A 
ATOM     36  C   UNL     1       9.310   2.505  -5.582  1.00  0.00    -0.014 A 
BRANCH  36  37
ATOM     37  C   UNL     1       9.686   3.094  -6.891  1.00  0.00     0.031 A 
ATOM     38  C   UNL     1      10.415   4.410  -6.931  1.00  0.00     0.074 A 
ATOM     39  C   UNL     1       9.276   2.510  -8.036  1.00  0.00     0.049 A 
ATOM     40  N   UNL     1      10.748   5.137  -7.965  1.00  0.00    -0.248 NA
ATOM     41  C   UNL     1      10.774   5.015  -5.636  1.00  0.00     0.031 C 
ATOM     42  C   UNL     1       8.470   1.289  -8.127  1.00  0.00     0.029 A 
ATOM     43  N   UNL     1       9.460   2.881  -9.344  1.00  0.00    -0.354 N 
ATOM     44  C   UNL     1      11.305   6.299  -7.445  1.00  0.00     0.074 A 
ATOM     45  C   UNL     1      11.219   6.205  -6.005  1.00  0.00     0.031 C 
ATOM     46  C   UNL     1       8.244   1.005  -9.420  1.00  0.00     0.029 A 
ATOM     47  C   UNL     1       8.865   2.033 -10.250  1.00  0.00     0.049 A 
ATOM     48  H   UNL     1       9.970   3.679  -9.610  1.00  0.00     0.167 HD
ATOM     49  C   UNL     1      11.878   7.333  -8.102  1.00  0.00     0.034 A 
ATOM     50  C   UNL     1       8.830   2.078 -11.596  1.00  0.00     0.034 A 
ATOM     51  C   UNL     1      12.038   7.381  -9.528  1.00  0.00     0.049 A 
ATOM     52  C   UNL     1       9.557   3.190 -12.304  1.00  0.00     0.074 A 
ATOM     53  C   UNL     1      12.706   8.323 -10.288  1.00  0.00     0.029 A 
ATOM     54  N   UNL     1      11.531   6.439 -10.409  1.00  0.00    -0.354 N 
ATOM     55  N   UNL     1      10.230   4.192 -11.792  1.00  0.00    -0.248 NA
ATOM     56  C   UNL     1       9.556   3.157 -13.774  1.00  0.00     0.031 C 
ATOM     57  C   UNL     1      12.597   7.953 -11.632  1.00  0.00     0.029 A 
ATOM     58  C   UNL     1      11.871   6.775 -11.707  1.00  0.00     0.049 A 
ATOM     59  H   UNL     1      11.005   5.648 -10.149  1.00  0.00     0.167 HD
ATOM     60  C   UNL     1      10.760   4.888 -12.872  1.00  0.00     0.074 A 
ATOM     61  C   UNL     1      10.348   4.179 -14.067  1.00  0.00     0.031 C 
ATOM     62  C   UNL     1      11.504   6.021 -12.878  1.00  0.00     0.034 A 
BRANCH  49  63
ATOM     63  C   UNL     1      12.446   8.455  -7.274  1.00  0.00     0.023 A 
ATOM     64  C   UNL     1      13.612   8.232  -6.512  1.00  0.00     0.012 A 
ATOM     65  C   UNL     1      11.854   9.732  -7.273  1.00  0.00     0.148 A 
ATOM     66  C   UNL     1      14.157   9.248  -5.731  1.00  0.00     0.002 A 
ATOM     67  C   UNL     1      12.430  10.755  -6.527  1.00  0.00     0.091 A 
ATOM     68  F   UNL     1      10.732   9.919  -7.982  1.00  0.00    -0.205 F 
ATOM     69  C   UNL     1      13.573  10.511  -5.747  1.00  0.00     0.022 A 
BRANCH  67  70
ATOM     70  S   UNL     1      11.798  12.436  -6.541  1.00  0.00     0.127 S 
ATOM     71  O   UNL     1      11.185  12.530  -5.216  1.00  0.00    -0.237 OA
ATOM     72  O   UNL     1      13.020  13.224  -6.704  1.00  0.00    -0.237 OA
ATOM     73  O   UNL     1      10.876  12.507  -7.665  1.00  0.00    -0.744 OA
ENDBRANCH  67  70
ENDBRANCH  49  63
BRANCH  50  74
ATOM     74  C   UNL     1       8.163   0.987 -12.364  1.00  0.00     0.023 A 
ATOM     75  C   UNL     1       8.956   0.070 -13.082  1.00  0.00     0.012 A 
ATOM     76  C   UNL     1       6.764   0.831 -12.364  1.00  0.00     0.148 A 
ATOM     77  C   UNL     1       8.367  -0.963 -13.813  1.00  0.00     0.002 A 
ATOM     78  C   UNL     1       6.186  -0.231 -13.052  1.00  0.00     0.091 A 
ATOM     79  F   UNL     1       6.025   1.720 -11.685  1.00  0.00    -0.205 F 
ATOM     80  C   UNL     1       6.984  -1.119 -13.790  1.00  0.00     0.022 A 
BRANCH  78  81
ATOM     81  S   UNL     1       4.426  -0.585 -12.971  1.00  0.00     0.127 S 
ATOM     82  O   UNL     1       3.974  -0.158 -14.292  1.00  0.00    -0.237 OA
ATOM     83  O   UNL     1       4.416  -2.032 -12.753  1.00  0.00    -0.237 OA
ATOM     84  O   UNL     1       3.926   0.192 -11.844  1.00  0.00    -0.744 OA
ENDBRANCH  78  81
ENDBRANCH  50  74
BRANCH  62  85
ATOM     85  C   UNL     1      11.952   6.557 -14.210  1.00  0.00     0.023 A 
ATOM     86  C   UNL     1      11.023   7.199 -15.051  1.00  0.00     0.012 A 
ATOM     87  C   UNL     1      13.309   6.504 -14.587  1.00  0.00     0.148 A 
ATOM     88  C   UNL     1      11.432   7.758 -16.260  1.00  0.00     0.002 A 
ATOM     89  C   UNL     1      13.717   7.105 -15.771  1.00  0.00     0.091 A 
ATOM     90  F   UNL     1      14.173   5.871 -13.781  1.00  0.00    -0.205 F 
ATOM     91  C   UNL     1      12.779   7.723 -16.614  1.00  0.00     0.022 A 
BRANCH  89  92
ATOM     92  S   UNL     1      15.445   7.192 -16.255  1.00  0.00     0.127 S 
ATOM     93  O   UNL     1      15.510   6.182 -17.309  1.00  0.00    -0.237 OA
ATOM     94  O   UNL     1      15.569   8.573 -16.724  1.00  0.00    -0.237 OA
ATOM     95  O   UNL     1      16.211   6.895 -15.052  1.00  0.00    -0.744 OA
ENDBRANCH  89  92
ENDBRANCH  62  85
ENDBRANCH  36  37
ENDBRANCH  28  31
ENDBRANCH  26  27
ENDBRANCH   1  26
TORSDOF 16
