REMARK SMILES CN(C)C(=O)CCc1cccc(NC(=O)[C@H]2CCCC[C@@H]2C(=O)NCCCCNC(=O)c2ccc(-c3c4nc(c(-c5cccc(S(=O)(=O)[O-])c5F)c5ccc([nH]5)c(-c5cccc(S(=O)(=O)[O-])c5F)c5nc(c(-c6cccc(S(=O)(=O)[O-])c6F)c6ccc3[nH]6)C=C5)C=C4)cc2)c1
REMARK SMILES IDX 25 1 24 2 22 3 23 4 21 6 16 7 17 8 18 9 20 10 19 11 14 12
REMARK SMILES IDX 13 13 15 15 12 16 8 17 9 18 95 19 10 20 11 21 7 22 6 23 4 24
REMARK SMILES IDX 1 25 2 26 3 27 5 28 26 29 27 30 28 31 29 32 30 33 31 35
REMARK SMILES IDX 32 36 33 37 94 38 34 39 93 40 35 41 36 42 37 43 87 44 38 45
REMARK SMILES IDX 92 46 86 47 88 48 39 49 91 50 85 51 84 52 40 54 72 55 52 56
REMARK SMILES IDX 71 57 53 58 56 59 70 60 89 61 54 62 55 63 69 65 90 66 57 67
REMARK SMILES IDX 41 68 42 69 50 70 43 71 45 72 51 73 44 74 46 75 47 76 48 77
REMARK SMILES IDX 49 78 73 79 74 80 82 81 75 82 77 83 83 84 76 85 78 86 79 87
REMARK SMILES IDX 80 88 81 89 58 90 59 91 67 92 60 93 62 94 68 95 61 96 63 97
REMARK SMILES IDX 64 98 65 99 66 100
REMARK H PARENT 24 5 13 14 29 34 88 53 56 64
REMARK Flexibility Score: inf
ROOT
ATOM      1  C   UNL     1      -4.649  -2.535  -4.603  1.00  0.00     0.116 C 
ENDROOT
BRANCH   1   2
ATOM      2  N   UNL     1      -4.012  -1.678  -3.632  1.00  0.00    -0.356 N 
ATOM      3  C   UNL     1      -2.884  -0.941  -3.743  1.00  0.00     0.223 C 
ATOM      4  O   UNL     1      -2.430  -0.467  -2.700  1.00  0.00    -0.275 OA
ATOM      5  H   UNL     1      -4.465  -1.622  -2.760  1.00  0.00     0.163 HD
BRANCH   3   6
ATOM      6  C   UNL     1      -2.185  -0.775  -5.093  1.00  0.00     0.091 C 
ATOM      7  C   UNL     1      -0.994   0.213  -4.913  1.00  0.00     0.091 C 
ATOM      8  C   UNL     1      -1.592   1.629  -4.727  1.00  0.00     0.014 C 
ATOM      9  C   UNL     1      -2.388   2.093  -5.930  1.00  0.00     0.001 C 
ATOM     10  C   UNL     1      -3.076  -0.303  -6.272  1.00  0.00     0.014 C 
ATOM     11  C   UNL     1      -3.545   1.144  -6.169  1.00  0.00     0.001 C 
BRANCH   7  12
ATOM     12  C   UNL     1      -0.021  -0.004  -6.081  1.00  0.00     0.228 C 
ATOM     13  N   UNL     1       0.850   0.947  -6.493  1.00  0.00    -0.326 N 
ATOM     14  H   UNL     1       1.217   0.787  -7.392  1.00  0.00     0.169 HD
ATOM     15  O   UNL     1      -0.008  -1.061  -6.724  1.00  0.00    -0.274 OA
BRANCH  13  16
ATOM     16  C   UNL     1       1.327   2.110  -5.890  1.00  0.00     0.041 A 
ATOM     17  C   UNL     1       2.479   4.206  -6.219  1.00  0.00    -0.045 A 
ATOM     18  C   UNL     1       2.416   4.463  -4.847  1.00  0.00     0.004 A 
ATOM     19  C   UNL     1       1.840   3.079  -6.743  1.00  0.00     0.029 A 
ATOM     20  C   UNL     1       1.889   3.502  -3.993  1.00  0.00     0.002 A 
ATOM     21  C   UNL     1       1.426   2.292  -4.511  1.00  0.00     0.026 A 
BRANCH  17  22
ATOM     22  C   UNL     1       3.464   4.942  -7.091  1.00  0.00     0.045 C 
BRANCH  22  23
ATOM     23  C   UNL     1       4.807   4.185  -7.071  1.00  0.00     0.105 C 
BRANCH  23  24
ATOM     24  C   UNL     1       4.722   2.891  -7.876  1.00  0.00     0.222 C 
ATOM     25  C   UNL     1       4.329   0.485  -8.045  1.00  0.00     0.146 C 
ATOM     26  N   UNL     1       4.558   1.670  -7.230  1.00  0.00    -0.349 N 
ATOM     27  C   UNL     1       4.711   1.425  -5.800  1.00  0.00     0.146 C 
ATOM     28  O   UNL     1       4.736   2.969  -9.110  1.00  0.00    -0.275 OA
ENDBRANCH  23  24
ENDBRANCH  22  23
ENDBRANCH  17  22
ENDBRANCH  13  16
ENDBRANCH   7  12
ENDBRANCH   3   6
ENDBRANCH   1   2
BRANCH   1  29
ATOM     29  C   UNL     1      -5.110  -3.844  -3.978  1.00  0.00     0.023 C 
BRANCH  29  30
ATOM     30  C   UNL     1      -6.056  -3.689  -2.787  1.00  0.00     0.023 C 
BRANCH  30  31
ATOM     31  C   UNL     1      -7.237  -2.752  -3.017  1.00  0.00     0.116 C 
BRANCH  31  32
ATOM     32  N   UNL     1      -8.063  -3.167  -4.143  1.00  0.00    -0.352 N 
ATOM     33  C   UNL     1      -9.381  -3.547  -4.160  1.00  0.00     0.251 C 
ATOM     34  H   UNL     1      -7.610  -3.174  -5.017  1.00  0.00     0.163 HD
ATOM     35  O   UNL     1      -9.866  -4.041  -5.177  1.00  0.00    -0.269 OA
BRANCH  33  36
ATOM     36  C   UNL     1     -10.203  -3.388  -2.944  1.00  0.00     0.039 A 
ATOM     37  C   UNL     1     -10.980  -4.463  -2.507  1.00  0.00     0.014 A 
ATOM     38  C   UNL     1     -10.179  -2.194  -2.219  1.00  0.00     0.014 A 
ATOM     39  C   UNL     1     -11.669  -4.367  -1.297  1.00  0.00     0.010 A 
ATOM     40  C   UNL     1     -10.797  -2.131  -0.975  1.00  0.00     0.010 A 
ATOM     41  C   UNL     1     -11.546  -3.218  -0.498  1.00  0.00    -0.014 A 
BRANCH  41  42
ATOM     42  C   UNL     1     -12.155  -3.152   0.856  1.00  0.00     0.031 A 
ATOM     43  C   UNL     1     -13.194  -2.114   1.176  1.00  0.00     0.074 A 
ATOM     44  C   UNL     1     -11.701  -3.974   1.824  1.00  0.00     0.049 A 
ATOM     45  N   UNL     1     -13.791  -1.871   2.314  1.00  0.00    -0.248 NA
ATOM     46  C   UNL     1     -13.598  -1.213   0.084  1.00  0.00     0.031 C 
ATOM     47  C   UNL     1     -10.639  -4.970   1.660  1.00  0.00     0.029 A 
ATOM     48  N   UNL     1     -12.054  -4.083   3.146  1.00  0.00    -0.354 N 
ATOM     49  C   UNL     1     -14.613  -0.775   2.087  1.00  0.00     0.074 A 
ATOM     50  C   UNL     1     -14.415  -0.378   0.710  1.00  0.00     0.031 C 
ATOM     51  C   UNL     1     -10.432  -5.591   2.832  1.00  0.00     0.029 A 
ATOM     52  C   UNL     1     -11.315  -5.013   3.840  1.00  0.00     0.049 A 
ATOM     53  H   UNL     1     -12.768  -3.546   3.559  1.00  0.00     0.167 HD
ATOM     54  C   UNL     1     -15.475  -0.169   2.938  1.00  0.00     0.034 A 
ATOM     55  C   UNL     1     -11.333  -5.354   5.143  1.00  0.00     0.034 A 
ATOM     56  C   UNL     1     -15.691  -0.585   4.298  1.00  0.00     0.049 A 
ATOM     57  C   UNL     1     -12.315  -4.679   6.061  1.00  0.00     0.074 A 
ATOM     58  C   UNL     1     -16.605  -0.091   5.212  1.00  0.00     0.029 A 
ATOM     59  N   UNL     1     -14.976  -1.580   4.946  1.00  0.00    -0.354 N 
ATOM     60  N   UNL     1     -13.200  -3.752   5.785  1.00  0.00    -0.248 NA
ATOM     61  C   UNL     1     -12.325  -5.121   7.463  1.00  0.00     0.031 C 
ATOM     62  C   UNL     1     -16.417  -0.763   6.424  1.00  0.00     0.029 A 
ATOM     63  C   UNL     1     -15.415  -1.704   6.253  1.00  0.00     0.049 A 
ATOM     64  H   UNL     1     -14.261  -2.119   4.537  1.00  0.00     0.167 HD
ATOM     65  C   UNL     1     -13.894  -3.524   6.968  1.00  0.00     0.074 A 
ATOM     66  C   UNL     1     -13.342  -4.428   7.956  1.00  0.00     0.031 C 
ATOM     67  C   UNL     1     -14.889  -2.637   7.217  1.00  0.00     0.034 A 
BRANCH  54  68
ATOM     68  C   UNL     1     -16.284   0.989   2.411  1.00  0.00     0.023 A 
ATOM     69  C   UNL     1     -17.308   0.755   1.470  1.00  0.00     0.012 A 
ATOM     70  C   UNL     1     -16.075   2.296   2.893  1.00  0.00     0.148 A 
ATOM     71  C   UNL     1     -18.087   1.807   0.991  1.00  0.00     0.002 A 
ATOM     72  C   UNL     1     -16.887   3.332   2.446  1.00  0.00     0.091 A 
ATOM     73  F   UNL     1     -15.084   2.503   3.772  1.00  0.00    -0.205 F 
ATOM     74  C   UNL     1     -17.884   3.092   1.486  1.00  0.00     0.022 A 
BRANCH  72  75
ATOM     75  S   UNL     1     -16.762   5.007   3.083  1.00  0.00     0.127 S 
ATOM     76  O   UNL     1     -16.234   5.724   1.923  1.00  0.00    -0.237 OA
ATOM     77  O   UNL     1     -18.155   5.316   3.409  1.00  0.00    -0.237 OA
ATOM     78  O   UNL     1     -15.870   4.936   4.232  1.00  0.00    -0.744 OA
ENDBRANCH  72  75
ENDBRANCH  54  68
BRANCH  55  79
ATOM     79  C   UNL     1     -10.424  -6.422   5.648  1.00  0.00     0.023 A 
ATOM     80  C   UNL     1     -10.963  -7.656   6.059  1.00  0.00     0.012 A 
ATOM     81  C   UNL     1      -9.030  -6.229   5.702  1.00  0.00     0.148 A 
ATOM     82  C   UNL     1     -10.134  -8.666   6.550  1.00  0.00     0.002 A 
ATOM     83  C   UNL     1      -8.205  -7.260   6.136  1.00  0.00     0.091 A 
ATOM     84  F   UNL     1      -8.537  -5.044   5.315  1.00  0.00    -0.205 F 
ATOM     85  C   UNL     1      -8.756  -8.472   6.578  1.00  0.00     0.022 A 
BRANCH  83  86
ATOM     86  S   UNL     1      -6.413  -7.148   6.082  1.00  0.00     0.127 S 
ATOM     87  O   UNL     1      -6.073  -7.103   7.501  1.00  0.00    -0.237 OA
ATOM     88  O   UNL     1      -6.055  -8.393   5.400  1.00  0.00    -0.237 OA
ATOM     89  O   UNL     1      -6.116  -5.941   5.322  1.00  0.00    -0.744 OA
ENDBRANCH  83  86
ENDBRANCH  55  79
BRANCH  67  90
ATOM     90  C   UNL     1     -15.479  -2.620   8.603  1.00  0.00     0.023 A 
ATOM     91  C   UNL     1     -14.730  -2.111   9.682  1.00  0.00     0.012 A 
ATOM     92  C   UNL     1     -16.803  -3.050   8.823  1.00  0.00     0.148 A 
ATOM     93  C   UNL     1     -15.276  -2.064  10.965  1.00  0.00     0.002 A 
ATOM     94  C   UNL     1     -17.359  -2.950  10.093  1.00  0.00     0.091 A 
ATOM     95  F   UNL     1     -17.495  -3.546   7.787  1.00  0.00    -0.205 F 
ATOM     96  C   UNL     1     -16.592  -2.472  11.168  1.00  0.00     0.022 A 
BRANCH  94  97
ATOM     97  S   UNL     1     -19.076  -3.358  10.429  1.00  0.00     0.127 S 
ATOM     98  O   UNL     1     -18.941  -4.581  11.219  1.00  0.00    -0.237 OA
ATOM     99  O   UNL     1     -19.528  -2.190  11.186  1.00  0.00    -0.237 OA
ATOM    100  O   UNL     1     -19.713  -3.522   9.130  1.00  0.00    -0.744 OA
ENDBRANCH  94  97
ENDBRANCH  67  90
ENDBRANCH  41  42
ENDBRANCH  33  36
ENDBRANCH  31  32
ENDBRANCH  30  31
ENDBRANCH  29  30
ENDBRANCH   1  29
TORSDOF 19
