REMARK SMILES C[C@@H](NC(=O)CCCNC(=O)c1ccco1)C(=O)NCCCCNC(=O)c1ccc(-c2c3nc(c(-c4cccc(S(=O)(=O)[O-])c4F)c4ccc([nH]4)c(-c4cccc(S(=O)(=O)[O-])c4F)c4nc(c(-c5cccc(S(=O)(=O)[O-])c5F)c5ccc2[nH]5)C=C4)C=C3)cc1
REMARK SMILES IDX 20 1 19 2 17 3 18 4 2 6 1 7 3 8 4 9 5 11 6 12 7 13 8 14 9 15
REMARK SMILES IDX 10 16 11 18 12 19 13 20 16 21 14 22 15 23 21 24 22 25 23 26
REMARK SMILES IDX 24 27 25 28 26 30 27 31 28 32 89 33 29 34 88 35 30 36 31 37
REMARK SMILES IDX 32 38 82 39 33 40 87 41 81 42 83 43 34 44 86 45 80 46 79 47
REMARK SMILES IDX 35 49 67 50 47 51 66 52 48 53 51 54 65 55 84 56 49 57 50 58
REMARK SMILES IDX 64 60 85 61 52 62 36 63 37 64 45 65 38 66 40 67 46 68 39 69
REMARK SMILES IDX 41 70 42 71 43 72 44 73 68 74 69 75 77 76 70 77 72 78 78 79
REMARK SMILES IDX 71 80 73 81 74 82 75 83 76 84 53 85 54 86 62 87 55 88 57 89
REMARK SMILES IDX 63 90 56 91 58 92 59 93 60 94 61 95
REMARK H PARENT 19 5 3 10 9 17 24 29 83 48 51 59
REMARK Flexibility Score: inf
ROOT
ATOM      1  C   UNL     1      -2.695   0.336   1.815  1.00  0.00     0.116 C 
ENDROOT
BRANCH   1   2
ATOM      2  N   UNL     1      -2.308  -0.914   0.988  1.00  0.00    -0.354 N 
ATOM      3  C   UNL     1      -1.511  -1.999   0.713  1.00  0.00     0.242 C 
ATOM      4  O   UNL     1      -2.172  -2.820   0.030  1.00  0.00    -0.273 OA
ATOM      5  H   UNL     1      -2.999  -0.952   0.288  1.00  0.00     0.163 HD
BRANCH   3   6
ATOM      6  C   UNL     1       0.080  -2.533   0.941  1.00  0.00     0.168 C 
ATOM      7  C   UNL     1       0.963  -2.627  -0.357  1.00  0.00     0.041 C 
BRANCH   6   8
ATOM      8  N   UNL     1       1.119  -2.273   1.942  1.00  0.00    -0.345 N 
ATOM      9  C   UNL     1       0.942  -1.877   3.216  1.00  0.00     0.220 C 
ATOM     10  H   UNL     1       2.050  -2.403   1.650  1.00  0.00     0.164 HD
ATOM     11  O   UNL     1       1.697  -2.225   4.108  1.00  0.00    -0.275 OA
BRANCH   9  12
ATOM     12  C   UNL     1      -0.149  -0.888   3.362  1.00  0.00     0.102 C 
BRANCH  12  13
ATOM     13  C   UNL     1       0.240   0.478   2.720  1.00  0.00     0.031 C 
BRANCH  13  14
ATOM     14  C   UNL     1       0.521   0.936   1.196  1.00  0.00     0.117 C 
BRANCH  14  15
ATOM     15  N   UNL     1       0.018   0.296  -0.037  1.00  0.00    -0.349 N 
ATOM     16  C   UNL     1      -0.687   0.397  -1.226  1.00  0.00     0.286 C 
ATOM     17  H   UNL     1       0.328  -0.637   0.006  1.00  0.00     0.163 HD
ATOM     18  O   UNL     1      -0.671  -0.646  -1.889  1.00  0.00    -0.266 OA
BRANCH  16  19
ATOM     19  C   UNL     1      -1.387   1.540  -1.751  1.00  0.00     0.191 A 
ATOM     20  C   UNL     1      -1.022   2.827  -2.078  1.00  0.00     0.056 A 
ATOM     21  O   UNL     1      -2.694   1.339  -2.162  1.00  0.00    -0.459 OA
ATOM     22  C   UNL     1      -2.165   3.454  -2.646  1.00  0.00     0.043 A 
ATOM     23  C   UNL     1      -3.167   2.514  -2.649  1.00  0.00     0.196 A 
ENDBRANCH  16  19
ENDBRANCH  14  15
ENDBRANCH  13  14
ENDBRANCH  12  13
ENDBRANCH   9  12
ENDBRANCH   6   8
ENDBRANCH   3   6
ENDBRANCH   1   2
BRANCH   1  24
ATOM     24  C   UNL     1      -2.600   1.744   1.159  1.00  0.00     0.023 C 
BRANCH  24  25
ATOM     25  C   UNL     1      -3.704   2.795   1.342  1.00  0.00     0.023 C 
BRANCH  25  26
ATOM     26  C   UNL     1      -4.079   3.125   2.763  1.00  0.00     0.116 C 
BRANCH  26  27
ATOM     27  N   UNL     1      -3.073   3.853   3.526  1.00  0.00    -0.352 N 
ATOM     28  C   UNL     1      -3.331   4.654   4.630  1.00  0.00     0.251 C 
ATOM     29  H   UNL     1      -2.136   3.769   3.236  1.00  0.00     0.163 HD
ATOM     30  O   UNL     1      -2.453   5.264   5.212  1.00  0.00    -0.269 OA
BRANCH  28  31
ATOM     31  C   UNL     1      -4.753   4.770   5.033  1.00  0.00     0.039 A 
ATOM     32  C   UNL     1      -5.413   5.985   4.841  1.00  0.00     0.014 A 
ATOM     33  C   UNL     1      -5.461   3.600   5.310  1.00  0.00     0.014 A 
ATOM     34  C   UNL     1      -6.809   6.004   4.837  1.00  0.00     0.010 A 
ATOM     35  C   UNL     1      -6.843   3.605   5.186  1.00  0.00     0.010 A 
ATOM     36  C   UNL     1      -7.535   4.805   4.954  1.00  0.00    -0.014 A 
BRANCH  36  37
ATOM     37  C   UNL     1      -9.017   4.784   4.850  1.00  0.00     0.031 A 
ATOM     38  C   UNL     1      -9.832   4.278   6.010  1.00  0.00     0.074 A 
ATOM     39  C   UNL     1      -9.626   5.140   3.701  1.00  0.00     0.049 A 
ATOM     40  N   UNL     1     -11.127   4.144   6.111  1.00  0.00    -0.248 NA
ATOM     41  C   UNL     1      -9.090   3.829   7.202  1.00  0.00     0.031 C 
ATOM     42  C   UNL     1      -8.947   5.558   2.471  1.00  0.00     0.029 A 
ATOM     43  N   UNL     1     -10.959   5.189   3.372  1.00  0.00    -0.354 N 
ATOM     44  C   UNL     1     -11.350   3.569   7.356  1.00  0.00     0.074 A 
ATOM     45  C   UNL     1     -10.056   3.322   7.949  1.00  0.00     0.031 C 
ATOM     46  C   UNL     1      -9.866   5.836   1.532  1.00  0.00     0.029 A 
ATOM     47  C   UNL     1     -11.198   5.587   2.076  1.00  0.00     0.049 A 
ATOM     48  H   UNL     1     -11.678   4.960   4.004  1.00  0.00     0.167 HD
ATOM     49  C   UNL     1     -12.525   3.308   7.975  1.00  0.00     0.034 A 
ATOM     50  C   UNL     1     -12.358   5.732   1.403  1.00  0.00     0.034 A 
ATOM     51  C   UNL     1     -13.809   3.590   7.400  1.00  0.00     0.049 A 
ATOM     52  C   UNL     1     -13.655   5.468   2.122  1.00  0.00     0.074 A 
ATOM     53  C   UNL     1     -15.059   3.442   7.973  1.00  0.00     0.029 A 
ATOM     54  N   UNL     1     -14.010   4.069   6.115  1.00  0.00    -0.354 N 
ATOM     55  N   UNL     1     -13.847   5.077   3.359  1.00  0.00    -0.248 NA
ATOM     56  C   UNL     1     -14.895   5.699   1.367  1.00  0.00     0.031 C 
ATOM     57  C   UNL     1     -16.018   3.798   7.021  1.00  0.00     0.029 A 
ATOM     58  C   UNL     1     -15.364   4.210   5.870  1.00  0.00     0.049 A 
ATOM     59  H   UNL     1     -13.295   4.277   5.471  1.00  0.00     0.167 HD
ATOM     60  C   UNL     1     -15.225   5.051   3.542  1.00  0.00     0.074 A 
ATOM     61  C   UNL     1     -15.819   5.487   2.294  1.00  0.00     0.031 C 
ATOM     62  C   UNL     1     -15.936   4.690   4.638  1.00  0.00     0.034 A 
BRANCH  49  63
ATOM     63  C   UNL     1     -12.464   2.730   9.364  1.00  0.00     0.023 A 
ATOM     64  C   UNL     1     -11.986   3.520  10.431  1.00  0.00     0.012 A 
ATOM     65  C   UNL     1     -12.907   1.419   9.622  1.00  0.00     0.148 A 
ATOM     66  C   UNL     1     -11.906   3.001  11.722  1.00  0.00     0.002 A 
ATOM     67  C   UNL     1     -12.875   0.926  10.921  1.00  0.00     0.091 A 
ATOM     68  F   UNL     1     -13.335   0.674   8.592  1.00  0.00    -0.205 F 
ATOM     69  C   UNL     1     -12.361   1.709  11.968  1.00  0.00     0.022 A 
BRANCH  67  70
ATOM     70  S   UNL     1     -13.515  -0.693  11.358  1.00  0.00     0.127 S 
ATOM     71  O   UNL     1     -12.289  -1.409  11.708  1.00  0.00    -0.237 OA
ATOM     72  O   UNL     1     -14.384  -0.381  12.493  1.00  0.00    -0.237 OA
ATOM     73  O   UNL     1     -14.209  -1.185  10.177  1.00  0.00    -0.744 OA
ENDBRANCH  67  70
ENDBRANCH  49  63
BRANCH  50  74
ATOM     74  C   UNL     1     -12.351   6.202  -0.013  1.00  0.00     0.023 A 
ATOM     75  C   UNL     1     -12.851   7.481  -0.329  1.00  0.00     0.012 A 
ATOM     76  C   UNL     1     -11.835   5.395  -1.046  1.00  0.00     0.148 A 
ATOM     77  C   UNL     1     -12.872   7.933  -1.649  1.00  0.00     0.002 A 
ATOM     78  C   UNL     1     -11.805   5.875  -2.351  1.00  0.00     0.091 A 
ATOM     79  F   UNL     1     -11.373   4.178  -0.729  1.00  0.00    -0.205 F 
ATOM     80  C   UNL     1     -12.341   7.135  -2.659  1.00  0.00     0.022 A 
BRANCH  78  81
ATOM     81  S   UNL     1     -11.016   4.974  -3.691  1.00  0.00     0.127 S 
ATOM     82  O   UNL     1     -12.161   4.614  -4.524  1.00  0.00    -0.237 OA
ATOM     83  O   UNL     1     -10.135   5.995  -4.259  1.00  0.00    -0.237 OA
ATOM     84  O   UNL     1     -10.318   3.862  -3.061  1.00  0.00    -0.744 OA
ENDBRANCH  78  81
ENDBRANCH  50  74
BRANCH  62  85
ATOM     85  C   UNL     1     -17.437   4.790   4.565  1.00  0.00     0.023 A 
ATOM     86  C   UNL     1     -18.169   3.878   3.780  1.00  0.00     0.012 A 
ATOM     87  C   UNL     1     -18.126   5.742   5.344  1.00  0.00     0.148 A 
ATOM     88  C   UNL     1     -19.562   3.934   3.744  1.00  0.00     0.002 A 
ATOM     89  C   UNL     1     -19.514   5.756   5.345  1.00  0.00     0.091 A 
ATOM     90  F   UNL     1     -17.409   6.610   6.072  1.00  0.00    -0.205 F 
ATOM     91  C   UNL     1     -20.234   4.864   4.535  1.00  0.00     0.022 A 
BRANCH  89  92
ATOM     92  S   UNL     1     -20.465   6.848   6.409  1.00  0.00     0.127 S 
ATOM     93  O   UNL     1     -21.041   7.779   5.440  1.00  0.00    -0.237 OA
ATOM     94  O   UNL     1     -21.426   5.926   7.016  1.00  0.00    -0.237 OA
ATOM     95  O   UNL     1     -19.512   7.431   7.343  1.00  0.00    -0.744 OA
ENDBRANCH  89  92
ENDBRANCH  62  85
ENDBRANCH  36  37
ENDBRANCH  28  31
ENDBRANCH  26  27
ENDBRANCH  25  26
ENDBRANCH  24  25
ENDBRANCH   1  24
TORSDOF 20
