REMARK SMILES CCc1cc(C(=O)c2[nH]c3cc(Cl)ccc3c2CC(=O)NCCCCNC(=O)c2ccc(-c3c4nc(c(-c5cccc(S(=O)(=O)[O-])c5F)c5ccc([nH]5)c(-c5cccc(S(=O)(=O)[O-])c5F)c5nc(c(-c6cccc(S(=O)(=O)[O-])c6F)c6ccc3[nH]6)C=C5)C=C4)cc2)ncc1Cl
REMARK SMILES IDX 23 1 22 2 21 3 19 4 20 5 18 7 17 8 8 9 9 10 10 11 16 13
REMARK SMILES IDX 11 14 15 15 12 16 14 17 13 18 6 19 7 20 5 21 3 22 4 23 94 24
REMARK SMILES IDX 93 25 95 26 92 27 2 28 1 29 24 30 25 31 26 32 27 33 28 35
REMARK SMILES IDX 29 36 30 37 91 38 31 39 90 40 32 41 33 42 34 43 84 44 35 45
REMARK SMILES IDX 89 46 83 47 85 48 36 49 88 50 82 51 81 52 37 54 69 55 49 56
REMARK SMILES IDX 68 57 50 58 53 59 67 60 86 61 51 62 52 63 66 65 87 66 54 67
REMARK SMILES IDX 38 68 39 69 47 70 40 71 42 72 48 73 41 74 43 75 44 76 45 77
REMARK SMILES IDX 46 78 70 79 71 80 79 81 72 82 74 83 80 84 73 85 75 86 76 87
REMARK SMILES IDX 77 88 78 89 55 90 56 91 64 92 57 93 59 94 65 95 58 96 60 97
REMARK SMILES IDX 61 98 62 99 63 100
REMARK H PARENT 21 6 9 12 26 34 85 53 53 64
REMARK Flexibility Score: inf
ROOT
ATOM      1  C   UNL     1       0.081   6.968   4.773  1.00  0.00     0.023 C 
ENDROOT
BRANCH   1   2
ATOM      2  C   UNL     1       1.570   7.188   4.510  1.00  0.00     0.116 C 
BRANCH   2   3
ATOM      3  N   UNL     1       2.413   6.248   5.220  1.00  0.00    -0.356 N 
ATOM      4  C   UNL     1       3.037   5.124   4.756  1.00  0.00     0.224 C 
ATOM      5  O   UNL     1       3.835   4.548   5.500  1.00  0.00    -0.275 OA
ATOM      6  H   UNL     1       2.557   6.447   6.173  1.00  0.00     0.163 HD
BRANCH   4   7
ATOM      7  C   UNL     1       2.851   4.660   3.318  1.00  0.00     0.138 C 
BRANCH   7   8
ATOM      8  C   UNL     1       1.438   4.313   2.945  1.00  0.00    -0.002 A 
ATOM      9  C   UNL     1       0.645   3.310   3.492  1.00  0.00     0.093 A 
ATOM     10  N   UNL     1      -0.623   3.466   2.981  1.00  0.00    -0.351 N 
ATOM     11  C   UNL     1      -0.618   4.380   1.956  1.00  0.00     0.048 A 
ATOM     12  H   UNL     1      -1.421   2.989   3.304  1.00  0.00     0.167 HD
ATOM     13  C   UNL     1       0.664   4.926   1.903  1.00  0.00     0.004 A 
ATOM     14  C   UNL     1      -1.650   4.777   1.098  1.00  0.00     0.047 A 
ATOM     15  C   UNL     1       0.931   5.918   0.935  1.00  0.00     0.012 A 
ATOM     16  C   UNL     1      -1.353   5.755   0.146  1.00  0.00     0.043 A 
ATOM     17  C   UNL     1      -0.085   6.321   0.060  1.00  0.00     0.021 A 
ATOM     18  Cl  UNL     1      -2.583   6.266  -0.946  1.00  0.00    -0.084 Cl
BRANCH   9  19
ATOM     19  C   UNL     1       0.983   2.295   4.473  1.00  0.00     0.227 C 
ATOM     20  O   UNL     1       1.104   2.569   5.661  1.00  0.00    -0.285 OA
BRANCH  19  21
ATOM     21  C   UNL     1       1.150   0.873   3.979  1.00  0.00     0.113 A 
ATOM     22  C   UNL     1       0.996  -0.824   2.238  1.00  0.00    -0.026 A 
ATOM     23  C   UNL     1       0.868   0.513   2.658  1.00  0.00     0.037 A 
ATOM     24  C   UNL     1       1.408  -1.760   3.196  1.00  0.00     0.062 A 
ATOM     25  C   UNL     1       1.683  -1.318   4.486  1.00  0.00     0.132 A 
ATOM     26  Cl  UNL     1       1.578  -3.441   2.855  1.00  0.00    -0.082 Cl
ATOM     27  N   UNL     1       1.559  -0.035   4.896  1.00  0.00    -0.251 NA
BRANCH  22  28
ATOM     28  C   UNL     1       0.601  -1.212   0.828  1.00  0.00     0.034 C 
ATOM     29  C   UNL     1       1.064  -0.250  -0.262  1.00  0.00     0.009 C 
ENDBRANCH  22  28
ENDBRANCH  19  21
ENDBRANCH   9  19
ENDBRANCH   7   8
ENDBRANCH   4   7
ENDBRANCH   2   3
ENDBRANCH   1   2
BRANCH   1  30
ATOM     30  C   UNL     1      -0.404   7.369   6.167  1.00  0.00     0.023 C 
BRANCH  30  31
ATOM     31  C   UNL     1      -0.156   8.821   6.563  1.00  0.00     0.116 C 
BRANCH  31  32
ATOM     32  N   UNL     1      -0.722   9.782   5.630  1.00  0.00    -0.352 N 
ATOM     33  C   UNL     1      -1.266  11.024   5.886  1.00  0.00     0.251 C 
ATOM     34  H   UNL     1      -0.717   9.508   4.684  1.00  0.00     0.163 HD
ATOM     35  O   UNL     1      -1.779  11.663   4.987  1.00  0.00    -0.269 OA
BRANCH  33  36
ATOM     36  C   UNL     1      -1.256  11.552   7.272  1.00  0.00     0.039 A 
ATOM     37  C   UNL     1      -2.437  12.095   7.788  1.00  0.00     0.014 A 
ATOM     38  C   UNL     1      -0.104  11.502   8.059  1.00  0.00     0.014 A 
ATOM     39  C   UNL     1      -2.481  12.520   9.118  1.00  0.00     0.010 A 
ATOM     40  C   UNL     1      -0.166  11.870   9.401  1.00  0.00     0.010 A 
ATOM     41  C   UNL     1      -1.355  12.378   9.945  1.00  0.00    -0.014 A 
BRANCH  41  42
ATOM     42  C   UNL     1      -1.406  12.727  11.387  1.00  0.00     0.031 A 
ATOM     43  C   UNL     1      -0.565  13.850  11.928  1.00  0.00     0.074 A 
ATOM     44  C   UNL     1      -2.131  11.963  12.228  1.00  0.00     0.049 A 
ATOM     45  N   UNL     1      -0.430  14.256  13.164  1.00  0.00    -0.248 NA
ATOM     46  C   UNL     1       0.253  14.597  10.958  1.00  0.00     0.031 C 
ATOM     47  C   UNL     1      -2.917  10.790  11.839  1.00  0.00     0.029 A 
ATOM     48  N   UNL     1      -2.298  12.038  13.588  1.00  0.00    -0.354 N 
ATOM     49  C   UNL     1       0.513  15.275  13.128  1.00  0.00     0.074 A 
ATOM     50  C   UNL     1       0.936  15.411  11.751  1.00  0.00     0.031 C 
ATOM     51  C   UNL     1      -3.480  10.255  12.934  1.00  0.00     0.029 A 
ATOM     52  C   UNL     1      -3.083  11.032  14.104  1.00  0.00     0.049 A 
ATOM     53  H   UNL     1      -1.895  12.745  14.142  1.00  0.00     0.167 HD
ATOM     54  C   UNL     1       0.963  16.050  14.143  1.00  0.00     0.034 A 
ATOM     55  C   UNL     1      -3.442  10.767  15.375  1.00  0.00     0.034 A 
ATOM     56  C   UNL     1       0.495  15.956  15.499  1.00  0.00     0.049 A 
ATOM     57  C   UNL     1      -2.986  11.690  16.473  1.00  0.00     0.074 A 
ATOM     58  C   UNL     1       0.811  16.764  16.577  1.00  0.00     0.029 A 
ATOM     59  N   UNL     1      -0.391  14.997  15.965  1.00  0.00    -0.354 N 
ATOM     60  N   UNL     1      -2.235  12.761  16.390  1.00  0.00    -0.248 NA
ATOM     61  C   UNL     1      -3.458  11.391  17.833  1.00  0.00     0.031 C 
ATOM     62  C   UNL     1       0.117  16.292  17.696  1.00  0.00     0.029 A 
ATOM     63  C   UNL     1      -0.633  15.191  17.314  1.00  0.00     0.049 A 
ATOM     64  H   UNL     1      -0.789  14.282  15.417  1.00  0.00     0.167 HD
ATOM     65  C   UNL     1      -2.171  13.282  17.677  1.00  0.00     0.074 A 
ATOM     66  C   UNL     1      -2.976  12.421  18.518  1.00  0.00     0.031 C 
ATOM     67  C   UNL     1      -1.489  14.365  18.125  1.00  0.00     0.034 A 
BRANCH  54  68
ATOM     68  C   UNL     1       1.962  17.125  13.810  1.00  0.00     0.023 A 
ATOM     69  C   UNL     1       1.522  18.286  13.141  1.00  0.00     0.012 A 
ATOM     70  C   UNL     1       3.309  17.022  14.203  1.00  0.00     0.148 A 
ATOM     71  C   UNL     1       2.413  19.315  12.843  1.00  0.00     0.002 A 
ATOM     72  C   UNL     1       4.185  18.069  13.934  1.00  0.00     0.091 A 
ATOM     73  F   UNL     1       3.715  15.900  14.815  1.00  0.00    -0.205 F 
ATOM     74  C   UNL     1       3.741  19.211  13.248  1.00  0.00     0.022 A 
BRANCH  72  75
ATOM     75  S   UNL     1       5.898  18.054  14.479  1.00  0.00     0.127 S 
ATOM     76  O   UNL     1       6.599  17.731  13.238  1.00  0.00    -0.237 OA
ATOM     77  O   UNL     1       6.089  19.428  14.946  1.00  0.00    -0.237 OA
ATOM     78  O   UNL     1       5.971  17.046  15.527  1.00  0.00    -0.744 OA
ENDBRANCH  72  75
ENDBRANCH  54  68
BRANCH  55  79
ATOM     79  C   UNL     1      -4.360   9.630  15.662  1.00  0.00     0.023 A 
ATOM     80  C   UNL     1      -5.695   9.902  16.021  1.00  0.00     0.012 A 
ATOM     81  C   UNL     1      -3.940   8.291  15.544  1.00  0.00     0.148 A 
ATOM     82  C   UNL     1      -6.588   8.862  16.280  1.00  0.00     0.002 A 
ATOM     83  C   UNL     1      -4.849   7.260  15.755  1.00  0.00     0.091 A 
ATOM     84  F   UNL     1      -2.661   8.051  15.219  1.00  0.00    -0.205 F 
ATOM     85  C   UNL     1      -6.169   7.543  16.136  1.00  0.00     0.022 A 
BRANCH  83  86
ATOM     86  S   UNL     1      -4.423   5.539  15.463  1.00  0.00     0.127 S 
ATOM     87  O   UNL     1      -4.203   5.050  16.820  1.00  0.00    -0.237 OA
ATOM     88  O   UNL     1      -5.630   5.028  14.812  1.00  0.00    -0.237 OA
ATOM     89  O   UNL     1      -3.251   5.576  14.597  1.00  0.00    -0.744 OA
ENDBRANCH  83  86
ENDBRANCH  55  79
BRANCH  67  90
ATOM     90  C   UNL     1      -1.597  14.703  19.587  1.00  0.00     0.023 A 
ATOM     91  C   UNL     1      -0.887  13.933  20.529  1.00  0.00     0.012 A 
ATOM     92  C   UNL     1      -2.329  15.826  20.019  1.00  0.00     0.148 A 
ATOM     93  C   UNL     1      -0.921  14.264  21.883  1.00  0.00     0.002 A 
ATOM     94  C   UNL     1      -2.325  16.173  21.366  1.00  0.00     0.091 A 
ATOM     95  F   UNL     1      -3.017  16.532  19.110  1.00  0.00    -0.205 F 
ATOM     96  C   UNL     1      -1.629  15.389  22.300  1.00  0.00     0.022 A 
BRANCH  94  97
ATOM     97  S   UNL     1      -3.139  17.658  21.968  1.00  0.00     0.127 S 
ATOM     98  O   UNL     1      -4.381  17.117  22.516  1.00  0.00    -0.237 OA
ATOM     99  O   UNL     1      -2.195  18.152  22.972  1.00  0.00    -0.237 OA
ATOM    100  O   UNL     1      -3.286  18.525  20.807  1.00  0.00    -0.744 OA
ENDBRANCH  94  97
ENDBRANCH  67  90
ENDBRANCH  41  42
ENDBRANCH  33  36
ENDBRANCH  31  32
ENDBRANCH  30  31
ENDBRANCH   1  30
TORSDOF 18
