REMARK SMILES CN(Cc1ncc(C(=O)NCCCCNC(=O)c2ccc(-c3c4nc(c(-c5cccc(S(=O)(=O)[O-])c5F)c5ccc([nH]5)c(-c5cccc(S(=O)(=O)[O-])c5F)c5nc(c(-c6cccc(S(=O)(=O)[O-])c6F)c6ccc3[nH]6)C=C5)C=C4)cc2)cn1)S(=O)(=O)c1ccc(Cl)cc1
REMARK SMILES IDX 12 1 11 2 10 3 8 4 9 5 7 7 4 8 5 9 82 10 6 11 81 12 3 13
REMARK SMILES IDX 2 14 1 15 83 16 84 17 85 18 86 19 87 20 92 21 88 22 91 23
REMARK SMILES IDX 89 24 90 25 13 26 14 27 15 28 16 29 17 31 18 32 19 33 80 34
REMARK SMILES IDX 20 35 79 36 21 37 22 38 23 39 73 40 24 41 78 42 72 43 74 44
REMARK SMILES IDX 25 45 77 46 71 47 70 48 26 50 58 51 38 52 57 53 39 54 42 55
REMARK SMILES IDX 56 56 75 57 40 58 41 59 55 61 76 62 43 63 27 64 28 65 36 66
REMARK SMILES IDX 29 67 31 68 37 69 30 70 32 71 33 72 34 73 35 74 59 75 60 76
REMARK SMILES IDX 68 77 61 78 63 79 69 80 62 81 64 82 65 83 66 84 67 85 44 86
REMARK SMILES IDX 45 87 53 88 46 89 48 90 54 91 47 92 49 93 50 94 51 95 52 96
REMARK H PARENT 10 6 15 30 74 49 42 60
REMARK Flexibility Score: inf
ROOT
ATOM      1  C   UNL     1       0.083  -5.420   2.007  1.00  0.00     0.023 C 
ENDROOT
BRANCH   1   2
ATOM      2  C   UNL     1      -1.427  -5.354   1.771  1.00  0.00     0.116 C 
BRANCH   2   3
ATOM      3  N   UNL     1      -2.131  -4.795   2.909  1.00  0.00    -0.352 N 
ATOM      4  C   UNL     1      -2.465  -3.525   3.297  1.00  0.00     0.254 C 
ATOM      5  O   UNL     1      -3.110  -3.418   4.343  1.00  0.00    -0.269 OA
ATOM      6  H   UNL     1      -2.437  -5.482   3.545  1.00  0.00     0.163 HD
BRANCH   4   7
ATOM      7  C   UNL     1      -2.113  -2.281   2.579  1.00  0.00     0.076 A 
ATOM      8  C   UNL     1      -1.454   0.149   1.504  1.00  0.00     0.143 A 
ATOM      9  N   UNL     1      -1.128  -0.961   0.815  1.00  0.00    -0.239 NA
ATOM     10  N   UNL     1      -2.163   0.151   2.646  1.00  0.00    -0.239 NA
ATOM     11  C   UNL     1      -1.440  -2.146   1.390  1.00  0.00     0.128 A 
ATOM     12  C   UNL     1      -2.474  -1.071   3.150  1.00  0.00     0.128 A 
BRANCH   8  13
ATOM     13  C   UNL     1      -0.847   1.457   1.034  1.00  0.00     0.179 C 
BRANCH  13  14
ATOM     14  N   UNL     1       0.656   1.527   1.008  1.00  0.00    -0.193 NA
ATOM     15  C   UNL     1       1.243   0.684  -0.063  1.00  0.00     0.125 C 
BRANCH  14  16
ATOM     16  S   UNL     1       1.441   1.298   2.513  1.00  0.00     0.243 S 
ATOM     17  O   UNL     1       0.983   0.070   3.108  1.00  0.00    -0.207 OA
ATOM     18  O   UNL     1       2.857   1.538   2.303  1.00  0.00    -0.207 OA
BRANCH  16  19
ATOM     19  C   UNL     1       0.847   2.663   3.482  1.00  0.00     0.082 A 
ATOM     20  C   UNL     1       1.050   3.962   3.003  1.00  0.00     0.023 A 
ATOM     21  C   UNL     1       0.216   2.438   4.709  1.00  0.00     0.023 A 
ATOM     22  C   UNL     1       0.616   5.048   3.761  1.00  0.00     0.022 A 
ATOM     23  C   UNL     1      -0.208   3.532   5.467  1.00  0.00     0.022 A 
ATOM     24  C   UNL     1      -0.006   4.830   4.991  1.00  0.00     0.041 A 
ATOM     25  Cl  UNL     1      -0.523   6.175   5.931  1.00  0.00    -0.084 Cl
ENDBRANCH  16  19
ENDBRANCH  14  16
ENDBRANCH  13  14
ENDBRANCH   8  13
ENDBRANCH   4   7
ENDBRANCH   2   3
ENDBRANCH   1   2
BRANCH   1  26
ATOM     26  C   UNL     1       0.555  -6.715   2.686  1.00  0.00     0.023 C 
BRANCH  26  27
ATOM     27  C   UNL     1       0.249  -8.003   1.921  1.00  0.00     0.116 C 
BRANCH  27  28
ATOM     28  N   UNL     1       0.763  -8.005   0.561  1.00  0.00    -0.352 N 
ATOM     29  C   UNL     1       1.008  -9.083  -0.257  1.00  0.00     0.251 C 
ATOM     30  H   UNL     1       0.962  -7.121   0.176  1.00  0.00     0.163 HD
ATOM     31  O   UNL     1       1.547  -8.912  -1.346  1.00  0.00    -0.269 OA
BRANCH  29  32
ATOM     32  C   UNL     1       0.660 -10.447   0.198  1.00  0.00     0.039 A 
ATOM     33  C   UNL     1       1.613 -11.460   0.063  1.00  0.00     0.014 A 
ATOM     34  C   UNL     1      -0.593 -10.730   0.747  1.00  0.00     0.014 A 
ATOM     35  C   UNL     1       1.326 -12.748   0.521  1.00  0.00     0.010 A 
ATOM     36  C   UNL     1      -0.854 -11.998   1.262  1.00  0.00     0.010 A 
ATOM     37  C   UNL     1       0.096 -13.022   1.141  1.00  0.00    -0.014 A 
BRANCH  37  38
ATOM     38  C   UNL     1      -0.219 -14.381   1.649  1.00  0.00     0.031 A 
ATOM     39  C   UNL     1      -1.329 -15.182   1.022  1.00  0.00     0.074 A 
ATOM     40  C   UNL     1       0.441 -14.864   2.720  1.00  0.00     0.049 A 
ATOM     41  N   UNL     1      -1.764 -16.374   1.338  1.00  0.00    -0.248 NA
ATOM     42  C   UNL     1      -2.065 -14.550  -0.086  1.00  0.00     0.031 C 
ATOM     43  C   UNL     1       1.472 -14.146   3.473  1.00  0.00     0.029 A 
ATOM     44  N   UNL     1       0.326 -16.064   3.375  1.00  0.00    -0.354 N 
ATOM     45  C   UNL     1      -2.844 -16.619   0.498  1.00  0.00     0.074 A 
ATOM     46  C   UNL     1      -3.021 -15.438  -0.318  1.00  0.00     0.031 C 
ATOM     47  C   UNL     1       1.899 -14.923   4.482  1.00  0.00     0.029 A 
ATOM     48  C   UNL     1       1.168 -16.186   4.456  1.00  0.00     0.049 A 
ATOM     49  H   UNL     1      -0.299 -16.772   3.097  1.00  0.00     0.167 HD
ATOM     50  C   UNL     1      -3.597 -17.739   0.386  1.00  0.00     0.034 A 
ATOM     51  C   UNL     1       1.338 -17.206   5.319  1.00  0.00     0.034 A 
ATOM     52  C   UNL     1      -3.377 -18.934   1.153  1.00  0.00     0.049 A 
ATOM     53  C   UNL     1       0.550 -18.473   5.117  1.00  0.00     0.074 A 
ATOM     54  C   UNL     1      -4.022 -20.154   1.052  1.00  0.00     0.029 A 
ATOM     55  N   UNL     1      -2.432 -19.063   2.159  1.00  0.00    -0.354 N 
ATOM     56  N   UNL     1      -0.349 -18.748   4.202  1.00  0.00    -0.248 NA
ATOM     57  C   UNL     1       0.833 -19.586   6.034  1.00  0.00     0.031 C 
ATOM     58  C   UNL     1      -3.467 -21.021   2.001  1.00  0.00     0.029 A 
ATOM     59  C   UNL     1      -2.471 -20.342   2.686  1.00  0.00     0.049 A 
ATOM     60  H   UNL     1      -1.823 -18.349   2.456  1.00  0.00     0.167 HD
ATOM     61  C   UNL     1      -0.710 -20.074   4.409  1.00  0.00     0.074 A 
ATOM     62  C   UNL     1       0.083 -20.554   5.523  1.00  0.00     0.031 C 
ATOM     63  C   UNL     1      -1.628 -20.823   3.749  1.00  0.00     0.034 A 
BRANCH  50  64
ATOM     64  C   UNL     1      -4.681 -17.748  -0.659  1.00  0.00     0.023 A 
ATOM     65  C   UNL     1      -4.324 -17.830  -2.021  1.00  0.00     0.012 A 
ATOM     66  C   UNL     1      -6.043 -17.721  -0.302  1.00  0.00     0.148 A 
ATOM     67  C   UNL     1      -5.303 -17.849  -3.013  1.00  0.00     0.002 A 
ATOM     68  C   UNL     1      -7.014 -17.781  -1.296  1.00  0.00     0.091 A 
ATOM     69  F   UNL     1      -6.364 -17.618   0.995  1.00  0.00    -0.205 F 
ATOM     70  C   UNL     1      -6.646 -17.834  -2.651  1.00  0.00     0.022 A 
BRANCH  68  71
ATOM     71  S   UNL     1      -8.771 -17.840  -0.926  1.00  0.00     0.127 S 
ATOM     72  O   UNL     1      -9.193 -16.485  -1.277  1.00  0.00    -0.237 OA
ATOM     73  O   UNL     1      -9.246 -18.881  -1.839  1.00  0.00    -0.237 OA
ATOM     74  O   UNL     1      -8.870 -18.184   0.485  1.00  0.00    -0.744 OA
ENDBRANCH  68  71
ENDBRANCH  50  64
BRANCH  51  75
ATOM     75  C   UNL     1       2.371 -17.110   6.388  1.00  0.00     0.023 A 
ATOM     76  C   UNL     1       3.550 -17.872   6.273  1.00  0.00     0.012 A 
ATOM     77  C   UNL     1       2.215 -16.251   7.492  1.00  0.00     0.148 A 
ATOM     78  C   UNL     1       4.540 -17.805   7.253  1.00  0.00     0.002 A 
ATOM     79  C   UNL     1       3.228 -16.151   8.440  1.00  0.00     0.091 A 
ATOM     80  F   UNL     1       1.080 -15.543   7.592  1.00  0.00    -0.205 F 
ATOM     81  C   UNL     1       4.384 -16.938   8.331  1.00  0.00     0.022 A 
BRANCH  79  82
ATOM     82  S   UNL     1       3.163 -14.965   9.788  1.00  0.00     0.127 S 
ATOM     83  O   UNL     1       2.834 -15.820  10.925  1.00  0.00    -0.237 OA
ATOM     84  O   UNL     1       4.526 -14.431   9.793  1.00  0.00    -0.237 OA
ATOM     85  O   UNL     1       2.146 -13.996   9.402  1.00  0.00    -0.744 OA
ENDBRANCH  79  82
ENDBRANCH  51  75
BRANCH  63  86
ATOM     86  C   UNL     1      -1.809 -22.252   4.187  1.00  0.00     0.023 A 
ATOM     87  C   UNL     1      -2.486 -22.531   5.390  1.00  0.00     0.012 A 
ATOM     88  C   UNL     1      -1.377 -23.316   3.372  1.00  0.00     0.148 A 
ATOM     89  C   UNL     1      -2.705 -23.848   5.790  1.00  0.00     0.002 A 
ATOM     90  C   UNL     1      -1.639 -24.627   3.755  1.00  0.00     0.091 A 
ATOM     91  F   UNL     1      -0.714 -23.031   2.242  1.00  0.00    -0.205 F 
ATOM     92  C   UNL     1      -2.293 -24.895   4.968  1.00  0.00     0.022 A 
BRANCH  90  93
ATOM     93  S   UNL     1      -1.223 -26.024   2.705  1.00  0.00     0.127 S 
ATOM     94  O   UNL     1       0.020 -26.496   3.313  1.00  0.00    -0.237 OA
ATOM     95  O   UNL     1      -2.370 -26.914   2.894  1.00  0.00    -0.237 OA
ATOM     96  O   UNL     1      -1.103 -25.481   1.359  1.00  0.00    -0.744 OA
ENDBRANCH  90  93
ENDBRANCH  63  86
ENDBRANCH  37  38
ENDBRANCH  29  32
ENDBRANCH  27  28
ENDBRANCH  26  27
ENDBRANCH   1  26
TORSDOF 18
