REMARK SMILES O=C(NCCCCNC(=O)c1ccc([C@H]2CCC[N@@H+](CCN3CCCC3=O)C2)cc1)c1ccc(-c2c3nc(c(-c4cccc(S(=O)(=O)[O-])c4F)c4ccc([nH]4)c(-c4cccc(S(=O)(=O)[O-])c4F)c4nc(c(-c5cccc(S(=O)(=O)[O-])c5F)c5ccc2[nH]5)C=C4)C=C3)cc1
REMARK SMILES IDX 6 1 5 2 4 3 3 4 1 5 2 6 31 8 32 9 93 10 33 11 92 12 34 13
REMARK SMILES IDX 35 14 36 15 86 16 37 17 91 18 85 19 87 20 38 21 90 22 84 23
REMARK SMILES IDX 83 24 39 26 71 27 51 28 70 29 52 30 55 31 69 32 88 33 53 34
REMARK SMILES IDX 54 35 68 37 89 38 56 39 40 40 41 41 49 42 42 43 44 44 50 45
REMARK SMILES IDX 43 46 45 47 46 48 47 49 48 50 72 51 73 52 81 53 74 54 76 55
REMARK SMILES IDX 82 56 75 57 77 58 78 59 79 60 80 61 57 62 58 63 66 64 59 65
REMARK SMILES IDX 61 66 67 67 60 68 62 69 63 70 64 71 65 72 7 73 8 74 9 75
REMARK SMILES IDX 10 77 11 78 12 79 30 80 13 81 29 82 14 83 15 84 16 85 28 86
REMARK SMILES IDX 17 87 19 88 18 89 20 91 21 92 22 93 23 94 26 95 24 96 25 97
REMARK SMILES IDX 27 98
REMARK H PARENT 3 7 87 25 55 36 8 76 19 90
REMARK Flexibility Score: inf
ROOT
ATOM      1  C   UNL     1       6.260  15.769   6.463  1.00  0.00     0.023 C 
ENDROOT
BRANCH   1   2
ATOM      2  C   UNL     1       6.801  17.174   6.200  1.00  0.00     0.023 C 
BRANCH   2   3
ATOM      3  C   UNL     1       6.005  17.993   5.193  1.00  0.00     0.116 C 
BRANCH   3   4
ATOM      4  N   UNL     1       4.698  18.389   5.696  1.00  0.00    -0.352 N 
ATOM      5  O   UNL     1       3.112  19.801   6.446  1.00  0.00    -0.269 OA
ATOM      6  C   UNL     1       4.173  19.654   5.846  1.00  0.00     0.251 C 
ATOM      7  H   UNL     1       4.107  17.650   5.967  1.00  0.00     0.163 HD
BRANCH   6   8
ATOM      8  C   UNL     1       4.902  20.824   5.305  1.00  0.00     0.039 A 
ATOM      9  C   UNL     1       5.474  20.772   4.032  1.00  0.00     0.014 A 
ATOM     10  C   UNL     1       5.012  21.989   6.071  1.00  0.00     0.014 A 
ATOM     11  C   UNL     1       6.276  21.816   3.588  1.00  0.00     0.010 A 
ATOM     12  C   UNL     1       5.738  23.081   5.579  1.00  0.00     0.010 A 
ATOM     13  C   UNL     1       6.392  22.997   4.340  1.00  0.00    -0.014 A 
BRANCH  13  14
ATOM     14  C   UNL     1       7.086  24.165   3.738  1.00  0.00     0.031 A 
ATOM     15  C   UNL     1       8.327  24.757   4.346  1.00  0.00     0.074 A 
ATOM     16  C   UNL     1       6.563  24.698   2.614  1.00  0.00     0.049 A 
ATOM     17  N   UNL     1       9.043  25.766   3.919  1.00  0.00    -0.248 NA
ATOM     18  C   UNL     1       8.831  24.151   5.588  1.00  0.00     0.031 C 
ATOM     19  C   UNL     1       5.334  24.236   1.959  1.00  0.00     0.029 A 
ATOM     20  N   UNL     1       6.982  25.740   1.827  1.00  0.00    -0.354 N 
ATOM     21  C   UNL     1      10.055  25.946   4.855  1.00  0.00     0.074 A 
ATOM     22  C   UNL     1       9.866  24.933   5.873  1.00  0.00     0.031 C 
ATOM     23  C   UNL     1       5.108  24.978   0.867  1.00  0.00     0.029 A 
ATOM     24  C   UNL     1       6.131  26.011   0.780  1.00  0.00     0.049 A 
ATOM     25  H   UNL     1       7.810  26.245   1.995  1.00  0.00     0.167 HD
ATOM     26  C   UNL     1      11.047  26.868   4.858  1.00  0.00     0.034 A 
ATOM     27  C   UNL     1       6.143  27.005  -0.127  1.00  0.00     0.034 A 
ATOM     28  C   UNL     1      11.242  27.855   3.827  1.00  0.00     0.049 A 
ATOM     29  C   UNL     1       7.259  28.008  -0.089  1.00  0.00     0.074 A 
ATOM     30  C   UNL     1      12.272  28.772   3.702  1.00  0.00     0.029 A 
ATOM     31  N   UNL     1      10.382  28.077   2.763  1.00  0.00    -0.354 N 
ATOM     32  N   UNL     1       8.293  28.058   0.714  1.00  0.00    -0.248 NA
ATOM     33  C   UNL     1       7.223  29.077  -1.095  1.00  0.00     0.031 C 
ATOM     34  C   UNL     1      12.008  29.581   2.592  1.00  0.00     0.029 A 
ATOM     35  C   UNL     1      10.839  29.137   1.998  1.00  0.00     0.049 A 
ATOM     36  H   UNL     1       9.566  27.558   2.579  1.00  0.00     0.167 HD
ATOM     37  C   UNL     1       9.043  29.150   0.295  1.00  0.00     0.074 A 
ATOM     38  C   UNL     1       8.364  29.707  -0.856  1.00  0.00     0.031 C 
ATOM     39  C   UNL     1      10.179  29.659   0.830  1.00  0.00     0.034 A 
BRANCH  26  40
ATOM     40  C   UNL     1      12.030  26.867   6.001  1.00  0.00     0.023 A 
ATOM     41  C   UNL     1      13.028  25.875   6.069  1.00  0.00     0.012 A 
ATOM     42  C   UNL     1      12.046  27.930   6.928  1.00  0.00     0.148 A 
ATOM     43  C   UNL     1      14.021  25.934   7.049  1.00  0.00     0.002 A 
ATOM     44  C   UNL     1      13.062  28.005   7.874  1.00  0.00     0.091 A 
ATOM     45  F   UNL     1      11.080  28.856   6.853  1.00  0.00    -0.205 F 
ATOM     46  C   UNL     1      14.045  27.004   7.940  1.00  0.00     0.022 A 
BRANCH  44  47
ATOM     47  S   UNL     1      13.233  29.385   9.012  1.00  0.00     0.127 S 
ATOM     48  O   UNL     1      13.007  28.732  10.301  1.00  0.00    -0.237 OA
ATOM     49  O   UNL     1      14.613  29.806   8.776  1.00  0.00    -0.237 OA
ATOM     50  O   UNL     1      12.220  30.357   8.625  1.00  0.00    -0.744 OA
ENDBRANCH  44  47
ENDBRANCH  26  40
BRANCH  27  51
ATOM     51  C   UNL     1       5.053  27.109  -1.138  1.00  0.00     0.023 A 
ATOM     52  C   UNL     1       5.344  26.936  -2.504  1.00  0.00     0.012 A 
ATOM     53  C   UNL     1       3.728  27.383  -0.747  1.00  0.00     0.148 A 
ATOM     54  C   UNL     1       4.343  27.081  -3.466  1.00  0.00     0.002 A 
ATOM     55  C   UNL     1       2.724  27.459  -1.703  1.00  0.00     0.091 A 
ATOM     56  F   UNL     1       3.472  27.560   0.558  1.00  0.00    -0.205 F 
ATOM     57  C   UNL     1       3.033  27.332  -3.065  1.00  0.00     0.022 A 
BRANCH  55  58
ATOM     58  S   UNL     1       0.994  27.636  -1.259  1.00  0.00     0.127 S 
ATOM     59  O   UNL     1       0.733  29.026  -1.622  1.00  0.00    -0.237 OA
ATOM     60  O   UNL     1       0.356  26.642  -2.123  1.00  0.00    -0.237 OA
ATOM     61  O   UNL     1       0.922  27.325   0.162  1.00  0.00    -0.744 OA
ENDBRANCH  55  58
ENDBRANCH  27  51
BRANCH  39  62
ATOM     62  C   UNL     1      10.778  30.867   0.159  1.00  0.00     0.023 A 
ATOM     63  C   UNL     1      10.130  32.116   0.252  1.00  0.00     0.012 A 
ATOM     64  C   UNL     1      12.007  30.775  -0.522  1.00  0.00     0.148 A 
ATOM     65  C   UNL     1      10.677  33.245  -0.356  1.00  0.00     0.002 A 
ATOM     66  C   UNL     1      12.573  31.915  -1.079  1.00  0.00     0.091 A 
ATOM     67  F   UNL     1      12.598  29.575  -0.615  1.00  0.00    -0.205 F 
ATOM     68  C   UNL     1      11.902  33.147  -1.010  1.00  0.00     0.022 A 
BRANCH  66  69
ATOM     69  S   UNL     1      14.191  31.908  -1.859  1.00  0.00     0.127 S 
ATOM     70  O   UNL     1      13.847  32.145  -3.260  1.00  0.00    -0.237 OA
ATOM     71  O   UNL     1      14.857  33.029  -1.196  1.00  0.00    -0.237 OA
ATOM     72  O   UNL     1      14.771  30.602  -1.574  1.00  0.00    -0.744 OA
ENDBRANCH  66  69
ENDBRANCH  39  62
ENDBRANCH  13  14
ENDBRANCH   6   8
ENDBRANCH   3   4
ENDBRANCH   2   3
ENDBRANCH   1   2
BRANCH   1  73
ATOM     73  C   UNL     1       6.220  14.845   5.243  1.00  0.00     0.116 C 
BRANCH  73  74
ATOM     74  N   UNL     1       7.540  14.615   4.676  1.00  0.00    -0.352 N 
ATOM     75  C   UNL     1       8.214  13.429   4.502  1.00  0.00     0.251 C 
ATOM     76  H   UNL     1       8.018  15.421   4.374  1.00  0.00     0.163 HD
ATOM     77  O   UNL     1       9.393  13.415   4.169  1.00  0.00    -0.269 OA
BRANCH  75  78
ATOM     78  C   UNL     1       7.501  12.157   4.715  1.00  0.00     0.039 A 
ATOM     79  C   UNL     1       7.895  11.293   5.736  1.00  0.00     0.014 A 
ATOM     80  C   UNL     1       6.444  11.816   3.879  1.00  0.00     0.014 A 
ATOM     81  C   UNL     1       7.132  10.149   6.015  1.00  0.00     0.005 A 
ATOM     82  C   UNL     1       5.712  10.659   4.144  1.00  0.00     0.005 A 
ATOM     83  C   UNL     1       5.973   9.858   5.277  1.00  0.00    -0.039 A 
BRANCH  83  84
ATOM     84  C   UNL     1       4.974   8.758   5.707  1.00  0.00     0.074 C 
ATOM     85  C   UNL     1       4.982   8.482   7.226  1.00  0.00     0.020 C 
ATOM     86  C   UNL     1       3.542   9.187   5.301  1.00  0.00     0.270 C 
ATOM     87  C   UNL     1       3.781   7.645   7.669  1.00  0.00     0.062 C 
ATOM     88  N   UNL     1       2.396   8.445   5.820  1.00  0.00    -0.333 N 
ATOM     89  C   UNL     1       2.455   8.299   7.268  1.00  0.00     0.262 C 
ATOM     90  H   UNL     1       2.434   7.489   5.465  1.00  0.00     0.348 HD
BRANCH  88  91
ATOM     91  C   UNL     1       1.124   9.019   5.309  1.00  0.00     0.284 C 
BRANCH  91  92
ATOM     92  C   UNL     1       0.610  10.430   5.741  1.00  0.00     0.180 C 
BRANCH  92  93
ATOM     93  N   UNL     1       1.374  11.623   5.377  1.00  0.00    -0.337 N 
ATOM     94  C   UNL     1       1.219  12.863   6.110  1.00  0.00     0.120 C 
ATOM     95  C   UNL     1       2.171  11.809   4.252  1.00  0.00     0.222 C 
ATOM     96  C   UNL     1       1.993  13.894   5.300  1.00  0.00     0.031 C 
ATOM     97  C   UNL     1       2.980  13.053   4.520  1.00  0.00     0.102 C 
ATOM     98  O   UNL     1       2.303  11.077   3.294  1.00  0.00    -0.275 OA
ENDBRANCH  92  93
ENDBRANCH  91  92
ENDBRANCH  88  91
ENDBRANCH  83  84
ENDBRANCH  75  78
ENDBRANCH  73  74
ENDBRANCH   1  73
TORSDOF 18
