REMARK SMILES O=C(NCCCCNC(=O)[C@H]1CC=CC[C@@H]1C(=O)N[C@@H]1CCCN(c2ccccc2F)C1=O)c1ccc(-c2c3nc(c(-c4cccc(S(=O)(=O)[O-])c4F)c4ccc([nH]4)c(-c4cccc(S(=O)(=O)[O-])c4F)c4nc(c(-c5cccc(S(=O)(=O)[O-])c5F)c5ccc2[nH]5)C=C4)C=C3)cc1
REMARK SMILES IDX 5 1 4 2 3 3 1 4 2 5 34 7 35 8 96 9 36 10 95 11 37 12 38 13
REMARK SMILES IDX 39 14 89 15 40 16 94 17 88 18 90 19 41 20 93 21 87 22 86 23
REMARK SMILES IDX 42 25 74 26 54 27 73 28 55 29 58 30 72 31 91 32 56 33 57 34
REMARK SMILES IDX 71 36 92 37 59 38 43 39 44 40 52 41 45 42 47 43 53 44 46 45
REMARK SMILES IDX 48 46 49 47 50 48 51 49 75 50 76 51 84 52 77 53 79 54 85 55
REMARK SMILES IDX 78 56 80 57 81 58 82 59 83 60 60 61 61 62 69 63 62 64 64 65
REMARK SMILES IDX 70 66 63 67 65 68 66 69 67 70 68 71 6 72 7 73 8 74 9 75
REMARK SMILES IDX 10 77 11 78 12 79 16 80 13 81 15 82 14 83 17 84 18 85 19 86
REMARK SMILES IDX 20 88 21 89 32 90 22 91 24 92 33 93 23 94 25 95 26 96 30 97
REMARK SMILES IDX 27 98 29 99 31 100 28 101
REMARK H PARENT 3 6 90 24 58 35 8 76 19 87
REMARK Flexibility Score: inf
ROOT
ATOM      1  C   UNL     1       0.739   2.998  -7.147  1.00  0.00     0.023 C 
ENDROOT
BRANCH   1   2
ATOM      2  C   UNL     1      -0.004   3.873  -8.149  1.00  0.00     0.116 C 
BRANCH   2   3
ATOM      3  N   UNL     1       0.333   5.299  -8.135  1.00  0.00    -0.352 N 
ATOM      4  O   UNL     1       0.449   7.401  -8.995  1.00  0.00    -0.269 OA
ATOM      5  C   UNL     1       0.114   6.229  -9.140  1.00  0.00     0.251 C 
ATOM      6  H   UNL     1       0.765   5.636  -7.317  1.00  0.00     0.163 HD
BRANCH   5   7
ATOM      7  C   UNL     1      -0.471   5.752 -10.412  1.00  0.00     0.039 A 
ATOM      8  C   UNL     1      -1.534   4.863 -10.350  1.00  0.00     0.014 A 
ATOM      9  C   UNL     1       0.160   6.011 -11.632  1.00  0.00     0.014 A 
ATOM     10  C   UNL     1      -1.717   3.983 -11.396  1.00  0.00     0.010 A 
ATOM     11  C   UNL     1      -0.197   5.263 -12.762  1.00  0.00     0.010 A 
ATOM     12  C   UNL     1      -1.090   4.190 -12.638  1.00  0.00    -0.014 A 
BRANCH  12  13
ATOM     13  C   UNL     1      -1.470   3.285 -13.759  1.00  0.00     0.031 A 
ATOM     14  C   UNL     1      -0.455   2.499 -14.543  1.00  0.00     0.074 A 
ATOM     15  C   UNL     1      -2.788   3.107 -13.990  1.00  0.00     0.049 A 
ATOM     16  N   UNL     1      -0.665   1.645 -15.512  1.00  0.00    -0.248 NA
ATOM     17  C   UNL     1       0.970   2.702 -14.233  1.00  0.00     0.031 C 
ATOM     18  C   UNL     1      -3.854   3.851 -13.310  1.00  0.00     0.029 A 
ATOM     19  N   UNL     1      -3.469   2.219 -14.779  1.00  0.00    -0.354 N 
ATOM     20  C   UNL     1       0.590   1.282 -15.988  1.00  0.00     0.074 A 
ATOM     21  C   UNL     1       1.563   1.981 -15.177  1.00  0.00     0.031 C 
ATOM     22  C   UNL     1      -5.032   3.284 -13.578  1.00  0.00     0.029 A 
ATOM     23  C   UNL     1      -4.832   2.253 -14.585  1.00  0.00     0.049 A 
ATOM     24  H   UNL     1      -3.028   1.617 -15.422  1.00  0.00     0.167 HD
ATOM     25  C   UNL     1       0.890   0.449 -17.013  1.00  0.00     0.034 A 
ATOM     26  C   UNL     1      -5.828   1.563 -15.172  1.00  0.00     0.034 A 
ATOM     27  C   UNL     1      -0.099  -0.292 -17.754  1.00  0.00     0.049 A 
ATOM     28  C   UNL     1      -5.465   0.593 -16.248  1.00  0.00     0.074 A 
ATOM     29  C   UNL     1       0.100  -1.196 -18.782  1.00  0.00     0.029 A 
ATOM     30  N   UNL     1      -1.469  -0.226 -17.540  1.00  0.00    -0.354 N 
ATOM     31  N   UNL     1      -4.270   0.249 -16.664  1.00  0.00    -0.248 NA
ATOM     32  C   UNL     1      -6.569  -0.068 -16.952  1.00  0.00     0.031 C 
ATOM     33  C   UNL     1      -1.150  -1.663 -19.200  1.00  0.00     0.029 A 
ATOM     34  C   UNL     1      -2.128  -1.069 -18.417  1.00  0.00     0.049 A 
ATOM     35  H   UNL     1      -1.907   0.339 -16.863  1.00  0.00     0.167 HD
ATOM     36  C   UNL     1      -4.473  -0.659 -17.690  1.00  0.00     0.074 A 
ATOM     37  C   UNL     1      -5.908  -0.843 -17.804  1.00  0.00     0.031 C 
ATOM     38  C   UNL     1      -3.556  -1.259 -18.485  1.00  0.00     0.034 A 
BRANCH  25  39
ATOM     39  C   UNL     1       2.337   0.276 -17.402  1.00  0.00     0.023 A 
ATOM     40  C   UNL     1       3.196  -0.502 -16.601  1.00  0.00     0.012 A 
ATOM     41  C   UNL     1       2.821   0.805 -18.617  1.00  0.00     0.148 A 
ATOM     42  C   UNL     1       4.516  -0.734 -16.993  1.00  0.00     0.002 A 
ATOM     43  C   UNL     1       4.124   0.536 -19.021  1.00  0.00     0.091 A 
ATOM     44  F   UNL     1       1.998   1.563 -19.356  1.00  0.00    -0.205 F 
ATOM     45  C   UNL     1       4.976  -0.227 -18.206  1.00  0.00     0.022 A 
BRANCH  43  46
ATOM     46  S   UNL     1       4.774   1.077 -20.607  1.00  0.00     0.127 S 
ATOM     47  O   UNL     1       5.638   2.187 -20.209  1.00  0.00    -0.237 OA
ATOM     48  O   UNL     1       5.488  -0.113 -21.074  1.00  0.00    -0.237 OA
ATOM     49  O   UNL     1       3.614   1.438 -21.410  1.00  0.00    -0.744 OA
ENDBRANCH  43  46
ENDBRANCH  25  39
BRANCH  26  50
ATOM     50  C   UNL     1      -7.230   1.795 -14.719  1.00  0.00     0.023 A 
ATOM     51  C   UNL     1      -7.899   0.794 -13.991  1.00  0.00     0.012 A 
ATOM     52  C   UNL     1      -7.827   3.067 -14.843  1.00  0.00     0.148 A 
ATOM     53  C   UNL     1      -9.122   1.066 -13.373  1.00  0.00     0.002 A 
ATOM     54  C   UNL     1      -8.995   3.356 -14.150  1.00  0.00     0.091 A 
ATOM     55  F   UNL     1      -7.189   3.999 -15.567  1.00  0.00    -0.205 F 
ATOM     56  C   UNL     1      -9.654   2.353 -13.426  1.00  0.00     0.022 A 
BRANCH  54  57
ATOM     57  S   UNL     1      -9.599   5.041 -13.970  1.00  0.00     0.127 S 
ATOM     58  O   UNL     1     -10.781   5.029 -14.827  1.00  0.00    -0.237 OA
ATOM     59  O   UNL     1      -9.876   5.112 -12.534  1.00  0.00    -0.237 OA
ATOM     60  O   UNL     1      -8.503   5.896 -14.405  1.00  0.00    -0.744 OA
ENDBRANCH  54  57
ENDBRANCH  26  50
BRANCH  38  61
ATOM     61  C   UNL     1      -4.072  -2.181 -19.553  1.00  0.00     0.023 A 
ATOM     62  C   UNL     1      -4.627  -1.637 -20.727  1.00  0.00     0.012 A 
ATOM     63  C   UNL     1      -3.908  -3.573 -19.436  1.00  0.00     0.148 A 
ATOM     64  C   UNL     1      -5.027  -2.473 -21.768  1.00  0.00     0.002 A 
ATOM     65  C   UNL     1      -4.267  -4.396 -20.495  1.00  0.00     0.091 A 
ATOM     66  F   UNL     1      -3.395  -4.062 -18.297  1.00  0.00    -0.205 F 
ATOM     67  C   UNL     1      -4.834  -3.848 -21.658  1.00  0.00     0.022 A 
BRANCH  65  68
ATOM     68  S   UNL     1      -3.970  -6.166 -20.479  1.00  0.00     0.127 S 
ATOM     69  O   UNL     1      -5.328  -6.694 -20.361  1.00  0.00    -0.237 OA
ATOM     70  O   UNL     1      -3.339  -6.385 -21.781  1.00  0.00    -0.237 OA
ATOM     71  O   UNL     1      -3.102  -6.418 -19.336  1.00  0.00    -0.744 OA
ENDBRANCH  65  68
ENDBRANCH  38  61
ENDBRANCH  12  13
ENDBRANCH   5   7
ENDBRANCH   2   3
ENDBRANCH   1   2
BRANCH   1  72
ATOM     72  C   UNL     1       0.561   3.523  -5.726  1.00  0.00     0.023 C 
BRANCH  72  73
ATOM     73  C   UNL     1       0.511   2.481  -4.611  1.00  0.00     0.116 C 
BRANCH  73  74
ATOM     74  N   UNL     1       1.626   1.558  -4.568  1.00  0.00    -0.356 N 
ATOM     75  C   UNL     1       2.404   1.168  -3.512  1.00  0.00     0.224 C 
ATOM     76  H   UNL     1       1.860   1.146  -5.431  1.00  0.00     0.163 HD
ATOM     77  O   UNL     1       2.987   0.089  -3.627  1.00  0.00    -0.275 OA
BRANCH  75  78
ATOM     78  C   UNL     1       2.578   2.067  -2.274  1.00  0.00     0.095 C 
ATOM     79  C   UNL     1       1.746   1.538  -1.092  1.00  0.00     0.041 C 
ATOM     80  C   UNL     1       4.089   2.208  -1.948  1.00  0.00     0.095 C 
ATOM     81  C   UNL     1       2.451   0.562  -0.196  1.00  0.00    -0.030 C 
ATOM     82  C   UNL     1       4.673   0.942  -1.281  1.00  0.00     0.041 C 
ATOM     83  C   UNL     1       3.757   0.282  -0.291  1.00  0.00    -0.030 C 
BRANCH  80  84
ATOM     84  C   UNL     1       4.374   3.411  -1.049  1.00  0.00     0.224 C 
ATOM     85  O   UNL     1       4.053   3.416   0.144  1.00  0.00    -0.275 OA
ATOM     86  N   UNL     1       5.045   4.514  -1.474  1.00  0.00    -0.344 N 
ATOM     87  H   UNL     1       5.524   4.970  -0.745  1.00  0.00     0.164 HD
BRANCH  86  88
ATOM     88  C   UNL     1       5.221   5.186  -2.773  1.00  0.00     0.172 C 
ATOM     89  C   UNL     1       3.945   5.919  -3.202  1.00  0.00     0.037 C 
ATOM     90  C   UNL     1       6.015   4.410  -3.855  1.00  0.00     0.249 C 
ATOM     91  C   UNL     1       3.499   5.619  -4.615  1.00  0.00     0.025 C 
ATOM     92  N   UNL     1       5.259   3.916  -4.918  1.00  0.00    -0.308 N 
ATOM     93  O   UNL     1       7.229   4.249  -3.725  1.00  0.00    -0.272 OA
ATOM     94  C   UNL     1       3.837   4.195  -4.971  1.00  0.00     0.126 C 
BRANCH  92  95
ATOM     95  C   UNL     1       5.714   2.855  -5.768  1.00  0.00     0.080 A 
ATOM     96  C   UNL     1       5.249   2.787  -7.094  1.00  0.00     0.029 A 
ATOM     97  C   UNL     1       6.462   1.773  -5.280  1.00  0.00     0.146 A 
ATOM     98  C   UNL     1       5.449   1.646  -7.873  1.00  0.00     0.002 A 
ATOM     99  C   UNL     1       6.673   0.637  -6.061  1.00  0.00     0.041 A 
ATOM    100  F   UNL     1       6.866   1.725  -4.002  1.00  0.00    -0.205 F 
ATOM    101  C   UNL     1       6.147   0.564  -7.350  1.00  0.00     0.003 A 
ENDBRANCH  92  95
ENDBRANCH  86  88
ENDBRANCH  80  84
ENDBRANCH  75  78
ENDBRANCH  73  74
ENDBRANCH  72  73
ENDBRANCH   1  72
TORSDOF 17
