REMARK SMILES Cn1c(=O)[nH]c(=O)c2c1nc(NC1CCCC1)n2CC(=O)NCCCCNC(=O)c1ccc(-c2c3nc(c(-c4cccc(S(=O)(=O)[O-])c4F)c4ccc([nH]4)c(-c4cccc(S(=O)(=O)[O-])c4F)c4nc(c(-c5cccc(S(=O)(=O)[O-])c5F)c5ccc2[nH]5)C=C4)C=C3)cc1
REMARK SMILES IDX 24 1 23 2 22 3 20 4 21 5 19 7 18 8 1 9 2 10 3 11 9 12 4 13
REMARK SMILES IDX 5 14 8 15 10 16 6 17 11 19 7 20 12 21 13 23 14 24 17 25
REMARK SMILES IDX 15 26 16 27 25 28 26 29 27 30 28 31 29 33 30 34 31 35 92 36
REMARK SMILES IDX 32 37 91 38 33 39 34 40 35 41 85 42 36 43 90 44 84 45 86 46
REMARK SMILES IDX 37 47 89 48 83 49 82 50 38 52 70 53 50 54 69 55 51 56 54 57
REMARK SMILES IDX 68 58 87 59 52 60 53 61 67 63 88 64 55 65 39 66 40 67 48 68
REMARK SMILES IDX 41 69 43 70 49 71 42 72 44 73 45 74 46 75 47 76 71 77 72 78
REMARK SMILES IDX 80 79 73 80 75 81 81 82 74 83 76 84 77 85 78 86 79 87 56 88
REMARK SMILES IDX 57 89 65 90 58 91 60 92 66 93 59 94 61 95 62 96 63 97 64 98
REMARK H PARENT 22 6 5 18 12 22 27 32 86 51 54 62
REMARK Flexibility Score: inf
ROOT
ATOM      1  C   UNL     1      -2.143   4.258  -0.342  1.00  0.00     0.023 C 
ENDROOT
BRANCH   1   2
ATOM      2  C   UNL     1      -1.953   5.227  -1.519  1.00  0.00     0.116 C 
BRANCH   2   3
ATOM      3  N   UNL     1      -1.146   6.373  -1.147  1.00  0.00    -0.355 N 
ATOM      4  C   UNL     1       0.196   6.564  -1.318  1.00  0.00     0.240 C 
ATOM      5  O   UNL     1       0.748   7.499  -0.731  1.00  0.00    -0.273 OA
ATOM      6  H   UNL     1      -1.630   7.113  -0.714  1.00  0.00     0.163 HD
BRANCH   4   7
ATOM      7  C   UNL     1       1.006   5.619  -2.182  1.00  0.00     0.226 C 
BRANCH   7   8
ATOM      8  N   UNL     1       1.220   4.332  -1.547  1.00  0.00    -0.295 N 
ATOM      9  C   UNL     1       1.105  -0.001  -0.015  1.00  0.00     0.157 C 
ATOM     10  N   UNL     1       0.810   0.891  -1.119  1.00  0.00    -0.279 N 
ATOM     11  C   UNL     1       0.166   0.429  -2.259  1.00  0.00     0.329 A 
ATOM     12  C   UNL     1       1.139   2.227  -1.040  1.00  0.00     0.170 A 
ATOM     13  O   UNL     1      -0.191  -0.738  -2.423  1.00  0.00    -0.248 OA
ATOM     14  N   UNL     1      -0.078   1.352  -3.259  1.00  0.00    -0.272 N 
ATOM     15  C   UNL     1       0.860   3.105  -2.046  1.00  0.00     0.154 A 
ATOM     16  N   UNL     1       1.718   2.836   0.021  1.00  0.00    -0.194 NA
ATOM     17  C   UNL     1       0.248   2.687  -3.256  1.00  0.00     0.279 A 
ATOM     18  H   UNL     1      -0.536   1.016  -4.063  1.00  0.00     0.175 HD
ATOM     19  C   UNL     1       1.749   4.119  -0.283  1.00  0.00     0.206 A 
ATOM     20  O   UNL     1       0.003   3.411  -4.221  1.00  0.00    -0.267 OA
BRANCH  19  21
ATOM     21  N   UNL     1       2.174   5.135   0.497  1.00  0.00    -0.353 N 
ATOM     22  H   UNL     1       2.148   6.048   0.131  1.00  0.00     0.163 HD
BRANCH  21  23
ATOM     23  C   UNL     1       2.669   4.947   1.849  1.00  0.00     0.082 C 
ATOM     24  C   UNL     1       1.670   4.301   2.803  1.00  0.00     0.025 C 
ATOM     25  C   UNL     1       3.913   4.067   1.935  1.00  0.00     0.025 C 
ATOM     26  C   UNL     1       2.539   3.811   3.954  1.00  0.00     0.002 C 
ATOM     27  C   UNL     1       3.905   3.493   3.349  1.00  0.00     0.002 C 
ENDBRANCH  21  23
ENDBRANCH  19  21
ENDBRANCH   7   8
ENDBRANCH   4   7
ENDBRANCH   2   3
ENDBRANCH   1   2
BRANCH   1  28
ATOM     28  C   UNL     1      -3.049   4.762   0.790  1.00  0.00     0.023 C 
BRANCH  28  29
ATOM     29  C   UNL     1      -4.499   4.966   0.382  1.00  0.00     0.116 C 
BRANCH  29  30
ATOM     30  N   UNL     1      -5.178   3.716   0.024  1.00  0.00    -0.352 N 
ATOM     31  C   UNL     1      -6.466   3.582  -0.466  1.00  0.00     0.251 C 
ATOM     32  H   UNL     1      -4.664   2.885   0.145  1.00  0.00     0.163 HD
ATOM     33  O   UNL     1      -7.080   2.526  -0.386  1.00  0.00    -0.269 OA
BRANCH  31  34
ATOM     34  C   UNL     1      -7.063   4.755  -1.121  1.00  0.00     0.039 A 
ATOM     35  C   UNL     1      -8.350   5.213  -0.822  1.00  0.00     0.014 A 
ATOM     36  C   UNL     1      -6.231   5.450  -1.994  1.00  0.00     0.014 A 
ATOM     37  C   UNL     1      -8.761   6.431  -1.358  1.00  0.00     0.010 A 
ATOM     38  C   UNL     1      -6.563   6.724  -2.356  1.00  0.00     0.010 A 
ATOM     39  C   UNL     1      -7.851   7.186  -2.112  1.00  0.00    -0.014 A 
BRANCH  39  40
ATOM     40  C   UNL     1      -8.180   8.510  -2.621  1.00  0.00     0.031 A 
ATOM     41  C   UNL     1      -8.554   9.519  -1.593  1.00  0.00     0.074 A 
ATOM     42  C   UNL     1      -7.921   8.845  -3.905  1.00  0.00     0.049 A 
ATOM     43  N   UNL     1      -9.697  10.105  -1.453  1.00  0.00    -0.248 NA
ATOM     44  C   UNL     1      -7.595   9.832  -0.523  1.00  0.00     0.031 C 
ATOM     45  C   UNL     1      -7.254   8.044  -4.946  1.00  0.00     0.029 A 
ATOM     46  N   UNL     1      -8.063  10.049  -4.513  1.00  0.00    -0.354 N 
ATOM     47  C   UNL     1      -9.543  11.015  -0.408  1.00  0.00     0.074 A 
ATOM     48  C   UNL     1      -8.298  10.680   0.233  1.00  0.00     0.031 C 
ATOM     49  C   UNL     1      -6.816   8.858  -5.931  1.00  0.00     0.029 A 
ATOM     50  C   UNL     1      -7.338  10.187  -5.692  1.00  0.00     0.049 A 
ATOM     51  H   UNL     1      -8.633  10.765  -4.150  1.00  0.00     0.167 HD
ATOM     52  C   UNL     1     -10.359  12.100  -0.285  1.00  0.00     0.034 A 
ATOM     53  C   UNL     1      -7.155  11.332  -6.393  1.00  0.00     0.034 A 
ATOM     54  C   UNL     1     -11.499  11.992  -1.161  1.00  0.00     0.049 A 
ATOM     55  C   UNL     1      -8.246  12.251  -5.996  1.00  0.00     0.074 A 
ATOM     56  C   UNL     1     -12.563  11.121  -1.273  1.00  0.00     0.029 A 
ATOM     57  N   UNL     1     -11.421  12.652  -2.365  1.00  0.00    -0.354 N 
ATOM     58  N   UNL     1      -9.504  12.015  -6.248  1.00  0.00    -0.248 NA
ATOM     59  C   UNL     1      -7.985  13.188  -4.918  1.00  0.00     0.031 C 
ATOM     60  C   UNL     1     -12.749  10.953  -2.677  1.00  0.00     0.029 A 
ATOM     61  C   UNL     1     -11.840  11.783  -3.339  1.00  0.00     0.049 A 
ATOM     62  H   UNL     1     -11.120  13.579  -2.502  1.00  0.00     0.167 HD
ATOM     63  C   UNL     1     -10.163  12.389  -5.084  1.00  0.00     0.074 A 
ATOM     64  C   UNL     1      -9.194  13.202  -4.347  1.00  0.00     0.031 C 
ATOM     65  C   UNL     1     -11.313  11.765  -4.689  1.00  0.00     0.034 A 
BRANCH  52  66
ATOM     66  C   UNL     1     -10.010  13.412   0.378  1.00  0.00     0.023 A 
ATOM     67  C   UNL     1     -11.061  14.339   0.573  1.00  0.00     0.012 A 
ATOM     68  C   UNL     1      -8.695  13.885   0.585  1.00  0.00     0.148 A 
ATOM     69  C   UNL     1     -10.816  15.675   0.906  1.00  0.00     0.002 A 
ATOM     70  C   UNL     1      -8.459  15.197   0.988  1.00  0.00     0.091 A 
ATOM     71  F   UNL     1      -7.652  13.111   0.273  1.00  0.00    -0.205 F 
ATOM     72  C   UNL     1      -9.513  16.104   1.120  1.00  0.00     0.022 A 
BRANCH  70  73
ATOM     73  S   UNL     1      -6.800  15.803   1.328  1.00  0.00     0.127 S 
ATOM     74  O   UNL     1      -6.573  16.692   0.193  1.00  0.00    -0.237 OA
ATOM     75  O   UNL     1      -6.987  16.475   2.615  1.00  0.00    -0.237 OA
ATOM     76  O   UNL     1      -5.956  14.617   1.392  1.00  0.00    -0.744 OA
ENDBRANCH  70  73
ENDBRANCH  52  66
BRANCH  53  77
ATOM     77  C   UNL     1      -5.965  11.803  -7.138  1.00  0.00     0.023 A 
ATOM     78  C   UNL     1      -6.104  12.830  -8.092  1.00  0.00     0.012 A 
ATOM     79  C   UNL     1      -4.664  11.475  -6.693  1.00  0.00     0.148 A 
ATOM     80  C   UNL     1      -4.990  13.542  -8.553  1.00  0.00     0.002 A 
ATOM     81  C   UNL     1      -3.560  12.191  -7.148  1.00  0.00     0.091 A 
ATOM     82  F   UNL     1      -4.524  10.530  -5.754  1.00  0.00    -0.205 F 
ATOM     83  C   UNL     1      -3.721  13.233  -8.070  1.00  0.00     0.022 A 
BRANCH  81  84
ATOM     84  S   UNL     1      -1.900  11.894  -6.524  1.00  0.00     0.127 S 
ATOM     85  O   UNL     1      -1.130  11.767  -7.761  1.00  0.00    -0.237 OA
ATOM     86  O   UNL     1      -1.644  13.114  -5.764  1.00  0.00    -0.237 OA
ATOM     87  O   UNL     1      -1.982  10.668  -5.739  1.00  0.00    -0.744 OA
ENDBRANCH  81  84
ENDBRANCH  53  77
BRANCH  65  88
ATOM     88  C   UNL     1     -11.949  10.776  -5.643  1.00  0.00     0.023 A 
ATOM     89  C   UNL     1     -11.296   9.591  -6.050  1.00  0.00     0.012 A 
ATOM     90  C   UNL     1     -13.299  10.947  -5.991  1.00  0.00     0.148 A 
ATOM     91  C   UNL     1     -11.961   8.615  -6.799  1.00  0.00     0.002 A 
ATOM     92  C   UNL     1     -13.972   9.954  -6.695  1.00  0.00     0.091 A 
ATOM     93  F   UNL     1     -13.915  12.072  -5.597  1.00  0.00    -0.205 F 
ATOM     94  C   UNL     1     -13.305   8.791  -7.111  1.00  0.00     0.022 A 
BRANCH  92  95
ATOM     95  S   UNL     1     -15.735  10.059  -7.011  1.00  0.00     0.127 S 
ATOM     96  O   UNL     1     -15.771  10.385  -8.435  1.00  0.00    -0.237 OA
ATOM     97  O   UNL     1     -16.195   8.709  -6.680  1.00  0.00    -0.237 OA
ATOM     98  O   UNL     1     -16.241  11.094  -6.116  1.00  0.00    -0.744 OA
ENDBRANCH  92  95
ENDBRANCH  65  88
ENDBRANCH  39  40
ENDBRANCH  31  34
ENDBRANCH  29  30
ENDBRANCH  28  29
ENDBRANCH   1  28
TORSDOF 17
