REMARK SMILES CC[C@H](C)CN(CC)C(=O)Nc1ccc(C(=O)NCCCCNC(=O)c2ccc(-c3c4nc(c(-c5cccc(S(=O)(=O)[O-])c5F)c5ccc([nH]5)c(-c5cccc(S(=O)(=O)[O-])c5F)c5nc(c(-c6cccc(S(=O)(=O)[O-])c6F)c6ccc3[nH]6)C=C5)C=C4)cc2)cc1Cl
REMARK SMILES IDX 19 1 18 2 16 3 17 4 15 6 12 7 13 8 90 9 14 10 89 11 91 12
REMARK SMILES IDX 11 13 9 14 10 15 6 17 5 18 3 19 4 20 2 21 1 22 7 23 8 24
REMARK SMILES IDX 20 25 21 26 22 27 23 28 24 29 25 31 26 32 27 33 88 34 28 35
REMARK SMILES IDX 87 36 29 37 30 38 31 39 81 40 32 41 86 42 80 43 82 44 33 45
REMARK SMILES IDX 85 46 79 47 78 48 34 50 66 51 46 52 65 53 47 54 50 55 64 56
REMARK SMILES IDX 83 57 48 58 49 59 63 61 84 62 51 63 35 64 36 65 44 66 37 67
REMARK SMILES IDX 39 68 45 69 38 70 40 71 41 72 42 73 43 74 67 75 68 76 76 77
REMARK SMILES IDX 69 78 71 79 77 80 70 81 72 82 73 83 74 84 75 85 52 86 53 87
REMARK SMILES IDX 61 88 54 89 56 90 62 91 55 92 57 93 58 94 59 95 60 96
REMARK H PARENT 18 5 11 16 23 30 82 49 50 60
REMARK Flexibility Score: inf
ROOT
ATOM      1  C   UNL     1       3.031   0.716  10.016  1.00  0.00     0.116 C 
ENDROOT
BRANCH   1   2
ATOM      2  N   UNL     1       3.984  -0.365  10.215  1.00  0.00    -0.352 N 
ATOM      3  C   UNL     1       4.200  -1.514   9.494  1.00  0.00     0.251 C 
ATOM      4  O   UNL     1       5.150  -2.242   9.767  1.00  0.00    -0.269 OA
ATOM      5  H   UNL     1       4.572  -0.255  10.997  1.00  0.00     0.163 HD
BRANCH   3   6
ATOM      6  C   UNL     1       3.354  -1.846   8.327  1.00  0.00     0.041 A 
ATOM      7  C   UNL     1       1.902  -2.122   5.969  1.00  0.00     0.061 A 
ATOM      8  C   UNL     1       3.259  -2.458   5.989  1.00  0.00     0.028 A 
ATOM      9  C   UNL     1       1.238  -1.835   7.170  1.00  0.00     0.065 A 
ATOM     10  C   UNL     1       3.992  -2.288   7.162  1.00  0.00     0.016 A 
ATOM     11  C   UNL     1       1.964  -1.724   8.353  1.00  0.00     0.036 A 
ATOM     12  Cl  UNL     1      -0.482  -1.690   7.263  1.00  0.00    -0.082 Cl
BRANCH   7  13
ATOM     13  N   UNL     1       1.293  -2.061   4.712  1.00  0.00    -0.306 N 
ATOM     14  C   UNL     1       0.441  -1.133   4.195  1.00  0.00     0.321 C 
ATOM     15  O   UNL     1      -0.462  -1.553   3.466  1.00  0.00    -0.248 OA
ATOM     16  H   UNL     1       1.515  -2.805   4.106  1.00  0.00     0.171 HD
BRANCH  14  17
ATOM     17  N   UNL     1       0.738   0.222   4.300  1.00  0.00    -0.325 N 
BRANCH  17  18
ATOM     18  C   UNL     1       0.026   1.127   3.385  1.00  0.00     0.124 C 
BRANCH  18  19
ATOM     19  C   UNL     1       0.693   1.253   1.983  1.00  0.00     0.005 C 
ATOM     20  C   UNL     1       0.459   0.007   1.123  1.00  0.00     0.009 C 
BRANCH  19  21
ATOM     21  C   UNL     1       0.188   2.550   1.307  1.00  0.00     0.002 C 
ATOM     22  C   UNL     1       0.357   2.621  -0.204  1.00  0.00     0.004 C 
ENDBRANCH  19  21
ENDBRANCH  18  19
ENDBRANCH  17  18
BRANCH  17  23
ATOM     23  C   UNL     1       1.777   0.867   5.116  1.00  0.00     0.118 C 
ATOM     24  C   UNL     1       1.197   1.603   6.321  1.00  0.00     0.027 C 
ENDBRANCH  17  23
ENDBRANCH  14  17
ENDBRANCH   7  13
ENDBRANCH   3   6
ENDBRANCH   1   2
BRANCH   1  25
ATOM     25  C   UNL     1       1.918   0.682  11.064  1.00  0.00     0.023 C 
BRANCH  25  26
ATOM     26  C   UNL     1       2.371   1.067  12.475  1.00  0.00     0.023 C 
BRANCH  26  27
ATOM     27  C   UNL     1       2.874   2.499  12.627  1.00  0.00     0.116 C 
BRANCH  27  28
ATOM     28  N   UNL     1       1.864   3.493  12.302  1.00  0.00    -0.352 N 
ATOM     29  C   UNL     1       1.555   4.667  12.955  1.00  0.00     0.251 C 
ATOM     30  H   UNL     1       1.323   3.300  11.502  1.00  0.00     0.163 HD
ATOM     31  O   UNL     1       0.586   5.320  12.604  1.00  0.00    -0.269 OA
BRANCH  29  32
ATOM     32  C   UNL     1       2.385   5.113  14.100  1.00  0.00     0.039 A 
ATOM     33  C   UNL     1       1.743   5.564  15.256  1.00  0.00     0.014 A 
ATOM     34  C   UNL     1       3.780   5.086  14.038  1.00  0.00     0.014 A 
ATOM     35  C   UNL     1       2.500   5.928  16.374  1.00  0.00     0.010 A 
ATOM     36  C   UNL     1       4.530   5.384  15.174  1.00  0.00     0.010 A 
ATOM     37  C   UNL     1       3.900   5.810  16.353  1.00  0.00    -0.014 A 
BRANCH  37  38
ATOM     38  C   UNL     1       4.718   6.107  17.558  1.00  0.00     0.031 A 
ATOM     39  C   UNL     1       5.726   7.225  17.539  1.00  0.00     0.074 A 
ATOM     40  C   UNL     1       4.627   5.303  18.637  1.00  0.00     0.049 A 
ATOM     41  N   UNL     1       6.567   7.590  18.471  1.00  0.00    -0.248 NA
ATOM     42  C   UNL     1       5.826   8.018  16.302  1.00  0.00     0.031 C 
ATOM     43  C   UNL     1       3.761   4.127  18.746  1.00  0.00     0.029 A 
ATOM     44  N   UNL     1       5.298   5.332  19.836  1.00  0.00    -0.354 N 
ATOM     45  C   UNL     1       7.326   8.616  17.921  1.00  0.00     0.074 A 
ATOM     46  C   UNL     1       6.858   8.806  16.566  1.00  0.00     0.031 C 
ATOM     47  C   UNL     1       3.962   3.541  19.938  1.00  0.00     0.029 A 
ATOM     48  C   UNL     1       4.982   4.284  20.671  1.00  0.00     0.049 A 
ATOM     49  H   UNL     1       5.944   6.035  20.075  1.00  0.00     0.167 HD
ATOM     50  C   UNL     1       8.306   9.351  18.499  1.00  0.00     0.034 A 
ATOM     51  C   UNL     1       5.465   3.954  21.885  1.00  0.00     0.034 A 
ATOM     52  C   UNL     1       8.721   9.208  19.868  1.00  0.00     0.049 A 
ATOM     53  C   UNL     1       6.490   4.845  22.534  1.00  0.00     0.074 A 
ATOM     54  C   UNL     1       9.611   9.993  20.581  1.00  0.00     0.029 A 
ATOM     55  N   UNL     1       8.284   8.216  20.730  1.00  0.00    -0.354 N 
ATOM     56  N   UNL     1       7.048   5.935  22.069  1.00  0.00    -0.248 NA
ATOM     57  C   UNL     1       6.920   4.486  23.894  1.00  0.00     0.031 C 
ATOM     58  C   UNL     1       9.727   9.462  21.869  1.00  0.00     0.029 A 
ATOM     59  C   UNL     1       8.893   8.361  21.964  1.00  0.00     0.049 A 
ATOM     60  H   UNL     1       7.635   7.513  20.498  1.00  0.00     0.167 HD
ATOM     61  C   UNL     1       7.864   6.411  23.089  1.00  0.00     0.074 A 
ATOM     62  C   UNL     1       7.709   5.505  24.206  1.00  0.00     0.031 C 
ATOM     63  C   UNL     1       8.682   7.492  23.092  1.00  0.00     0.034 A 
BRANCH  50  64
ATOM     64  C   UNL     1       8.966  10.425  17.677  1.00  0.00     0.023 A 
ATOM     65  C   UNL     1       8.265  11.615  17.395  1.00  0.00     0.012 A 
ATOM     66  C   UNL     1      10.309  10.299  17.268  1.00  0.00     0.148 A 
ATOM     67  C   UNL     1       8.882  12.654  16.701  1.00  0.00     0.002 A 
ATOM     68  C   UNL     1      10.930  11.355  16.613  1.00  0.00     0.091 A 
ATOM     69  F   UNL     1      10.951   9.151  17.529  1.00  0.00    -0.205 F 
ATOM     70  C   UNL     1      10.216  12.530  16.321  1.00  0.00     0.022 A 
BRANCH  68  71
ATOM     71  S   UNL     1      12.666  11.327  16.153  1.00  0.00     0.127 S 
ATOM     72  O   UNL     1      12.583  11.262  14.694  1.00  0.00    -0.237 OA
ATOM     73  O   UNL     1      13.145  12.605  16.680  1.00  0.00    -0.237 OA
ATOM     74  O   UNL     1      13.235  10.151  16.796  1.00  0.00    -0.744 OA
ENDBRANCH  68  71
ENDBRANCH  50  64
BRANCH  51  75
ATOM     75  C   UNL     1       4.939   2.755  22.598  1.00  0.00     0.023 A 
ATOM     76  C   UNL     1       4.137   2.925  23.743  1.00  0.00     0.012 A 
ATOM     77  C   UNL     1       5.218   1.451  22.144  1.00  0.00     0.148 A 
ATOM     78  C   UNL     1       3.657   1.820  24.448  1.00  0.00     0.002 A 
ATOM     79  C   UNL     1       4.690   0.356  22.818  1.00  0.00     0.091 A 
ATOM     80  F   UNL     1       5.996   1.306  21.062  1.00  0.00    -0.205 F 
ATOM     81  C   UNL     1       3.925   0.537  23.980  1.00  0.00     0.022 A 
BRANCH  79  82
ATOM     82  S   UNL     1       4.875  -1.321  22.199  1.00  0.00     0.127 S 
ATOM     83  O   UNL     1       5.932  -1.843  23.060  1.00  0.00    -0.237 OA
ATOM     84  O   UNL     1       3.547  -1.887  22.441  1.00  0.00    -0.237 OA
ATOM     85  O   UNL     1       5.210  -1.174  20.789  1.00  0.00    -0.744 OA
ENDBRANCH  79  82
ENDBRANCH  51  75
BRANCH  63  86
ATOM     86  C   UNL     1       9.449   7.787  24.354  1.00  0.00     0.023 A 
ATOM     87  C   UNL     1      10.539   6.973  24.717  1.00  0.00     0.012 A 
ATOM     88  C   UNL     1       9.138   8.917  25.136  1.00  0.00     0.148 A 
ATOM     89  C   UNL     1      11.288   7.259  25.858  1.00  0.00     0.002 A 
ATOM     90  C   UNL     1       9.919   9.224  26.244  1.00  0.00     0.091 A 
ATOM     91  F   UNL     1       8.085   9.669  24.786  1.00  0.00    -0.205 F 
ATOM     92  C   UNL     1      10.986   8.390  26.614  1.00  0.00     0.022 A 
BRANCH  90  93
ATOM     93  S   UNL     1       9.660  10.714  27.214  1.00  0.00     0.127 S 
ATOM     94  O   UNL     1       8.999  10.184  28.405  1.00  0.00    -0.237 OA
ATOM     95  O   UNL     1      11.028  11.186  27.435  1.00  0.00    -0.237 OA
ATOM     96  O   UNL     1       8.849  11.593  26.383  1.00  0.00    -0.744 OA
ENDBRANCH  90  93
ENDBRANCH  63  86
ENDBRANCH  37  38
ENDBRANCH  29  32
ENDBRANCH  27  28
ENDBRANCH  26  27
ENDBRANCH  25  26
ENDBRANCH   1  25
TORSDOF 20
