REMARK SMILES O=C(NCCCCNC(=O)[C@@H](CCO)NC(=O)c1c(F)ccc([N+](=O)[O-])c1F)c1ccc(-c2c3nc(c(-c4cccc(S(=O)(=O)[O-])c4F)c4ccc([nH]4)c(-c4cccc(S(=O)(=O)[O-])c4F)c4nc(c(-c5cccc(S(=O)(=O)[O-])c5F)c5ccc2[nH]5)C=C4)C=C3)cc1
REMARK SMILES IDX 5 1 4 2 3 3 1 4 2 5 29 7 30 8 91 9 31 10 90 11 32 12 33 13
REMARK SMILES IDX 34 14 84 15 35 16 89 17 83 18 85 19 36 20 88 21 82 22 81 23
REMARK SMILES IDX 37 25 69 26 49 27 68 28 50 29 53 30 67 31 86 32 51 33 52 34
REMARK SMILES IDX 66 36 87 37 54 38 38 39 39 40 47 41 40 42 42 43 48 44 41 45
REMARK SMILES IDX 43 46 44 47 45 48 46 49 70 50 71 51 79 52 72 53 74 54 80 55
REMARK SMILES IDX 73 56 75 57 76 58 77 59 78 60 55 61 56 62 64 63 57 64 59 65
REMARK SMILES IDX 65 66 58 67 60 68 61 69 62 70 63 71 6 72 7 73 8 74 9 75
REMARK SMILES IDX 10 77 11 78 12 79 13 80 14 81 15 83 16 84 17 86 18 87 19 88
REMARK SMILES IDX 27 89 20 90 21 91 23 92 28 93 22 94 24 95 25 96 26 97
REMARK H PARENT 3 6 85 24 53 35 8 76 14 82 15 85
REMARK Flexibility Score: inf
ROOT
ATOM      1  C   UNL     1       5.144   1.678   1.680  1.00  0.00     0.023 C 
ENDROOT
BRANCH   1   2
ATOM      2  C   UNL     1       4.667   0.448   0.929  1.00  0.00     0.116 C 
BRANCH   2   3
ATOM      3  N   UNL     1       3.223   0.269   0.961  1.00  0.00    -0.352 N 
ATOM      4  O   UNL     1       1.178  -0.110   0.075  1.00  0.00    -0.269 OA
ATOM      5  C   UNL     1       2.390  -0.099  -0.074  1.00  0.00     0.251 C 
ATOM      6  H   UNL     1       2.787   0.430   1.829  1.00  0.00     0.163 HD
BRANCH   5   7
ATOM      7  C   UNL     1       3.003  -0.434  -1.377  1.00  0.00     0.039 A 
ATOM      8  C   UNL     1       4.093  -1.305  -1.428  1.00  0.00     0.014 A 
ATOM      9  C   UNL     1       2.540   0.196  -2.534  1.00  0.00     0.014 A 
ATOM     10  C   UNL     1       4.827  -1.412  -2.600  1.00  0.00     0.010 A 
ATOM     11  C   UNL     1       3.221   0.003  -3.738  1.00  0.00     0.010 A 
ATOM     12  C   UNL     1       4.391  -0.772  -3.772  1.00  0.00    -0.014 A 
BRANCH  12  13
ATOM     13  C   UNL     1       5.130  -1.006  -5.036  1.00  0.00     0.031 A 
ATOM     14  C   UNL     1       5.808   0.115  -5.772  1.00  0.00     0.074 A 
ATOM     15  C   UNL     1       5.182  -2.266  -5.511  1.00  0.00     0.049 A 
ATOM     16  N   UNL     1       6.490   0.066  -6.887  1.00  0.00    -0.248 NA
ATOM     17  C   UNL     1       5.706   1.464  -5.193  1.00  0.00     0.031 C 
ATOM     18  C   UNL     1       4.524  -3.421  -4.894  1.00  0.00     0.029 A 
ATOM     19  N   UNL     1       5.812  -2.791  -6.608  1.00  0.00    -0.354 N 
ATOM     20  C   UNL     1       6.857   1.376  -7.171  1.00  0.00     0.074 A 
ATOM     21  C   UNL     1       6.325   2.201  -6.108  1.00  0.00     0.031 C 
ATOM     22  C   UNL     1       4.812  -4.522  -5.599  1.00  0.00     0.029 A 
ATOM     23  C   UNL     1       5.619  -4.144  -6.752  1.00  0.00     0.049 A 
ATOM     24  H   UNL     1       6.350  -2.252  -7.232  1.00  0.00     0.167 HD
ATOM     25  C   UNL     1       7.582   1.841  -8.217  1.00  0.00     0.034 A 
ATOM     26  C   UNL     1       6.025  -4.989  -7.717  1.00  0.00     0.034 A 
ATOM     27  C   UNL     1       8.145   1.002  -9.244  1.00  0.00     0.049 A 
ATOM     28  C   UNL     1       6.852  -4.449  -8.844  1.00  0.00     0.074 A 
ATOM     29  C   UNL     1       8.947   1.369 -10.310  1.00  0.00     0.029 A 
ATOM     30  N   UNL     1       7.963  -0.370  -9.335  1.00  0.00    -0.354 N 
ATOM     31  N   UNL     1       7.282  -3.225  -9.034  1.00  0.00    -0.248 NA
ATOM     32  C   UNL     1       7.266  -5.403  -9.880  1.00  0.00     0.031 C 
ATOM     33  C   UNL     1       9.241   0.219 -11.053  1.00  0.00     0.029 A 
ATOM     34  C   UNL     1       8.630  -0.865 -10.443  1.00  0.00     0.049 A 
ATOM     35  H   UNL     1       7.436  -0.913  -8.704  1.00  0.00     0.167 HD
ATOM     36  C   UNL     1       8.027  -3.262 -10.204  1.00  0.00     0.074 A 
ATOM     37  C   UNL     1       8.018  -4.638 -10.661  1.00  0.00     0.031 C 
ATOM     38  C   UNL     1       8.642  -2.245 -10.856  1.00  0.00     0.034 A 
BRANCH  25  39
ATOM     39  C   UNL     1       7.851   3.322  -8.290  1.00  0.00     0.023 A 
ATOM     40  C   UNL     1       8.816   3.894  -7.438  1.00  0.00     0.012 A 
ATOM     41  C   UNL     1       7.212   4.130  -9.252  1.00  0.00     0.148 A 
ATOM     42  C   UNL     1       9.127   5.251  -7.527  1.00  0.00     0.002 A 
ATOM     43  C   UNL     1       7.552   5.475  -9.357  1.00  0.00     0.091 A 
ATOM     44  F   UNL     1       6.279   3.574 -10.038  1.00  0.00    -0.205 F 
ATOM     45  C   UNL     1       8.504   6.038  -8.492  1.00  0.00     0.022 A 
BRANCH  43  46
ATOM     46  S   UNL     1       6.853   6.552 -10.615  1.00  0.00     0.127 S 
ATOM     47  O   UNL     1       5.907   7.345  -9.832  1.00  0.00    -0.237 OA
ATOM     48  O   UNL     1       8.027   7.291 -11.081  1.00  0.00    -0.237 OA
ATOM     49  O   UNL     1       6.262   5.669 -11.611  1.00  0.00    -0.744 OA
ENDBRANCH  43  46
ENDBRANCH  25  39
BRANCH  26  50
ATOM     50  C   UNL     1       5.680  -6.434  -7.615  1.00  0.00     0.023 A 
ATOM     51  C   UNL     1       6.692  -7.368  -7.326  1.00  0.00     0.012 A 
ATOM     52  C   UNL     1       4.346  -6.873  -7.714  1.00  0.00     0.148 A 
ATOM     53  C   UNL     1       6.381  -8.716  -7.148  1.00  0.00     0.002 A 
ATOM     54  C   UNL     1       4.035  -8.206  -7.473  1.00  0.00     0.091 A 
ATOM     55  F   UNL     1       3.398  -5.972  -8.011  1.00  0.00    -0.205 F 
ATOM     56  C   UNL     1       5.053  -9.133  -7.204  1.00  0.00     0.022 A 
BRANCH  54  57
ATOM     57  S   UNL     1       2.335  -8.777  -7.366  1.00  0.00     0.127 S 
ATOM     58  O   UNL     1       2.145  -9.401  -8.671  1.00  0.00    -0.237 OA
ATOM     59  O   UNL     1       2.392  -9.709  -6.239  1.00  0.00    -0.237 OA
ATOM     60  O   UNL     1       1.546  -7.580  -7.106  1.00  0.00    -0.744 OA
ENDBRANCH  54  57
ENDBRANCH  26  50
BRANCH  38  61
ATOM     61  C   UNL     1       9.360  -2.586 -12.133  1.00  0.00     0.023 A 
ATOM     62  C   UNL     1       8.611  -2.837 -13.299  1.00  0.00     0.012 A 
ATOM     63  C   UNL     1      10.766  -2.599 -12.193  1.00  0.00     0.148 A 
ATOM     64  C   UNL     1       9.252  -3.124 -14.503  1.00  0.00     0.002 A 
ATOM     65  C   UNL     1      11.398  -2.845 -13.405  1.00  0.00     0.091 A 
ATOM     66  F   UNL     1      11.457  -2.380 -11.065  1.00  0.00    -0.205 F 
ATOM     67  C   UNL     1      10.644  -3.117 -14.558  1.00  0.00     0.022 A 
BRANCH  65  68
ATOM     68  S   UNL     1      13.184  -2.772 -13.584  1.00  0.00     0.127 S 
ATOM     69  O   UNL     1      13.536  -4.189 -13.644  1.00  0.00    -0.237 OA
ATOM     70  O   UNL     1      13.343  -2.050 -14.847  1.00  0.00    -0.237 OA
ATOM     71  O   UNL     1      13.671  -2.051 -12.415  1.00  0.00    -0.744 OA
ENDBRANCH  65  68
ENDBRANCH  38  61
ENDBRANCH  12  13
ENDBRANCH   5   7
ENDBRANCH   2   3
ENDBRANCH   1   2
BRANCH   1  72
ATOM     72  C   UNL     1       4.739   1.734   3.147  1.00  0.00     0.023 C 
BRANCH  72  73
ATOM     73  C   UNL     1       5.237   0.573   4.006  1.00  0.00     0.116 C 
BRANCH  73  74
ATOM     74  N   UNL     1       6.634   0.740   4.343  1.00  0.00    -0.354 N 
ATOM     75  C   UNL     1       7.237   1.153   5.486  1.00  0.00     0.242 C 
ATOM     76  H   UNL     1       7.257   0.514   3.614  1.00  0.00     0.163 HD
ATOM     77  O   UNL     1       8.455   1.367   5.427  1.00  0.00    -0.273 OA
BRANCH  75  78
ATOM     78  C   UNL     1       6.487   1.434   6.809  1.00  0.00     0.173 C 
BRANCH  78  79
ATOM     79  C   UNL     1       5.742   2.780   6.858  1.00  0.00     0.063 C 
BRANCH  79  80
ATOM     80  C   UNL     1       4.287   2.874   6.408  1.00  0.00     0.158 C 
BRANCH  80  81
ATOM     81  O   UNL     1       3.514   1.732   6.725  1.00  0.00    -0.396 OA
ATOM     82  H   UNL     1       3.877   0.958   6.267  1.00  0.00     0.210 HD
ENDBRANCH  80  81
ENDBRANCH  79  80
ENDBRANCH  78  79
BRANCH  78  83
ATOM     83  N   UNL     1       5.720   0.304   7.337  1.00  0.00    -0.340 N 
ATOM     84  C   UNL     1       5.919  -0.469   8.452  1.00  0.00     0.258 C 
ATOM     85  H   UNL     1       4.930   0.058   6.803  1.00  0.00     0.164 HD
ATOM     86  O   UNL     1       5.185  -1.425   8.679  1.00  0.00    -0.269 OA
BRANCH  84  87
ATOM     87  C   UNL     1       6.969  -0.149   9.426  1.00  0.00     0.118 A 
ATOM     88  C   UNL     1       6.972   1.082  10.081  1.00  0.00     0.139 A 
ATOM     89  C   UNL     1       7.896  -1.128   9.790  1.00  0.00     0.216 A 
ATOM     90  F   UNL     1       6.025   1.996   9.832  1.00  0.00    -0.206 F 
ATOM     91  C   UNL     1       7.942   1.386  11.032  1.00  0.00     0.047 A 
ATOM     92  C   UNL     1       8.842  -0.845  10.778  1.00  0.00     0.305 A 
ATOM     93  F   UNL     1       7.876  -2.315   9.168  1.00  0.00    -0.198 F 
ATOM     94  C   UNL     1       8.884   0.423  11.386  1.00  0.00     0.092 A 
BRANCH  92  95
ATOM     95  N   UNL     1       9.783  -1.871  11.223  1.00  0.00     0.065 N 
ATOM     96  O   UNL     1       9.533  -3.055  10.971  1.00  0.00    -0.258 OA
ATOM     97  O   UNL     1      10.765  -1.488  11.876  1.00  0.00    -0.258 OA
ENDBRANCH  92  95
ENDBRANCH  84  87
ENDBRANCH  78  83
ENDBRANCH  75  78
ENDBRANCH  73  74
ENDBRANCH  72  73
ENDBRANCH   1  72
TORSDOF 20
