REMARK SMILES O=C(NCCCCNC(=O)c1cc(Br)ccc1OCc1ccccc1F)c1ccc(-c2c3nc(c(-c4cccc(S(=O)(=O)[O-])c4F)c4ccc([nH]4)c(-c4cccc(S(=O)(=O)[O-])c4F)c4nc(c(-c5cccc(S(=O)(=O)[O-])c5F)c5ccc2[nH]5)C=C4)C=C3)cc1
REMARK SMILES IDX 5 1 4 2 3 3 1 4 2 5 27 7 28 8 89 9 29 10 88 11 30 12 31 13
REMARK SMILES IDX 32 14 82 15 33 16 87 17 81 18 83 19 34 20 86 21 80 22 79 23
REMARK SMILES IDX 35 25 67 26 47 27 66 28 48 29 51 30 65 31 84 32 49 33 50 34
REMARK SMILES IDX 64 36 85 37 52 38 36 39 37 40 45 41 38 42 40 43 46 44 39 45
REMARK SMILES IDX 41 46 42 47 43 48 44 49 68 50 69 51 77 52 70 53 72 54 78 55
REMARK SMILES IDX 71 56 73 57 74 58 75 59 76 60 53 61 54 62 62 63 55 64 57 65
REMARK SMILES IDX 63 66 56 67 58 68 59 69 60 70 61 71 6 72 7 73 8 74 9 75
REMARK SMILES IDX 10 77 11 78 12 79 17 80 13 81 16 82 14 83 15 84 18 85 19 86
REMARK SMILES IDX 20 87 21 88 25 89 22 90 24 91 26 92 23 93
REMARK H PARENT 3 6 83 24 51 35 8 76
REMARK Flexibility Score: inf
ROOT
ATOM      1  C   UNL     1       4.606  -0.859  -2.469  1.00  0.00     0.023 C 
ENDROOT
BRANCH   1   2
ATOM      2  C   UNL     1       4.314   0.072  -1.301  1.00  0.00     0.116 C 
BRANCH   2   3
ATOM      3  N   UNL     1       2.894   0.267  -1.064  1.00  0.00    -0.352 N 
ATOM      4  O   UNL     1       0.958   0.157   0.089  1.00  0.00    -0.269 OA
ATOM      5  C   UNL     1       2.180   0.061   0.094  1.00  0.00     0.251 C 
ATOM      6  H   UNL     1       2.373   0.591  -1.834  1.00  0.00     0.163 HD
BRANCH   5   7
ATOM      7  C   UNL     1       2.907  -0.318   1.322  1.00  0.00     0.039 A 
ATOM      8  C   UNL     1       4.059   0.377   1.696  1.00  0.00     0.014 A 
ATOM      9  C   UNL     1       2.468  -1.413   2.068  1.00  0.00     0.014 A 
ATOM     10  C   UNL     1       4.867  -0.131   2.703  1.00  0.00     0.010 A 
ATOM     11  C   UNL     1       3.225  -1.853   3.157  1.00  0.00     0.010 A 
ATOM     12  C   UNL     1       4.450  -1.238   3.461  1.00  0.00    -0.014 A 
BRANCH  12  13
ATOM     13  C   UNL     1       5.273  -1.661   4.622  1.00  0.00     0.031 A 
ATOM     14  C   UNL     1       5.890  -3.028   4.705  1.00  0.00     0.074 A 
ATOM     15  C   UNL     1       5.467  -0.771   5.615  1.00  0.00     0.049 A 
ATOM     16  N   UNL     1       6.672  -3.515   5.633  1.00  0.00    -0.248 NA
ATOM     17  C   UNL     1       5.588  -3.977   3.621  1.00  0.00     0.031 C 
ATOM     18  C   UNL     1       4.872   0.568   5.663  1.00  0.00     0.029 A 
ATOM     19  N   UNL     1       6.215  -0.842   6.761  1.00  0.00    -0.354 N 
ATOM     20  C   UNL     1       6.919  -4.835   5.276  1.00  0.00     0.074 A 
ATOM     21  C   UNL     1       6.199  -5.076   4.043  1.00  0.00     0.031 C 
ATOM     22  C   UNL     1       5.314   1.207   6.752  1.00  0.00     0.029 A 
ATOM     23  C   UNL     1       6.163   0.303   7.519  1.00  0.00     0.049 A 
ATOM     24  H   UNL     1       6.738  -1.636   7.017  1.00  0.00     0.167 HD
ATOM     25  C   UNL     1       7.684  -5.753   5.914  1.00  0.00     0.034 A 
ATOM     26  C   UNL     1       6.717   0.598   8.710  1.00  0.00     0.034 A 
ATOM     27  C   UNL     1       8.424  -5.486   7.120  1.00  0.00     0.049 A 
ATOM     28  C   UNL     1       7.582  -0.425   9.379  1.00  0.00     0.074 A 
ATOM     29  C   UNL     1       9.298  -6.324   7.791  1.00  0.00     0.029 A 
ATOM     30  N   UNL     1       8.367  -4.305   7.846  1.00  0.00    -0.354 N 
ATOM     31  N   UNL     1       7.910  -1.622   8.957  1.00  0.00    -0.248 NA
ATOM     32  C   UNL     1       8.171  -0.058  10.673  1.00  0.00     0.031 C 
ATOM     33  C   UNL     1       9.735  -5.667   8.944  1.00  0.00     0.029 A 
ATOM     34  C   UNL     1       9.169  -4.402   8.970  1.00  0.00     0.049 A 
ATOM     35  H   UNL     1       7.835  -3.515   7.598  1.00  0.00     0.167 HD
ATOM     36  C   UNL     1       8.757  -2.148   9.923  1.00  0.00     0.074 A 
ATOM     37  C   UNL     1       8.910  -1.129  10.942  1.00  0.00     0.031 C 
ATOM     38  C   UNL     1       9.342  -3.369   9.963  1.00  0.00     0.034 A 
BRANCH  25  39
ATOM     39  C   UNL     1       7.791  -7.134   5.317  1.00  0.00     0.023 A 
ATOM     40  C   UNL     1       8.532  -7.333   4.135  1.00  0.00     0.012 A 
ATOM     41  C   UNL     1       7.241  -8.250   5.981  1.00  0.00     0.148 A 
ATOM     42  C   UNL     1       8.703  -8.614   3.609  1.00  0.00     0.002 A 
ATOM     43  C   UNL     1       7.454  -9.528   5.477  1.00  0.00     0.091 A 
ATOM     44  F   UNL     1       6.522  -8.041   7.093  1.00  0.00    -0.205 F 
ATOM     45  C   UNL     1       8.175  -9.711   4.286  1.00  0.00     0.022 A 
BRANCH  43  46
ATOM     46  S   UNL     1       6.894 -11.010   6.324  1.00  0.00     0.127 S 
ATOM     47  O   UNL     1       5.812 -11.459   5.449  1.00  0.00    -0.237 OA
ATOM     48  O   UNL     1       8.090 -11.853   6.295  1.00  0.00    -0.237 OA
ATOM     49  O   UNL     1       6.485 -10.583   7.655  1.00  0.00    -0.744 OA
ENDBRANCH  43  46
ENDBRANCH  25  39
BRANCH  26  50
ATOM     50  C   UNL     1       6.485   1.948   9.292  1.00  0.00     0.023 A 
ATOM     51  C   UNL     1       7.531   2.889   9.302  1.00  0.00     0.012 A 
ATOM     52  C   UNL     1       5.197   2.343   9.709  1.00  0.00     0.148 A 
ATOM     53  C   UNL     1       7.298   4.201   9.716  1.00  0.00     0.002 A 
ATOM     54  C   UNL     1       4.958   3.665  10.056  1.00  0.00     0.091 A 
ATOM     55  F   UNL     1       4.218   1.426   9.693  1.00  0.00    -0.205 F 
ATOM     56  C   UNL     1       6.010   4.593  10.075  1.00  0.00     0.022 A 
BRANCH  54  57
ATOM     57  S   UNL     1       3.306   4.298  10.368  1.00  0.00     0.127 S 
ATOM     58  O   UNL     1       3.393   4.680  11.775  1.00  0.00    -0.237 OA
ATOM     59  O   UNL     1       3.234   5.418   9.428  1.00  0.00    -0.237 OA
ATOM     60  O   UNL     1       2.396   3.201  10.070  1.00  0.00    -0.744 OA
ENDBRANCH  54  57
ENDBRANCH  26  50
BRANCH  38  61
ATOM     61  C   UNL     1      10.222  -3.691  11.142  1.00  0.00     0.023 A 
ATOM     62  C   UNL     1       9.639  -3.961  12.395  1.00  0.00     0.012 A 
ATOM     63  C   UNL     1      11.612  -3.850  10.975  1.00  0.00     0.148 A 
ATOM     64  C   UNL     1      10.428  -4.371  13.469  1.00  0.00     0.002 A 
ATOM     65  C   UNL     1      12.385  -4.308  12.034  1.00  0.00     0.091 A 
ATOM     66  F   UNL     1      12.147  -3.570   9.777  1.00  0.00    -0.205 F 
ATOM     67  C   UNL     1      11.796  -4.560  13.284  1.00  0.00     0.022 A 
BRANCH  65  68
ATOM     68  S   UNL     1      14.133  -4.684  11.864  1.00  0.00     0.127 S 
ATOM     69  O   UNL     1      14.742  -3.655  12.706  1.00  0.00    -0.237 OA
ATOM     70  O   UNL     1      14.211  -6.040  12.406  1.00  0.00    -0.237 OA
ATOM     71  O   UNL     1      14.433  -4.579  10.442  1.00  0.00    -0.744 OA
ENDBRANCH  65  68
ENDBRANCH  38  61
ENDBRANCH  12  13
ENDBRANCH   5   7
ENDBRANCH   2   3
ENDBRANCH   1   2
BRANCH   1  72
ATOM     72  C   UNL     1       4.039  -0.421  -3.817  1.00  0.00     0.023 C 
BRANCH  72  73
ATOM     73  C   UNL     1       4.282   1.038  -4.175  1.00  0.00     0.116 C 
BRANCH  73  74
ATOM     74  N   UNL     1       5.671   1.416  -4.000  1.00  0.00    -0.352 N 
ATOM     75  C   UNL     1       6.572   1.935  -4.880  1.00  0.00     0.255 C 
ATOM     76  H   UNL     1       6.022   1.273  -3.092  1.00  0.00     0.163 HD
ATOM     77  O   UNL     1       7.671   2.252  -4.435  1.00  0.00    -0.269 OA
BRANCH  75  78
ATOM     78  C   UNL     1       6.165   2.216  -6.269  1.00  0.00     0.082 A 
ATOM     79  C   UNL     1       5.140   3.178  -6.378  1.00  0.00     0.033 A 
ATOM     80  C   UNL     1       6.677   1.610  -7.425  1.00  0.00     0.132 A 
ATOM     81  C   UNL     1       4.542   3.442  -7.604  1.00  0.00     0.019 A 
ATOM     82  C   UNL     1       6.026   1.870  -8.646  1.00  0.00     0.048 A 
ATOM     83  Br  UNL     1       3.135   4.696  -7.711  1.00  0.00    -0.051 Br
ATOM     84  C   UNL     1       4.962   2.768  -8.740  1.00  0.00     0.019 A 
BRANCH  80  85
ATOM     85  O   UNL     1       7.755   0.798  -7.627  1.00  0.00    -0.488 OA
BRANCH  85  86
ATOM     86  C   UNL     1       8.852   0.698  -6.715  1.00  0.00     0.268 C 
BRANCH  86  87
ATOM     87  C   UNL     1       9.611   1.957  -6.357  1.00  0.00     0.025 A 
ATOM     88  C   UNL     1       9.359   3.216  -6.918  1.00  0.00     0.010 A 
ATOM     89  C   UNL     1      10.499   1.879  -5.275  1.00  0.00     0.129 A 
ATOM     90  C   UNL     1       9.848   4.371  -6.299  1.00  0.00     0.001 A 
ATOM     91  C   UNL     1      11.008   3.023  -4.669  1.00  0.00     0.039 A 
ATOM     92  F   UNL     1      10.809   0.681  -4.757  1.00  0.00    -0.207 F 
ATOM     93  C   UNL     1      10.649   4.275  -5.159  1.00  0.00     0.003 A 
ENDBRANCH  86  87
ENDBRANCH  85  86
ENDBRANCH  80  85
ENDBRANCH  75  78
ENDBRANCH  73  74
ENDBRANCH  72  73
ENDBRANCH   1  72
TORSDOF 17
