REMARK SMILES Cc1nc(CSCC(=O)N2CCCC[C@@H]2C(=O)NCCCCNC(=O)c2ccc(-c3c4nc(c(-c5cccc(S(=O)(=O)[O-])c5F)c5ccc([nH]5)c(-c5cccc(S(=O)(=O)[O-])c5F)c5nc(c(-c6cccc(S(=O)(=O)[O-])c6F)c6ccc3[nH]6)C=C5)C=C4)cc2)cs1
REMARK SMILES IDX 19 1 18 2 16 3 17 4 15 6 10 7 11 8 12 9 14 10 13 11 8 12
REMARK SMILES IDX 9 13 7 14 6 15 5 16 4 17 1 18 2 19 3 20 90 21 89 22 20 23
REMARK SMILES IDX 21 24 22 25 23 26 24 27 25 29 26 30 27 31 88 32 28 33 87 34
REMARK SMILES IDX 29 35 30 36 31 37 81 38 32 39 86 40 80 41 82 42 33 43 85 44
REMARK SMILES IDX 79 45 78 46 34 48 66 49 46 50 65 51 47 52 50 53 64 54 83 55
REMARK SMILES IDX 48 56 49 57 63 59 84 60 51 61 35 62 36 63 44 64 37 65 39 66
REMARK SMILES IDX 45 67 38 68 40 69 41 70 42 71 43 72 67 73 68 74 76 75 69 76
REMARK SMILES IDX 71 77 77 78 70 79 72 80 73 81 74 82 75 83 52 84 53 85 61 86
REMARK SMILES IDX 54 87 56 88 62 89 55 90 57 91 58 92 59 93 60 94
REMARK H PARENT 18 5 23 28 82 47 50 58
REMARK Flexibility Score: inf
ROOT
ATOM      1  C   UNL     1       0.931  -5.234   0.062  1.00  0.00     0.116 C 
ENDROOT
BRANCH   1   2
ATOM      2  N   UNL     1       2.267  -4.697   0.276  1.00  0.00    -0.354 N 
ATOM      3  C   UNL     1       3.327  -4.617  -0.581  1.00  0.00     0.242 C 
ATOM      4  O   UNL     1       4.393  -4.193  -0.123  1.00  0.00    -0.273 OA
ATOM      5  H   UNL     1       2.432  -4.336   1.177  1.00  0.00     0.163 HD
BRANCH   3   6
ATOM      6  C   UNL     1       3.277  -5.247  -1.990  1.00  0.00     0.174 C 
ATOM      7  N   UNL     1       2.031  -5.027  -2.757  1.00  0.00    -0.330 N 
ATOM      8  C   UNL     1       1.738  -5.996  -3.812  1.00  0.00     0.120 C 
ATOM      9  C   UNL     1       1.778  -7.430  -3.324  1.00  0.00     0.022 C 
ATOM     10  C   UNL     1       3.528  -6.753  -1.672  1.00  0.00     0.035 C 
ATOM     11  C   UNL     1       3.154  -7.741  -2.763  1.00  0.00     0.004 C 
BRANCH   7  12
ATOM     12  C   UNL     1       1.355  -3.816  -2.903  1.00  0.00     0.233 C 
ATOM     13  O   UNL     1       0.120  -3.846  -2.997  1.00  0.00    -0.274 OA
BRANCH  12  14
ATOM     14  C   UNL     1       2.079  -2.520  -3.251  1.00  0.00     0.170 C 
BRANCH  14  15
ATOM     15  S   UNL     1       3.087  -1.688  -2.011  1.00  0.00    -0.146 SA
BRANCH  15  16
ATOM     16  C   UNL     1       1.973  -1.643  -0.584  1.00  0.00     0.127 C 
BRANCH  16  17
ATOM     17  C   UNL     1       1.067  -0.469  -0.480  1.00  0.00     0.061 A 
ATOM     18  C   UNL     1      -2.449   0.496  -0.257  1.00  0.00     0.079 C 
ATOM     19  C   UNL     1      -0.965   0.403  -0.295  1.00  0.00     0.090 A 
ATOM     20  N   UNL     1      -0.301  -0.700  -0.563  1.00  0.00    -0.246 NA
ATOM     21  S   UNL     1      -0.000   1.781   0.047  1.00  0.00    -0.127 S 
ATOM     22  C   UNL     1       1.411   0.829  -0.152  1.00  0.00     0.091 A 
ENDBRANCH  16  17
ENDBRANCH  15  16
ENDBRANCH  14  15
ENDBRANCH  12  14
ENDBRANCH   7  12
ENDBRANCH   3   6
ENDBRANCH   1   2
BRANCH   1  23
ATOM     23  C   UNL     1       0.311  -5.712   1.370  1.00  0.00     0.023 C 
BRANCH  23  24
ATOM     24  C   UNL     1      -0.046  -4.582   2.337  1.00  0.00     0.023 C 
BRANCH  24  25
ATOM     25  C   UNL     1      -1.159  -3.657   1.851  1.00  0.00     0.116 C 
BRANCH  25  26
ATOM     26  N   UNL     1      -2.433  -4.354   1.737  1.00  0.00    -0.352 N 
ATOM     27  C   UNL     1      -3.603  -4.166   2.433  1.00  0.00     0.251 C 
ATOM     28  H   UNL     1      -2.461  -5.067   1.059  1.00  0.00     0.163 HD
ATOM     29  O   UNL     1      -4.500  -5.000   2.355  1.00  0.00    -0.269 OA
BRANCH  27  30
ATOM     30  C   UNL     1      -3.780  -2.966   3.281  1.00  0.00     0.039 A 
ATOM     31  C   UNL     1      -4.395  -3.095   4.529  1.00  0.00     0.014 A 
ATOM     32  C   UNL     1      -3.360  -1.709   2.839  1.00  0.00     0.014 A 
ATOM     33  C   UNL     1      -4.533  -1.975   5.353  1.00  0.00     0.010 A 
ATOM     34  C   UNL     1      -3.421  -0.612   3.692  1.00  0.00     0.010 A 
ATOM     35  C   UNL     1      -4.018  -0.729   4.955  1.00  0.00    -0.014 A 
BRANCH  35  36
ATOM     36  C   UNL     1      -4.085   0.455   5.850  1.00  0.00     0.031 A 
ATOM     37  C   UNL     1      -4.860   1.680   5.439  1.00  0.00     0.074 A 
ATOM     38  C   UNL     1      -3.387   0.454   7.004  1.00  0.00     0.049 A 
ATOM     39  N   UNL     1      -5.008   2.813   6.076  1.00  0.00    -0.248 NA
ATOM     40  C   UNL     1      -5.538   1.638   4.132  1.00  0.00     0.031 C 
ATOM     41  C   UNL     1      -2.530  -0.638   7.474  1.00  0.00     0.029 A 
ATOM     42  N   UNL     1      -3.269   1.410   7.982  1.00  0.00    -0.354 N 
ATOM     43  C   UNL     1      -5.773   3.623   5.244  1.00  0.00     0.074 A 
ATOM     44  C   UNL     1      -6.021   2.869   4.035  1.00  0.00     0.031 C 
ATOM     45  C   UNL     1      -1.987  -0.296   8.653  1.00  0.00     0.029 A 
ATOM     46  C   UNL     1      -2.430   1.047   9.011  1.00  0.00     0.049 A 
ATOM     47  H   UNL     1      -3.740   2.274   7.950  1.00  0.00     0.167 HD
ATOM     48  C   UNL     1      -6.255   4.867   5.477  1.00  0.00     0.034 A 
ATOM     49  C   UNL     1      -2.059   1.722  10.116  1.00  0.00     0.034 A 
ATOM     50  C   UNL     1      -6.034   5.600   6.694  1.00  0.00     0.049 A 
ATOM     51  C   UNL     1      -2.636   3.090  10.363  1.00  0.00     0.074 A 
ATOM     52  C   UNL     1      -6.532   6.841   7.053  1.00  0.00     0.029 A 
ATOM     53  N   UNL     1      -5.250   5.164   7.750  1.00  0.00    -0.354 N 
ATOM     54  N   UNL     1      -3.477   3.777   9.628  1.00  0.00    -0.248 NA
ATOM     55  C   UNL     1      -2.248   3.759  11.613  1.00  0.00     0.031 C 
ATOM     56  C   UNL     1      -6.031   7.163   8.319  1.00  0.00     0.029 A 
ATOM     57  C   UNL     1      -5.251   6.108   8.762  1.00  0.00     0.049 A 
ATOM     58  H   UNL     1      -4.764   4.308   7.776  1.00  0.00     0.167 HD
ATOM     59  C   UNL     1      -3.759   4.931  10.350  1.00  0.00     0.074 A 
ATOM     60  C   UNL     1      -3.011   4.842  11.587  1.00  0.00     0.031 C 
ATOM     61  C   UNL     1      -4.556   5.975  10.016  1.00  0.00     0.034 A 
BRANCH  48  62
ATOM     62  C   UNL     1      -7.129   5.493   4.419  1.00  0.00     0.023 A 
ATOM     63  C   UNL     1      -8.426   4.985   4.203  1.00  0.00     0.012 A 
ATOM     64  C   UNL     1      -6.703   6.626   3.699  1.00  0.00     0.148 A 
ATOM     65  C   UNL     1      -9.275   5.573   3.266  1.00  0.00     0.002 A 
ATOM     66  C   UNL     1      -7.571   7.236   2.800  1.00  0.00     0.091 A 
ATOM     67  F   UNL     1      -5.461   7.086   3.905  1.00  0.00    -0.205 F 
ATOM     68  C   UNL     1      -8.852   6.704   2.574  1.00  0.00     0.022 A 
BRANCH  66  69
ATOM     69  S   UNL     1      -7.157   8.744   1.917  1.00  0.00     0.127 S 
ATOM     70  O   UNL     1      -7.077   8.266   0.537  1.00  0.00    -0.237 OA
ATOM     71  O   UNL     1      -8.314   9.594   2.201  1.00  0.00    -0.237 OA
ATOM     72  O   UNL     1      -5.901   9.213   2.485  1.00  0.00    -0.744 OA
ENDBRANCH  66  69
ENDBRANCH  48  62
BRANCH  49  73
ATOM     73  C   UNL     1      -1.148   1.092  11.115  1.00  0.00     0.023 A 
ATOM     74  C   UNL     1      -1.648   0.746  12.386  1.00  0.00     0.012 A 
ATOM     75  C   UNL     1       0.204   0.838  10.818  1.00  0.00     0.148 A 
ATOM     76  C   UNL     1      -0.807   0.206  13.360  1.00  0.00     0.002 A 
ATOM     77  C   UNL     1       1.023   0.246  11.773  1.00  0.00     0.091 A 
ATOM     78  F   UNL     1       0.665   1.182   9.607  1.00  0.00    -0.205 F 
ATOM     79  C   UNL     1       0.526  -0.051  13.051  1.00  0.00     0.022 A 
BRANCH  77  80
ATOM     80  S   UNL     1       2.716  -0.238  11.418  1.00  0.00     0.127 S 
ATOM     81  O   UNL     1       3.475   0.764  12.161  1.00  0.00    -0.237 OA
ATOM     82  O   UNL     1       2.768  -1.590  11.975  1.00  0.00    -0.237 OA
ATOM     83  O   UNL     1       2.841  -0.184   9.968  1.00  0.00    -0.744 OA
ENDBRANCH  77  80
ENDBRANCH  49  73
BRANCH  61  84
ATOM     84  C   UNL     1      -4.724   7.078  11.028  1.00  0.00     0.023 A 
ATOM     85  C   UNL     1      -3.659   7.960  11.301  1.00  0.00     0.012 A 
ATOM     86  C   UNL     1      -5.965   7.276  11.666  1.00  0.00     0.148 A 
ATOM     87  C   UNL     1      -3.814   8.993  12.224  1.00  0.00     0.002 A 
ATOM     88  C   UNL     1      -6.128   8.340  12.543  1.00  0.00     0.091 A 
ATOM     89  F   UNL     1      -6.961   6.415  11.407  1.00  0.00    -0.205 F 
ATOM     90  C   UNL     1      -5.050   9.191  12.835  1.00  0.00     0.022 A 
BRANCH  88  91
ATOM     91  S   UNL     1      -7.712   8.730  13.296  1.00  0.00     0.127 S 
ATOM     92  O   UNL     1      -7.494   8.312  14.680  1.00  0.00    -0.237 OA
ATOM     93  O   UNL     1      -7.799  10.178  13.103  1.00  0.00    -0.237 OA
ATOM     94  O   UNL     1      -8.707   7.962  12.560  1.00  0.00    -0.744 OA
ENDBRANCH  88  91
ENDBRANCH  61  84
ENDBRANCH  35  36
ENDBRANCH  27  30
ENDBRANCH  25  26
ENDBRANCH  24  25
ENDBRANCH  23  24
ENDBRANCH   1  23
TORSDOF 19
