REMARK SMILES O=C(NCCCCNC(=O)c1ccc(N2C(=O)/C(=C\c3ccc4c(c3)OCO4)[NH+]=C2c2ccccc2)cc1)c1ccc(-c2c3nc(c(-c4cccc(S(=O)(=O)[O-])c4F)c4ccc([nH]4)c(-c4cccc(S(=O)(=O)[O-])c4F)c4nc(c(-c5cccc(S(=O)(=O)[O-])c5F)c5ccc2[nH]5)C=C4)C=C3)cc1
REMARK SMILES IDX 5 1 4 2 3 3 1 4 2 5 39 7 40 8 101 9 41 10 100 11 42 12 43 13
REMARK SMILES IDX 44 14 94 15 45 16 99 17 93 18 95 19 46 20 98 21 92 22 91 23
REMARK SMILES IDX 47 25 79 26 59 27 78 28 60 29 63 30 77 31 96 32 61 33 62 34
REMARK SMILES IDX 76 36 97 37 64 38 48 39 49 40 57 41 50 42 52 43 58 44 51 45
REMARK SMILES IDX 53 46 54 47 55 48 56 49 80 50 81 51 89 52 82 53 84 54 90 55
REMARK SMILES IDX 83 56 85 57 86 58 87 59 88 60 65 61 66 62 74 63 67 64 69 65
REMARK SMILES IDX 75 66 68 67 70 68 71 69 72 70 73 71 6 72 7 73 8 74 9 75
REMARK SMILES IDX 10 77 11 78 12 79 38 80 13 81 37 82 14 83 15 84 16 85 30 86
REMARK SMILES IDX 17 87 18 88 29 89 19 90 31 92 32 93 36 94 33 95 35 96 34 97
REMARK SMILES IDX 20 98 21 99 25 100 22 101 24 102 23 103 26 104 28 105 27 106
REMARK H PARENT 3 6 95 24 63 35 8 76 29 91
REMARK Flexibility Score: inf
ROOT
ATOM      1  C   UNL     1       4.982   1.264   2.282  1.00  0.00     0.023 C 
ENDROOT
BRANCH   1   2
ATOM      2  C   UNL     1       4.635   0.188   1.262  1.00  0.00     0.116 C 
BRANCH   2   3
ATOM      3  N   UNL     1       3.201   0.002   1.102  1.00  0.00    -0.352 N 
ATOM      4  O   UNL     1       1.215   0.035   0.038  1.00  0.00    -0.269 OA
ATOM      5  C   UNL     1       2.439   0.068  -0.043  1.00  0.00     0.251 C 
ATOM      6  H   UNL     1       2.705  -0.200   1.928  1.00  0.00     0.163 HD
BRANCH   5   7
ATOM      7  C   UNL     1       3.103   0.212  -1.357  1.00  0.00     0.039 A 
ATOM      8  C   UNL     1       4.221  -0.562  -1.676  1.00  0.00     0.014 A 
ATOM      9  C   UNL     1       2.611   1.143  -2.275  1.00  0.00     0.014 A 
ATOM     10  C   UNL     1       4.939  -0.295  -2.836  1.00  0.00     0.010 A 
ATOM     11  C   UNL     1       3.282   1.345  -3.486  1.00  0.00     0.010 A 
ATOM     12  C   UNL     1       4.472   0.654  -3.761  1.00  0.00    -0.014 A 
BRANCH  12  13
ATOM     13  C   UNL     1       5.203   0.844  -5.040  1.00  0.00     0.031 A 
ATOM     14  C   UNL     1       5.836   2.160  -5.397  1.00  0.00     0.074 A 
ATOM     15  C   UNL     1       5.284  -0.197  -5.892  1.00  0.00     0.049 A 
ATOM     16  N   UNL     1       6.519   2.478  -6.467  1.00  0.00    -0.248 NA
ATOM     17  C   UNL     1       5.676   3.267  -4.440  1.00  0.00     0.031 C 
ATOM     18  C   UNL     1       4.663  -1.507  -5.678  1.00  0.00     0.029 A 
ATOM     19  N   UNL     1       5.907  -0.320  -7.107  1.00  0.00    -0.354 N 
ATOM     20  C   UNL     1       6.835   3.825  -6.336  1.00  0.00     0.074 A 
ATOM     21  C   UNL     1       6.263   4.269  -5.082  1.00  0.00     0.031 C 
ATOM     22  C   UNL     1       4.947  -2.304  -6.716  1.00  0.00     0.029 A 
ATOM     23  C   UNL     1       5.722  -1.549  -7.694  1.00  0.00     0.049 A 
ATOM     24  H   UNL     1       6.435   0.402  -7.519  1.00  0.00     0.167 HD
ATOM     25  C   UNL     1       7.547   4.615  -7.176  1.00  0.00     0.034 A 
ATOM     26  C   UNL     1       6.109  -2.016  -8.896  1.00  0.00     0.034 A 
ATOM     27  C   UNL     1       8.141   4.157  -8.406  1.00  0.00     0.049 A 
ATOM     28  C   UNL     1       6.922  -1.129  -9.792  1.00  0.00     0.074 A 
ATOM     29  C   UNL     1       8.949   4.859  -9.284  1.00  0.00     0.029 A 
ATOM     30  N   UNL     1       7.982   2.888  -8.941  1.00  0.00    -0.354 N 
ATOM     31  N   UNL     1       7.334   0.097  -9.582  1.00  0.00    -0.248 NA
ATOM     32  C   UNL     1       7.348  -1.697 -11.078  1.00  0.00     0.031 C 
ATOM     33  C   UNL     1       9.255   4.022 -10.363  1.00  0.00     0.029 A 
ATOM     34  C   UNL     1       8.661   2.790 -10.145  1.00  0.00     0.049 A 
ATOM     35  H   UNL     1       7.462   2.162  -8.526  1.00  0.00     0.167 HD
ATOM     36  C   UNL     1       8.086   0.442 -10.697  1.00  0.00     0.074 A 
ATOM     37  C   UNL     1       8.096  -0.717 -11.568  1.00  0.00     0.031 C 
ATOM     38  C   UNL     1       8.697   1.618 -10.982  1.00  0.00     0.034 A 
BRANCH  25  39
ATOM     39  C   UNL     1       7.757   6.055  -6.783  1.00  0.00     0.023 A 
ATOM     40  C   UNL     1       8.647   6.370  -5.736  1.00  0.00     0.012 A 
ATOM     41  C   UNL     1       7.128   7.099  -7.490  1.00  0.00     0.148 A 
ATOM     42  C   UNL     1       8.884   7.698  -5.379  1.00  0.00     0.002 A 
ATOM     43  C   UNL     1       7.400   8.421  -7.155  1.00  0.00     0.091 A 
ATOM     44  F   UNL     1       6.269   6.782  -8.469  1.00  0.00    -0.205 F 
ATOM     45  C   UNL     1       8.270   8.722  -6.095  1.00  0.00     0.022 A 
BRANCH  43  46
ATOM     46  S   UNL     1       6.716   9.810  -8.068  1.00  0.00     0.127 S 
ATOM     47  O   UNL     1       5.704  10.305  -7.136  1.00  0.00    -0.237 OA
ATOM     48  O   UNL     1       7.880  10.684  -8.223  1.00  0.00    -0.237 OA
ATOM     49  O   UNL     1       6.206   9.256  -9.315  1.00  0.00    -0.744 OA
ENDBRANCH  43  46
ENDBRANCH  25  39
BRANCH  26  50
ATOM     50  C   UNL     1       5.751  -3.407  -9.289  1.00  0.00     0.023 A 
ATOM     51  C   UNL     1       6.754  -4.391  -9.359  1.00  0.00     0.012 A 
ATOM     52  C   UNL     1       4.410  -3.770  -9.523  1.00  0.00     0.148 A 
ATOM     53  C   UNL     1       6.429  -5.711  -9.676  1.00  0.00     0.002 A 
ATOM     54  C   UNL     1       4.087  -5.097  -9.777  1.00  0.00     0.091 A 
ATOM     55  F   UNL     1       3.473  -2.813  -9.463  1.00  0.00    -0.205 F 
ATOM     56  C   UNL     1       5.097  -6.066  -9.871  1.00  0.00     0.022 A 
BRANCH  54  57
ATOM     57  S   UNL     1       2.386  -5.664  -9.887  1.00  0.00     0.127 S 
ATOM     58  O   UNL     1       2.253  -5.932 -11.316  1.00  0.00    -0.237 OA
ATOM     59  O   UNL     1       2.408  -6.854  -9.036  1.00  0.00    -0.237 OA
ATOM     60  O   UNL     1       1.575  -4.572  -9.366  1.00  0.00    -0.744 OA
ENDBRANCH  54  57
ENDBRANCH  26  50
BRANCH  38  61
ATOM     61  C   UNL     1       9.448   1.709 -12.284  1.00  0.00     0.023 A 
ATOM     62  C   UNL     1       8.736   1.787 -13.498  1.00  0.00     0.012 A 
ATOM     63  C   UNL     1      10.855   1.780 -12.301  1.00  0.00     0.148 A 
ATOM     64  C   UNL     1       9.414   1.903 -14.711  1.00  0.00     0.002 A 
ATOM     65  C   UNL     1      11.521   1.944 -13.510  1.00  0.00     0.091 A 
ATOM     66  F   UNL     1      11.515   1.683 -11.138  1.00  0.00    -0.205 F 
ATOM     67  C   UNL     1      10.804   1.994 -14.716  1.00  0.00     0.022 A 
BRANCH  65  68
ATOM     68  S   UNL     1      13.302   2.162 -13.604  1.00  0.00     0.127 S 
ATOM     69  O   UNL     1      13.732   0.875 -14.149  1.00  0.00    -0.237 OA
ATOM     70  O   UNL     1      13.429   3.289 -14.530  1.00  0.00    -0.237 OA
ATOM     71  O   UNL     1      13.743   2.446 -12.245  1.00  0.00    -0.744 OA
ENDBRANCH  65  68
ENDBRANCH  38  61
ENDBRANCH  12  13
ENDBRANCH   5   7
ENDBRANCH   2   3
ENDBRANCH   1   2
BRANCH   1  72
ATOM     72  C   UNL     1       4.513   0.982   3.708  1.00  0.00     0.023 C 
BRANCH  72  73
ATOM     73  C   UNL     1       4.940  -0.369   4.276  1.00  0.00     0.116 C 
BRANCH  73  74
ATOM     74  N   UNL     1       6.387  -0.515   4.340  1.00  0.00    -0.352 N 
ATOM     75  C   UNL     1       7.177  -0.757   5.435  1.00  0.00     0.251 C 
ATOM     76  H   UNL     1       6.862  -0.428   3.482  1.00  0.00     0.163 HD
ATOM     77  O   UNL     1       8.400  -0.721   5.360  1.00  0.00    -0.269 OA
BRANCH  75  78
ATOM     78  C   UNL     1       6.531  -1.032   6.729  1.00  0.00     0.040 A 
ATOM     79  C   UNL     1       6.762  -0.162   7.793  1.00  0.00     0.018 A 
ATOM     80  C   UNL     1       5.679  -2.127   6.879  1.00  0.00     0.018 A 
ATOM     81  C   UNL     1       6.055  -0.333   8.985  1.00  0.00     0.053 A 
ATOM     82  C   UNL     1       4.987  -2.301   8.079  1.00  0.00     0.053 A 
ATOM     83  C   UNL     1       5.129  -1.379   9.127  1.00  0.00     0.136 A 
BRANCH  83  84
ATOM     84  N   UNL     1       4.352  -1.512  10.301  1.00  0.00    -0.154 N 
ATOM     85  C   UNL     1       4.067  -2.718  10.889  1.00  0.00     0.385 C 
ATOM     86  C   UNL     1       3.777  -0.536  11.076  1.00  0.00     0.295 C 
ATOM     87  O   UNL     1       4.307  -3.851  10.510  1.00  0.00    -0.236 OA
ATOM     88  C   UNL     1       3.381  -2.308  12.161  1.00  0.00     0.216 C 
ATOM     89  N   UNL     1       3.190  -0.945  12.165  1.00  0.00    -0.233 N 
ATOM     90  C   UNL     1       3.088  -3.105  13.199  1.00  0.00     0.068 C 
ATOM     91  H   UNL     1       2.717  -0.403  12.837  1.00  0.00     0.312 HD
BRANCH  86  92
ATOM     92  C   UNL     1       3.743   0.880  10.679  1.00  0.00     0.065 A 
ATOM     93  C   UNL     1       4.246   1.841  11.559  1.00  0.00     0.017 A 
ATOM     94  C   UNL     1       3.177   1.258   9.456  1.00  0.00     0.017 A 
ATOM     95  C   UNL     1       4.215   3.187  11.196  1.00  0.00     0.001 A 
ATOM     96  C   UNL     1       3.143   2.607   9.103  1.00  0.00     0.001 A 
ATOM     97  C   UNL     1       3.665   3.568   9.970  1.00  0.00     0.000 A 
ENDBRANCH  86  92
BRANCH  90  98
ATOM     98  C   UNL     1       3.569  -4.483  13.278  1.00  0.00    -0.017 A 
ATOM     99  C   UNL     1       2.726  -5.575  12.994  1.00  0.00     0.012 A 
ATOM    100  C   UNL     1       4.940  -4.684  13.506  1.00  0.00     0.059 A 
ATOM    101  C   UNL     1       3.257  -6.866  12.877  1.00  0.00     0.051 A 
ATOM    102  C   UNL     1       5.436  -5.954  13.342  1.00  0.00     0.166 A 
ATOM    103  C   UNL     1       4.621  -7.015  13.025  1.00  0.00     0.165 A 
ATOM    104  O   UNL     1       6.749  -6.303  13.402  1.00  0.00    -0.454 OA
ATOM    105  O   UNL     1       5.329  -8.163  12.843  1.00  0.00    -0.454 OA
ATOM    106  C   UNL     1       6.676  -7.644  12.882  1.00  0.00     0.468 C 
ENDBRANCH  90  98
ENDBRANCH  83  84
ENDBRANCH  75  78
ENDBRANCH  73  74
ENDBRANCH  72  73
ENDBRANCH   1  72
TORSDOF 17
