REMARK SMILES CC(C)CCOc1ccc(/C=C2\SC(=S)N(CC(=O)NCCCCNC(=O)c3ccc(-c4c5nc(c(-c6cccc(S(=O)(=O)[O-])c6F)c6ccc([nH]6)c(-c6cccc(S(=O)(=O)[O-])c6F)c6nc(c(-c7cccc(S(=O)(=O)[O-])c7F)c7ccc4[nH]7)C=C6)C=C5)cc3)C2=O)cc1
REMARK SMILES IDX 21 1 20 2 18 3 19 4 17 6 16 7 11 8 12 9 13 10 91 11 14 12
REMARK SMILES IDX 92 13 15 14 10 15 7 16 8 17 94 18 9 19 93 20 6 21 5 22 4 23
REMARK SMILES IDX 2 24 1 25 3 26 22 27 23 28 24 29 25 30 26 31 27 33 28 34
REMARK SMILES IDX 29 35 90 36 30 37 89 38 31 39 32 40 33 41 83 42 34 43 88 44
REMARK SMILES IDX 82 45 84 46 35 47 87 48 81 49 80 50 36 52 68 53 48 54 67 55
REMARK SMILES IDX 49 56 52 57 66 58 85 59 50 60 51 61 65 63 86 64 53 65 37 66
REMARK SMILES IDX 38 67 46 68 39 69 41 70 47 71 40 72 42 73 43 74 44 75 45 76
REMARK SMILES IDX 69 77 70 78 78 79 71 80 73 81 79 82 72 83 74 84 75 85 76 86
REMARK SMILES IDX 77 87 54 88 55 89 63 90 56 91 58 92 64 93 57 94 59 95 60 96
REMARK SMILES IDX 61 97 62 98
REMARK H PARENT 20 5 25 32 84 51 52 62
REMARK Flexibility Score: inf
ROOT
ATOM      1  C   UNL     1       7.270  -2.705   8.136  1.00  0.00     0.116 C 
ENDROOT
BRANCH   1   2
ATOM      2  N   UNL     1       8.348  -3.149   7.276  1.00  0.00    -0.355 N 
ATOM      3  C   UNL     1       8.998  -2.515   6.258  1.00  0.00     0.240 C 
ATOM      4  O   UNL     1      10.086  -2.983   5.907  1.00  0.00    -0.273 OA
ATOM      5  H   UNL     1       8.664  -4.064   7.455  1.00  0.00     0.163 HD
BRANCH   3   6
ATOM      6  C   UNL     1       8.528  -1.170   5.691  1.00  0.00     0.227 C 
BRANCH   6   7
ATOM      7  N   UNL     1       7.094  -1.106   5.449  1.00  0.00    -0.283 N 
ATOM      8  C   UNL     1       4.314  -2.440   3.538  1.00  0.00     0.029 C 
ATOM      9  C   UNL     1       5.080  -1.782   4.426  1.00  0.00     0.081 C 
ATOM     10  S   UNL     1       4.590  -0.686   5.663  1.00  0.00    -0.054 SA
ATOM     11  C   UNL     1       6.562  -1.916   4.458  1.00  0.00     0.266 C 
ATOM     12  C   UNL     1       6.227  -0.224   6.048  1.00  0.00     0.148 C 
ATOM     13  O   UNL     1       7.202  -2.610   3.678  1.00  0.00    -0.268 OA
ATOM     14  S   UNL     1       6.565   1.102   7.003  1.00  0.00    -0.052 S 
BRANCH   8  15
ATOM     15  C   UNL     1       2.850  -2.346   3.368  1.00  0.00    -0.024 A 
ATOM     16  C   UNL     1       0.106  -2.087   2.852  1.00  0.00     0.119 A 
ATOM     17  C   UNL     1       0.748  -3.289   2.571  1.00  0.00     0.047 A 
ATOM     18  C   UNL     1       0.787  -1.064   3.488  1.00  0.00     0.047 A 
ATOM     19  C   UNL     1       2.119  -3.422   2.842  1.00  0.00     0.012 A 
ATOM     20  C   UNL     1       2.161  -1.161   3.648  1.00  0.00     0.012 A 
BRANCH  16  21
ATOM     21  O   UNL     1      -1.192  -1.862   2.496  1.00  0.00    -0.494 OA
BRANCH  21  22
ATOM     22  C   UNL     1      -1.288  -1.255   1.190  1.00  0.00     0.230 C 
BRANCH  22  23
ATOM     23  C   UNL     1      -0.957   0.254   1.152  1.00  0.00     0.044 C 
BRANCH  23  24
ATOM     24  C   UNL     1       0.499   0.610   0.762  1.00  0.00    -0.014 C 
ATOM     25  C   UNL     1       0.815   0.307  -0.701  1.00  0.00     0.007 C 
ATOM     26  C   UNL     1       0.799   2.079   1.076  1.00  0.00     0.007 C 
ENDBRANCH  23  24
ENDBRANCH  22  23
ENDBRANCH  21  22
ENDBRANCH  16  21
ENDBRANCH   8  15
ENDBRANCH   6   7
ENDBRANCH   3   6
ENDBRANCH   1   2
BRANCH   1  27
ATOM     27  C   UNL     1       5.970  -3.468   7.896  1.00  0.00     0.023 C 
BRANCH  27  28
ATOM     28  C   UNL     1       5.985  -4.918   8.383  1.00  0.00     0.023 C 
BRANCH  28  29
ATOM     29  C   UNL     1       6.307  -5.108   9.861  1.00  0.00     0.116 C 
BRANCH  29  30
ATOM     30  N   UNL     1       5.375  -4.420  10.745  1.00  0.00    -0.352 N 
ATOM     31  C   UNL     1       4.748  -4.894  11.874  1.00  0.00     0.251 C 
ATOM     32  H   UNL     1       5.165  -3.490  10.501  1.00  0.00     0.163 HD
ATOM     33  O   UNL     1       3.893  -4.215  12.436  1.00  0.00    -0.269 OA
BRANCH  31  34
ATOM     34  C   UNL     1       5.082  -6.241  12.383  1.00  0.00     0.039 A 
ATOM     35  C   UNL     1       4.043  -7.132  12.662  1.00  0.00     0.014 A 
ATOM     36  C   UNL     1       6.413  -6.641  12.529  1.00  0.00     0.014 A 
ATOM     37  C   UNL     1       4.340  -8.454  12.998  1.00  0.00     0.010 A 
ATOM     38  C   UNL     1       6.706  -7.977  12.791  1.00  0.00     0.010 A 
ATOM     39  C   UNL     1       5.672  -8.901  13.011  1.00  0.00    -0.014 A 
BRANCH  39  40
ATOM     40  C   UNL     1       5.997 -10.342  13.166  1.00  0.00     0.031 A 
ATOM     41  C   UNL     1       6.823 -10.828  14.322  1.00  0.00     0.074 A 
ATOM     42  C   UNL     1       5.640 -11.202  12.191  1.00  0.00     0.049 A 
ATOM     43  N   UNL     1       7.252 -12.037  14.575  1.00  0.00    -0.248 NA
ATOM     44  C   UNL     1       7.244  -9.822  15.309  1.00  0.00     0.031 C 
ATOM     45  C   UNL     1       4.918 -10.837  10.970  1.00  0.00     0.029 A 
ATOM     46  N   UNL     1       5.871 -12.548  12.050  1.00  0.00    -0.354 N 
ATOM     47  C   UNL     1       8.026 -11.934  15.723  1.00  0.00     0.074 A 
ATOM     48  C   UNL     1       8.024 -10.537  16.106  1.00  0.00     0.031 C 
ATOM     49  C   UNL     1       4.775 -11.926  10.201  1.00  0.00     0.029 A 
ATOM     50  C   UNL     1       5.428 -13.058  10.851  1.00  0.00     0.049 A 
ATOM     51  H   UNL     1       6.311 -13.095  12.740  1.00  0.00     0.167 HD
ATOM     52  C   UNL     1       8.667 -12.913  16.406  1.00  0.00     0.034 A 
ATOM     53  C   UNL     1       5.558 -14.287  10.315  1.00  0.00     0.034 A 
ATOM     54  C   UNL     1       8.649 -14.303  16.032  1.00  0.00     0.049 A 
ATOM     55  C   UNL     1       6.248 -15.364  11.102  1.00  0.00     0.074 A 
ATOM     56  C   UNL     1       9.163 -15.385  16.724  1.00  0.00     0.029 A 
ATOM     57  N   UNL     1       8.124 -14.800  14.849  1.00  0.00    -0.354 N 
ATOM     58  N   UNL     1       6.804 -15.289  12.287  1.00  0.00    -0.248 NA
ATOM     59  C   UNL     1       6.303 -16.702  10.495  1.00  0.00     0.031 C 
ATOM     60  C   UNL     1       8.995 -16.529  15.936  1.00  0.00     0.029 A 
ATOM     61  C   UNL     1       8.336 -16.168  14.772  1.00  0.00     0.049 A 
ATOM     62  H   UNL     1       7.667 -14.261  14.164  1.00  0.00     0.167 HD
ATOM     63  C   UNL     1       7.265 -16.568  12.574  1.00  0.00     0.074 A 
ATOM     64  C   UNL     1       6.893 -17.407  11.453  1.00  0.00     0.031 C 
ATOM     65  C   UNL     1       7.947 -17.003  13.663  1.00  0.00     0.034 A 
BRANCH  52  66
ATOM     66  C   UNL     1       9.432 -12.516  17.643  1.00  0.00     0.023 A 
ATOM     67  C   UNL     1       8.739 -12.084  18.792  1.00  0.00     0.012 A 
ATOM     68  C   UNL     1      10.838 -12.609  17.680  1.00  0.00     0.148 A 
ATOM     69  C   UNL     1       9.433 -11.706  19.941  1.00  0.00     0.002 A 
ATOM     70  C   UNL     1      11.519 -12.278  18.845  1.00  0.00     0.091 A 
ATOM     71  F   UNL     1      11.483 -13.002  16.573  1.00  0.00    -0.205 F 
ATOM     72  C   UNL     1      10.821 -11.812  19.971  1.00  0.00     0.022 A 
BRANCH  70  73
ATOM     73  S   UNL     1      13.298 -12.461  19.008  1.00  0.00     0.127 S 
ATOM     74  O   UNL     1      13.740 -11.067  18.988  1.00  0.00    -0.237 OA
ATOM     75  O   UNL     1      13.422 -13.120  20.309  1.00  0.00    -0.237 OA
ATOM     76  O   UNL     1      13.724 -13.271  17.875  1.00  0.00    -0.744 OA
ENDBRANCH  70  73
ENDBRANCH  52  66
BRANCH  53  77
ATOM     77  C   UNL     1       4.995 -14.554   8.962  1.00  0.00     0.023 A 
ATOM     78  C   UNL     1       3.846 -15.354   8.827  1.00  0.00     0.012 A 
ATOM     79  C   UNL     1       5.557 -13.954   7.818  1.00  0.00     0.148 A 
ATOM     80  C   UNL     1       3.274 -15.566   7.571  1.00  0.00     0.002 A 
ATOM     81  C   UNL     1       4.947 -14.119   6.581  1.00  0.00     0.091 A 
ATOM     82  F   UNL     1       6.656 -13.203   7.972  1.00  0.00    -0.205 F 
ATOM     83  C   UNL     1       3.816 -14.938   6.452  1.00  0.00     0.022 A 
BRANCH  81  84
ATOM     84  S   UNL     1       5.486 -13.232   5.114  1.00  0.00     0.127 S 
ATOM     85  O   UNL     1       5.954 -14.321   4.261  1.00  0.00    -0.237 OA
ATOM     86  O   UNL     1       4.242 -12.596   4.678  1.00  0.00    -0.237 OA
ATOM     87  O   UNL     1       6.511 -12.302   5.567  1.00  0.00    -0.744 OA
ENDBRANCH  81  84
ENDBRANCH  53  77
BRANCH  65  88
ATOM     88  C   UNL     1       8.343 -18.457  13.705  1.00  0.00     0.023 A 
ATOM     89  C   UNL     1       9.360 -18.931  12.852  1.00  0.00     0.012 A 
ATOM     90  C   UNL     1       7.759 -19.337  14.638  1.00  0.00     0.148 A 
ATOM     91  C   UNL     1       9.768 -20.264  12.906  1.00  0.00     0.002 A 
ATOM     92  C   UNL     1       8.206 -20.651  14.721  1.00  0.00     0.091 A 
ATOM     93  F   UNL     1       6.782 -18.873  15.430  1.00  0.00    -0.205 F 
ATOM     94  C   UNL     1       9.201 -21.119  13.847  1.00  0.00     0.022 A 
BRANCH  92  95
ATOM     95  S   UNL     1       7.603 -21.803  15.961  1.00  0.00     0.127 S 
ATOM     96  O   UNL     1       6.873 -22.768  15.140  1.00  0.00    -0.237 OA
ATOM     97  O   UNL     1       8.847 -22.311  16.540  1.00  0.00    -0.237 OA
ATOM     98  O   UNL     1       6.783 -21.020  16.875  1.00  0.00    -0.744 OA
ENDBRANCH  92  95
ENDBRANCH  65  88
ENDBRANCH  39  40
ENDBRANCH  31  34
ENDBRANCH  29  30
ENDBRANCH  28  29
ENDBRANCH  27  28
ENDBRANCH   1  27
TORSDOF 20
