REMARK SMILES COCC[N@H+]1C[C@@H]2CN(c3nc(CO)cs3)C[C@]2(C(=O)NCCCCNC(=O)c2ccc(-c3c4nc(c(-c5cccc(S(=O)(=O)[O-])c5F)c5ccc([nH]5)c(-c5cccc(S(=O)(=O)[O-])c5F)c5nc(c(-c6cccc(S(=O)(=O)[O-])c6F)c6ccc3[nH]6)C=C5)C=C4)cc2)C1
REMARK SMILES IDX 23 1 22 2 21 3 19 4 20 5 18 7 5 8 6 9 92 10 7 12 8 13 17 14
REMARK SMILES IDX 9 15 4 16 3 17 2 18 1 19 10 20 11 21 16 22 12 23 15 24 13 25
REMARK SMILES IDX 14 26 24 28 25 29 26 30 27 31 28 33 29 34 30 35 91 36 31 37
REMARK SMILES IDX 90 38 32 39 33 40 34 41 84 42 35 43 89 44 83 45 85 46 36 47
REMARK SMILES IDX 88 48 82 49 81 50 37 52 69 53 49 54 68 55 50 56 53 57 67 58
REMARK SMILES IDX 86 59 51 60 52 61 66 63 87 64 54 65 38 66 39 67 47 68 40 69
REMARK SMILES IDX 42 70 48 71 41 72 43 73 44 74 45 75 46 76 70 77 71 78 79 79
REMARK SMILES IDX 72 80 74 81 80 82 73 83 75 84 76 85 77 86 78 87 55 88 56 89
REMARK SMILES IDX 64 90 57 91 59 92 65 93 58 94 60 95 61 96 62 97 63 98
REMARK H PARENT 21 6 5 11 14 27 26 32 85 51 53 62
REMARK Flexibility Score: inf
ROOT
ATOM      1  C   UNL     1       1.844   7.067   0.163  1.00  0.00     0.023 C 
ENDROOT
BRANCH   1   2
ATOM      2  C   UNL     1       1.333   5.630   0.259  1.00  0.00     0.116 C 
BRANCH   2   3
ATOM      3  N   UNL     1       0.305   5.413  -0.733  1.00  0.00    -0.355 N 
ATOM      4  C   UNL     1       0.494   4.917  -1.993  1.00  0.00     0.234 C 
ATOM      5  O   UNL     1      -0.316   5.236  -2.867  1.00  0.00    -0.274 OA
ATOM      6  H   UNL     1      -0.617   5.643  -0.478  1.00  0.00     0.163 HD
BRANCH   4   7
ATOM      7  C   UNL     1       1.718   4.027  -2.234  1.00  0.00     0.125 C 
ATOM      8  N   UNL     1       1.200   1.644  -2.092  1.00  0.00    -0.332 N 
ATOM      9  C   UNL     1       2.647   1.710  -2.114  1.00  0.00     0.269 C 
ATOM     10  C   UNL     1       0.722   2.876  -2.766  1.00  0.00     0.281 C 
ATOM     11  H   UNL     1       0.889   1.593  -1.121  1.00  0.00     0.348 HD
ATOM     12  C   UNL     1       2.862   3.095  -2.659  1.00  0.00     0.087 C 
ATOM     13  C   UNL     1       4.133   3.773  -2.220  1.00  0.00     0.129 C 
ATOM     14  C   UNL     1       2.435   5.223  -3.052  1.00  0.00     0.142 C 
ATOM     15  N   UNL     1       3.881   5.112  -2.704  1.00  0.00    -0.346 N 
BRANCH   8  16
ATOM     16  C   UNL     1       0.610   0.424  -2.657  1.00  0.00     0.291 C 
BRANCH  16  17
ATOM     17  C   UNL     1       1.038  -0.892  -1.973  1.00  0.00     0.221 C 
BRANCH  17  18
ATOM     18  O   UNL     1       0.383  -1.161  -0.732  1.00  0.00    -0.379 OA
ATOM     19  C   UNL     1       0.771  -0.286   0.318  1.00  0.00     0.195 C 
ENDBRANCH  17  18
ENDBRANCH  16  17
ENDBRANCH   8  16
BRANCH  15  20
ATOM     20  C   UNL     1       4.528   6.141  -2.097  1.00  0.00     0.185 A 
ATOM     21  N   UNL     1       4.681   6.262  -0.794  1.00  0.00    -0.223 NA
ATOM     22  S   UNL     1       5.297   7.376  -3.022  1.00  0.00    -0.105 S 
ATOM     23  C   UNL     1       5.351   7.442  -0.482  1.00  0.00     0.079 A 
ATOM     24  C   UNL     1       5.824   8.132  -1.581  1.00  0.00     0.095 A 
BRANCH  23  25
ATOM     25  C   UNL     1       5.479   7.875   0.945  1.00  0.00     0.213 C 
BRANCH  25  26
ATOM     26  O   UNL     1       6.827   7.833   1.400  1.00  0.00    -0.390 OA
ATOM     27  H   UNL     1       7.159   6.923   1.348  1.00  0.00     0.211 HD
ENDBRANCH  25  26
ENDBRANCH  23  25
ENDBRANCH  15  20
ENDBRANCH   4   7
ENDBRANCH   2   3
ENDBRANCH   1   2
BRANCH   1  28
ATOM     28  C   UNL     1       0.872   8.142   0.640  1.00  0.00     0.023 C 
BRANCH  28  29
ATOM     29  C   UNL     1       0.483   8.024   2.106  1.00  0.00     0.116 C 
BRANCH  29  30
ATOM     30  N   UNL     1       1.635   7.960   2.998  1.00  0.00    -0.352 N 
ATOM     31  C   UNL     1       1.834   8.601   4.199  1.00  0.00     0.251 C 
ATOM     32  H   UNL     1       2.372   7.378   2.700  1.00  0.00     0.163 HD
ATOM     33  O   UNL     1       2.916   8.549   4.759  1.00  0.00    -0.269 OA
BRANCH  31  34
ATOM     34  C   UNL     1       0.713   9.369   4.778  1.00  0.00     0.039 A 
ATOM     35  C   UNL     1       0.934  10.677   5.215  1.00  0.00     0.014 A 
ATOM     36  C   UNL     1      -0.565   8.808   4.821  1.00  0.00     0.014 A 
ATOM     37  C   UNL     1      -0.151  11.450   5.628  1.00  0.00     0.010 A 
ATOM     38  C   UNL     1      -1.652   9.608   5.141  1.00  0.00     0.010 A 
ATOM     39  C   UNL     1      -1.456  10.933   5.556  1.00  0.00    -0.014 A 
BRANCH  39  40
ATOM     40  C   UNL     1      -2.639  11.756   5.901  1.00  0.00     0.031 A 
ATOM     41  C   UNL     1      -3.546  11.333   7.023  1.00  0.00     0.074 A 
ATOM     42  C   UNL     1      -2.963  12.809   5.126  1.00  0.00     0.049 A 
ATOM     43  N   UNL     1      -4.667  11.872   7.424  1.00  0.00    -0.248 NA
ATOM     44  C   UNL     1      -3.166  10.118   7.763  1.00  0.00     0.031 C 
ATOM     45  C   UNL     1      -2.227  13.241   3.936  1.00  0.00     0.029 A 
ATOM     46  N   UNL     1      -4.017  13.683   5.201  1.00  0.00    -0.354 N 
ATOM     47  C   UNL     1      -5.147  11.041   8.428  1.00  0.00     0.074 A 
ATOM     48  C   UNL     1      -4.222   9.935   8.541  1.00  0.00     0.031 C 
ATOM     49  C   UNL     1      -2.852  14.297   3.392  1.00  0.00     0.029 A 
ATOM     50  C   UNL     1      -4.041  14.605   4.181  1.00  0.00     0.049 A 
ATOM     51  H   UNL     1      -4.692  13.652   5.916  1.00  0.00     0.167 HD
ATOM     52  C   UNL     1      -6.236  11.203   9.215  1.00  0.00     0.034 A 
ATOM     53  C   UNL     1      -4.922  15.588   3.913  1.00  0.00     0.034 A 
ATOM     54  C   UNL     1      -7.115  12.336   9.137  1.00  0.00     0.049 A 
ATOM     55  C   UNL     1      -6.072  15.809   4.856  1.00  0.00     0.074 A 
ATOM     56  C   UNL     1      -8.177  12.664   9.960  1.00  0.00     0.029 A 
ATOM     57  N   UNL     1      -7.034  13.330   8.172  1.00  0.00    -0.354 N 
ATOM     58  N   UNL     1      -6.405  15.122   5.923  1.00  0.00    -0.248 NA
ATOM     59  C   UNL     1      -6.941  16.963   4.589  1.00  0.00     0.031 C 
ATOM     60  C   UNL     1      -8.745  13.852   9.486  1.00  0.00     0.029 A 
ATOM     61  C   UNL     1      -8.029  14.271   8.376  1.00  0.00     0.049 A 
ATOM     62  H   UNL     1      -6.367  13.362   7.449  1.00  0.00     0.167 HD
ATOM     63  C   UNL     1      -7.506  15.771   6.467  1.00  0.00     0.074 A 
ATOM     64  C   UNL     1      -7.767  16.923   5.626  1.00  0.00     0.031 C 
ATOM     65  C   UNL     1      -8.246  15.435   7.553  1.00  0.00     0.034 A 
BRANCH  52  66
ATOM     66  C   UNL     1      -6.483  10.159  10.273  1.00  0.00     0.023 A 
ATOM     67  C   UNL     1      -5.609  10.074  11.378  1.00  0.00     0.012 A 
ATOM     68  C   UNL     1      -7.573   9.273  10.188  1.00  0.00     0.148 A 
ATOM     69  C   UNL     1      -5.786   9.093  12.352  1.00  0.00     0.002 A 
ATOM     70  C   UNL     1      -7.769   8.326  11.188  1.00  0.00     0.091 A 
ATOM     71  F   UNL     1      -8.380   9.346   9.119  1.00  0.00    -0.205 F 
ATOM     72  C   UNL     1      -6.870   8.226  12.262  1.00  0.00     0.022 A 
BRANCH  70  73
ATOM     73  S   UNL     1      -9.184   7.218  11.195  1.00  0.00     0.127 S 
ATOM     74  O   UNL     1      -8.591   5.979  10.696  1.00  0.00    -0.237 OA
ATOM     75  O   UNL     1      -9.552   7.189  12.611  1.00  0.00    -0.237 OA
ATOM     76  O   UNL     1     -10.175   7.841  10.329  1.00  0.00    -0.744 OA
ENDBRANCH  70  73
ENDBRANCH  52  66
BRANCH  53  77
ATOM     77  C   UNL     1      -4.684  16.483   2.747  1.00  0.00     0.023 A 
ATOM     78  C   UNL     1      -4.229  17.797   2.969  1.00  0.00     0.012 A 
ATOM     79  C   UNL     1      -4.826  16.018   1.425  1.00  0.00     0.148 A 
ATOM     80  C   UNL     1      -3.936  18.639   1.895  1.00  0.00     0.002 A 
ATOM     81  C   UNL     1      -4.483  16.844   0.361  1.00  0.00     0.091 A 
ATOM     82  F   UNL     1      -5.266  14.765   1.238  1.00  0.00    -0.205 F 
ATOM     83  C   UNL     1      -4.051  18.159   0.594  1.00  0.00     0.022 A 
BRANCH  81  84
ATOM     84  S   UNL     1      -4.464  16.269  -1.341  1.00  0.00     0.127 S 
ATOM     85  O   UNL     1      -5.571  17.023  -1.923  1.00  0.00    -0.237 OA
ATOM     86  O   UNL     1      -3.133  16.686  -1.785  1.00  0.00    -0.237 OA
ATOM     87  O   UNL     1      -4.649  14.826  -1.272  1.00  0.00    -0.744 OA
ENDBRANCH  81  84
ENDBRANCH  53  77
BRANCH  65  88
ATOM     88  C   UNL     1      -9.407  16.326   7.906  1.00  0.00     0.023 A 
ATOM     89  C   UNL     1     -10.577  16.285   7.121  1.00  0.00     0.012 A 
ATOM     90  C   UNL     1      -9.372  17.139   9.055  1.00  0.00     0.148 A 
ATOM     91  C   UNL     1     -11.684  17.061   7.460  1.00  0.00     0.002 A 
ATOM     92  C   UNL     1     -10.495  17.876   9.412  1.00  0.00     0.091 A 
ATOM     93  F   UNL     1      -8.242  17.180   9.777  1.00  0.00    -0.205 F 
ATOM     94  C   UNL     1     -11.648  17.846   8.610  1.00  0.00     0.022 A 
BRANCH  92  95
ATOM     95  S   UNL     1     -10.568  18.839  10.927  1.00  0.00     0.127 S 
ATOM     96  O   UNL     1     -10.411  20.202  10.421  1.00  0.00    -0.237 OA
ATOM     97  O   UNL     1     -11.905  18.527  11.433  1.00  0.00    -0.237 OA
ATOM     98  O   UNL     1      -9.479  18.349  11.762  1.00  0.00    -0.744 OA
ENDBRANCH  92  95
ENDBRANCH  65  88
ENDBRANCH  39  40
ENDBRANCH  31  34
ENDBRANCH  29  30
ENDBRANCH  28  29
ENDBRANCH   1  28
TORSDOF 20
