REMARK SMILES Nc1cc(F)c(OCc2ccc(C(=O)NCCCCNC(=O)c3ccc(-c4c5nc(c(-c6cccc(S(=O)(=O)[O-])c6F)c6ccc([nH]6)c(-c6cccc(S(=O)(=O)[O-])c6F)c6nc(c(-c7cccc(S(=O)(=O)[O-])c7F)c7ccc4[nH]7)C=C6)C=C5)cc3)cc2)cc1F
REMARK SMILES IDX 17 1 16 2 15 3 13 4 14 5 12 7 9 8 10 9 87 10 11 11 86 12
REMARK SMILES IDX 8 13 7 14 6 15 2 16 3 17 89 18 4 19 88 20 90 21 5 22 1 23
REMARK SMILES IDX 18 26 19 27 20 28 21 29 22 31 23 32 24 33 85 34 25 35 84 36
REMARK SMILES IDX 26 37 27 38 28 39 78 40 29 41 83 42 77 43 79 44 30 45 82 46
REMARK SMILES IDX 76 47 75 48 31 50 63 51 43 52 62 53 44 54 47 55 61 56 80 57
REMARK SMILES IDX 45 58 46 59 60 61 81 62 48 63 32 64 33 65 41 66 34 67 36 68
REMARK SMILES IDX 42 69 35 70 37 71 38 72 39 73 40 74 64 75 65 76 73 77 66 78
REMARK SMILES IDX 68 79 74 80 67 81 69 82 70 83 71 84 72 85 49 86 50 87 58 88
REMARK SMILES IDX 51 89 53 90 59 91 52 92 54 93 55 94 56 95 57 96
REMARK H PARENT 15 6 1 24 1 25 20 30 79 49 47 60
REMARK Flexibility Score: inf
ROOT
ATOM      1  C   UNL     1      -6.893   0.732  -2.084  1.00  0.00     0.023 C 
ENDROOT
BRANCH   1   2
ATOM      2  C   UNL     1      -6.289  -0.282  -1.118  1.00  0.00     0.116 C 
BRANCH   2   3
ATOM      3  N   UNL     1      -7.247  -1.202  -0.522  1.00  0.00    -0.352 N 
ATOM      4  C   UNL     1      -7.093  -2.537  -0.211  1.00  0.00     0.251 C 
ATOM      5  O   UNL     1      -8.028  -3.175   0.263  1.00  0.00    -0.269 OA
ATOM      6  H   UNL     1      -8.128  -0.817  -0.311  1.00  0.00     0.163 HD
BRANCH   4   7
ATOM      7  C   UNL     1      -5.817  -3.227  -0.510  1.00  0.00     0.039 A 
ATOM      8  C   UNL     1      -3.434  -4.368  -1.489  1.00  0.00    -0.011 A 
ATOM      9  C   UNL     1      -4.665  -5.024  -1.654  1.00  0.00     0.008 A 
ATOM     10  C   UNL     1      -3.417  -3.196  -0.717  1.00  0.00     0.008 A 
ATOM     11  C   UNL     1      -5.850  -4.460  -1.165  1.00  0.00     0.014 A 
ATOM     12  C   UNL     1      -4.590  -2.646  -0.206  1.00  0.00     0.014 A 
BRANCH   8  13
ATOM     13  C   UNL     1      -2.216  -4.859  -2.259  1.00  0.00     0.265 C 
BRANCH  13  14
ATOM     14  O   UNL     1      -0.982  -4.896  -1.536  1.00  0.00    -0.486 OA
BRANCH  14  15
ATOM     15  C   UNL     1      -0.324  -3.721  -1.300  1.00  0.00     0.158 A 
ATOM     16  C   UNL     1       0.829  -1.313  -0.390  1.00  0.00     0.071 A 
ATOM     17  C   UNL     1       1.009  -2.493   0.328  1.00  0.00     0.071 A 
ATOM     18  C   UNL     1       0.162  -1.387  -1.623  1.00  0.00     0.149 A 
ATOM     19  C   UNL     1       0.431  -3.678  -0.124  1.00  0.00     0.167 A 
ATOM     20  C   UNL     1      -0.406  -2.574  -2.088  1.00  0.00     0.091 A 
ATOM     21  F   UNL     1       0.011  -0.274  -2.358  1.00  0.00    -0.205 F 
ATOM     22  F   UNL     1       0.565  -4.782   0.627  1.00  0.00    -0.203 F 
BRANCH  16  23
ATOM     23  N   UNL     1       1.400  -0.125   0.049  1.00  0.00    -0.396 N 
ATOM     24  H   UNL     1       1.864  -0.093   0.917  1.00  0.00     0.156 HD
ATOM     25  H   UNL     1       1.341   0.685  -0.508  1.00  0.00     0.156 HD
ENDBRANCH  16  23
ENDBRANCH  14  15
ENDBRANCH  13  14
ENDBRANCH   8  13
ENDBRANCH   4   7
ENDBRANCH   2   3
ENDBRANCH   1   2
BRANCH   1  26
ATOM     26  C   UNL     1      -7.954   1.662  -1.508  1.00  0.00     0.023 C 
BRANCH  26  27
ATOM     27  C   UNL     1      -7.596   2.357  -0.201  1.00  0.00     0.116 C 
BRANCH  27  28
ATOM     28  N   UNL     1      -6.446   3.249  -0.297  1.00  0.00    -0.352 N 
ATOM     29  C   UNL     1      -6.355   4.603  -0.046  1.00  0.00     0.251 C 
ATOM     30  H   UNL     1      -5.608   2.821  -0.584  1.00  0.00     0.163 HD
ATOM     31  O   UNL     1      -5.296   5.192  -0.247  1.00  0.00    -0.269 OA
BRANCH  29  32
ATOM     32  C   UNL     1      -7.550   5.348   0.407  1.00  0.00     0.039 A 
ATOM     33  C   UNL     1      -8.353   4.846   1.430  1.00  0.00     0.014 A 
ATOM     34  C   UNL     1      -7.917   6.520  -0.261  1.00  0.00     0.014 A 
ATOM     35  C   UNL     1      -9.628   5.369   1.615  1.00  0.00     0.010 A 
ATOM     36  C   UNL     1      -9.159   7.107   0.004  1.00  0.00     0.010 A 
ATOM     37  C   UNL     1     -10.058   6.491   0.886  1.00  0.00    -0.014 A 
BRANCH  37  38
ATOM     38  C   UNL     1     -11.460   6.968   1.040  1.00  0.00     0.031 A 
ATOM     39  C   UNL     1     -12.416   6.960  -0.127  1.00  0.00     0.074 A 
ATOM     40  C   UNL     1     -11.897   7.349   2.256  1.00  0.00     0.049 A 
ATOM     41  N   UNL     1     -13.679   7.307  -0.156  1.00  0.00    -0.248 NA
ATOM     42  C   UNL     1     -11.897   6.509  -1.430  1.00  0.00     0.031 C 
ATOM     43  C   UNL     1     -11.071   7.413   3.463  1.00  0.00     0.029 A 
ATOM     44  N   UNL     1     -13.144   7.728   2.685  1.00  0.00    -0.354 N 
ATOM     45  C   UNL     1     -14.088   7.165  -1.476  1.00  0.00     0.074 A 
ATOM     46  C   UNL     1     -12.942   6.699  -2.225  1.00  0.00     0.031 C 
ATOM     47  C   UNL     1     -11.843   7.751   4.506  1.00  0.00     0.029 A 
ATOM     48  C   UNL     1     -13.205   7.984   4.035  1.00  0.00     0.049 A 
ATOM     49  H   UNL     1     -13.920   7.809   2.085  1.00  0.00     0.167 HD
ATOM     50  C   UNL     1     -15.311   7.380  -2.015  1.00  0.00     0.034 A 
ATOM     51  C   UNL     1     -14.235   8.367   4.812  1.00  0.00     0.034 A 
ATOM     52  C   UNL     1     -16.472   7.772  -1.263  1.00  0.00     0.049 A 
ATOM     53  C   UNL     1     -15.587   8.573   4.197  1.00  0.00     0.074 A 
ATOM     54  C   UNL     1     -17.764   7.966  -1.722  1.00  0.00     0.029 A 
ATOM     55  N   UNL     1     -16.489   8.017   0.100  1.00  0.00    -0.354 N 
ATOM     56  N   UNL     1     -15.962   8.374   2.957  1.00  0.00    -0.248 NA
ATOM     57  C   UNL     1     -16.659   9.048   5.083  1.00  0.00     0.031 C 
ATOM     58  C   UNL     1     -18.564   8.328  -0.633  1.00  0.00     0.029 A 
ATOM     59  C   UNL     1     -17.768   8.359   0.501  1.00  0.00     0.049 A 
ATOM     60  H   UNL     1     -15.707   7.957   0.694  1.00  0.00     0.167 HD
ATOM     61  C   UNL     1     -17.312   8.696   2.913  1.00  0.00     0.074 A 
ATOM     62  C   UNL     1     -17.697   9.078   4.256  1.00  0.00     0.031 C 
ATOM     63  C   UNL     1     -18.148   8.696   1.848  1.00  0.00     0.034 A 
BRANCH  50  64
ATOM     64  C   UNL     1     -15.488   7.140  -3.490  1.00  0.00     0.023 A 
ATOM     65  C   UNL     1     -15.668   5.823  -3.955  1.00  0.00     0.012 A 
ATOM     66  C   UNL     1     -15.576   8.216  -4.395  1.00  0.00     0.148 A 
ATOM     67  C   UNL     1     -15.924   5.577  -5.303  1.00  0.00     0.002 A 
ATOM     68  C   UNL     1     -15.858   7.965  -5.733  1.00  0.00     0.091 A 
ATOM     69  F   UNL     1     -15.386   9.459  -3.930  1.00  0.00    -0.205 F 
ATOM     70  C   UNL     1     -16.029   6.647  -6.189  1.00  0.00     0.022 A 
BRANCH  68  71
ATOM     71  S   UNL     1     -16.067   9.275  -6.946  1.00  0.00     0.127 S 
ATOM     72  O   UNL     1     -14.885   9.088  -7.786  1.00  0.00    -0.237 OA
ATOM     73  O   UNL     1     -17.332   8.906  -7.582  1.00  0.00    -0.237 OA
ATOM     74  O   UNL     1     -16.104  10.520  -6.192  1.00  0.00    -0.744 OA
ENDBRANCH  68  71
ENDBRANCH  50  64
BRANCH  51  75
ATOM     75  C   UNL     1     -14.013   8.524   6.274  1.00  0.00     0.023 A 
ATOM     76  C   UNL     1     -14.494   7.535   7.152  1.00  0.00     0.012 A 
ATOM     77  C   UNL     1     -13.239   9.585   6.782  1.00  0.00     0.148 A 
ATOM     78  C   UNL     1     -14.204   7.598   8.515  1.00  0.00     0.002 A 
ATOM     79  C   UNL     1     -12.915   9.616   8.132  1.00  0.00     0.091 A 
ATOM     80  F   UNL     1     -12.800  10.515   5.923  1.00  0.00    -0.205 F 
ATOM     81  C   UNL     1     -13.404   8.629   9.002  1.00  0.00     0.022 A 
BRANCH  79  82
ATOM     82  S   UNL     1     -11.787  10.829   8.828  1.00  0.00     0.127 S 
ATOM     83  O   UNL     1     -12.662  11.563   9.738  1.00  0.00    -0.237 OA
ATOM     84  O   UNL     1     -10.796   9.973   9.481  1.00  0.00    -0.237 OA
ATOM     85  O   UNL     1     -11.276  11.591   7.697  1.00  0.00    -0.744 OA
ENDBRANCH  79  82
ENDBRANCH  51  75
BRANCH  63  86
ATOM     86  C   UNL     1     -19.570   9.129   2.070  1.00  0.00     0.023 A 
ATOM     87  C   UNL     1     -19.864  10.504   2.124  1.00  0.00     0.012 A 
ATOM     88  C   UNL     1     -20.617   8.188   2.103  1.00  0.00     0.148 A 
ATOM     89  C   UNL     1     -21.185  10.940   2.215  1.00  0.00     0.002 A 
ATOM     90  C   UNL     1     -21.933   8.630   2.164  1.00  0.00     0.091 A 
ATOM     91  F   UNL     1     -20.305   6.885   2.060  1.00  0.00    -0.205 F 
ATOM     92  C   UNL     1     -22.218  10.005   2.224  1.00  0.00     0.022 A 
BRANCH  90  93
ATOM     93  S   UNL     1     -23.335   7.509   2.109  1.00  0.00     0.127 S 
ATOM     94  O   UNL     1     -23.886   7.655   3.455  1.00  0.00    -0.237 OA
ATOM     95  O   UNL     1     -24.155   8.092   1.047  1.00  0.00    -0.237 OA
ATOM     96  O   UNL     1     -22.789   6.194   1.801  1.00  0.00    -0.744 OA
ENDBRANCH  90  93
ENDBRANCH  63  86
ENDBRANCH  37  38
ENDBRANCH  29  32
ENDBRANCH  27  28
ENDBRANCH  26  27
ENDBRANCH   1  26
TORSDOF 18
