REMARK SMILES CN1CC[N@H+](CC(=O)NCCCCNC(=O)c2ccc(-c3c4nc(c(-c5cccc(S(=O)(=O)[O-])c5F)c5ccc([nH]5)c(-c5cccc(S(=O)(=O)[O-])c5F)c5nc(c(-c6cccc(S(=O)(=O)[O-])c6F)c6ccc3[nH]6)C=C5)C=C4)cc2)C(C)(C)C1=O
REMARK SMILES IDX 12 1 11 2 10 3 9 4 7 5 8 6 6 8 5 9 1 10 2 11 3 12 83 13 4 14
REMARK SMILES IDX 80 15 84 16 81 17 82 18 13 20 14 21 15 22 16 24 17 25 18 26
REMARK SMILES IDX 79 27 19 28 78 29 20 30 21 31 22 32 72 33 23 34 77 35 71 36
REMARK SMILES IDX 73 37 24 38 76 39 70 40 69 41 25 43 57 44 37 45 56 46 38 47
REMARK SMILES IDX 41 48 55 49 74 50 39 51 40 52 54 54 75 55 42 56 26 57 27 58
REMARK SMILES IDX 35 59 28 60 30 61 36 62 29 63 31 64 32 65 33 66 34 67 58 68
REMARK SMILES IDX 59 69 67 70 60 71 62 72 68 73 61 74 63 75 64 76 65 77 66 78
REMARK SMILES IDX 43 79 44 80 52 81 45 82 47 83 53 84 46 85 48 86 49 87 50 88
REMARK SMILES IDX 51 89
REMARK H PARENT 9 7 5 19 14 23 73 42 41 53
REMARK Flexibility Score: inf
ROOT
ATOM      1  C   UNL     1       3.070  -2.187   2.657  1.00  0.00     0.023 C 
ENDROOT
BRANCH   1   2
ATOM      2  C   UNL     1       2.477  -3.554   2.348  1.00  0.00     0.023 C 
BRANCH   2   3
ATOM      3  C   UNL     1       1.185  -3.918   3.075  1.00  0.00     0.116 C 
BRANCH   3   4
ATOM      4  N   UNL     1       0.092  -2.981   2.864  1.00  0.00    -0.351 N 
ATOM      5  C   UNL     1      -1.030  -2.989   2.091  1.00  0.00     0.275 C 
ATOM      6  O   UNL     1      -1.847  -2.084   2.300  1.00  0.00    -0.269 OA
ATOM      7  H   UNL     1       0.183  -2.159   3.398  1.00  0.00     0.163 HD
BRANCH   5   8
ATOM      8  C   UNL     1      -1.340  -4.071   1.046  1.00  0.00     0.364 C 
BRANCH   8   9
ATOM      9  N   UNL     1      -1.065  -3.758  -0.393  1.00  0.00    -0.314 N 
ATOM     10  C   UNL     1       0.218   0.377  -0.526  1.00  0.00     0.147 C 
ATOM     11  N   UNL     1      -0.182  -1.019  -0.589  1.00  0.00    -0.335 N 
ATOM     12  C   UNL     1      -1.610  -1.295  -0.690  1.00  0.00     0.180 C 
ATOM     13  C   UNL     1       0.752  -2.022  -0.302  1.00  0.00     0.283 C 
ATOM     14  C   UNL     1      -1.966  -2.758  -0.975  1.00  0.00     0.285 C 
ATOM     15  C   UNL     1       0.351  -3.477  -0.747  1.00  0.00     0.172 C 
ATOM     16  O   UNL     1       1.887  -1.734   0.067  1.00  0.00    -0.268 OA
ATOM     17  C   UNL     1       0.665  -3.392  -2.268  1.00  0.00     0.090 C 
ATOM     18  C   UNL     1       1.183  -4.711  -0.337  1.00  0.00     0.090 C 
ATOM     19  H   UNL     1      -1.274  -4.654  -0.833  1.00  0.00     0.349 HD
ENDBRANCH   8   9
ENDBRANCH   5   8
ENDBRANCH   3   4
ENDBRANCH   2   3
ENDBRANCH   1   2
BRANCH   1  20
ATOM     20  C   UNL     1       4.044  -2.249   3.798  1.00  0.00     0.116 C 
BRANCH  20  21
ATOM     21  N   UNL     1       5.197  -3.088   3.470  1.00  0.00    -0.352 N 
ATOM     22  C   UNL     1       6.513  -2.865   3.757  1.00  0.00     0.251 C 
ATOM     23  H   UNL     1       4.998  -3.918   2.980  1.00  0.00     0.163 HD
ATOM     24  O   UNL     1       7.392  -3.559   3.243  1.00  0.00    -0.269 OA
BRANCH  22  25
ATOM     25  C   UNL     1       6.853  -1.770   4.675  1.00  0.00     0.039 A 
ATOM     26  C   UNL     1       7.961  -0.971   4.409  1.00  0.00     0.014 A 
ATOM     27  C   UNL     1       6.030  -1.514   5.776  1.00  0.00     0.014 A 
ATOM     28  C   UNL     1       8.242   0.087   5.265  1.00  0.00     0.010 A 
ATOM     29  C   UNL     1       6.208  -0.364   6.513  1.00  0.00     0.010 A 
ATOM     30  C   UNL     1       7.364   0.392   6.319  1.00  0.00    -0.014 A 
BRANCH  30  31
ATOM     31  C   UNL     1       7.698   1.430   7.310  1.00  0.00     0.031 A 
ATOM     32  C   UNL     1       7.874   1.035   8.753  1.00  0.00     0.074 A 
ATOM     33  C   UNL     1       7.809   2.707   6.909  1.00  0.00     0.049 A 
ATOM     34  N   UNL     1       8.206   1.780   9.772  1.00  0.00    -0.248 NA
ATOM     35  C   UNL     1       7.605  -0.372   9.113  1.00  0.00     0.031 C 
ATOM     36  C   UNL     1       7.551   3.196   5.552  1.00  0.00     0.029 A 
ATOM     37  N   UNL     1       8.168   3.826   7.606  1.00  0.00    -0.354 N 
ATOM     38  C   UNL     1       8.151   0.946  10.882  1.00  0.00     0.074 A 
ATOM     39  C   UNL     1       7.683  -0.341  10.432  1.00  0.00     0.031 C 
ATOM     40  C   UNL     1       7.799   4.514   5.508  1.00  0.00     0.029 A 
ATOM     41  C   UNL     1       8.206   4.961   6.835  1.00  0.00     0.049 A 
ATOM     42  H   UNL     1       8.379   3.819   8.568  1.00  0.00     0.167 HD
ATOM     43  C   UNL     1       8.509   1.213  12.158  1.00  0.00     0.034 A 
ATOM     44  C   UNL     1       8.548   6.218   7.170  1.00  0.00     0.034 A 
ATOM     45  C   UNL     1       9.022   2.486  12.573  1.00  0.00     0.049 A 
ATOM     46  C   UNL     1       9.016   6.473   8.575  1.00  0.00     0.074 A 
ATOM     47  C   UNL     1       9.490   2.864  13.816  1.00  0.00     0.029 A 
ATOM     48  N   UNL     1       9.133   3.593  11.744  1.00  0.00    -0.354 N 
ATOM     49  N   UNL     1       9.100   5.637   9.583  1.00  0.00    -0.248 NA
ATOM     50  C   UNL     1       9.486   7.830   8.877  1.00  0.00     0.031 C 
ATOM     51  C   UNL     1       9.858   4.212  13.746  1.00  0.00     0.029 A 
ATOM     52  C   UNL     1       9.662   4.658  12.447  1.00  0.00     0.049 A 
ATOM     53  H   UNL     1       8.873   3.616  10.795  1.00  0.00     0.167 HD
ATOM     54  C   UNL     1       9.671   6.353  10.627  1.00  0.00     0.074 A 
ATOM     55  C   UNL     1       9.931   7.686  10.117  1.00  0.00     0.031 C 
ATOM     56  C   UNL     1       9.948   5.956  11.894  1.00  0.00     0.034 A 
BRANCH  43  57
ATOM     57  C   UNL     1       8.402   0.096  13.163  1.00  0.00     0.023 A 
ATOM     58  C   UNL     1       9.256  -1.024  13.065  1.00  0.00     0.012 A 
ATOM     59  C   UNL     1       7.473   0.162  14.217  1.00  0.00     0.148 A 
ATOM     60  C   UNL     1       9.158  -2.078  13.973  1.00  0.00     0.002 A 
ATOM     61  C   UNL     1       7.418  -0.867  15.151  1.00  0.00     0.091 A 
ATOM     62  F   UNL     1       6.650   1.217  14.279  1.00  0.00    -0.205 F 
ATOM     63  C   UNL     1       8.248  -1.993  15.022  1.00  0.00     0.022 A 
BRANCH  61  64
ATOM     64  S   UNL     1       6.340  -0.816  16.586  1.00  0.00     0.127 S 
ATOM     65  O   UNL     1       5.391  -1.885  16.280  1.00  0.00    -0.237 OA
ATOM     66  O   UNL     1       7.269  -1.117  17.675  1.00  0.00    -0.237 OA
ATOM     67  O   UNL     1       5.777   0.526  16.619  1.00  0.00    -0.744 OA
ENDBRANCH  61  64
ENDBRANCH  43  57
BRANCH  44  68
ATOM     68  C   UNL     1       8.541   7.290   6.139  1.00  0.00     0.023 A 
ATOM     69  C   UNL     1       9.758   7.832   5.683  1.00  0.00     0.012 A 
ATOM     70  C   UNL     1       7.333   7.748   5.579  1.00  0.00     0.148 A 
ATOM     71  C   UNL     1       9.771   8.840   4.718  1.00  0.00     0.002 A 
ATOM     72  C   UNL     1       7.355   8.711   4.579  1.00  0.00     0.091 A 
ATOM     73  F   UNL     1       6.186   7.218   6.028  1.00  0.00    -0.205 F 
ATOM     74  C   UNL     1       8.571   9.273   4.160  1.00  0.00     0.022 A 
BRANCH  72  75
ATOM     75  S   UNL     1       5.870   9.231   3.712  1.00  0.00     0.127 S 
ATOM     76  O   UNL     1       5.705  10.599   4.198  1.00  0.00    -0.237 OA
ATOM     77  O   UNL     1       6.283   9.118   2.313  1.00  0.00    -0.237 OA
ATOM     78  O   UNL     1       4.832   8.290   4.109  1.00  0.00    -0.744 OA
ENDBRANCH  72  75
ENDBRANCH  44  68
BRANCH  56  79
ATOM     79  C   UNL     1      10.615   6.958  12.796  1.00  0.00     0.023 A 
ATOM     80  C   UNL     1       9.901   8.080  13.260  1.00  0.00     0.012 A 
ATOM     81  C   UNL     1      11.942   6.754  13.221  1.00  0.00     0.148 A 
ATOM     82  C   UNL     1      10.517   9.014  14.091  1.00  0.00     0.002 A 
ATOM     83  C   UNL     1      12.529   7.657  14.096  1.00  0.00     0.091 A 
ATOM     84  F   UNL     1      12.609   5.688  12.754  1.00  0.00    -0.205 F 
ATOM     85  C   UNL     1      11.826   8.797  14.517  1.00  0.00     0.022 A 
BRANCH  83  86
ATOM     86  S   UNL     1      14.168   7.394  14.779  1.00  0.00     0.127 S 
ATOM     87  O   UNL     1      14.966   8.352  14.015  1.00  0.00    -0.237 OA
ATOM     88  O   UNL     1      13.977   7.743  16.187  1.00  0.00    -0.237 OA
ATOM     89  O   UNL     1      14.478   5.990  14.545  1.00  0.00    -0.744 OA
ENDBRANCH  83  86
ENDBRANCH  56  79
ENDBRANCH  30  31
ENDBRANCH  22  25
ENDBRANCH  20  21
ENDBRANCH   1  20
TORSDOF 15
