REMARK SMILES CN(C)S(=O)(=O)c1ccc(-n2c(CCC(=O)NCCCCNC(=O)c3ccc(-c4c5nc(c(-c6cccc(S(=O)(=O)[O-])c6F)c6ccc([nH]6)c(-c6cccc(S(=O)(=O)[O-])c6F)c6nc(c(-c7cccc(S(=O)(=O)[O-])c7F)c7ccc4[nH]7)C=C6)C=C5)cc3)ccc2-c2ccc(F)cc2)cc1
REMARK SMILES IDX 18 1 17 2 15 3 16 4 14 6 13 7 12 8 11 9 90 10 88 11 89 12
REMARK SMILES IDX 10 13 7 14 8 15 99 16 9 17 98 18 4 19 5 20 6 21 2 22 1 23
REMARK SMILES IDX 3 24 91 25 92 26 97 27 93 28 96 29 94 30 95 31 19 32 20 33
REMARK SMILES IDX 21 34 22 35 23 36 24 38 25 39 26 40 87 41 27 42 86 43 28 44
REMARK SMILES IDX 29 45 30 46 80 47 31 48 85 49 79 50 81 51 32 52 84 53 78 54
REMARK SMILES IDX 77 55 33 57 65 58 45 59 64 60 46 61 49 62 63 63 82 64 47 65
REMARK SMILES IDX 48 66 62 68 83 69 50 70 34 71 35 72 43 73 36 74 38 75 44 76
REMARK SMILES IDX 37 77 39 78 40 79 41 80 42 81 66 82 67 83 75 84 68 85 70 86
REMARK SMILES IDX 76 87 69 88 71 89 72 90 73 91 74 92 51 93 52 94 60 95 53 96
REMARK SMILES IDX 55 97 61 98 54 99 56 100 57 101 58 102 59 103
REMARK H PARENT 17 5 22 37 81 56 49 67
REMARK Flexibility Score: inf
ROOT
ATOM      1  C   UNL     1      -1.912   4.676  -6.312  1.00  0.00     0.116 C 
ENDROOT
BRANCH   1   2
ATOM      2  N   UNL     1      -2.728   4.233  -5.196  1.00  0.00    -0.356 N 
ATOM      3  C   UNL     1      -3.522   4.969  -4.365  1.00  0.00     0.220 C 
ATOM      4  O   UNL     1      -4.099   4.405  -3.433  1.00  0.00    -0.275 OA
ATOM      5  H   UNL     1      -2.705   3.266  -5.012  1.00  0.00     0.163 HD
BRANCH   3   6
ATOM      6  C   UNL     1      -3.676   6.470  -4.573  1.00  0.00     0.106 C 
BRANCH   6   7
ATOM      7  C   UNL     1      -3.131   7.348  -3.417  1.00  0.00     0.064 C 
BRANCH   7   8
ATOM      8  C   UNL     1      -1.794   8.016  -3.715  1.00  0.00     0.024 A 
ATOM      9  N   UNL     1      -0.510   7.749  -3.154  1.00  0.00    -0.314 N 
ATOM     10  C   UNL     1       0.408   8.627  -3.794  1.00  0.00     0.053 A 
ATOM     11  C   UNL     1      -1.655   9.039  -4.638  1.00  0.00     0.024 A 
ATOM     12  C   UNL     1      -0.311   9.409  -4.688  1.00  0.00     0.029 A 
BRANCH   9  13
ATOM     13  C   UNL     1      -0.172   6.703  -2.211  1.00  0.00     0.046 A 
ATOM     14  C   UNL     1       0.587   4.439  -0.660  1.00  0.00     0.082 A 
ATOM     15  C   UNL     1       1.375   5.600  -0.674  1.00  0.00     0.024 A 
ATOM     16  C   UNL     1      -0.585   4.428  -1.386  1.00  0.00     0.024 A 
ATOM     17  C   UNL     1       0.986   6.731  -1.425  1.00  0.00     0.028 A 
ATOM     18  C   UNL     1      -0.943   5.541  -2.148  1.00  0.00     0.028 A 
BRANCH  14  19
ATOM     19  S   UNL     1       1.126   3.015   0.280  1.00  0.00     0.242 S 
ATOM     20  O   UNL     1       0.386   3.075   1.538  1.00  0.00    -0.207 OA
ATOM     21  O   UNL     1       2.561   3.082   0.270  1.00  0.00    -0.207 OA
BRANCH  19  22
ATOM     22  N   UNL     1       0.624   1.614  -0.578  1.00  0.00    -0.204 NA
ATOM     23  C   UNL     1       1.525   0.437  -0.353  1.00  0.00     0.124 C 
ATOM     24  C   UNL     1      -0.793   1.188  -0.463  1.00  0.00     0.124 C 
ENDBRANCH  19  22
ENDBRANCH  14  19
ENDBRANCH   9  13
BRANCH  10  25
ATOM     25  C   UNL     1       1.890   8.620  -3.768  1.00  0.00    -0.001 A 
ATOM     26  C   UNL     1       2.607   9.817  -3.619  1.00  0.00     0.013 A 
ATOM     27  C   UNL     1       2.621   7.464  -4.065  1.00  0.00     0.013 A 
ATOM     28  C   UNL     1       4.000   9.844  -3.773  1.00  0.00     0.040 A 
ATOM     29  C   UNL     1       4.006   7.483  -4.237  1.00  0.00     0.040 A 
ATOM     30  C   UNL     1       4.686   8.678  -4.093  1.00  0.00     0.123 A 
ATOM     31  F   UNL     1       6.013   8.714  -4.269  1.00  0.00    -0.207 F 
ENDBRANCH  10  25
ENDBRANCH   7   8
ENDBRANCH   6   7
ENDBRANCH   3   6
ENDBRANCH   1   2
BRANCH   1  32
ATOM     32  C   UNL     1      -0.716   5.481  -5.838  1.00  0.00     0.023 C 
BRANCH  32  33
ATOM     33  C   UNL     1       0.358   4.643  -5.147  1.00  0.00     0.023 C 
BRANCH  33  34
ATOM     34  C   UNL     1       1.498   4.355  -6.095  1.00  0.00     0.116 C 
BRANCH  34  35
ATOM     35  N   UNL     1       2.134   5.547  -6.665  1.00  0.00    -0.352 N 
ATOM     36  C   UNL     1       3.251   5.657  -7.462  1.00  0.00     0.251 C 
ATOM     37  H   UNL     1       1.695   6.400  -6.444  1.00  0.00     0.163 HD
ATOM     38  O   UNL     1       3.682   6.774  -7.745  1.00  0.00    -0.269 OA
BRANCH  36  39
ATOM     39  C   UNL     1       3.955   4.454  -7.960  1.00  0.00     0.039 A 
ATOM     40  C   UNL     1       5.326   4.523  -8.269  1.00  0.00     0.014 A 
ATOM     41  C   UNL     1       3.278   3.253  -8.125  1.00  0.00     0.014 A 
ATOM     42  C   UNL     1       6.024   3.363  -8.615  1.00  0.00     0.010 A 
ATOM     43  C   UNL     1       3.960   2.104  -8.398  1.00  0.00     0.010 A 
ATOM     44  C   UNL     1       5.332   2.153  -8.617  1.00  0.00    -0.014 A 
BRANCH  44  45
ATOM     45  C   UNL     1       5.922   0.815  -8.726  1.00  0.00     0.031 A 
ATOM     46  C   UNL     1       6.340   0.257  -7.346  1.00  0.00     0.074 A 
ATOM     47  C   UNL     1       5.686   0.243  -9.947  1.00  0.00     0.049 A 
ATOM     48  N   UNL     1       7.028  -0.802  -7.047  1.00  0.00    -0.248 NA
ATOM     49  C   UNL     1       5.987   1.018  -6.109  1.00  0.00     0.031 C 
ATOM     50  C   UNL     1       5.163   0.984 -11.126  1.00  0.00     0.029 A 
ATOM     51  N   UNL     1       5.726  -1.043 -10.433  1.00  0.00    -0.354 N 
ATOM     52  C   UNL     1       6.995  -0.945  -5.634  1.00  0.00     0.074 A 
ATOM     53  C   UNL     1       6.443   0.261  -5.108  1.00  0.00     0.031 C 
ATOM     54  C   UNL     1       4.973   0.159 -12.172  1.00  0.00     0.029 A 
ATOM     55  C   UNL     1       5.331  -1.189 -11.785  1.00  0.00     0.049 A 
ATOM     56  H   UNL     1       6.009  -1.808  -9.881  1.00  0.00     0.167 HD
ATOM     57  C   UNL     1       7.297  -2.114  -4.995  1.00  0.00     0.034 A 
ATOM     58  C   UNL     1       5.321  -2.309 -12.566  1.00  0.00     0.034 A 
ATOM     59  C   UNL     1       7.552  -3.122  -5.972  1.00  0.00     0.049 A 
ATOM     60  C   UNL     1       5.623  -3.432 -11.669  1.00  0.00     0.074 A 
ATOM     61  C   UNL     1       8.600  -3.352  -6.822  1.00  0.00     0.029 A 
ATOM     62  N   UNL     1       6.445  -3.815  -6.402  1.00  0.00    -0.354 N 
ATOM     63  N   UNL     1       4.786  -3.926 -10.805  1.00  0.00    -0.248 NA
ATOM     64  C   UNL     1       7.005  -3.918 -11.587  1.00  0.00     0.031 C 
ATOM     65  C   UNL     1       7.973  -3.832  -7.990  1.00  0.00     0.029 A 
ATOM     66  C   UNL     1       6.612  -4.051  -7.742  1.00  0.00     0.049 A 
ATOM     67  H   UNL     1       5.677  -4.090  -5.851  1.00  0.00     0.167 HD
ATOM     68  C   UNL     1       5.628  -4.479  -9.871  1.00  0.00     0.074 A 
ATOM     69  C   UNL     1       6.886  -4.724 -10.538  1.00  0.00     0.031 C 
ATOM     70  C   UNL     1       5.432  -4.240  -8.549  1.00  0.00     0.034 A 
BRANCH  57  71
ATOM     71  C   UNL     1       7.204  -2.603  -3.569  1.00  0.00     0.023 A 
ATOM     72  C   UNL     1       8.074  -3.688  -3.260  1.00  0.00     0.012 A 
ATOM     73  C   UNL     1       6.174  -2.320  -2.655  1.00  0.00     0.148 A 
ATOM     74  C   UNL     1       7.861  -4.537  -2.177  1.00  0.00     0.002 A 
ATOM     75  C   UNL     1       5.991  -3.150  -1.539  1.00  0.00     0.091 A 
ATOM     76  F   UNL     1       5.328  -1.315  -2.909  1.00  0.00    -0.205 F 
ATOM     77  C   UNL     1       6.806  -4.275  -1.324  1.00  0.00     0.022 A 
BRANCH  75  78
ATOM     78  S   UNL     1       4.705  -2.885  -0.309  1.00  0.00     0.127 S 
ATOM     79  O   UNL     1       3.718  -3.897  -0.673  1.00  0.00    -0.237 OA
ATOM     80  O   UNL     1       5.418  -3.160   0.942  1.00  0.00    -0.237 OA
ATOM     81  O   UNL     1       4.290  -1.498  -0.461  1.00  0.00    -0.744 OA
ENDBRANCH  75  78
ENDBRANCH  57  71
BRANCH  58  82
ATOM     82  C   UNL     1       5.270  -2.543 -14.052  1.00  0.00     0.023 A 
ATOM     83  C   UNL     1       4.717  -1.647 -14.979  1.00  0.00     0.012 A 
ATOM     84  C   UNL     1       5.927  -3.677 -14.600  1.00  0.00     0.148 A 
ATOM     85  C   UNL     1       4.943  -1.791 -16.361  1.00  0.00     0.002 A 
ATOM     86  C   UNL     1       6.255  -3.756 -15.946  1.00  0.00     0.091 A 
ATOM     87  F   UNL     1       6.215  -4.720 -13.815  1.00  0.00    -0.205 F 
ATOM     88  C   UNL     1       5.761  -2.811 -16.839  1.00  0.00     0.022 A 
BRANCH  86  89
ATOM     89  S   UNL     1       7.468  -4.947 -16.543  1.00  0.00     0.127 S 
ATOM     90  O   UNL     1       6.704  -5.697 -17.536  1.00  0.00    -0.237 OA
ATOM     91  O   UNL     1       8.497  -4.064 -17.093  1.00  0.00    -0.237 OA
ATOM     92  O   UNL     1       7.896  -5.710 -15.377  1.00  0.00    -0.744 OA
ENDBRANCH  86  89
ENDBRANCH  58  82
BRANCH  70  93
ATOM     93  C   UNL     1       3.990  -3.933  -8.156  1.00  0.00     0.023 A 
ATOM     94  C   UNL     1       3.052  -4.957  -8.406  1.00  0.00     0.012 A 
ATOM     95  C   UNL     1       3.495  -2.702  -7.654  1.00  0.00     0.148 A 
ATOM     96  C   UNL     1       1.685  -4.774  -8.190  1.00  0.00     0.002 A 
ATOM     97  C   UNL     1       2.122  -2.522  -7.430  1.00  0.00     0.091 A 
ATOM     98  F   UNL     1       4.354  -1.706  -7.426  1.00  0.00    -0.205 F 
ATOM     99  C   UNL     1       1.221  -3.561  -7.700  1.00  0.00     0.022 A 
BRANCH  97 100
ATOM    100  S   UNL     1       1.377  -0.991  -6.821  1.00  0.00     0.127 S 
ATOM    101  O   UNL     1       0.569  -0.554  -7.962  1.00  0.00    -0.237 OA
ATOM    102  O   UNL     1       0.590  -1.453  -5.679  1.00  0.00    -0.237 OA
ATOM    103  O   UNL     1       2.475  -0.095  -6.489  1.00  0.00    -0.744 OA
ENDBRANCH  97 100
ENDBRANCH  70  93
ENDBRANCH  44  45
ENDBRANCH  36  39
ENDBRANCH  34  35
ENDBRANCH  33  34
ENDBRANCH  32  33
ENDBRANCH   1  32
TORSDOF 20
