REMARK SMILES CSCC[C@H](C(=O)NCCCCNC(=O)c1ccc(-c2c3nc(c(-c4cccc(S(=O)(=O)[O-])c4F)c4ccc([nH]4)c(-c4cccc(S(=O)(=O)[O-])c4F)c4nc(c(-c5cccc(S(=O)(=O)[O-])c5F)c5ccc2[nH]5)C=C4)C=C3)cc1)N1C(=O)/C(=C/c2cn(C)c3ccccc23)SC1=S
REMARK SMILES IDX 10 1 9 2 8 3 6 4 7 5 5 7 4 8 3 9 2 10 1 11 79 12 80 13 95 14
REMARK SMILES IDX 81 15 82 16 94 17 96 18 83 19 84 20 85 21 93 22 86 23 88 24
REMARK SMILES IDX 92 25 87 26 89 27 91 28 90 29 11 30 12 31 13 32 14 33 15 35
REMARK SMILES IDX 16 36 17 37 78 38 18 39 77 40 19 41 20 42 21 43 71 44 22 45
REMARK SMILES IDX 76 46 70 47 72 48 23 49 75 50 69 51 68 52 24 54 56 55 36 56
REMARK SMILES IDX 55 57 37 58 40 59 54 60 73 61 38 62 39 63 53 65 74 66 41 67
REMARK SMILES IDX 25 68 26 69 34 70 27 71 29 72 35 73 28 74 30 75 31 76 32 77
REMARK SMILES IDX 33 78 57 79 58 80 66 81 59 82 61 83 67 84 60 85 62 86 63 87
REMARK SMILES IDX 64 88 65 89 42 90 43 91 51 92 44 93 46 94 52 95 45 96 47 97
REMARK SMILES IDX 48 98 49 99 50 100
REMARK H PARENT 8 6 13 34 72 53 40 64
REMARK Flexibility Score: inf
ROOT
ATOM      1  C   UNL     1      -2.684   0.312   3.342  1.00  0.00     0.023 C 
ENDROOT
BRANCH   1   2
ATOM      2  C   UNL     1      -1.733   0.637   2.179  1.00  0.00     0.116 C 
BRANCH   2   3
ATOM      3  N   UNL     1      -0.679   1.603   2.468  1.00  0.00    -0.354 N 
ATOM      4  C   UNL     1       0.695   1.531   2.497  1.00  0.00     0.243 C 
ATOM      5  O   UNL     1       1.303   2.598   2.606  1.00  0.00    -0.273 OA
ATOM      6  H   UNL     1      -1.025   2.497   2.691  1.00  0.00     0.163 HD
BRANCH   4   7
ATOM      7  C   UNL     1       1.441   0.165   2.487  1.00  0.00     0.182 C 
BRANCH   7   8
ATOM      8  C   UNL     1       2.896   0.320   2.003  1.00  0.00     0.046 C 
BRANCH   8   9
ATOM      9  C   UNL     1       3.223  -0.516   0.759  1.00  0.00     0.072 C 
BRANCH   9  10
ATOM     10  S   UNL     1       2.631   0.190  -0.822  1.00  0.00    -0.165 SA
ATOM     11  C   UNL     1       0.908  -0.362  -0.832  1.00  0.00     0.085 C 
ENDBRANCH   9  10
ENDBRANCH   8   9
ENDBRANCH   7   8
BRANCH   7  12
ATOM     12  N   UNL     1       1.359  -0.584   3.773  1.00  0.00    -0.280 N 
ATOM     13  C   UNL     1       1.849  -2.300   3.703  1.00  0.00     0.266 C 
ATOM     14  C   UNL     1       0.166   0.001   4.892  1.00  0.00     0.149 C 
ATOM     15  O   UNL     1       2.590  -2.794   2.864  1.00  0.00    -0.268 OA
ATOM     16  C   UNL     1       0.734  -3.359   4.965  1.00  0.00     0.081 C 
ATOM     17  S   UNL     1      -0.833  -1.712   5.998  1.00  0.00    -0.054 SA
ATOM     18  S   UNL     1       0.087   1.506   5.666  1.00  0.00    -0.052 S 
ATOM     19  C   UNL     1       0.745  -4.760   5.015  1.00  0.00     0.031 C 
BRANCH  19  20
ATOM     20  C   UNL     1      -0.392  -5.373   5.693  1.00  0.00     0.001 A 
ATOM     21  C   UNL     1      -0.505  -5.887   7.001  1.00  0.00     0.094 A 
ATOM     22  C   UNL     1      -1.214  -4.204   5.752  1.00  0.00     0.007 A 
ATOM     23  N   UNL     1      -0.546  -4.790   7.868  1.00  0.00    -0.350 N 
ATOM     24  C   UNL     1      -0.177  -3.764   7.056  1.00  0.00     0.048 A 
ATOM     25  C   UNL     1      -1.326  -3.267   4.280  1.00  0.00     0.011 A 
ATOM     26  C   UNL     1      -1.516  -4.517   8.913  1.00  0.00     0.149 C 
ATOM     27  C   UNL     1       1.110  -2.644   7.008  1.00  0.00     0.027 A 
ATOM     28  C   UNL     1      -0.139  -2.000   4.078  1.00  0.00     0.001 A 
ATOM     29  C   UNL     1       1.205  -1.686   5.561  1.00  0.00     0.002 A 
ENDBRANCH  19  20
ENDBRANCH   7  12
ENDBRANCH   4   7
ENDBRANCH   2   3
ENDBRANCH   1   2
BRANCH   1  30
ATOM     30  C   UNL     1      -3.419   1.479   3.994  1.00  0.00     0.023 C 
BRANCH  30  31
ATOM     31  C   UNL     1      -4.406   2.167   3.077  1.00  0.00     0.116 C 
BRANCH  31  32
ATOM     32  N   UNL     1      -5.477   1.275   2.651  1.00  0.00    -0.352 N 
ATOM     33  C   UNL     1      -6.833   1.491   2.658  1.00  0.00     0.251 C 
ATOM     34  H   UNL     1      -5.188   0.397   2.311  1.00  0.00     0.163 HD
ATOM     35  O   UNL     1      -7.603   0.563   2.428  1.00  0.00    -0.269 OA
BRANCH  33  36
ATOM     36  C   UNL     1      -7.350   2.839   2.970  1.00  0.00     0.039 A 
ATOM     37  C   UNL     1      -8.447   2.966   3.823  1.00  0.00     0.014 A 
ATOM     38  C   UNL     1      -6.720   3.975   2.456  1.00  0.00     0.014 A 
ATOM     39  C   UNL     1      -8.872   4.238   4.206  1.00  0.00     0.010 A 
ATOM     40  C   UNL     1      -7.069   5.231   2.932  1.00  0.00     0.010 A 
ATOM     41  C   UNL     1      -8.161   5.378   3.796  1.00  0.00    -0.014 A 
BRANCH  41  42
ATOM     42  C   UNL     1      -8.550   6.735   4.253  1.00  0.00     0.031 A 
ATOM     43  C   UNL     1      -8.931   7.788   3.248  1.00  0.00     0.074 A 
ATOM     44  C   UNL     1      -8.496   7.037   5.566  1.00  0.00     0.049 A 
ATOM     45  N   UNL     1      -9.259   9.037   3.450  1.00  0.00    -0.248 NA
ATOM     46  C   UNL     1      -8.918   7.396   1.828  1.00  0.00     0.031 C 
ATOM     47  C   UNL     1      -8.069   6.123   6.628  1.00  0.00     0.029 A 
ATOM     48  N   UNL     1      -8.782   8.204   6.228  1.00  0.00    -0.354 N 
ATOM     49  C   UNL     1      -9.460   9.585   2.189  1.00  0.00     0.074 A 
ATOM     50  C   UNL     1      -9.170   8.548   1.225  1.00  0.00     0.031 C 
ATOM     51  C   UNL     1      -8.136   6.758   7.808  1.00  0.00     0.029 A 
ATOM     52  C   UNL     1      -8.562   8.135   7.584  1.00  0.00     0.049 A 
ATOM     53  H   UNL     1      -9.113   9.013   5.776  1.00  0.00     0.167 HD
ATOM     54  C   UNL     1      -9.876  10.830   1.862  1.00  0.00     0.034 A 
ATOM     55  C   UNL     1      -8.669   9.082   8.537  1.00  0.00     0.034 A 
ATOM     56  C   UNL     1     -10.176  11.853   2.825  1.00  0.00     0.049 A 
ATOM     57  C   UNL     1      -9.130  10.459   8.146  1.00  0.00     0.074 A 
ATOM     58  C   UNL     1     -10.670  13.125   2.601  1.00  0.00     0.029 A 
ATOM     59  N   UNL     1      -9.989  11.731   4.194  1.00  0.00    -0.354 N 
ATOM     60  N   UNL     1      -9.448  10.918   6.960  1.00  0.00    -0.248 NA
ATOM     61  C   UNL     1      -9.278  11.441   9.230  1.00  0.00     0.031 C 
ATOM     62  C   UNL     1     -10.729  13.792   3.828  1.00  0.00     0.029 A 
ATOM     63  C   UNL     1     -10.338  12.912   4.825  1.00  0.00     0.049 A 
ATOM     64  H   UNL     1      -9.657  10.924   4.649  1.00  0.00     0.167 HD
ATOM     65  C   UNL     1      -9.872  12.226   7.160  1.00  0.00     0.074 A 
ATOM     66  C   UNL     1      -9.788  12.479   8.583  1.00  0.00     0.031 C 
ATOM     67  C   UNL     1     -10.286  13.138   6.246  1.00  0.00     0.034 A 
BRANCH  54  68
ATOM     68  C   UNL     1     -10.054  11.147   0.399  1.00  0.00     0.023 A 
ATOM     69  C   UNL     1     -11.084  10.524  -0.337  1.00  0.00     0.012 A 
ATOM     70  C   UNL     1      -9.234  12.101  -0.234  1.00  0.00     0.148 A 
ATOM     71  C   UNL     1     -11.267  10.814  -1.688  1.00  0.00     0.002 A 
ATOM     72  C   UNL     1      -9.457  12.424  -1.566  1.00  0.00     0.091 A 
ATOM     73  F   UNL     1      -8.250  12.669   0.476  1.00  0.00    -0.205 F 
ATOM     74  C   UNL     1     -10.462  11.771  -2.299  1.00  0.00     0.022 A 
BRANCH  72  75
ATOM     75  S   UNL     1      -8.531  13.701  -2.423  1.00  0.00     0.127 S 
ATOM     76  O   UNL     1      -7.801  12.917  -3.418  1.00  0.00    -0.237 OA
ATOM     77  O   UNL     1      -9.600  14.537  -2.969  1.00  0.00    -0.237 OA
ATOM     78  O   UNL     1      -7.704  14.348  -1.414  1.00  0.00    -0.744 OA
ENDBRANCH  72  75
ENDBRANCH  54  68
BRANCH  55  79
ATOM     79  C   UNL     1      -8.353   8.754   9.955  1.00  0.00     0.023 A 
ATOM     80  C   UNL     1      -9.379   8.743  10.920  1.00  0.00     0.012 A 
ATOM     81  C   UNL     1      -7.037   8.447  10.350  1.00  0.00     0.148 A 
ATOM     82  C   UNL     1      -9.093   8.475  12.259  1.00  0.00     0.002 A 
ATOM     83  C   UNL     1      -6.768   8.122  11.673  1.00  0.00     0.091 A 
ATOM     84  F   UNL     1      -6.075   8.467   9.416  1.00  0.00    -0.205 F 
ATOM     85  C   UNL     1      -7.790   8.157  12.634  1.00  0.00     0.022 A 
BRANCH  83  86
ATOM     86  S   UNL     1      -5.147   7.579  12.222  1.00  0.00     0.127 S 
ATOM     87  O   UNL     1      -4.752   8.670  13.109  1.00  0.00    -0.237 OA
ATOM     88  O   UNL     1      -5.468   6.320  12.895  1.00  0.00    -0.237 OA
ATOM     89  O   UNL     1      -4.349   7.431  11.013  1.00  0.00    -0.744 OA
ENDBRANCH  83  86
ENDBRANCH  55  79
BRANCH  67  90
ATOM     90  C   UNL     1     -10.743  14.481   6.756  1.00  0.00     0.023 A 
ATOM     91  C   UNL     1      -9.816  15.394   7.296  1.00  0.00     0.012 A 
ATOM     92  C   UNL     1     -12.096  14.858   6.635  1.00  0.00     0.148 A 
ATOM     93  C   UNL     1     -10.236  16.645   7.747  1.00  0.00     0.002 A 
ATOM     94  C   UNL     1     -12.496  16.128   7.030  1.00  0.00     0.091 A 
ATOM     95  F   UNL     1     -12.964  13.970   6.130  1.00  0.00    -0.205 F 
ATOM     96  C   UNL     1     -11.572  17.016   7.602  1.00  0.00     0.022 A 
BRANCH  94  97
ATOM     97  S   UNL     1     -14.171  16.729   6.792  1.00  0.00     0.127 S 
ATOM     98  O   UNL     1     -14.644  16.845   8.171  1.00  0.00    -0.237 OA
ATOM     99  O   UNL     1     -13.945  18.005   6.114  1.00  0.00    -0.237 OA
ATOM    100  O   UNL     1     -14.852  15.725   5.986  1.00  0.00    -0.744 OA
ENDBRANCH  94  97
ENDBRANCH  67  90
ENDBRANCH  41  42
ENDBRANCH  33  36
ENDBRANCH  31  32
ENDBRANCH  30  31
ENDBRANCH   1  30
TORSDOF 19
