REMARK SMILES CC1(C)S[C@H](c2ccc(-c3cccc([N+](=O)[O-])c3)o2)[NH2+][C@@H]1C(=O)NCCCCNC(=O)c1ccc(-c2c3nc(c(-c4cccc(S(=O)(=O)[O-])c4F)c4ccc([nH]4)c(-c4cccc(S(=O)(=O)[O-])c4F)c4nc(c(-c5cccc(S(=O)(=O)[O-])c5F)c5ccc2[nH]5)C=C4)C=C3)cc1
REMARK SMILES IDX 26 1 25 2 24 3 22 4 23 5 21 7 1 8 2 9 3 10 4 11 5 12 20 13
REMARK SMILES IDX 6 16 7 17 19 18 8 19 9 20 10 21 11 22 18 23 12 24 14 25
REMARK SMILES IDX 13 26 15 27 16 28 17 29 27 30 28 31 29 32 30 33 31 35 32 36
REMARK SMILES IDX 33 37 94 38 34 39 93 40 35 41 36 42 37 43 87 44 38 45 92 46
REMARK SMILES IDX 86 47 88 48 39 49 91 50 85 51 84 52 40 54 72 55 52 56 71 57
REMARK SMILES IDX 53 58 56 59 70 60 89 61 54 62 55 63 69 65 90 66 57 67 41 68
REMARK SMILES IDX 42 69 50 70 43 71 45 72 51 73 44 74 46 75 47 76 48 77 49 78
REMARK SMILES IDX 73 79 74 80 82 81 75 82 77 83 83 84 76 85 78 86 79 87 80 88
REMARK SMILES IDX 81 89 58 90 59 91 67 92 60 93 62 94 68 95 61 96 63 97 64 98
REMARK SMILES IDX 65 99 66 100
REMARK H PARENT 24 6 20 14 20 15 29 34 88 53 56 64
REMARK Flexibility Score: inf
ROOT
ATOM      1  C   UNL     1      -3.061   4.095  -2.397  1.00  0.00     0.023 C 
ENDROOT
BRANCH   1   2
ATOM      2  C   UNL     1      -2.523   2.783  -1.819  1.00  0.00     0.116 C 
BRANCH   2   3
ATOM      3  N   UNL     1      -1.364   2.262  -2.522  1.00  0.00    -0.351 N 
ATOM      4  C   UNL     1      -0.389   1.408  -2.062  1.00  0.00     0.279 C 
ATOM      5  O   UNL     1       0.379   0.947  -2.909  1.00  0.00    -0.268 OA
ATOM      6  H   UNL     1      -1.263   2.560  -3.455  1.00  0.00     0.163 HD
BRANCH   4   7
ATOM      7  C   UNL     1      -0.198   1.200  -0.534  1.00  0.00     0.289 C 
ATOM      8  C   UNL     1       1.432   0.725   1.363  1.00  0.00     0.030 C 
ATOM      9  C   UNL     1       0.943   0.268  -0.029  1.00  0.00     0.078 C 
ATOM     10  C   UNL     1       2.165   0.083  -0.928  1.00  0.00     0.030 C 
ATOM     11  S   UNL     1       0.146  -1.353   0.215  1.00  0.00    -0.078 SA
ATOM     12  C   UNL     1      -1.528  -0.692   0.134  1.00  0.00     0.311 C 
ATOM     13  N   UNL     1      -1.471   0.773   0.129  1.00  0.00    -0.317 N 
ATOM     14  H   UNL     1      -1.492   1.121   1.087  1.00  0.00     0.348 HD
ATOM     15  H   UNL     1      -2.271   1.151  -0.379  1.00  0.00     0.348 HD
BRANCH  12  16
ATOM     16  C   UNL     1      -2.305  -1.329  -0.968  1.00  0.00     0.172 A 
ATOM     17  C   UNL     1      -2.914  -2.569  -1.030  1.00  0.00     0.054 A 
ATOM     18  O   UNL     1      -2.496  -0.661  -2.148  1.00  0.00    -0.454 OA
ATOM     19  C   UNL     1      -3.510  -2.663  -2.301  1.00  0.00     0.051 A 
ATOM     20  C   UNL     1      -3.236  -1.478  -2.950  1.00  0.00     0.134 A 
BRANCH  20  21
ATOM     21  C   UNL     1      -3.619  -0.986  -4.260  1.00  0.00     0.024 A 
ATOM     22  C   UNL     1      -2.715  -0.337  -5.112  1.00  0.00     0.012 A 
ATOM     23  C   UNL     1      -4.914  -1.258  -4.715  1.00  0.00     0.097 A 
ATOM     24  C   UNL     1      -3.084  -0.018  -6.425  1.00  0.00     0.008 A 
ATOM     25  C   UNL     1      -5.273  -0.945  -6.027  1.00  0.00     0.270 A 
ATOM     26  C   UNL     1      -4.357  -0.345  -6.897  1.00  0.00     0.085 A 
BRANCH  25  27
ATOM     27  N   UNL     1      -6.641  -1.220  -6.463  1.00  0.00     0.062 N 
ATOM     28  O   UNL     1      -6.840  -1.363  -7.673  1.00  0.00    -0.258 OA
ATOM     29  O   UNL     1      -7.521  -1.253  -5.588  1.00  0.00    -0.258 OA
ENDBRANCH  25  27
ENDBRANCH  20  21
ENDBRANCH  12  16
ENDBRANCH   4   7
ENDBRANCH   2   3
ENDBRANCH   1   2
BRANCH   1  30
ATOM     30  C   UNL     1      -3.472   4.086  -3.872  1.00  0.00     0.023 C 
BRANCH  30  31
ATOM     31  C   UNL     1      -4.628   3.164  -4.257  1.00  0.00     0.116 C 
BRANCH  31  32
ATOM     32  N   UNL     1      -5.918   3.607  -3.744  1.00  0.00    -0.352 N 
ATOM     33  C   UNL     1      -7.137   3.807  -4.358  1.00  0.00     0.251 C 
ATOM     34  H   UNL     1      -5.920   3.800  -2.778  1.00  0.00     0.163 HD
ATOM     35  O   UNL     1      -8.044   4.307  -3.692  1.00  0.00    -0.269 OA
BRANCH  33  36
ATOM     36  C   UNL     1      -7.397   3.455  -5.784  1.00  0.00     0.039 A 
ATOM     37  C   UNL     1      -8.344   4.188  -6.516  1.00  0.00     0.014 A 
ATOM     38  C   UNL     1      -6.770   2.380  -6.407  1.00  0.00     0.014 A 
ATOM     39  C   UNL     1      -8.597   3.891  -7.867  1.00  0.00     0.010 A 
ATOM     40  C   UNL     1      -6.970   2.126  -7.765  1.00  0.00     0.010 A 
ATOM     41  C   UNL     1      -7.885   2.872  -8.514  1.00  0.00    -0.014 A 
BRANCH  41  42
ATOM     42  C   UNL     1      -7.980   2.609  -9.976  1.00  0.00     0.031 A 
ATOM     43  C   UNL     1      -8.491   1.293 -10.508  1.00  0.00     0.074 A 
ATOM     44  C   UNL     1      -7.394   3.480 -10.823  1.00  0.00     0.049 A 
ATOM     45  N   UNL     1      -8.545   0.866 -11.746  1.00  0.00    -0.248 NA
ATOM     46  C   UNL     1      -8.954   0.310  -9.518  1.00  0.00     0.031 C 
ATOM     47  C   UNL     1      -6.706   4.709 -10.423  1.00  0.00     0.029 A 
ATOM     48  N   UNL     1      -7.230   3.435 -12.185  1.00  0.00    -0.354 N 
ATOM     49  C   UNL     1      -9.002  -0.448 -11.681  1.00  0.00     0.074 A 
ATOM     50  C   UNL     1      -9.177  -0.755 -10.278  1.00  0.00     0.031 C 
ATOM     51  C   UNL     1      -6.178   5.290 -11.511  1.00  0.00     0.029 A 
ATOM     52  C   UNL     1      -6.493   4.482 -12.685  1.00  0.00     0.049 A 
ATOM     53  H   UNL     1      -7.605   2.721 -12.749  1.00  0.00     0.167 HD
ATOM     54  C   UNL     1      -9.278  -1.306 -12.695  1.00  0.00     0.034 A 
ATOM     55  C   UNL     1      -6.126   4.773 -13.948  1.00  0.00     0.034 A 
ATOM     56  C   UNL     1      -9.164  -0.964 -14.090  1.00  0.00     0.049 A 
ATOM     57  C   UNL     1      -6.603   3.893 -15.070  1.00  0.00     0.074 A 
ATOM     58  C   UNL     1      -9.569  -1.692 -15.196  1.00  0.00     0.029 A 
ATOM     59  N   UNL     1      -8.604   0.209 -14.573  1.00  0.00    -0.354 N 
ATOM     60  N   UNL     1      -7.256   2.759 -15.004  1.00  0.00    -0.248 NA
ATOM     61  C   UNL     1      -6.356   4.366 -16.439  1.00  0.00     0.031 C 
ATOM     62  C   UNL     1      -9.252  -0.960 -16.347  1.00  0.00     0.029 A 
ATOM     63  C   UNL     1      -8.663   0.231 -15.957  1.00  0.00     0.049 A 
ATOM     64  H   UNL     1      -8.220   0.922 -14.014  1.00  0.00     0.167 HD
ATOM     65  C   UNL     1      -7.540   2.406 -16.318  1.00  0.00     0.074 A 
ATOM     66  C   UNL     1      -6.999   3.455 -17.158  1.00  0.00     0.031 C 
ATOM     67  C   UNL     1      -8.183   1.307 -16.784  1.00  0.00     0.034 A 
BRANCH  54  68
ATOM     68  C   UNL     1      -9.836  -2.669 -12.349  1.00  0.00     0.023 A 
ATOM     69  C   UNL     1     -11.135  -2.761 -11.806  1.00  0.00     0.012 A 
ATOM     70  C   UNL     1      -9.136  -3.856 -12.652  1.00  0.00     0.148 A 
ATOM     71  C   UNL     1     -11.712  -4.000 -11.534  1.00  0.00     0.002 A 
ATOM     72  C   UNL     1      -9.738  -5.091 -12.422  1.00  0.00     0.091 A 
ATOM     73  F   UNL     1      -7.899  -3.760 -13.160  1.00  0.00    -0.205 F 
ATOM     74  C   UNL     1     -11.020  -5.164 -11.853  1.00  0.00     0.022 A 
BRANCH  72  75
ATOM     75  S   UNL     1      -8.973  -6.649 -12.894  1.00  0.00     0.127 S 
ATOM     76  O   UNL     1      -8.586  -7.196 -11.592  1.00  0.00    -0.237 OA
ATOM     77  O   UNL     1     -10.081  -7.356 -13.541  1.00  0.00    -0.237 OA
ATOM     78  O   UNL     1      -7.875  -6.306 -13.782  1.00  0.00    -0.744 OA
ENDBRANCH  72  75
ENDBRANCH  54  68
BRANCH  55  79
ATOM     79  C   UNL     1      -5.396   6.042 -14.219  1.00  0.00     0.023 A 
ATOM     80  C   UNL     1      -6.108   7.129 -14.763  1.00  0.00     0.012 A 
ATOM     81  C   UNL     1      -4.042   6.207 -13.875  1.00  0.00     0.148 A 
ATOM     82  C   UNL     1      -5.478   8.352 -14.986  1.00  0.00     0.002 A 
ATOM     83  C   UNL     1      -3.432   7.445 -14.055  1.00  0.00     0.091 A 
ATOM     84  F   UNL     1      -3.382   5.160 -13.361  1.00  0.00    -0.205 F 
ATOM     85  C   UNL     1      -4.144   8.513 -14.623  1.00  0.00     0.022 A 
BRANCH  83  86
ATOM     86  S   UNL     1      -1.760   7.784 -13.489  1.00  0.00     0.127 S 
ATOM     87  O   UNL     1      -1.017   7.800 -14.746  1.00  0.00    -0.237 OA
ATOM     88  O   UNL     1      -1.914   9.090 -12.847  1.00  0.00    -0.237 OA
ATOM     89  O   UNL     1      -1.434   6.702 -12.570  1.00  0.00    -0.744 OA
ENDBRANCH  83  86
ENDBRANCH  55  79
BRANCH  67  90
ATOM     90  C   UNL     1      -8.382   1.193 -18.273  1.00  0.00     0.023 A 
ATOM     91  C   UNL     1      -7.287   0.889 -19.105  1.00  0.00     0.012 A 
ATOM     92  C   UNL     1      -9.665   1.328 -18.840  1.00  0.00     0.148 A 
ATOM     93  C   UNL     1      -7.459   0.757 -20.483  1.00  0.00     0.002 A 
ATOM     94  C   UNL     1      -9.836   1.152 -20.209  1.00  0.00     0.091 A 
ATOM     95  F   UNL     1     -10.693   1.639 -18.036  1.00  0.00    -0.205 F 
ATOM     96  C   UNL     1      -8.733   0.877 -21.033  1.00  0.00     0.022 A 
BRANCH  94  97
ATOM     97  S   UNL     1     -11.457   1.207 -20.983  1.00  0.00     0.127 S 
ATOM     98  O   UNL     1     -11.462   2.545 -21.571  1.00  0.00    -0.237 OA
ATOM     99  O   UNL     1     -11.379   0.115 -21.956  1.00  0.00    -0.237 OA
ATOM    100  O   UNL     1     -12.416   0.985 -19.910  1.00  0.00    -0.744 OA
ENDBRANCH  94  97
ENDBRANCH  67  90
ENDBRANCH  41  42
ENDBRANCH  33  36
ENDBRANCH  31  32
ENDBRANCH  30  31
ENDBRANCH   1  30
TORSDOF 17
