REMARK SMILES C[C@H]1[C@H](C(=O)NCCCCNC(=O)c2ccc(-c3c4nc(c(-c5cccc(S(=O)(=O)[O-])c5F)c5ccc([nH]5)c(-c5cccc(S(=O)(=O)[O-])c5F)c5nc(c(-c6cccc(S(=O)(=O)[O-])c6F)c6ccc3[nH]6)C=C5)C=C4)cc2)CCN1C(=O)COc1ccccc1F
REMARK SMILES IDX 8 1 7 2 6 3 4 4 5 5 3 7 1 8 2 9 79 10 77 11 78 12 80 13
REMARK SMILES IDX 81 14 82 15 83 16 84 17 85 18 89 19 86 20 88 21 90 22 87 23
REMARK SMILES IDX 9 24 10 25 11 26 12 27 13 29 14 30 15 31 76 32 16 33 75 34
REMARK SMILES IDX 17 35 18 36 19 37 69 38 20 39 74 40 68 41 70 42 21 43 73 44
REMARK SMILES IDX 67 45 66 46 22 48 54 49 34 50 53 51 35 52 38 53 52 54 71 55
REMARK SMILES IDX 36 56 37 57 51 59 72 60 39 61 23 62 24 63 32 64 25 65 27 66
REMARK SMILES IDX 33 67 26 68 28 69 29 70 30 71 31 72 55 73 56 74 64 75 57 76
REMARK SMILES IDX 59 77 65 78 58 79 60 80 61 81 62 82 63 83 40 84 41 85 49 86
REMARK SMILES IDX 42 87 44 88 50 89 43 90 45 91 46 92 47 93 48 94
REMARK H PARENT 6 6 11 28 70 47 38 58
REMARK Flexibility Score: inf
ROOT
ATOM      1  C   UNL     1       0.019  -0.070   3.918  1.00  0.00     0.023 C 
ENDROOT
BRANCH   1   2
ATOM      2  C   UNL     1      -0.972   0.590   2.964  1.00  0.00     0.116 C 
BRANCH   2   3
ATOM      3  N   UNL     1      -0.489   1.871   2.481  1.00  0.00    -0.356 N 
ATOM      4  C   UNL     1      -0.076   2.264   1.247  1.00  0.00     0.225 C 
ATOM      5  O   UNL     1       0.305   3.430   1.114  1.00  0.00    -0.275 OA
ATOM      6  H   UNL     1      -0.456   2.578   3.166  1.00  0.00     0.163 HD
BRANCH   4   7
ATOM      7  C   UNL     1      -0.077   1.333   0.047  1.00  0.00     0.102 C 
ATOM      8  C   UNL     1       1.970   0.191  -0.827  1.00  0.00     0.032 C 
ATOM      9  C   UNL     1       0.856   0.118   0.219  1.00  0.00     0.094 C 
ATOM     10  N   UNL     1      -0.029  -1.040   0.062  1.00  0.00    -0.336 N 
ATOM     11  C   UNL     1      -1.464   0.802  -0.318  1.00  0.00     0.037 C 
ATOM     12  C   UNL     1      -1.260  -0.670  -0.608  1.00  0.00     0.121 C 
BRANCH  10  13
ATOM     13  C   UNL     1       0.092  -2.305   0.602  1.00  0.00     0.260 C 
ATOM     14  O   UNL     1      -0.896  -3.032   0.759  1.00  0.00    -0.271 OA
BRANCH  13  15
ATOM     15  C   UNL     1       1.469  -2.822   1.040  1.00  0.00     0.329 C 
BRANCH  15  16
ATOM     16  O   UNL     1       2.633  -2.656   0.259  1.00  0.00    -0.481 OA
BRANCH  16  17
ATOM     17  C   UNL     1       2.759  -3.304  -0.938  1.00  0.00     0.155 A 
ATOM     18  C   UNL     1       4.086  -3.535  -1.318  1.00  0.00     0.049 A 
ATOM     19  C   UNL     1       1.751  -3.641  -1.841  1.00  0.00     0.165 A 
ATOM     20  C   UNL     1       4.394  -4.086  -2.566  1.00  0.00     0.004 A 
ATOM     21  C   UNL     1       2.051  -4.177  -3.094  1.00  0.00     0.043 A 
ATOM     22  F   UNL     1       0.459  -3.424  -1.587  1.00  0.00    -0.203 F 
ATOM     23  C   UNL     1       3.375  -4.399  -3.461  1.00  0.00     0.003 A 
ENDBRANCH  16  17
ENDBRANCH  15  16
ENDBRANCH  13  15
ENDBRANCH  10  13
ENDBRANCH   4   7
ENDBRANCH   2   3
ENDBRANCH   1   2
BRANCH   1  24
ATOM     24  C   UNL     1       0.148   0.621   5.275  1.00  0.00     0.023 C 
BRANCH  24  25
ATOM     25  C   UNL     1      -1.158   0.790   6.045  1.00  0.00     0.116 C 
BRANCH  25  26
ATOM     26  N   UNL     1      -1.862  -0.464   6.264  1.00  0.00    -0.352 N 
ATOM     27  C   UNL     1      -2.540  -0.877   7.388  1.00  0.00     0.251 C 
ATOM     28  H   UNL     1      -1.853  -1.098   5.512  1.00  0.00     0.163 HD
ATOM     29  O   UNL     1      -2.990  -2.018   7.457  1.00  0.00    -0.269 OA
BRANCH  27  30
ATOM     30  C   UNL     1      -2.688   0.054   8.524  1.00  0.00     0.039 A 
ATOM     31  C   UNL     1      -2.340  -0.381   9.805  1.00  0.00     0.014 A 
ATOM     32  C   UNL     1      -3.126   1.365   8.316  1.00  0.00     0.014 A 
ATOM     33  C   UNL     1      -2.362   0.522  10.869  1.00  0.00     0.010 A 
ATOM     34  C   UNL     1      -3.079   2.280   9.363  1.00  0.00     0.010 A 
ATOM     35  C   UNL     1      -2.696   1.869  10.649  1.00  0.00    -0.014 A 
BRANCH  35  36
ATOM     36  C   UNL     1      -2.633   2.869  11.744  1.00  0.00     0.031 A 
ATOM     37  C   UNL     1      -3.881   3.576  12.196  1.00  0.00     0.074 A 
ATOM     38  C   UNL     1      -1.436   3.213  12.260  1.00  0.00     0.049 A 
ATOM     39  N   UNL     1      -4.014   4.521  13.089  1.00  0.00    -0.248 NA
ATOM     40  C   UNL     1      -5.141   3.192  11.537  1.00  0.00     0.031 C 
ATOM     41  C   UNL     1      -0.144   2.665  11.841  1.00  0.00     0.029 A 
ATOM     42  N   UNL     1      -1.109   4.128  13.229  1.00  0.00    -0.354 N 
ATOM     43  C   UNL     1      -5.358   4.872  13.073  1.00  0.00     0.074 A 
ATOM     44  C   UNL     1      -5.995   4.061  12.058  1.00  0.00     0.031 C 
ATOM     45  C   UNL     1       0.834   3.252  12.550  1.00  0.00     0.029 A 
ATOM     46  C   UNL     1       0.244   4.233  13.456  1.00  0.00     0.049 A 
ATOM     47  H   UNL     1      -1.779   4.660  13.717  1.00  0.00     0.167 HD
ATOM     48  C   UNL     1      -6.012   5.763  13.856  1.00  0.00     0.034 A 
ATOM     49  C   UNL     1       0.931   5.030  14.297  1.00  0.00     0.034 A 
ATOM     50  C   UNL     1      -5.387   6.525  14.903  1.00  0.00     0.049 A 
ATOM     51  C   UNL     1       0.174   5.966  15.199  1.00  0.00     0.074 A 
ATOM     52  C   UNL     1      -5.979   7.378  15.817  1.00  0.00     0.029 A 
ATOM     53  N   UNL     1      -4.027   6.527  15.175  1.00  0.00    -0.354 N 
ATOM     54  N   UNL     1      -1.120   6.157  15.290  1.00  0.00    -0.248 NA
ATOM     55  C   UNL     1       0.966   6.769  16.142  1.00  0.00     0.031 C 
ATOM     56  C   UNL     1      -4.974   7.905  16.636  1.00  0.00     0.029 A 
ATOM     57  C   UNL     1      -3.759   7.370  16.239  1.00  0.00     0.049 A 
ATOM     58  H   UNL     1      -3.352   6.006  14.683  1.00  0.00     0.167 HD
ATOM     59  C   UNL     1      -1.300   7.074  16.319  1.00  0.00     0.074 A 
ATOM     60  C   UNL     1       0.017   7.383  16.836  1.00  0.00     0.031 C 
ATOM     61  C   UNL     1      -2.449   7.623  16.782  1.00  0.00     0.034 A 
BRANCH  48  62
ATOM     62  C   UNL     1      -7.497   5.911  13.655  1.00  0.00     0.023 A 
ATOM     63  C   UNL     1      -8.357   4.877  14.078  1.00  0.00     0.012 A 
ATOM     64  C   UNL     1      -8.045   7.084  13.102  1.00  0.00     0.148 A 
ATOM     65  C   UNL     1      -9.738   4.993  13.925  1.00  0.00     0.002 A 
ATOM     66  C   UNL     1      -9.426   7.210  12.991  1.00  0.00     0.091 A 
ATOM     67  F   UNL     1      -7.211   8.046  12.684  1.00  0.00    -0.205 F 
ATOM     68  C   UNL     1     -10.272   6.163  13.391  1.00  0.00     0.022 A 
BRANCH  66  69
ATOM     69  S   UNL     1     -10.214   8.708  12.387  1.00  0.00     0.127 S 
ATOM     70  O   UNL     1     -10.663   8.290  11.060  1.00  0.00    -0.237 OA
ATOM     71  O   UNL     1     -11.290   8.905  13.359  1.00  0.00    -0.237 OA
ATOM     72  O   UNL     1      -9.184   9.737  12.407  1.00  0.00    -0.744 OA
ENDBRANCH  66  69
ENDBRANCH  48  62
BRANCH  49  73
ATOM     73  C   UNL     1       2.415   4.914  14.385  1.00  0.00     0.023 A 
ATOM     74  C   UNL     1       2.992   4.336  15.532  1.00  0.00     0.012 A 
ATOM     75  C   UNL     1       3.251   5.335  13.333  1.00  0.00     0.148 A 
ATOM     76  C   UNL     1       4.377   4.207  15.645  1.00  0.00     0.002 A 
ATOM     77  C   UNL     1       4.627   5.155  13.429  1.00  0.00     0.091 A 
ATOM     78  F   UNL     1       2.685   5.895  12.255  1.00  0.00    -0.205 F 
ATOM     79  C   UNL     1       5.193   4.606  14.591  1.00  0.00     0.022 A 
BRANCH  77  80
ATOM     80  S   UNL     1       5.739   5.518  12.066  1.00  0.00     0.127 S 
ATOM     81  O   UNL     1       6.386   6.745  12.525  1.00  0.00    -0.237 OA
ATOM     82  O   UNL     1       6.601   4.335  12.052  1.00  0.00    -0.237 OA
ATOM     83  O   UNL     1       4.886   5.648  10.892  1.00  0.00    -0.744 OA
ENDBRANCH  77  80
ENDBRANCH  49  73
BRANCH  61  84
ATOM     84  C   UNL     1      -2.347   8.598  17.924  1.00  0.00     0.023 A 
ATOM     85  C   UNL     1      -1.849   9.895  17.690  1.00  0.00     0.012 A 
ATOM     86  C   UNL     1      -2.818   8.258  19.207  1.00  0.00     0.148 A 
ATOM     87  C   UNL     1      -1.795  10.830  18.723  1.00  0.00     0.002 A 
ATOM     88  C   UNL     1      -2.804   9.210  20.221  1.00  0.00     0.091 A 
ATOM     89  F   UNL     1      -3.270   7.013  19.415  1.00  0.00    -0.205 F 
ATOM     90  C   UNL     1      -2.283  10.492  19.983  1.00  0.00     0.022 A 
BRANCH  88  91
ATOM     91  S   UNL     1      -3.498   8.890  21.846  1.00  0.00     0.127 S 
ATOM     92  O   UNL     1      -2.294   8.710  22.655  1.00  0.00    -0.237 OA
ATOM     93  O   UNL     1      -4.237  10.124  22.119  1.00  0.00    -0.237 OA
ATOM     94  O   UNL     1      -4.337   7.709  21.696  1.00  0.00    -0.744 OA
ENDBRANCH  88  91
ENDBRANCH  61  84
ENDBRANCH  35  36
ENDBRANCH  27  30
ENDBRANCH  25  26
ENDBRANCH  24  25
ENDBRANCH   1  24
TORSDOF 18
