REMARK SMILES NC(=O)CC[C@@H](C(=O)NCCCCNC(=O)c1ccc(-c2c3nc(c(-c4cccc(S(=O)(=O)[O-])c4F)c4ccc([nH]4)c(-c4cccc(S(=O)(=O)[O-])c4F)c4nc(c(-c5cccc(S(=O)(=O)[O-])c5F)c5ccc2[nH]5)C=C4)C=C3)cc1)N1C(=O)/C(=C/c2ccc(C=O)cc2)SC1=S
REMARK SMILES IDX 11 1 10 2 9 3 7 4 8 5 6 7 5 8 4 9 2 10 1 11 3 14 80 15 81 16
REMARK SMILES IDX 94 17 82 18 83 19 93 20 95 21 84 22 85 23 86 24 92 25 87 26
REMARK SMILES IDX 91 27 88 28 89 29 90 30 12 31 13 32 14 33 15 34 16 36 17 37
REMARK SMILES IDX 18 38 79 39 19 40 78 41 20 42 21 43 22 44 72 45 23 46 77 47
REMARK SMILES IDX 71 48 73 49 24 50 76 51 70 52 69 53 25 55 57 56 37 57 56 58
REMARK SMILES IDX 38 59 41 60 55 61 74 62 39 63 40 64 54 66 75 67 42 68 26 69
REMARK SMILES IDX 27 70 35 71 28 72 30 73 36 74 29 75 31 76 32 77 33 78 34 79
REMARK SMILES IDX 58 80 59 81 67 82 60 83 62 84 68 85 61 86 63 87 64 88 65 89
REMARK SMILES IDX 66 90 43 91 44 92 52 93 45 94 47 95 53 96 46 97 48 98 49 99
REMARK SMILES IDX 50 100 51 101
REMARK H PARENT 9 6 1 12 1 13 14 35 73 54 41 65
REMARK Flexibility Score: inf
ROOT
ATOM      1  C   UNL     1       1.527   1.940  -2.862  1.00  0.00     0.023 C 
ENDROOT
BRANCH   1   2
ATOM      2  C   UNL     1       2.306   0.958  -1.987  1.00  0.00     0.116 C 
BRANCH   2   3
ATOM      3  N   UNL     1       3.503   1.576  -1.467  1.00  0.00    -0.354 N 
ATOM      4  C   UNL     1       3.811   2.015  -0.216  1.00  0.00     0.243 C 
ATOM      5  O   UNL     1       4.942   2.490  -0.067  1.00  0.00    -0.273 OA
ATOM      6  H   UNL     1       4.219   1.702  -2.131  1.00  0.00     0.163 HD
BRANCH   4   7
ATOM      7  C   UNL     1       2.831   1.836   0.981  1.00  0.00     0.181 C 
BRANCH   7   8
ATOM      8  C   UNL     1       1.590   2.751   1.053  1.00  0.00     0.045 C 
BRANCH   8   9
ATOM      9  C   UNL     1       0.287   2.420   0.334  1.00  0.00     0.102 C 
BRANCH   9  10
ATOM     10  C   UNL     1      -0.562   1.234   0.747  1.00  0.00     0.217 C 
ATOM     11  N   UNL     1      -0.001   0.005   0.842  1.00  0.00    -0.370 N 
ATOM     12  H   UNL     1      -0.549  -0.767   1.109  1.00  0.00     0.159 HD
ATOM     13  H   UNL     1       0.956  -0.116   0.644  1.00  0.00     0.159 HD
ATOM     14  O   UNL     1      -1.778   1.338   0.896  1.00  0.00    -0.275 OA
ENDBRANCH   9  10
ENDBRANCH   8   9
ENDBRANCH   7   8
BRANCH   7  15
ATOM     15  N   UNL     1       3.683   2.028   2.196  1.00  0.00    -0.280 N 
ATOM     16  C   UNL     1       4.012   3.315   2.602  1.00  0.00     0.266 C 
ATOM     17  C   UNL     1       4.309   1.007   2.882  1.00  0.00     0.149 C 
ATOM     18  O   UNL     1       3.623   4.366   2.106  1.00  0.00    -0.268 OA
ATOM     19  C   UNL     1       4.900   3.282   3.788  1.00  0.00     0.081 C 
ATOM     20  S   UNL     1       5.289   1.665   4.191  1.00  0.00    -0.054 SA
ATOM     21  S   UNL     1       4.184  -0.638   2.621  1.00  0.00    -0.052 S 
ATOM     22  C   UNL     1       5.251   4.416   4.408  1.00  0.00     0.029 C 
BRANCH  22  23
ATOM     23  C   UNL     1       6.101   4.532   5.593  1.00  0.00    -0.024 A 
ATOM     24  C   UNL     1       5.581   5.105   6.760  1.00  0.00     0.009 A 
ATOM     25  C   UNL     1       7.440   4.123   5.560  1.00  0.00     0.009 A 
ATOM     26  C   UNL     1       6.385   5.244   7.894  1.00  0.00     0.012 A 
ATOM     27  C   UNL     1       8.247   4.259   6.691  1.00  0.00     0.012 A 
ATOM     28  C   UNL     1       7.714   4.816   7.856  1.00  0.00     0.014 A 
BRANCH  28  29
ATOM     29  C   UNL     1       8.574   4.950   9.048  1.00  0.00     0.260 C 
ATOM     30  O   UNL     1       8.168   5.434  10.097  1.00  0.00    -0.298 OA
ENDBRANCH  28  29
ENDBRANCH  22  23
ENDBRANCH   7  15
ENDBRANCH   4   7
ENDBRANCH   2   3
ENDBRANCH   1   2
BRANCH   1  31
ATOM     31  C   UNL     1       1.910   1.910  -4.335  1.00  0.00     0.023 C 
BRANCH  31  32
ATOM     32  C   UNL     1       1.566   0.604  -5.037  1.00  0.00     0.116 C 
BRANCH  32  33
ATOM     33  N   UNL     1       0.144   0.274  -5.007  1.00  0.00    -0.352 N 
ATOM     34  C   UNL     1      -0.613  -0.280  -6.014  1.00  0.00     0.251 C 
ATOM     35  H   UNL     1      -0.329   0.472  -4.167  1.00  0.00     0.163 HD
ATOM     36  O   UNL     1      -1.822  -0.431  -5.884  1.00  0.00    -0.269 OA
BRANCH  34  37
ATOM     37  C   UNL     1       0.064  -0.644  -7.273  1.00  0.00     0.039 A 
ATOM     38  C   UNL     1      -0.400  -0.104  -8.473  1.00  0.00     0.014 A 
ATOM     39  C   UNL     1       1.233  -1.408  -7.236  1.00  0.00     0.014 A 
ATOM     40  C   UNL     1       0.361  -0.264  -9.631  1.00  0.00     0.010 A 
ATOM     41  C   UNL     1       2.035  -1.478  -8.366  1.00  0.00     0.010 A 
ATOM     42  C   UNL     1       1.609  -0.910  -9.576  1.00  0.00    -0.014 A 
BRANCH  42  43
ATOM     43  C   UNL     1       2.490  -0.999 -10.767  1.00  0.00     0.031 A 
ATOM     44  C   UNL     1       2.887  -2.348 -11.304  1.00  0.00     0.074 A 
ATOM     45  C   UNL     1       3.008   0.124 -11.305  1.00  0.00     0.049 A 
ATOM     46  N   UNL     1       3.701  -2.636 -12.284  1.00  0.00    -0.248 NA
ATOM     47  C   UNL     1       2.321  -3.529 -10.629  1.00  0.00     0.031 C 
ATOM     48  C   UNL     1       2.768   1.487 -10.822  1.00  0.00     0.029 A 
ATOM     49  N   UNL     1       3.864   0.296 -12.364  1.00  0.00    -0.354 N 
ATOM     50  C   UNL     1       3.777  -4.023 -12.317  1.00  0.00     0.074 A 
ATOM     51  C   UNL     1       2.962  -4.519 -11.231  1.00  0.00     0.031 C 
ATOM     52  C   UNL     1       3.444   2.354 -11.594  1.00  0.00     0.029 A 
ATOM     53  C   UNL     1       4.192   1.612 -12.603  1.00  0.00     0.049 A 
ATOM     54  H   UNL     1       4.211  -0.451 -12.902  1.00  0.00     0.167 HD
ATOM     55  C   UNL     1       4.435  -4.816 -13.194  1.00  0.00     0.034 A 
ATOM     56  C   UNL     1       5.004   2.156 -13.530  1.00  0.00     0.034 A 
ATOM     57  C   UNL     1       5.198  -4.321 -14.306  1.00  0.00     0.049 A 
ATOM     58  C   UNL     1       5.689   1.252 -14.520  1.00  0.00     0.074 A 
ATOM     59  C   UNL     1       5.827  -5.042 -15.305  1.00  0.00     0.029 A 
ATOM     60  N   UNL     1       5.439  -2.981 -14.565  1.00  0.00    -0.354 N 
ATOM     61  N   UNL     1       5.625  -0.053 -14.628  1.00  0.00    -0.248 NA
ATOM     62  C   UNL     1       6.531   1.898 -15.538  1.00  0.00     0.031 C 
ATOM     63  C   UNL     1       6.468  -4.138 -16.156  1.00  0.00     0.029 A 
ATOM     64  C   UNL     1       6.213  -2.853 -15.705  1.00  0.00     0.049 A 
ATOM     65  H   UNL     1       5.107  -2.232 -14.020  1.00  0.00     0.167 HD
ATOM     66  C   UNL     1       6.383  -0.381 -15.747  1.00  0.00     0.074 A 
ATOM     67  C   UNL     1       6.881   0.865 -16.293  1.00  0.00     0.031 C 
ATOM     68  C   UNL     1       6.653  -1.603 -16.267  1.00  0.00     0.034 A 
BRANCH  55  69
ATOM     69  C   UNL     1       4.309  -6.307 -13.021  1.00  0.00     0.023 A 
ATOM     70  C   UNL     1       3.081  -6.939 -13.306  1.00  0.00     0.012 A 
ATOM     71  C   UNL     1       5.415  -7.088 -12.634  1.00  0.00     0.148 A 
ATOM     72  C   UNL     1       2.946  -8.320 -13.176  1.00  0.00     0.002 A 
ATOM     73  C   UNL     1       5.286  -8.469 -12.553  1.00  0.00     0.091 A 
ATOM     74  F   UNL     1       6.567  -6.466 -12.346  1.00  0.00    -0.205 F 
ATOM     75  C   UNL     1       4.050  -9.085 -12.811  1.00  0.00     0.022 A 
BRANCH  73  76
ATOM     76  S   UNL     1       6.666  -9.552 -12.170  1.00  0.00     0.127 S 
ATOM     77  O   UNL     1       6.289 -10.054 -10.849  1.00  0.00    -0.237 OA
ATOM     78  O   UNL     1       6.585 -10.542 -13.245  1.00  0.00    -0.237 OA
ATOM     79  O   UNL     1       7.856  -8.715 -12.202  1.00  0.00    -0.744 OA
ENDBRANCH  73  76
ENDBRANCH  55  69
BRANCH  56  80
ATOM     80  C   UNL     1       5.156   3.637 -13.618  1.00  0.00     0.023 A 
ATOM     81  C   UNL     1       4.605   4.322 -14.720  1.00  0.00     0.012 A 
ATOM     82  C   UNL     1       5.822   4.371 -12.618  1.00  0.00     0.148 A 
ATOM     83  C   UNL     1       4.745   5.705 -14.842  1.00  0.00     0.002 A 
ATOM     84  C   UNL     1       5.910   5.755 -12.718  1.00  0.00     0.091 A 
ATOM     85  F   UNL     1       6.347   3.701 -11.583  1.00  0.00    -0.205 F 
ATOM     86  C   UNL     1       5.389   6.422 -13.838  1.00  0.00     0.022 A 
BRANCH  84  87
ATOM     87  S   UNL     1       6.609   6.774 -11.414  1.00  0.00     0.127 S 
ATOM     88  O   UNL     1       7.842   7.251 -12.035  1.00  0.00    -0.237 OA
ATOM     89  O   UNL     1       5.572   7.791 -11.239  1.00  0.00    -0.237 OA
ATOM     90  O   UNL     1       6.778   5.887 -10.271  1.00  0.00    -0.744 OA
ENDBRANCH  84  87
ENDBRANCH  56  80
BRANCH  68  91
ATOM     91  C   UNL     1       7.491  -1.663 -17.517  1.00  0.00     0.023 A 
ATOM     92  C   UNL     1       8.872  -1.393 -17.452  1.00  0.00     0.012 A 
ATOM     93  C   UNL     1       6.922  -2.071 -18.740  1.00  0.00     0.148 A 
ATOM     94  C   UNL     1       9.668  -1.497 -18.591  1.00  0.00     0.002 A 
ATOM     95  C   UNL     1       7.731  -2.223 -19.859  1.00  0.00     0.091 A 
ATOM     96  F   UNL     1       5.603  -2.307 -18.784  1.00  0.00    -0.205 F 
ATOM     97  C   UNL     1       9.101  -1.925 -19.790  1.00  0.00     0.022 A 
BRANCH  95  98
ATOM     98  S   UNL     1       7.108  -2.865 -21.417  1.00  0.00     0.127 S 
ATOM     99  O   UNL     1       7.126  -1.670 -22.259  1.00  0.00    -0.237 OA
ATOM    100  O   UNL     1       8.114  -3.870 -21.762  1.00  0.00    -0.237 OA
ATOM    101  O   UNL     1       5.786  -3.406 -21.130  1.00  0.00    -0.744 OA
ENDBRANCH  95  98
ENDBRANCH  68  91
ENDBRANCH  42  43
ENDBRANCH  34  37
ENDBRANCH  32  33
ENDBRANCH  31  32
ENDBRANCH   1  31
TORSDOF 20
