REMARK SMILES O=C(NCCCCNC(=O)c1cccc(Nc2ccnc3ccc(Cl)cc23)c1)c1ccc(-c2c3nc(c(-c4cccc(S(=O)(=O)[O-])c4F)c4ccc([nH]4)c(-c4cccc(S(=O)(=O)[O-])c4F)c4nc(c(-c5cccc(S(=O)(=O)[O-])c5F)c5ccc2[nH]5)C=C4)C=C3)cc1
REMARK SMILES IDX 5 1 4 2 3 3 1 4 2 5 29 7 30 8 91 9 31 10 90 11 32 12 33 13
REMARK SMILES IDX 34 14 84 15 35 16 89 17 83 18 85 19 36 20 88 21 82 22 81 23
REMARK SMILES IDX 37 25 69 26 49 27 68 28 50 29 53 30 67 31 86 32 51 33 52 34
REMARK SMILES IDX 66 36 87 37 54 38 38 39 39 40 47 41 40 42 42 43 48 44 41 45
REMARK SMILES IDX 43 46 44 47 45 48 46 49 70 50 71 51 79 52 72 53 74 54 80 55
REMARK SMILES IDX 73 56 75 57 76 58 77 59 78 60 55 61 56 62 64 63 57 64 59 65
REMARK SMILES IDX 65 66 58 67 60 68 61 69 62 70 63 71 6 72 7 73 8 74 9 75
REMARK SMILES IDX 10 77 11 78 12 79 28 80 13 81 15 82 14 83 16 84 17 86 18 87
REMARK SMILES IDX 27 88 19 89 21 90 26 91 20 92 22 93 24 94 23 95 25 96
REMARK H PARENT 3 6 85 24 53 35 8 76 16 85
REMARK Flexibility Score: inf
ROOT
ATOM      1  C   UNL     1       4.995  -2.311   1.497  1.00  0.00     0.023 C 
ENDROOT
BRANCH   1   2
ATOM      2  C   UNL     1       4.569  -1.402   0.348  1.00  0.00     0.116 C 
BRANCH   2   3
ATOM      3  N   UNL     1       3.130  -1.223   0.243  1.00  0.00    -0.352 N 
ATOM      4  O   UNL     1       1.168  -0.128   0.142  1.00  0.00    -0.269 OA
ATOM      5  C   UNL     1       2.395  -0.063   0.121  1.00  0.00     0.251 C 
ATOM      6  H   UNL     1       2.602  -2.054   0.262  1.00  0.00     0.163 HD
BRANCH   5   7
ATOM      7  C   UNL     1       3.068   1.255   0.006  1.00  0.00     0.039 A 
ATOM      8  C   UNL     1       4.188   1.432  -0.808  1.00  0.00     0.014 A 
ATOM      9  C   UNL     1       2.556   2.345   0.721  1.00  0.00     0.014 A 
ATOM     10  C   UNL     1       4.884   2.640  -0.784  1.00  0.00     0.010 A 
ATOM     11  C   UNL     1       3.209   3.583   0.678  1.00  0.00     0.010 A 
ATOM     12  C   UNL     1       4.402   3.732  -0.044  1.00  0.00    -0.014 A 
BRANCH  12  13
ATOM     13  C   UNL     1       5.129   5.030  -0.095  1.00  0.00     0.031 A 
ATOM     14  C   UNL     1       5.763   5.627   1.134  1.00  0.00     0.074 A 
ATOM     15  C   UNL     1       5.221   5.677  -1.274  1.00  0.00     0.049 A 
ATOM     16  N   UNL     1       6.466   6.726   1.245  1.00  0.00    -0.248 NA
ATOM     17  C   UNL     1       5.582   4.905   2.404  1.00  0.00     0.031 C 
ATOM     18  C   UNL     1       4.607   5.230  -2.526  1.00  0.00     0.029 A 
ATOM     19  N   UNL     1       5.859   6.842  -1.616  1.00  0.00    -0.354 N 
ATOM     20  C   UNL     1       6.782   6.848   2.594  1.00  0.00     0.074 A 
ATOM     21  C   UNL     1       6.184   5.715   3.267  1.00  0.00     0.031 C 
ATOM     22  C   UNL     1       4.917   6.095  -3.502  1.00  0.00     0.029 A 
ATOM     23  C   UNL     1       5.711   7.182  -2.941  1.00  0.00     0.049 A 
ATOM     24  H   UNL     1       6.374   7.384  -0.975  1.00  0.00     0.167 HD
ATOM     25  C   UNL     1       7.516   7.806   3.212  1.00  0.00     0.034 A 
ATOM     26  C   UNL     1       6.152   8.252  -3.629  1.00  0.00     0.034 A 
ATOM     27  C   UNL     1       8.140   8.913   2.535  1.00  0.00     0.049 A 
ATOM     28  C   UNL     1       6.984   9.284  -2.923  1.00  0.00     0.074 A 
ATOM     29  C   UNL     1       8.963   9.892   3.066  1.00  0.00     0.029 A 
ATOM     30  N   UNL     1       8.005   9.198   1.185  1.00  0.00    -0.354 N 
ATOM     31  N   UNL     1       7.389   9.302  -1.677  1.00  0.00    -0.248 NA
ATOM     32  C   UNL     1       7.444  10.427  -3.723  1.00  0.00     0.031 C 
ATOM     33  C   UNL     1       9.309  10.780   2.040  1.00  0.00     0.029 A 
ATOM     34  C   UNL     1       8.718  10.342   0.866  1.00  0.00     0.049 A 
ATOM     35  H   UNL     1       7.480   8.664   0.545  1.00  0.00     0.167 HD
ATOM     36  C   UNL     1       8.169  10.445  -1.548  1.00  0.00     0.074 A 
ATOM     37  C   UNL     1       8.204  11.076  -2.852  1.00  0.00     0.031 C 
ATOM     38  C   UNL     1       8.784  10.937  -0.444  1.00  0.00     0.034 A 
BRANCH  25  39
ATOM     39  C   UNL     1       7.731   7.681   4.699  1.00  0.00     0.023 A 
ATOM     40  C   UNL     1       8.623   6.708   5.192  1.00  0.00     0.012 A 
ATOM     41  C   UNL     1       7.116   8.573   5.601  1.00  0.00     0.148 A 
ATOM     42  C   UNL     1       8.881   6.606   6.559  1.00  0.00     0.002 A 
ATOM     43  C   UNL     1       7.407   8.489   6.959  1.00  0.00     0.091 A 
ATOM     44  F   UNL     1       6.255   9.480   5.117  1.00  0.00    -0.205 F 
ATOM     45  C   UNL     1       8.281   7.502   7.440  1.00  0.00     0.022 A 
BRANCH  43  46
ATOM     46  S   UNL     1       6.743   9.646   8.164  1.00  0.00     0.127 S 
ATOM     47  O   UNL     1       5.752   8.819   8.851  1.00  0.00    -0.237 OA
ATOM     48  O   UNL     1       7.924   9.972   8.964  1.00  0.00    -0.237 OA
ATOM     49  O   UNL     1       6.207  10.760   7.395  1.00  0.00    -0.744 OA
ENDBRANCH  43  46
ENDBRANCH  25  39
BRANCH  26  50
ATOM     50  C   UNL     1       5.849   8.367  -5.083  1.00  0.00     0.023 A 
ATOM     51  C   UNL     1       6.887   8.218  -6.022  1.00  0.00     0.012 A 
ATOM     52  C   UNL     1       4.532   8.568  -5.540  1.00  0.00     0.148 A 
ATOM     53  C   UNL     1       6.622   8.288  -7.390  1.00  0.00     0.002 A 
ATOM     54  C   UNL     1       4.266   8.577  -6.904  1.00  0.00     0.091 A 
ATOM     55  F   UNL     1       3.560   8.727  -4.630  1.00  0.00    -0.205 F 
ATOM     56  C   UNL     1       5.311   8.453  -7.831  1.00  0.00     0.022 A 
BRANCH  54  57
ATOM     57  S   UNL     1       2.591   8.636  -7.550  1.00  0.00     0.127 S 
ATOM     58  O   UNL     1       2.511  10.006  -8.049  1.00  0.00    -0.237 OA
ATOM     59  O   UNL     1       2.628   7.603  -8.586  1.00  0.00    -0.237 OA
ATOM     60  O   UNL     1       1.727   8.318  -6.422  1.00  0.00    -0.744 OA
ENDBRANCH  54  57
ENDBRANCH  26  50
BRANCH  38  61
ATOM     61  C   UNL     1       9.564  12.216  -0.598  1.00  0.00     0.023 A 
ATOM     62  C   UNL     1       8.877  13.436  -0.753  1.00  0.00     0.012 A 
ATOM     63  C   UNL     1      10.971  12.218  -0.529  1.00  0.00     0.148 A 
ATOM     64  C   UNL     1       9.579  14.636  -0.869  1.00  0.00     0.002 A 
ATOM     65  C   UNL     1      11.662  13.422  -0.600  1.00  0.00     0.091 A 
ATOM     66  F   UNL     1      11.608  11.045  -0.403  1.00  0.00    -0.205 F 
ATOM     67  C   UNL     1      10.969  14.630  -0.781  1.00  0.00     0.022 A 
BRANCH  65  68
ATOM     68  S   UNL     1      13.446  13.519  -0.407  1.00  0.00     0.127 S 
ATOM     69  O   UNL     1      13.882  13.760  -1.781  1.00  0.00    -0.237 OA
ATOM     70  O   UNL     1      13.601  14.663   0.492  1.00  0.00    -0.237 OA
ATOM     71  O   UNL     1      13.855  12.243   0.166  1.00  0.00    -0.744 OA
ENDBRANCH  65  68
ENDBRANCH  38  61
ENDBRANCH  12  13
ENDBRANCH   5   7
ENDBRANCH   2   3
ENDBRANCH   1   2
BRANCH   1  72
ATOM     72  C   UNL     1       4.549  -3.772   1.419  1.00  0.00     0.023 C 
BRANCH  72  73
ATOM     73  C   UNL     1       4.840  -4.507   0.112  1.00  0.00     0.116 C 
BRANCH  73  74
ATOM     74  N   UNL     1       6.240  -4.521  -0.280  1.00  0.00    -0.352 N 
ATOM     75  C   UNL     1       7.064  -5.610  -0.433  1.00  0.00     0.251 C 
ATOM     76  H   UNL     1       6.647  -3.642  -0.458  1.00  0.00     0.163 HD
ATOM     77  O   UNL     1       8.124  -5.530  -1.046  1.00  0.00    -0.269 OA
BRANCH  75  78
ATOM     78  C   UNL     1       6.696  -6.880   0.211  1.00  0.00     0.041 A 
ATOM     79  C   UNL     1       6.918  -6.986   1.588  1.00  0.00     0.014 A 
ATOM     80  C   UNL     1       6.144  -7.939  -0.526  1.00  0.00     0.039 A 
ATOM     81  C   UNL     1       6.559  -8.151   2.249  1.00  0.00     0.003 A 
ATOM     82  C   UNL     1       5.752  -9.104   0.144  1.00  0.00     0.039 A 
ATOM     83  C   UNL     1       5.968  -9.190   1.534  1.00  0.00     0.026 A 
BRANCH  82  84
ATOM     84  N   UNL     1       4.996 -10.111  -0.491  1.00  0.00    -0.355 N 
ATOM     85  H   UNL     1       5.329 -10.462  -1.349  1.00  0.00     0.167 HD
BRANCH  84  86
ATOM     86  C   UNL     1       3.789 -10.652   0.020  1.00  0.00     0.050 A 
ATOM     87  C   UNL     1       2.880  -9.781   0.634  1.00  0.00     0.047 A 
ATOM     88  C   UNL     1       3.495 -12.038  -0.003  1.00  0.00     0.025 A 
ATOM     89  C   UNL     1       1.736 -10.293   1.201  1.00  0.00     0.114 A 
ATOM     90  C   UNL     1       2.279 -12.446   0.601  1.00  0.00     0.072 A 
ATOM     91  C   UNL     1       4.353 -13.030  -0.538  1.00  0.00     0.033 A 
ATOM     92  N   UNL     1       1.422 -11.600   1.186  1.00  0.00    -0.256 NA
ATOM     93  C   UNL     1       1.948 -13.792   0.621  1.00  0.00     0.030 A 
ATOM     94  C   UNL     1       3.997 -14.379  -0.486  1.00  0.00     0.041 A 
ATOM     95  C   UNL     1       2.791 -14.764   0.084  1.00  0.00     0.023 A 
ATOM     96  Cl  UNL     1       5.059 -15.579  -1.111  1.00  0.00    -0.084 Cl
ENDBRANCH  84  86
ENDBRANCH  82  84
ENDBRANCH  75  78
ENDBRANCH  73  74
ENDBRANCH  72  73
ENDBRANCH   1  72
TORSDOF 16
