REMARK SMILES O=C(NCCCCNC(=O)[C@H]1CC[C@H](CNS(=O)(=O)c2cccs2)O1)c1ccc(-c2c3nc(c(-c4cccc(S(=O)(=O)[O-])c4F)c4ccc([nH]4)c(-c4cccc(S(=O)(=O)[O-])c4F)c4nc(c(-c5cccc(S(=O)(=O)[O-])c5F)c5ccc2[nH]5)C=C4)C=C3)cc1
REMARK SMILES IDX 6 1 5 2 4 3 3 4 1 5 2 6 26 8 27 9 88 10 28 11 87 12 29 13
REMARK SMILES IDX 30 14 31 15 81 16 32 17 86 18 80 19 82 20 33 21 85 22 79 23
REMARK SMILES IDX 78 24 34 26 66 27 46 28 65 29 47 30 50 31 64 32 83 33 48 34
REMARK SMILES IDX 49 35 63 37 84 38 51 39 35 40 36 41 44 42 37 43 39 44 45 45
REMARK SMILES IDX 38 46 40 47 41 48 42 49 43 50 67 51 68 52 76 53 69 54 71 55
REMARK SMILES IDX 77 56 70 57 72 58 73 59 74 60 75 61 52 62 53 63 61 64 54 65
REMARK SMILES IDX 56 66 62 67 55 68 57 69 58 70 59 71 60 72 7 73 8 74 9 75
REMARK SMILES IDX 10 77 11 78 12 79 25 80 13 81 14 82 15 83 16 84 17 86 18 87
REMARK SMILES IDX 19 88 20 89 21 90 24 91 22 92 23 93
REMARK H PARENT 3 7 82 25 50 36 8 76 16 85
REMARK Flexibility Score: inf
ROOT
ATOM      1  C   UNL     1       3.856  -8.471  -0.086  1.00  0.00     0.023 C 
ENDROOT
BRANCH   1   2
ATOM      2  C   UNL     1       2.382  -8.431   0.294  1.00  0.00     0.023 C 
BRANCH   2   3
ATOM      3  C   UNL     1       1.464  -9.251  -0.604  1.00  0.00     0.116 C 
BRANCH   3   4
ATOM      4  N   UNL     1       1.888 -10.636  -0.784  1.00  0.00    -0.352 N 
ATOM      5  O   UNL     1       1.627 -12.885  -0.846  1.00  0.00    -0.269 OA
ATOM      6  C   UNL     1       1.115 -11.777  -0.740  1.00  0.00     0.251 C 
ATOM      7  H   UNL     1       2.847 -10.774  -0.959  1.00  0.00     0.163 HD
BRANCH   6   8
ATOM      8  C   UNL     1      -0.333 -11.621  -0.505  1.00  0.00     0.039 A 
ATOM      9  C   UNL     1      -1.059 -10.720  -1.285  1.00  0.00     0.014 A 
ATOM     10  C   UNL     1      -0.918 -12.252   0.593  1.00  0.00     0.014 A 
ATOM     11  C   UNL     1      -2.296 -10.286  -0.836  1.00  0.00     0.010 A 
ATOM     12  C   UNL     1      -2.212 -11.891   0.977  1.00  0.00     0.010 A 
ATOM     13  C   UNL     1      -2.885 -10.858   0.306  1.00  0.00    -0.014 A 
BRANCH  13  14
ATOM     14  C   UNL     1      -4.210 -10.363   0.760  1.00  0.00     0.031 A 
ATOM     15  C   UNL     1      -4.392  -9.732   2.116  1.00  0.00     0.074 A 
ATOM     16  C   UNL     1      -5.254 -10.461  -0.086  1.00  0.00     0.049 A 
ATOM     17  N   UNL     1      -5.475  -9.218   2.642  1.00  0.00    -0.248 NA
ATOM     18  C   UNL     1      -3.217  -9.675   3.002  1.00  0.00     0.031 C 
ATOM     19  C   UNL     1      -5.203 -11.083  -1.412  1.00  0.00     0.029 A 
ATOM     20  N   UNL     1      -6.549 -10.031   0.029  1.00  0.00    -0.354 N 
ATOM     21  C   UNL     1      -5.132  -8.836   3.934  1.00  0.00     0.074 A 
ATOM     22  C   UNL     1      -3.736  -9.172   4.114  1.00  0.00     0.031 C 
ATOM     23  C   UNL     1      -6.395 -10.948  -2.007  1.00  0.00     0.029 A 
ATOM     24  C   UNL     1      -7.312 -10.290  -1.085  1.00  0.00     0.049 A 
ATOM     25  H   UNL     1      -6.900  -9.580   0.831  1.00  0.00     0.167 HD
ATOM     26  C   UNL     1      -5.907  -8.249   4.879  1.00  0.00     0.034 A 
ATOM     27  C   UNL     1      -8.609 -10.036  -1.338  1.00  0.00     0.034 A 
ATOM     28  C   UNL     1      -7.278  -7.861   4.671  1.00  0.00     0.049 A 
ATOM     29  C   UNL     1      -9.426  -9.338  -0.292  1.00  0.00     0.074 A 
ATOM     30  C   UNL     1      -8.126  -7.196   5.540  1.00  0.00     0.029 A 
ATOM     31  N   UNL     1      -8.003  -8.102   3.514  1.00  0.00    -0.354 N 
ATOM     32  N   UNL     1      -9.051  -8.885   0.880  1.00  0.00    -0.248 NA
ATOM     33  C   UNL     1     -10.838  -9.094  -0.611  1.00  0.00     0.031 C 
ATOM     34  C   UNL     1      -9.367  -7.047   4.912  1.00  0.00     0.029 A 
ATOM     35  C   UNL     1      -9.288  -7.604   3.646  1.00  0.00     0.049 A 
ATOM     36  H   UNL     1      -7.655  -8.560   2.715  1.00  0.00     0.167 HD
ATOM     37  C   UNL     1     -10.172  -8.277   1.428  1.00  0.00     0.074 A 
ATOM     38  C   UNL     1     -11.234  -8.399   0.448  1.00  0.00     0.031 C 
ATOM     39  C   UNL     1     -10.316  -7.687   2.640  1.00  0.00     0.034 A 
BRANCH  26  40
ATOM     40  C   UNL     1      -5.284  -7.956   6.221  1.00  0.00     0.023 A 
ATOM     41  C   UNL     1      -4.370  -6.891   6.352  1.00  0.00     0.012 A 
ATOM     42  C   UNL     1      -5.653  -8.691   7.366  1.00  0.00     0.148 A 
ATOM     43  C   UNL     1      -3.811  -6.582   7.592  1.00  0.00     0.002 A 
ATOM     44  C   UNL     1      -5.122  -8.352   8.606  1.00  0.00     0.091 A 
ATOM     45  F   UNL     1      -6.505  -9.716   7.222  1.00  0.00    -0.205 F 
ATOM     46  C   UNL     1      -4.194  -7.304   8.720  1.00  0.00     0.022 A 
BRANCH  44  47
ATOM     47  S   UNL     1      -5.618  -9.180  10.122  1.00  0.00     0.127 S 
ATOM     48  O   UNL     1      -4.487 -10.077  10.352  1.00  0.00    -0.237 OA
ATOM     49  O   UNL     1      -5.716  -8.068  11.069  1.00  0.00    -0.237 OA
ATOM     50  O   UNL     1      -6.887  -9.827   9.821  1.00  0.00    -0.744 OA
ENDBRANCH  44  47
ENDBRANCH  26  40
BRANCH  27  51
ATOM     51  C   UNL     1      -9.179 -10.389  -2.667  1.00  0.00     0.023 A 
ATOM     52  C   UNL     1      -9.513  -9.360  -3.568  1.00  0.00     0.012 A 
ATOM     53  C   UNL     1      -9.319 -11.731  -3.070  1.00  0.00     0.148 A 
ATOM     54  C   UNL     1      -9.992  -9.662  -4.843  1.00  0.00     0.002 A 
ATOM     55  C   UNL     1      -9.739 -12.024  -4.362  1.00  0.00     0.091 A 
ATOM     56  F   UNL     1      -9.009 -12.695  -2.191  1.00  0.00    -0.205 F 
ATOM     57  C   UNL     1     -10.091 -10.992  -5.244  1.00  0.00     0.022 A 
BRANCH  55  58
ATOM     58  S   UNL     1      -9.746 -13.700  -5.007  1.00  0.00     0.127 S 
ATOM     59  O   UNL     1     -11.174 -14.004  -5.033  1.00  0.00    -0.237 OA
ATOM     60  O   UNL     1      -9.127 -13.523  -6.321  1.00  0.00    -0.237 OA
ATOM     61  O   UNL     1      -8.946 -14.480  -4.072  1.00  0.00    -0.744 OA
ENDBRANCH  55  58
ENDBRANCH  27  51
BRANCH  39  62
ATOM     62  C   UNL     1     -11.662  -7.097   2.963  1.00  0.00     0.023 A 
ATOM     63  C   UNL     1     -12.742  -7.948   3.269  1.00  0.00     0.012 A 
ATOM     64  C   UNL     1     -11.842  -5.702   3.017  1.00  0.00     0.148 A 
ATOM     65  C   UNL     1     -13.991  -7.419   3.591  1.00  0.00     0.002 A 
ATOM     66  C   UNL     1     -13.077  -5.181   3.384  1.00  0.00     0.091 A 
ATOM     67  F   UNL     1     -10.809  -4.908   2.698  1.00  0.00    -0.205 F 
ATOM     68  C   UNL     1     -14.155  -6.037   3.660  1.00  0.00     0.022 A 
BRANCH  66  69
ATOM     69  S   UNL     1     -13.342  -3.416   3.584  1.00  0.00     0.127 S 
ATOM     70  O   UNL     1     -14.017  -3.071   2.334  1.00  0.00    -0.237 OA
ATOM     71  O   UNL     1     -14.194  -3.358   4.773  1.00  0.00    -0.237 OA
ATOM     72  O   UNL     1     -12.018  -2.837   3.768  1.00  0.00    -0.744 OA
ENDBRANCH  66  69
ENDBRANCH  39  62
ENDBRANCH  13  14
ENDBRANCH   6   8
ENDBRANCH   3   4
ENDBRANCH   2   3
ENDBRANCH   1   2
BRANCH   1  73
ATOM     73  C   UNL     1       4.136  -8.132  -1.545  1.00  0.00     0.116 C 
BRANCH  73  74
ATOM     74  N   UNL     1       4.196  -6.712  -1.787  1.00  0.00    -0.354 N 
ATOM     75  C   UNL     1       5.168  -5.934  -2.333  1.00  0.00     0.249 C 
ATOM     76  H   UNL     1       3.391  -6.219  -1.507  1.00  0.00     0.163 HD
ATOM     77  O   UNL     1       4.902  -4.729  -2.441  1.00  0.00    -0.272 OA
BRANCH  75  78
ATOM     78  C   UNL     1       6.526  -6.466  -2.862  1.00  0.00     0.207 C 
ATOM     79  C   UNL     1       7.275  -7.535  -2.088  1.00  0.00     0.045 C 
ATOM     80  O   UNL     1       6.454  -6.893  -4.227  1.00  0.00    -0.364 OA
ATOM     81  C   UNL     1       7.245  -8.761  -2.977  1.00  0.00     0.037 C 
ATOM     82  C   UNL     1       6.989  -8.212  -4.370  1.00  0.00     0.134 C 
BRANCH  82  83
ATOM     83  C   UNL     1       8.278  -8.198  -5.199  1.00  0.00     0.131 C 
BRANCH  83  84
ATOM     84  N   UNL     1       8.656  -9.584  -5.564  1.00  0.00    -0.208 NA
ATOM     85  H   UNL     1       8.105  -9.850  -6.380  1.00  0.00     0.141 HD
BRANCH  84  86
ATOM     86  S   UNL     1      10.278  -9.858  -5.934  1.00  0.00     0.250 S 
ATOM     87  O   UNL     1      11.070  -9.230  -4.905  1.00  0.00    -0.206 OA
ATOM     88  O   UNL     1      10.402 -11.271  -6.229  1.00  0.00    -0.206 OA
BRANCH  86  89
ATOM     89  C   UNL     1      10.611  -8.943  -7.416  1.00  0.00     0.134 A 
ATOM     90  C   UNL     1      10.836  -7.592  -7.611  1.00  0.00     0.033 A 
ATOM     91  S   UNL     1      10.594  -9.797  -8.895  1.00  0.00    -0.131 S 
ATOM     92  C   UNL     1      10.969  -7.258  -8.988  1.00  0.00     0.013 A 
ATOM     93  C   UNL     1      10.866  -8.369  -9.796  1.00  0.00     0.066 A 
ENDBRANCH  86  89
ENDBRANCH  84  86
ENDBRANCH  83  84
ENDBRANCH  82  83
ENDBRANCH  75  78
ENDBRANCH  73  74
ENDBRANCH   1  73
TORSDOF 18
