REMARK SMILES COc1ccccc1C[N@@H+](C)[C@@H](C)c1ccc(C(=O)NCCCCNC(=O)c2ccc(-c3c4nc(c(-c5cccc(S(=O)(=O)[O-])c5F)c5ccc([nH]5)c(-c5cccc(S(=O)(=O)[O-])c5F)c5nc(c(-c6cccc(S(=O)(=O)[O-])c6F)c6ccc3[nH]6)C=C5)C=C4)cc2)o1
REMARK SMILES IDX 21 1 20 2 18 3 19 4 17 6 14 7 15 8 91 9 16 10 12 11 13 12
REMARK SMILES IDX 10 13 11 14 9 16 8 17 3 18 4 19 5 20 7 21 6 22 2 23 1 24
REMARK SMILES IDX 22 25 23 26 24 27 25 28 26 29 27 31 28 32 29 33 90 34 30 35
REMARK SMILES IDX 89 36 31 37 32 38 33 39 83 40 34 41 88 42 82 43 84 44 35 45
REMARK SMILES IDX 87 46 81 47 80 48 36 50 68 51 48 52 67 53 49 54 52 55 66 56
REMARK SMILES IDX 85 57 50 58 51 59 65 61 86 62 53 63 37 64 38 65 46 66 39 67
REMARK SMILES IDX 41 68 47 69 40 70 42 71 43 72 44 73 45 74 69 75 70 76 78 77
REMARK SMILES IDX 71 78 73 79 79 80 72 81 74 82 75 83 76 84 77 85 54 86 55 87
REMARK SMILES IDX 63 88 56 89 58 90 64 91 57 92 59 93 60 94 61 95 62 96
REMARK H PARENT 20 5 10 15 25 30 84 49 52 60
REMARK Flexibility Score: inf
ROOT
ATOM      1  C   UNL     1       0.016   2.766  -7.274  1.00  0.00     0.116 C 
ENDROOT
BRANCH   1   2
ATOM      2  N   UNL     1       1.091   3.431  -6.573  1.00  0.00    -0.349 N 
ATOM      3  C   UNL     1       2.081   2.935  -5.751  1.00  0.00     0.287 C 
ATOM      4  O   UNL     1       2.984   3.734  -5.484  1.00  0.00    -0.266 OA
ATOM      5  H   UNL     1       1.123   4.406  -6.706  1.00  0.00     0.163 HD
BRANCH   3   6
ATOM      6  C   UNL     1       2.042   1.576  -5.231  1.00  0.00     0.191 A 
ATOM      7  C   UNL     1       2.852  -0.052  -3.945  1.00  0.00     0.161 A 
ATOM      8  C   UNL     1       1.641  -0.498  -4.430  1.00  0.00     0.053 A 
ATOM      9  O   UNL     1       3.137   1.163  -4.501  1.00  0.00    -0.450 OA
ATOM     10  C   UNL     1       1.112   0.551  -5.218  1.00  0.00     0.057 A 
BRANCH   7  11
ATOM     11  C   UNL     1       3.850  -0.618  -2.964  1.00  0.00     0.248 C 
ATOM     12  C   UNL     1       3.337  -1.938  -2.357  1.00  0.00     0.084 C 
BRANCH  11  13
ATOM     13  N   UNL     1       4.327   0.372  -1.959  1.00  0.00    -0.325 N 
ATOM     14  C   UNL     1       5.544  -0.095  -1.292  1.00  0.00     0.333 C 
ATOM     15  H   UNL     1       4.517   1.207  -2.513  1.00  0.00     0.348 HD
BRANCH  13  16
ATOM     16  C   UNL     1       3.337   0.781  -0.945  1.00  0.00     0.303 C 
BRANCH  16  17
ATOM     17  C   UNL     1       2.244   1.705  -1.431  1.00  0.00     0.048 A 
ATOM     18  C   UNL     1       0.892   1.335  -1.438  1.00  0.00     0.127 A 
ATOM     19  C   UNL     1      -0.087   2.185  -1.964  1.00  0.00     0.047 A 
ATOM     20  C   UNL     1       0.266   3.447  -2.437  1.00  0.00     0.004 A 
ATOM     21  C   UNL     1       2.579   2.987  -1.901  1.00  0.00     0.013 A 
ATOM     22  C   UNL     1       1.598   3.852  -2.394  1.00  0.00     0.001 A 
BRANCH  18  23
ATOM     23  O   UNL     1       0.495   0.093  -1.010  1.00  0.00    -0.496 OA
ATOM     24  C   UNL     1       0.171   0.141   0.379  1.00  0.00     0.278 C 
ENDBRANCH  18  23
ENDBRANCH  16  17
ENDBRANCH  13  16
ENDBRANCH  11  13
ENDBRANCH   7  11
ENDBRANCH   3   6
ENDBRANCH   1   2
BRANCH   1  25
ATOM     25  C   UNL     1      -1.337   2.955  -6.590  1.00  0.00     0.023 C 
BRANCH  25  26
ATOM     26  C   UNL     1      -2.041   4.282  -6.906  1.00  0.00     0.023 C 
BRANCH  26  27
ATOM     27  C   UNL     1      -2.220   4.608  -8.389  1.00  0.00     0.116 C 
BRANCH  27  28
ATOM     28  N   UNL     1      -2.811   3.526  -9.165  1.00  0.00    -0.352 N 
ATOM     29  C   UNL     1      -3.590   3.604 -10.296  1.00  0.00     0.251 C 
ATOM     30  H   UNL     1      -2.628   2.616  -8.835  1.00  0.00     0.163 HD
ATOM     31  O   UNL     1      -4.068   2.590 -10.787  1.00  0.00    -0.269 OA
BRANCH  29  32
ATOM     32  C   UNL     1      -3.884   4.930 -10.883  1.00  0.00     0.039 A 
ATOM     33  C   UNL     1      -5.216   5.271 -11.134  1.00  0.00     0.014 A 
ATOM     34  C   UNL     1      -2.860   5.846 -11.134  1.00  0.00     0.014 A 
ATOM     35  C   UNL     1      -5.529   6.565 -11.553  1.00  0.00     0.010 A 
ATOM     36  C   UNL     1      -3.179   7.152 -11.494  1.00  0.00     0.010 A 
ATOM     37  C   UNL     1      -4.517   7.529 -11.690  1.00  0.00    -0.014 A 
BRANCH  37  38
ATOM     38  C   UNL     1      -4.839   8.952 -11.968  1.00  0.00     0.031 A 
ATOM     39  C   UNL     1      -4.370   9.609 -13.236  1.00  0.00     0.074 A 
ATOM     40  C   UNL     1      -5.460   9.681 -11.019  1.00  0.00     0.049 A 
ATOM     41  N   UNL     1      -4.494  10.856 -13.610  1.00  0.00    -0.248 NA
ATOM     42  C   UNL     1      -3.646   8.762 -14.197  1.00  0.00     0.031 C 
ATOM     43  C   UNL     1      -5.887   9.178  -9.711  1.00  0.00     0.029 A 
ATOM     44  N   UNL     1      -5.811  11.008 -10.993  1.00  0.00    -0.354 N 
ATOM     45  C   UNL     1      -3.837  10.954 -14.830  1.00  0.00     0.074 A 
ATOM     46  C   UNL     1      -3.292   9.645 -15.121  1.00  0.00     0.031 C 
ATOM     47  C   UNL     1      -6.437  10.183  -9.011  1.00  0.00     0.029 A 
ATOM     48  C   UNL     1      -6.378  11.406  -9.804  1.00  0.00     0.049 A 
ATOM     49  H   UNL     1      -5.669  11.618 -11.753  1.00  0.00     0.167 HD
ATOM     50  C   UNL     1      -3.723  12.027 -15.648  1.00  0.00     0.034 A 
ATOM     51  C   UNL     1      -6.795  12.619  -9.394  1.00  0.00     0.034 A 
ATOM     52  C   UNL     1      -4.303  13.315 -15.374  1.00  0.00     0.049 A 
ATOM     53  C   UNL     1      -6.691  13.785 -10.339  1.00  0.00     0.074 A 
ATOM     54  C   UNL     1      -4.327  14.436 -16.185  1.00  0.00     0.029 A 
ATOM     55  N   UNL     1      -4.952  13.659 -14.199  1.00  0.00    -0.354 N 
ATOM     56  N   UNL     1      -6.223  13.815 -11.563  1.00  0.00    -0.248 NA
ATOM     57  C   UNL     1      -7.204  15.077  -9.860  1.00  0.00     0.031 C 
ATOM     58  C   UNL     1      -4.976  15.464 -15.491  1.00  0.00     0.029 A 
ATOM     59  C   UNL     1      -5.370  14.977 -14.256  1.00  0.00     0.049 A 
ATOM     60  H   UNL     1      -5.094  13.054 -13.435  1.00  0.00     0.167 HD
ATOM     61  C   UNL     1      -6.410  15.118 -12.011  1.00  0.00     0.074 A 
ATOM     62  C   UNL     1      -7.059  15.840 -10.935  1.00  0.00     0.031 C 
ATOM     63  C   UNL     1      -6.059  15.671 -13.198  1.00  0.00     0.034 A 
BRANCH  50  64
ATOM     64  C   UNL     1      -2.992  11.839 -16.951  1.00  0.00     0.023 A 
ATOM     65  C   UNL     1      -3.602  11.098 -17.984  1.00  0.00     0.012 A 
ATOM     66  C   UNL     1      -1.740  12.442 -17.179  1.00  0.00     0.148 A 
ATOM     67  C   UNL     1      -2.965  10.934 -19.213  1.00  0.00     0.002 A 
ATOM     68  C   UNL     1      -1.129  12.308 -18.421  1.00  0.00     0.091 A 
ATOM     69  F   UNL     1      -1.165  13.124 -16.178  1.00  0.00    -0.205 F 
ATOM     70  C   UNL     1      -1.735  11.546 -19.434  1.00  0.00     0.022 A 
BRANCH  68  71
ATOM     71  S   UNL     1       0.420  13.121 -18.832  1.00  0.00     0.127 S 
ATOM     72  O   UNL     1       1.348  11.991 -18.854  1.00  0.00    -0.237 OA
ATOM     73  O   UNL     1       0.128  13.696 -20.145  1.00  0.00    -0.237 OA
ATOM     74  O   UNL     1       0.649  14.100 -17.779  1.00  0.00    -0.744 OA
ENDBRANCH  68  71
ENDBRANCH  50  64
BRANCH  51  75
ATOM     75  C   UNL     1      -7.414  12.777  -8.047  1.00  0.00     0.023 A 
ATOM     76  C   UNL     1      -8.796  13.027  -7.950  1.00  0.00     0.012 A 
ATOM     77  C   UNL     1      -6.654  12.647  -6.869  1.00  0.00     0.148 A 
ATOM     78  C   UNL     1      -9.406  13.174  -6.704  1.00  0.00     0.002 A 
ATOM     79  C   UNL     1      -7.279  12.739  -5.630  1.00  0.00     0.091 A 
ATOM     80  F   UNL     1      -5.337  12.424  -6.982  1.00  0.00    -0.205 F 
ATOM     81  C   UNL     1      -8.651  13.019  -5.545  1.00  0.00     0.022 A 
BRANCH  79  82
ATOM     82  S   UNL     1      -6.409  12.418  -4.091  1.00  0.00     0.127 S 
ATOM     83  O   UNL     1      -6.273  13.763  -3.537  1.00  0.00    -0.237 OA
ATOM     84  O   UNL     1      -7.352  11.552  -3.383  1.00  0.00    -0.237 OA
ATOM     85  O   UNL     1      -5.167  11.759  -4.475  1.00  0.00    -0.744 OA
ENDBRANCH  79  82
ENDBRANCH  51  75
BRANCH  63  86
ATOM     86  C   UNL     1      -6.383  17.126 -13.411  1.00  0.00     0.023 A 
ATOM     87  C   UNL     1      -5.632  18.112 -12.740  1.00  0.00     0.012 A 
ATOM     88  C   UNL     1      -7.380  17.519 -14.325  1.00  0.00     0.148 A 
ATOM     89  C   UNL     1      -5.888  19.466 -12.954  1.00  0.00     0.002 A 
ATOM     90  C   UNL     1      -7.598  18.870 -14.568  1.00  0.00     0.091 A 
ATOM     91  F   UNL     1      -8.098  16.567 -14.939  1.00  0.00    -0.205 F 
ATOM     92  C   UNL     1      -6.861  19.845 -13.875  1.00  0.00     0.022 A 
BRANCH  90  93
ATOM     93  S   UNL     1      -8.767  19.449 -15.804  1.00  0.00     0.127 S 
ATOM     94  O   UNL     1      -9.863  19.940 -14.972  1.00  0.00    -0.237 OA
ATOM     95  O   UNL     1      -8.005  20.494 -16.489  1.00  0.00    -0.237 OA
ATOM     96  O   UNL     1      -9.078  18.291 -16.632  1.00  0.00    -0.744 OA
ENDBRANCH  90  93
ENDBRANCH  63  86
ENDBRANCH  37  38
ENDBRANCH  29  32
ENDBRANCH  27  28
ENDBRANCH  26  27
ENDBRANCH  25  26
ENDBRANCH   1  25
TORSDOF 19
