REMARK SMILES O=C(NCCCCNC(=O)[C@H]1CCCN(S(=O)(=O)c2cccc(Br)c2)C1)c1ccc(-c2c3nc(c(-c4cccc(S(=O)(=O)[O-])c4F)c4ccc([nH]4)c(-c4cccc(S(=O)(=O)[O-])c4F)c4nc(c(-c5cccc(S(=O)(=O)[O-])c5F)c5ccc2[nH]5)C=C4)C=C3)cc1
REMARK SMILES IDX 5 1 4 2 3 3 1 4 2 5 27 7 28 8 89 9 29 10 88 11 30 12 31 13
REMARK SMILES IDX 32 14 82 15 33 16 87 17 81 18 83 19 34 20 86 21 80 22 79 23
REMARK SMILES IDX 35 25 67 26 47 27 66 28 48 29 51 30 65 31 84 32 49 33 50 34
REMARK SMILES IDX 64 36 85 37 52 38 36 39 37 40 45 41 38 42 40 43 46 44 39 45
REMARK SMILES IDX 41 46 42 47 43 48 44 49 68 50 69 51 77 52 70 53 72 54 78 55
REMARK SMILES IDX 71 56 73 57 74 58 75 59 76 60 53 61 54 62 62 63 55 64 57 65
REMARK SMILES IDX 63 66 56 67 58 68 59 69 60 70 61 71 6 72 7 73 8 74 9 75
REMARK SMILES IDX 10 77 11 78 12 79 26 80 13 81 15 82 14 83 16 84 17 85 18 86
REMARK SMILES IDX 19 87 20 88 25 89 21 90 23 91 22 92 24 93
REMARK H PARENT 3 6 83 24 51 35 8 76
REMARK Flexibility Score: inf
ROOT
ATOM      1  C   UNL     1       2.796   4.096   2.137  1.00  0.00     0.023 C 
ENDROOT
BRANCH   1   2
ATOM      2  C   UNL     1       2.219   5.361   2.763  1.00  0.00     0.116 C 
BRANCH   2   3
ATOM      3  N   UNL     1       2.640   6.571   2.075  1.00  0.00    -0.352 N 
ATOM      4  O   UNL     1       2.478   8.316   0.664  1.00  0.00    -0.269 OA
ATOM      5  C   UNL     1       1.903   7.446   1.312  1.00  0.00     0.251 C 
ATOM      6  H   UNL     1       3.594   6.797   2.170  1.00  0.00     0.163 HD
BRANCH   5   7
ATOM      7  C   UNL     1       0.430   7.319   1.256  1.00  0.00     0.039 A 
ATOM      8  C   UNL     1      -0.312   7.131   2.425  1.00  0.00     0.014 A 
ATOM      9  C   UNL     1      -0.219   7.407   0.022  1.00  0.00     0.014 A 
ATOM     10  C   UNL     1      -1.679   6.883   2.346  1.00  0.00     0.010 A 
ATOM     11  C   UNL     1      -1.607   7.247  -0.046  1.00  0.00     0.010 A 
ATOM     12  C   UNL     1      -2.345   6.959   1.113  1.00  0.00    -0.014 A 
BRANCH  12  13
ATOM     13  C   UNL     1      -3.825   6.852   1.075  1.00  0.00     0.031 A 
ATOM     14  C   UNL     1      -4.516   5.739   0.338  1.00  0.00     0.074 A 
ATOM     15  C   UNL     1      -4.548   7.808   1.694  1.00  0.00     0.049 A 
ATOM     16  N   UNL     1      -5.799   5.523   0.199  1.00  0.00    -0.248 NA
ATOM     17  C   UNL     1      -3.667   4.744  -0.336  1.00  0.00     0.031 C 
ATOM     18  C   UNL     1      -3.983   8.966   2.393  1.00  0.00     0.029 A 
ATOM     19  N   UNL     1      -5.903   7.975   1.819  1.00  0.00    -0.354 N 
ATOM     20  C   UNL     1      -5.915   4.402  -0.614  1.00  0.00     0.074 A 
ATOM     21  C   UNL     1      -4.570   3.973  -0.932  1.00  0.00     0.031 C 
ATOM     22  C   UNL     1      -4.979   9.721   2.874  1.00  0.00     0.029 A 
ATOM     23  C   UNL     1      -6.252   9.136   2.470  1.00  0.00     0.049 A 
ATOM     24  H   UNL     1      -6.562   7.329   1.477  1.00  0.00     0.167 HD
ATOM     25  C   UNL     1      -7.042   3.786  -1.044  1.00  0.00     0.034 A 
ATOM     26  C   UNL     1      -7.458   9.692   2.689  1.00  0.00     0.034 A 
ATOM     27  C   UNL     1      -8.374   4.192  -0.681  1.00  0.00     0.049 A 
ATOM     28  C   UNL     1      -8.685   8.973   2.211  1.00  0.00     0.074 A 
ATOM     29  C   UNL     1      -9.572   3.559  -0.965  1.00  0.00     0.029 A 
ATOM     30  N   UNL     1      -8.689   5.344   0.022  1.00  0.00    -0.354 N 
ATOM     31  N   UNL     1      -8.774   7.817   1.600  1.00  0.00    -0.248 NA
ATOM     32  C   UNL     1      -9.978   9.622   2.467  1.00  0.00     0.031 C 
ATOM     33  C   UNL     1     -10.613   4.346  -0.463  1.00  0.00     0.029 A 
ATOM     34  C   UNL     1     -10.063   5.459   0.151  1.00  0.00     0.049 A 
ATOM     35  H   UNL     1      -8.033   5.986   0.377  1.00  0.00     0.167 HD
ATOM     36  C   UNL     1     -10.131   7.593   1.409  1.00  0.00     0.074 A 
ATOM     37  C   UNL     1     -10.828   8.716   2.002  1.00  0.00     0.031 C 
ATOM     38  C   UNL     1     -10.744   6.562   0.777  1.00  0.00     0.034 A 
BRANCH  25  39
ATOM     39  C   UNL     1      -6.905   2.578  -1.933  1.00  0.00     0.023 A 
ATOM     40  C   UNL     1      -6.538   1.338  -1.374  1.00  0.00     0.012 A 
ATOM     41  C   UNL     1      -7.256   2.647  -3.297  1.00  0.00     0.148 A 
ATOM     42  C   UNL     1      -6.511   0.186  -2.161  1.00  0.00     0.002 A 
ATOM     43  C   UNL     1      -7.260   1.489  -4.066  1.00  0.00     0.091 A 
ATOM     44  F   UNL     1      -7.585   3.840  -3.812  1.00  0.00    -0.205 F 
ATOM     45  C   UNL     1      -6.883   0.260  -3.502  1.00  0.00     0.022 A 
BRANCH  43  46
ATOM     46  S   UNL     1      -7.792   1.464  -5.783  1.00  0.00     0.127 S 
ATOM     47  O   UNL     1      -6.530   1.216  -6.478  1.00  0.00    -0.237 OA
ATOM     48  O   UNL     1      -8.728   0.340  -5.799  1.00  0.00    -0.237 OA
ATOM     49  O   UNL     1      -8.398   2.764  -6.035  1.00  0.00    -0.744 OA
ENDBRANCH  43  46
ENDBRANCH  25  39
BRANCH  26  50
ATOM     50  C   UNL     1      -7.551  10.995   3.403  1.00  0.00     0.023 A 
ATOM     51  C   UNL     1      -8.104  11.044   4.696  1.00  0.00     0.012 A 
ATOM     52  C   UNL     1      -7.048  12.178   2.825  1.00  0.00     0.148 A 
ATOM     53  C   UNL     1      -8.176  12.253   5.390  1.00  0.00     0.002 A 
ATOM     54  C   UNL     1      -7.067  13.365   3.546  1.00  0.00     0.091 A 
ATOM     55  F   UNL     1      -6.545  12.118   1.583  1.00  0.00    -0.205 F 
ATOM     56  C   UNL     1      -7.646  13.409   4.823  1.00  0.00     0.022 A 
BRANCH  54  57
ATOM     57  S   UNL     1      -6.263  14.852   2.939  1.00  0.00     0.127 S 
ATOM     58  O   UNL     1      -7.394  15.614   2.418  1.00  0.00    -0.237 OA
ATOM     59  O   UNL     1      -5.660  15.398   4.157  1.00  0.00    -0.237 OA
ATOM     60  O   UNL     1      -5.293  14.387   1.956  1.00  0.00    -0.744 OA
ENDBRANCH  54  57
ENDBRANCH  26  50
BRANCH  38  61
ATOM     61  C   UNL     1     -12.245   6.597   0.691  1.00  0.00     0.023 A 
ATOM     62  C   UNL     1     -12.865   7.489  -0.206  1.00  0.00     0.012 A 
ATOM     63  C   UNL     1     -13.035   5.702   1.438  1.00  0.00     0.148 A 
ATOM     64  C   UNL     1     -14.252   7.507  -0.342  1.00  0.00     0.002 A 
ATOM     65  C   UNL     1     -14.414   5.694   1.264  1.00  0.00     0.091 A 
ATOM     66  F   UNL     1     -12.425   4.875   2.299  1.00  0.00    -0.205 F 
ATOM     67  C   UNL     1     -15.024   6.603   0.383  1.00  0.00     0.022 A 
BRANCH  65  68
ATOM     68  S   UNL     1     -15.484   4.509   2.087  1.00  0.00     0.127 S 
ATOM     69  O   UNL     1     -16.199   5.361   3.035  1.00  0.00    -0.237 OA
ATOM     70  O   UNL     1     -16.299   4.008   0.980  1.00  0.00    -0.237 OA
ATOM     71  O   UNL     1     -14.601   3.517   2.685  1.00  0.00    -0.744 OA
ENDBRANCH  65  68
ENDBRANCH  38  61
ENDBRANCH  12  13
ENDBRANCH   5   7
ENDBRANCH   2   3
ENDBRANCH   1   2
BRANCH   1  72
ATOM     72  C   UNL     1       4.318   3.964   2.199  1.00  0.00     0.023 C 
BRANCH  72  73
ATOM     73  C   UNL     1       4.940   4.203   3.570  1.00  0.00     0.116 C 
BRANCH  73  74
ATOM     74  N   UNL     1       4.448   3.316   4.608  1.00  0.00    -0.356 N 
ATOM     75  C   UNL     1       5.043   2.968   5.788  1.00  0.00     0.224 C 
ATOM     76  H   UNL     1       3.567   2.911   4.439  1.00  0.00     0.163 HD
ATOM     77  O   UNL     1       4.404   2.273   6.577  1.00  0.00    -0.275 OA
BRANCH  75  78
ATOM     78  C   UNL     1       6.473   3.417   6.074  1.00  0.00     0.093 C 
ATOM     79  C   UNL     1       6.575   4.934   6.229  1.00  0.00     0.016 C 
ATOM     80  C   UNL     1       6.991   2.751   7.361  1.00  0.00     0.116 C 
ATOM     81  C   UNL     1       8.030   5.304   6.437  1.00  0.00     0.018 C 
ATOM     82  N   UNL     1       8.405   3.187   7.704  1.00  0.00    -0.197 NA
ATOM     83  C   UNL     1       8.555   4.672   7.711  1.00  0.00     0.102 C 
BRANCH  82  84
ATOM     84  S   UNL     1       8.906   2.443   9.196  1.00  0.00     0.243 S 
ATOM     85  O   UNL     1       8.197   3.104  10.276  1.00  0.00    -0.207 OA
ATOM     86  O   UNL     1       8.829   1.011   9.023  1.00  0.00    -0.207 OA
BRANCH  84  87
ATOM     87  C   UNL     1      10.626   2.876   9.363  1.00  0.00     0.083 A 
ATOM     88  C   UNL     1      10.977   4.150   9.829  1.00  0.00     0.022 A 
ATOM     89  C   UNL     1      11.610   1.913   9.130  1.00  0.00     0.037 A 
ATOM     90  C   UNL     1      12.320   4.496   9.968  1.00  0.00     0.003 A 
ATOM     91  C   UNL     1      12.949   2.257   9.314  1.00  0.00     0.019 A 
ATOM     92  C   UNL     1      13.309   3.547   9.709  1.00  0.00     0.016 A 
ATOM     93  Br  UNL     1      14.297   0.958   9.050  1.00  0.00    -0.051 Br
ENDBRANCH  84  87
ENDBRANCH  82  84
ENDBRANCH  75  78
ENDBRANCH  73  74
ENDBRANCH  72  73
ENDBRANCH   1  72
TORSDOF 16
