REMARK SMILES CCc1ccc(C(=O)[C@@H](Br)CC(=O)NCCCCNC(=O)c2ccc(-c3c4nc(c(-c5cccc(S(=O)(=O)[O-])c5F)c5ccc([nH]5)c(-c5cccc(S(=O)(=O)[O-])c5F)c5nc(c(-c6cccc(S(=O)(=O)[O-])c6F)c6ccc3[nH]6)C=C5)C=C4)cc2)cc1
REMARK SMILES IDX 16 1 15 2 14 3 12 4 13 5 11 7 9 8 10 9 7 10 8 11 6 12 3 13
REMARK SMILES IDX 4 14 86 15 5 16 85 17 2 18 1 19 17 20 18 21 19 22 20 23
REMARK SMILES IDX 21 25 22 26 23 27 84 28 24 29 83 30 25 31 26 32 27 33 77 34
REMARK SMILES IDX 28 35 82 36 76 37 78 38 29 39 81 40 75 41 74 42 30 44 62 45
REMARK SMILES IDX 42 46 61 47 43 48 46 49 60 50 79 51 44 52 45 53 59 55 80 56
REMARK SMILES IDX 47 57 31 58 32 59 40 60 33 61 35 62 41 63 34 64 36 65 37 66
REMARK SMILES IDX 38 67 39 68 63 69 64 70 72 71 65 72 67 73 73 74 66 75 68 76
REMARK SMILES IDX 69 77 70 78 71 79 48 80 49 81 57 82 50 83 52 84 58 85 51 86
REMARK SMILES IDX 53 87 54 88 55 89 56 90
REMARK H PARENT 14 6 19 24 78 43 46 54
REMARK Flexibility Score: inf
ROOT
ATOM      1  C   UNL     1       2.329  -5.708  -2.817  1.00  0.00     0.023 C 
ENDROOT
BRANCH   1   2
ATOM      2  C   UNL     1       3.551  -4.806  -2.660  1.00  0.00     0.116 C 
BRANCH   2   3
ATOM      3  N   UNL     1       4.616  -5.231  -3.547  1.00  0.00    -0.356 N 
ATOM      4  C   UNL     1       4.982  -4.731  -4.759  1.00  0.00     0.221 C 
ATOM      5  O   UNL     1       5.852  -5.309  -5.409  1.00  0.00    -0.275 OA
ATOM      6  H   UNL     1       5.152  -5.993  -3.227  1.00  0.00     0.163 HD
BRANCH   4   7
ATOM      7  C   UNL     1       4.330  -3.470  -5.284  1.00  0.00     0.123 C 
BRANCH   7   8
ATOM      8  C   UNL     1       3.071  -3.790  -6.076  1.00  0.00     0.138 C 
ATOM      9  Br  UNL     1       2.994  -2.695  -7.712  1.00  0.00    -0.080 Br
BRANCH   8  10
ATOM     10  C   UNL     1       1.705  -3.609  -5.417  1.00  0.00     0.176 C 
ATOM     11  O   UNL     1       0.805  -4.425  -5.643  1.00  0.00    -0.293 OA
BRANCH  10  12
ATOM     12  C   UNL     1       1.392  -2.488  -4.473  1.00  0.00     0.019 A 
ATOM     13  C   UNL     1       0.811  -0.557  -2.497  1.00  0.00    -0.048 A 
ATOM     14  C   UNL     1       0.084  -1.750  -2.554  1.00  0.00     0.004 A 
ATOM     15  C   UNL     1       1.806  -0.325  -3.456  1.00  0.00     0.004 A 
ATOM     16  C   UNL     1       0.361  -2.697  -3.542  1.00  0.00     0.012 A 
ATOM     17  C   UNL     1       2.087  -1.277  -4.445  1.00  0.00     0.012 A 
BRANCH  13  18
ATOM     18  C   UNL     1       0.526   0.456  -1.417  1.00  0.00     0.032 C 
ATOM     19  C   UNL     1       1.128   0.059  -0.077  1.00  0.00     0.009 C 
ENDBRANCH  13  18
ENDBRANCH  10  12
ENDBRANCH   8  10
ENDBRANCH   7   8
ENDBRANCH   4   7
ENDBRANCH   2   3
ENDBRANCH   1   2
BRANCH   1  20
ATOM     20  C   UNL     1       2.251  -6.847  -1.803  1.00  0.00     0.023 C 
BRANCH  20  21
ATOM     21  C   UNL     1       2.153  -6.404  -0.346  1.00  0.00     0.116 C 
BRANCH  21  22
ATOM     22  N   UNL     1       1.066  -5.473  -0.075  1.00  0.00    -0.352 N 
ATOM     23  C   UNL     1       0.343  -5.316   1.087  1.00  0.00     0.251 C 
ATOM     24  H   UNL     1       0.814  -4.880  -0.819  1.00  0.00     0.163 HD
ATOM     25  O   UNL     1      -0.593  -4.527   1.126  1.00  0.00    -0.269 OA
BRANCH  23  26
ATOM     26  C   UNL     1       0.684  -6.140   2.268  1.00  0.00     0.039 A 
ATOM     27  C   UNL     1      -0.340  -6.804   2.945  1.00  0.00     0.014 A 
ATOM     28  C   UNL     1       2.012  -6.299   2.672  1.00  0.00     0.014 A 
ATOM     29  C   UNL     1      -0.022  -7.684   3.982  1.00  0.00     0.010 A 
ATOM     30  C   UNL     1       2.332  -7.242   3.642  1.00  0.00     0.010 A 
ATOM     31  C   UNL     1       1.320  -7.940   4.314  1.00  0.00    -0.014 A 
BRANCH  31  32
ATOM     32  C   UNL     1       1.671  -8.957   5.339  1.00  0.00     0.031 A 
ATOM     33  C   UNL     1       2.421  -8.571   6.585  1.00  0.00     0.074 A 
ATOM     34  C   UNL     1       1.394 -10.254   5.103  1.00  0.00     0.049 A 
ATOM     35  N   UNL     1       2.774  -9.321   7.597  1.00  0.00    -0.248 NA
ATOM     36  C   UNL     1       2.868  -7.173   6.694  1.00  0.00     0.031 C 
ATOM     37  C   UNL     1       0.803 -10.782   3.871  1.00  0.00     0.029 A 
ATOM     38  N   UNL     1       1.594 -11.369   5.878  1.00  0.00    -0.354 N 
ATOM     39  C   UNL     1       3.514  -8.500   8.439  1.00  0.00     0.074 A 
ATOM     40  C   UNL     1       3.598  -7.206   7.798  1.00  0.00     0.031 C 
ATOM     41  C   UNL     1       0.677 -12.114   3.978  1.00  0.00     0.029 A 
ATOM     42  C   UNL     1       1.183 -12.537   5.280  1.00  0.00     0.049 A 
ATOM     43  H   UNL     1       1.993 -11.335   6.777  1.00  0.00     0.167 HD
ATOM     44  C   UNL     1       4.044  -8.784   9.653  1.00  0.00     0.034 A 
ATOM     45  C   UNL     1       1.195 -13.806   5.735  1.00  0.00     0.034 A 
ATOM     46  C   UNL     1       3.906 -10.054  10.312  1.00  0.00     0.049 A 
ATOM     47  C   UNL     1       1.663 -14.073   7.138  1.00  0.00     0.074 A 
ATOM     48  C   UNL     1       4.285 -10.406  11.595  1.00  0.00     0.029 A 
ATOM     49  N   UNL     1       3.352 -11.186   9.734  1.00  0.00    -0.354 N 
ATOM     50  N   UNL     1       2.158 -13.234   8.015  1.00  0.00    -0.248 NA
ATOM     51  C   UNL     1       1.523 -15.449   7.636  1.00  0.00     0.031 C 
ATOM     52  C   UNL     1       3.972 -11.757  11.788  1.00  0.00     0.029 A 
ATOM     53  C   UNL     1       3.382 -12.240  10.631  1.00  0.00     0.049 A 
ATOM     54  H   UNL     1       2.990 -11.233   8.820  1.00  0.00     0.167 HD
ATOM     55  C   UNL     1       2.362 -13.969   9.176  1.00  0.00     0.074 A 
ATOM     56  C   UNL     1       1.912 -15.318   8.898  1.00  0.00     0.031 C 
ATOM     57  C   UNL     1       2.889 -13.567  10.360  1.00  0.00     0.034 A 
BRANCH  44  58
ATOM     58  C   UNL     1       4.762  -7.671  10.374  1.00  0.00     0.023 A 
ATOM     59  C   UNL     1       4.023  -6.582  10.882  1.00  0.00     0.012 A 
ATOM     60  C   UNL     1       6.154  -7.713  10.577  1.00  0.00     0.148 A 
ATOM     61  C   UNL     1       4.661  -5.531  11.538  1.00  0.00     0.002 A 
ATOM     62  C   UNL     1       6.779  -6.683  11.273  1.00  0.00     0.091 A 
ATOM     63  F   UNL     1       6.848  -8.740  10.066  1.00  0.00    -0.205 F 
ATOM     64  C   UNL     1       6.037  -5.586  11.742  1.00  0.00     0.022 A 
BRANCH  62  65
ATOM     65  S   UNL     1       8.534  -6.709  11.653  1.00  0.00     0.127 S 
ATOM     66  O   UNL     1       9.068  -5.794  10.646  1.00  0.00    -0.237 OA
ATOM     67  O   UNL     1       8.566  -6.193  13.022  1.00  0.00    -0.237 OA
ATOM     68  O   UNL     1       8.944  -8.101  11.525  1.00  0.00    -0.744 OA
ENDBRANCH  62  65
ENDBRANCH  44  58
BRANCH  45  69
ATOM     69  C   UNL     1       0.643 -14.892   4.878  1.00  0.00     0.023 A 
ATOM     70  C   UNL     1      -0.614 -15.447   5.189  1.00  0.00     0.012 A 
ATOM     71  C   UNL     1       1.316 -15.318   3.717  1.00  0.00     0.148 A 
ATOM     72  C   UNL     1      -1.180 -16.425   4.370  1.00  0.00     0.002 A 
ATOM     73  C   UNL     1       0.721 -16.252   2.877  1.00  0.00     0.091 A 
ATOM     74  F   UNL     1       2.513 -14.780   3.445  1.00  0.00    -0.205 F 
ATOM     75  C   UNL     1      -0.520 -16.817   3.209  1.00  0.00     0.022 A 
BRANCH  73  76
ATOM     76  S   UNL     1       1.429 -16.709   1.291  1.00  0.00     0.127 S 
ATOM     77  O   UNL     1       1.846 -18.087   1.536  1.00  0.00    -0.237 OA
ATOM     78  O   UNL     1       0.281 -16.562   0.395  1.00  0.00    -0.237 OA
ATOM     79  O   UNL     1       2.504 -15.756   1.050  1.00  0.00    -0.744 OA
ENDBRANCH  73  76
ENDBRANCH  45  69
BRANCH  57  80
ATOM     80  C   UNL     1       2.993 -14.591  11.460  1.00  0.00     0.023 A 
ATOM     81  C   UNL     1       3.958 -15.614  11.373  1.00  0.00     0.012 A 
ATOM     82  C   UNL     1       2.182 -14.503  12.607  1.00  0.00     0.148 A 
ATOM     83  C   UNL     1       4.089 -16.554  12.394  1.00  0.00     0.002 A 
ATOM     84  C   UNL     1       2.350 -15.415  13.643  1.00  0.00     0.091 A 
ATOM     85  F   UNL     1       1.253 -13.537  12.665  1.00  0.00    -0.205 F 
ATOM     86  C   UNL     1       3.295 -16.448  13.533  1.00  0.00     0.022 A 
BRANCH  84  87
ATOM     87  S   UNL     1       1.431 -15.287  15.181  1.00  0.00     0.127 S 
ATOM     88  O   UNL     1       0.378 -16.280  14.985  1.00  0.00    -0.237 OA
ATOM     89  O   UNL     1       2.436 -15.652  16.182  1.00  0.00    -0.237 OA
ATOM     90  O   UNL     1       0.988 -13.901  15.259  1.00  0.00    -0.744 OA
ENDBRANCH  84  87
ENDBRANCH  57  80
ENDBRANCH  31  32
ENDBRANCH  23  26
ENDBRANCH  21  22
ENDBRANCH  20  21
ENDBRANCH   1  20
TORSDOF 18
