REMARK SMILES O=C(NCc1ccsc1)NC[C@H]1CC[C@@H](C(=O)NCCCCNC(=O)c2ccc(-c3c4nc(c(-c5cccc(S(=O)(=O)[O-])c5F)c5ccc([nH]5)c(-c5cccc(S(=O)(=O)[O-])c5F)c5nc(c(-c6cccc(S(=O)(=O)[O-])c6F)c6ccc3[nH]6)C=C5)C=C4)cc2)CC1
REMARK SMILES IDX 20 1 19 2 18 3 16 4 17 5 15 7 12 8 13 9 90 10 14 11 89 12
REMARK SMILES IDX 11 13 10 14 1 15 2 16 3 17 4 20 5 21 6 22 9 23 7 24 8 25
REMARK SMILES IDX 21 26 22 27 23 28 24 29 25 31 26 32 27 33 88 34 28 35 87 36
REMARK SMILES IDX 29 37 30 38 31 39 81 40 32 41 86 42 80 43 82 44 33 45 85 46
REMARK SMILES IDX 79 47 78 48 34 50 66 51 46 52 65 53 47 54 50 55 64 56 83 57
REMARK SMILES IDX 48 58 49 59 63 61 84 62 51 63 35 64 36 65 44 66 37 67 39 68
REMARK SMILES IDX 45 69 38 70 40 71 41 72 42 73 43 74 67 75 68 76 76 77 69 78
REMARK SMILES IDX 71 79 77 80 70 81 72 82 73 83 74 84 75 85 52 86 53 87 61 88
REMARK SMILES IDX 54 89 56 90 62 91 55 92 57 93 58 94 59 95 60 96
REMARK H PARENT 18 6 3 18 10 19 23 30 82 49 50 60
REMARK Flexibility Score: inf
ROOT
ATOM      1  C   UNL     1      -0.859   3.132   0.785  1.00  0.00     0.023 C 
ENDROOT
BRANCH   1   2
ATOM      2  C   UNL     1      -0.118   4.456   0.617  1.00  0.00     0.116 C 
BRANCH   2   3
ATOM      3  N   UNL     1      -0.376   5.394   1.686  1.00  0.00    -0.356 N 
ATOM      4  C   UNL     1       0.396   5.882   2.686  1.00  0.00     0.223 C 
ATOM      5  O   UNL     1      -0.108   6.783   3.369  1.00  0.00    -0.275 OA
ATOM      6  H   UNL     1      -1.295   5.748   1.687  1.00  0.00     0.163 HD
BRANCH   4   7
ATOM      7  C   UNL     1       1.823   5.417   3.014  1.00  0.00     0.078 C 
ATOM      8  C   UNL     1       3.497   3.522   1.357  1.00  0.00     0.008 C 
ATOM      9  C   UNL     1       3.347   5.005   0.972  1.00  0.00     0.006 C 
ATOM     10  C   UNL     1       2.441   2.995   2.341  1.00  0.00     0.006 C 
ATOM     11  C   UNL     1       2.927   5.934   2.098  1.00  0.00     0.014 C 
ATOM     12  C   UNL     1       1.995   3.960   3.429  1.00  0.00     0.014 C 
BRANCH   8  13
ATOM     13  C   UNL     1       3.505   2.695   0.051  1.00  0.00     0.121 C 
BRANCH  13  14
ATOM     14  N   UNL     1       3.804   1.294   0.240  1.00  0.00    -0.338 N 
ATOM     15  O   UNL     1       1.651   0.568   0.041  1.00  0.00    -0.249 OA
ATOM     16  C   UNL     1       2.851   0.329   0.135  1.00  0.00     0.315 C 
ATOM     17  N   UNL     1       3.280  -0.954   0.117  1.00  0.00    -0.334 N 
ATOM     18  H   UNL     1       2.566  -1.630   0.176  1.00  0.00     0.165 HD
ATOM     19  H   UNL     1       4.729   1.029   0.452  1.00  0.00     0.165 HD
BRANCH  17  20
ATOM     20  C   UNL     1       4.617  -1.488   0.025  1.00  0.00     0.154 C 
BRANCH  20  21
ATOM     21  C   UNL     1       4.990  -2.074   1.348  1.00  0.00    -0.018 A 
ATOM     22  C   UNL     1       4.883  -3.468   1.677  1.00  0.00     0.017 A 
ATOM     23  C   UNL     1       5.485  -1.359   2.425  1.00  0.00     0.070 A 
ATOM     24  C   UNL     1       5.296  -3.746   2.960  1.00  0.00     0.065 A 
ATOM     25  S   UNL     1       5.819  -2.344   3.783  1.00  0.00    -0.152 S 
ENDBRANCH  20  21
ENDBRANCH  17  20
ENDBRANCH  13  14
ENDBRANCH   8  13
ENDBRANCH   4   7
ENDBRANCH   2   3
ENDBRANCH   1   2
BRANCH   1  26
ATOM     26  C   UNL     1      -2.061   2.941  -0.134  1.00  0.00     0.023 C 
BRANCH  26  27
ATOM     27  C   UNL     1      -1.784   3.068  -1.630  1.00  0.00     0.116 C 
BRANCH  27  28
ATOM     28  N   UNL     1      -0.735   2.202  -2.157  1.00  0.00    -0.352 N 
ATOM     29  C   UNL     1      -0.620   1.731  -3.452  1.00  0.00     0.251 C 
ATOM     30  H   UNL     1      -0.036   1.923  -1.523  1.00  0.00     0.163 HD
ATOM     31  O   UNL     1       0.313   1.018  -3.795  1.00  0.00    -0.269 OA
BRANCH  29  32
ATOM     32  C   UNL     1      -1.704   2.046  -4.412  1.00  0.00     0.039 A 
ATOM     33  C   UNL     1      -2.416   0.988  -4.982  1.00  0.00     0.014 A 
ATOM     34  C   UNL     1      -2.102   3.367  -4.630  1.00  0.00     0.014 A 
ATOM     35  C   UNL     1      -3.596   1.249  -5.682  1.00  0.00     0.010 A 
ATOM     36  C   UNL     1      -3.317   3.618  -5.264  1.00  0.00     0.010 A 
ATOM     37  C   UNL     1      -4.089   2.562  -5.775  1.00  0.00    -0.014 A 
BRANCH  37  38
ATOM     38  C   UNL     1      -5.435   2.847  -6.339  1.00  0.00     0.031 A 
ATOM     39  C   UNL     1      -5.583   3.730  -7.548  1.00  0.00     0.074 A 
ATOM     40  C   UNL     1      -6.535   2.416  -5.686  1.00  0.00     0.049 A 
ATOM     41  N   UNL     1      -6.675   4.162  -8.123  1.00  0.00    -0.248 NA
ATOM     42  C   UNL     1      -4.343   4.220  -8.173  1.00  0.00     0.031 C 
ATOM     43  C   UNL     1      -6.535   1.646  -4.439  1.00  0.00     0.029 A 
ATOM     44  N   UNL     1      -7.870   2.597  -5.958  1.00  0.00    -0.354 N 
ATOM     45  C   UNL     1      -6.259   5.015  -9.137  1.00  0.00     0.074 A 
ATOM     46  C   UNL     1      -4.813   5.054  -9.090  1.00  0.00     0.031 C 
ATOM     47  C   UNL     1      -7.803   1.424  -4.056  1.00  0.00     0.029 A 
ATOM     48  C   UNL     1      -8.709   2.050  -5.013  1.00  0.00     0.049 A 
ATOM     49  H   UNL     1      -8.196   3.074  -6.755  1.00  0.00     0.167 HD
ATOM     50  C   UNL     1      -7.009   5.682 -10.045  1.00  0.00     0.034 A 
ATOM     51  C   UNL     1     -10.054   2.053  -4.926  1.00  0.00     0.034 A 
ATOM     52  C   UNL     1      -8.438   5.574 -10.149  1.00  0.00     0.049 A 
ATOM     53  C   UNL     1     -10.859   2.712  -6.014  1.00  0.00     0.074 A 
ATOM     54  C   UNL     1      -9.271   6.102 -11.119  1.00  0.00     0.029 A 
ATOM     55  N   UNL     1      -9.246   4.889  -9.256  1.00  0.00    -0.354 N 
ATOM     56  N   UNL     1     -10.437   3.345  -7.081  1.00  0.00    -0.248 NA
ATOM     57  C   UNL     1     -12.323   2.624  -5.909  1.00  0.00     0.031 C 
ATOM     58  C   UNL     1     -10.586   5.737 -10.812  1.00  0.00     0.029 A 
ATOM     59  C   UNL     1     -10.569   4.981  -9.652  1.00  0.00     0.049 A 
ATOM     60  H   UNL     1      -8.927   4.409  -8.459  1.00  0.00     0.167 HD
ATOM     61  C   UNL     1     -11.579   3.701  -7.789  1.00  0.00     0.074 A 
ATOM     62  C   UNL     1     -12.711   3.192  -7.043  1.00  0.00     0.031 C 
ATOM     63  C   UNL     1     -11.681   4.407  -8.942  1.00  0.00     0.034 A 
BRANCH  50  64
ATOM     64  C   UNL     1      -6.294   6.530 -11.061  1.00  0.00     0.023 A 
ATOM     65  C   UNL     1      -5.620   5.903 -12.128  1.00  0.00     0.012 A 
ATOM     66  C   UNL     1      -6.356   7.936 -11.009  1.00  0.00     0.148 A 
ATOM     67  C   UNL     1      -4.997   6.662 -13.117  1.00  0.00     0.002 A 
ATOM     68  C   UNL     1      -5.763   8.686 -12.019  1.00  0.00     0.091 A 
ATOM     69  F   UNL     1      -6.985   8.511  -9.974  1.00  0.00    -0.205 F 
ATOM     70  C   UNL     1      -5.078   8.051 -13.068  1.00  0.00     0.022 A 
BRANCH  68  71
ATOM     71  S   UNL     1      -5.869  10.478 -12.086  1.00  0.00     0.127 S 
ATOM     72  O   UNL     1      -4.494  10.866 -11.775  1.00  0.00    -0.237 OA
ATOM     73  O   UNL     1      -6.268  10.711 -13.475  1.00  0.00    -0.237 OA
ATOM     74  O   UNL     1      -6.866  10.860 -11.096  1.00  0.00    -0.744 OA
ENDBRANCH  68  71
ENDBRANCH  50  64
BRANCH  51  75
ATOM     75  C   UNL     1     -10.734   1.337  -3.809  1.00  0.00     0.023 A 
ATOM     76  C   UNL     1     -11.422   0.138  -4.080  1.00  0.00     0.012 A 
ATOM     77  C   UNL     1     -10.695   1.820  -2.487  1.00  0.00     0.148 A 
ATOM     78  C   UNL     1     -12.087  -0.548  -3.063  1.00  0.00     0.002 A 
ATOM     79  C   UNL     1     -11.318   1.104  -1.470  1.00  0.00     0.091 A 
ATOM     80  F   UNL     1     -10.053   2.972  -2.246  1.00  0.00    -0.205 F 
ATOM     81  C   UNL     1     -12.028  -0.071  -1.757  1.00  0.00     0.022 A 
BRANCH  79  82
ATOM     82  S   UNL     1     -11.168   1.597   0.252  1.00  0.00     0.127 S 
ATOM     83  O   UNL     1     -12.384   2.379   0.449  1.00  0.00    -0.237 OA
ATOM     84  O   UNL     1     -11.146   0.308   0.948  1.00  0.00    -0.237 OA
ATOM     85  O   UNL     1      -9.910   2.328   0.323  1.00  0.00    -0.744 OA
ENDBRANCH  79  82
ENDBRANCH  51  75
BRANCH  63  86
ATOM     86  C   UNL     1     -13.058   4.653  -9.495  1.00  0.00     0.023 A 
ATOM     87  C   UNL     1     -13.883   5.622  -8.893  1.00  0.00     0.012 A 
ATOM     88  C   UNL     1     -13.497   3.997 -10.662  1.00  0.00     0.148 A 
ATOM     89  C   UNL     1     -15.134   5.920  -9.431  1.00  0.00     0.002 A 
ATOM     90  C   UNL     1     -14.728   4.329 -11.217  1.00  0.00     0.091 A 
ATOM     91  F   UNL     1     -12.706   3.061 -11.208  1.00  0.00    -0.205 F 
ATOM     92  C   UNL     1     -15.550   5.285 -10.599  1.00  0.00     0.022 A 
BRANCH  90  93
ATOM     93  S   UNL     1     -15.294   3.623 -12.769  1.00  0.00     0.127 S 
ATOM     94  O   UNL     1     -16.232   2.601 -12.308  1.00  0.00    -0.237 OA
ATOM     95  O   UNL     1     -15.918   4.770 -13.430  1.00  0.00    -0.237 OA
ATOM     96  O   UNL     1     -14.098   3.127 -13.436  1.00  0.00    -0.744 OA
ENDBRANCH  90  93
ENDBRANCH  63  86
ENDBRANCH  37  38
ENDBRANCH  29  32
ENDBRANCH  27  28
ENDBRANCH  26  27
ENDBRANCH   1  26
TORSDOF 18
