REMARK SMILES COc1ccc2c(c1)c(CC(=O)NCCCCNC(=O)c1ccc(-c3c4nc(c(-c5cccc(S(=O)(=O)[O-])c5F)c5ccc([nH]5)c(-c5cccc(S(=O)(=O)[O-])c5F)c5nc(c(-c6cccc(S(=O)(=O)[O-])c6F)c6ccc3[nH]6)C=C5)C=C4)cc1)c(C)n2Cc1ccn(C(F)F)c(=O)c1
REMARK SMILES IDX 15 1 14 2 13 3 11 4 12 5 10 7 9 8 3 9 4 10 8 11 5 12 7 13
REMARK SMILES IDX 6 14 86 15 84 16 85 17 2 18 1 19 87 20 88 21 89 22 97 23
REMARK SMILES IDX 90 24 95 25 91 26 96 27 92 28 93 29 94 30 16 31 17 32 18 33
REMARK SMILES IDX 19 34 20 36 21 37 22 38 83 39 23 40 82 41 24 42 25 43 26 44
REMARK SMILES IDX 76 45 27 46 81 47 75 48 77 49 28 50 80 51 74 52 73 53 29 55
REMARK SMILES IDX 61 56 41 57 60 58 42 59 45 60 59 61 78 62 43 63 44 64 58 66
REMARK SMILES IDX 79 67 46 68 30 69 31 70 39 71 32 72 34 73 40 74 33 75 35 76
REMARK SMILES IDX 36 77 37 78 38 79 62 80 63 81 71 82 64 83 66 84 72 85 65 86
REMARK SMILES IDX 67 87 68 88 69 89 70 90 47 91 48 92 56 93 49 94 51 95 57 96
REMARK SMILES IDX 50 97 52 98 53 99 54 100 55 101
REMARK H PARENT 13 6 18 35 77 54 45 65
REMARK Flexibility Score: inf
ROOT
ATOM      1  C   UNL     1       0.628   5.912  -5.316  1.00  0.00     0.023 C 
ENDROOT
BRANCH   1   2
ATOM      2  C   UNL     1      -0.733   6.379  -4.809  1.00  0.00     0.116 C 
BRANCH   2   3
ATOM      3  N   UNL     1      -1.631   5.275  -4.531  1.00  0.00    -0.356 N 
ATOM      4  C   UNL     1      -2.192   4.895  -3.345  1.00  0.00     0.224 C 
ATOM      5  O   UNL     1      -2.983   3.948  -3.352  1.00  0.00    -0.275 OA
ATOM      6  H   UNL     1      -1.871   4.721  -5.309  1.00  0.00     0.163 HD
BRANCH   4   7
ATOM      7  C   UNL     1      -1.919   5.680  -2.069  1.00  0.00     0.138 C 
BRANCH   7   8
ATOM      8  C   UNL     1      -0.479   5.666  -1.654  1.00  0.00    -0.010 A 
ATOM      9  C   UNL     1       1.062   2.213  -1.148  1.00  0.00     0.119 A 
ATOM     10  C   UNL     1       2.362   2.656  -0.936  1.00  0.00     0.048 A 
ATOM     11  C   UNL     1       0.050   3.127  -1.444  1.00  0.00     0.057 A 
ATOM     12  C   UNL     1       2.672   4.024  -0.965  1.00  0.00     0.031 A 
ATOM     13  C   UNL     1       0.326   4.510  -1.440  1.00  0.00     0.007 A 
ATOM     14  C   UNL     1       1.631   4.943  -1.195  1.00  0.00     0.049 A 
ATOM     15  N   UNL     1       1.618   6.329  -1.270  1.00  0.00    -0.340 N 
ATOM     16  C   UNL     1       0.308   6.772  -1.356  1.00  0.00     0.020 A 
ATOM     17  C   UNL     1      -0.124   8.191  -1.222  1.00  0.00     0.065 C 
BRANCH   9  18
ATOM     18  O   UNL     1       0.690   0.895  -1.147  1.00  0.00    -0.497 OA
ATOM     19  C   UNL     1       1.212   0.150  -0.051  1.00  0.00     0.278 C 
ENDBRANCH   9  18
BRANCH  15  20
ATOM     20  C   UNL     1       2.815   7.178  -1.234  1.00  0.00     0.158 C 
BRANCH  20  21
ATOM     21  C   UNL     1       3.235   7.669  -2.603  1.00  0.00    -0.021 A 
ATOM     22  C   UNL     1       2.575   8.827  -3.178  1.00  0.00     0.024 A 
ATOM     23  C   UNL     1       4.236   7.096  -3.292  1.00  0.00     0.077 A 
ATOM     24  C   UNL     1       2.849   9.221  -4.428  1.00  0.00     0.095 A 
ATOM     25  C   UNL     1       4.627   7.584  -4.650  1.00  0.00     0.255 A 
ATOM     26  N   UNL     1       3.818   8.585  -5.174  1.00  0.00    -0.258 N 
ATOM     27  O   UNL     1       5.593   7.083  -5.189  1.00  0.00    -0.269 OA
BRANCH  26  28
ATOM     28  C   UNL     1       4.117   9.030  -6.513  1.00  0.00     0.451 C 
ATOM     29  F   UNL     1       5.229   9.803  -6.516  1.00  0.00    -0.185 F 
ATOM     30  F   UNL     1       4.327   7.983  -7.338  1.00  0.00    -0.185 F 
ENDBRANCH  26  28
ENDBRANCH  20  21
ENDBRANCH  15  20
ENDBRANCH   7   8
ENDBRANCH   4   7
ENDBRANCH   2   3
ENDBRANCH   1   2
BRANCH   1  31
ATOM     31  C   UNL     1       0.607   5.233  -6.690  1.00  0.00     0.023 C 
BRANCH  31  32
ATOM     32  C   UNL     1      -0.126   6.007  -7.792  1.00  0.00     0.116 C 
BRANCH  32  33
ATOM     33  N   UNL     1       0.381   7.347  -8.021  1.00  0.00    -0.352 N 
ATOM     34  C   UNL     1       1.400   7.871  -8.774  1.00  0.00     0.251 C 
ATOM     35  H   UNL     1      -0.118   8.034  -7.523  1.00  0.00     0.163 HD
ATOM     36  O   UNL     1       1.474   9.104  -8.782  1.00  0.00    -0.269 OA
BRANCH  34  37
ATOM     37  C   UNL     1       2.436   7.074  -9.493  1.00  0.00     0.039 A 
ATOM     38  C   UNL     1       2.483   5.684  -9.527  1.00  0.00     0.014 A 
ATOM     39  C   UNL     1       3.491   7.791 -10.092  1.00  0.00     0.014 A 
ATOM     40  C   UNL     1       3.600   5.027 -10.022  1.00  0.00     0.010 A 
ATOM     41  C   UNL     1       4.609   7.136 -10.611  1.00  0.00     0.010 A 
ATOM     42  C   UNL     1       4.680   5.750 -10.534  1.00  0.00    -0.014 A 
BRANCH  42  43
ATOM     43  C   UNL     1       5.804   4.961 -11.026  1.00  0.00     0.031 A 
ATOM     44  C   UNL     1       5.478   3.979 -12.100  1.00  0.00     0.074 A 
ATOM     45  C   UNL     1       7.079   5.081 -10.613  1.00  0.00     0.049 A 
ATOM     46  N   UNL     1       5.499   2.686 -12.036  1.00  0.00    -0.248 NA
ATOM     47  C   UNL     1       4.983   4.518 -13.373  1.00  0.00     0.031 C 
ATOM     48  C   UNL     1       7.682   6.133  -9.796  1.00  0.00     0.029 A 
ATOM     49  N   UNL     1       8.141   4.293 -10.949  1.00  0.00    -0.354 N 
ATOM     50  C   UNL     1       5.200   2.242 -13.323  1.00  0.00     0.074 A 
ATOM     51  C   UNL     1       4.778   3.401 -14.071  1.00  0.00     0.031 C 
ATOM     52  C   UNL     1       9.029   6.048  -9.897  1.00  0.00     0.029 A 
ATOM     53  C   UNL     1       9.372   4.857 -10.656  1.00  0.00     0.049 A 
ATOM     54  H   UNL     1       8.042   3.405 -11.363  1.00  0.00     0.167 HD
ATOM     55  C   UNL     1       5.483   0.984 -13.755  1.00  0.00     0.034 A 
ATOM     56  C   UNL     1      10.577   4.398 -11.067  1.00  0.00     0.034 A 
ATOM     57  C   UNL     1       5.779   0.072 -12.689  1.00  0.00     0.049 A 
ATOM     58  C   UNL     1      10.415   2.962 -11.401  1.00  0.00     0.074 A 
ATOM     59  C   UNL     1       5.103  -0.426 -11.595  1.00  0.00     0.029 A 
ATOM     60  N   UNL     1       7.096  -0.264 -12.502  1.00  0.00    -0.354 N 
ATOM     61  N   UNL     1      10.191   2.023 -10.525  1.00  0.00    -0.248 NA
ATOM     62  C   UNL     1      10.199   2.586 -12.789  1.00  0.00     0.031 C 
ATOM     63  C   UNL     1       6.103  -0.630 -10.601  1.00  0.00     0.029 A 
ATOM     64  C   UNL     1       7.324  -0.236 -11.153  1.00  0.00     0.049 A 
ATOM     65  H   UNL     1       7.752  -0.483 -13.204  1.00  0.00     0.167 HD
ATOM     66  C   UNL     1       9.432   1.080 -11.202  1.00  0.00     0.074 A 
ATOM     67  C   UNL     1       9.589   1.412 -12.613  1.00  0.00     0.031 C 
ATOM     68  C   UNL     1       8.527   0.295 -10.547  1.00  0.00     0.034 A 
BRANCH  55  69
ATOM     69  C   UNL     1       5.783   0.633 -15.187  1.00  0.00     0.023 A 
ATOM     70  C   UNL     1       5.707  -0.721 -15.578  1.00  0.00     0.012 A 
ATOM     71  C   UNL     1       6.381   1.536 -16.092  1.00  0.00     0.148 A 
ATOM     72  C   UNL     1       6.210  -1.155 -16.810  1.00  0.00     0.002 A 
ATOM     73  C   UNL     1       6.806   1.115 -17.346  1.00  0.00     0.091 A 
ATOM     74  F   UNL     1       6.663   2.784 -15.696  1.00  0.00    -0.205 F 
ATOM     75  C   UNL     1       6.745  -0.233 -17.703  1.00  0.00     0.022 A 
BRANCH  73  76
ATOM     76  S   UNL     1       7.437   2.295 -18.543  1.00  0.00     0.127 S 
ATOM     77  O   UNL     1       8.876   2.196 -18.325  1.00  0.00    -0.237 OA
ATOM     78  O   UNL     1       6.961   1.735 -19.809  1.00  0.00    -0.237 OA
ATOM     79  O   UNL     1       6.806   3.559 -18.182  1.00  0.00    -0.744 OA
ENDBRANCH  73  76
ENDBRANCH  55  69
BRANCH  56  80
ATOM     80  C   UNL     1      11.833   5.128 -11.356  1.00  0.00     0.023 A 
ATOM     81  C   UNL     1      13.044   4.410 -11.428  1.00  0.00     0.012 A 
ATOM     82  C   UNL     1      11.824   6.462 -11.822  1.00  0.00     0.148 A 
ATOM     83  C   UNL     1      14.195   4.983 -11.983  1.00  0.00     0.002 A 
ATOM     84  C   UNL     1      12.976   7.034 -12.357  1.00  0.00     0.091 A 
ATOM     85  F   UNL     1      10.668   7.139 -11.836  1.00  0.00    -0.205 F 
ATOM     86  C   UNL     1      14.160   6.292 -12.452  1.00  0.00     0.022 A 
BRANCH  84  87
ATOM     87  S   UNL     1      13.000   8.721 -12.980  1.00  0.00     0.127 S 
ATOM     88  O   UNL     1      14.294   9.211 -12.501  1.00  0.00    -0.237 OA
ATOM     89  O   UNL     1      12.923   8.515 -14.423  1.00  0.00    -0.237 OA
ATOM     90  O   UNL     1      11.854   9.381 -12.367  1.00  0.00    -0.744 OA
ENDBRANCH  84  87
ENDBRANCH  56  80
BRANCH  68  91
ATOM     91  C   UNL     1       8.568   0.264  -9.041  1.00  0.00     0.023 A 
ATOM     92  C   UNL     1       8.245   1.408  -8.282  1.00  0.00     0.012 A 
ATOM     93  C   UNL     1       8.718  -0.971  -8.387  1.00  0.00     0.148 A 
ATOM     94  C   UNL     1       8.087   1.325  -6.897  1.00  0.00     0.002 A 
ATOM     95  C   UNL     1       8.522  -1.057  -7.013  1.00  0.00     0.091 A 
ATOM     96  F   UNL     1       9.001  -2.052  -9.131  1.00  0.00    -0.205 F 
ATOM     97  C   UNL     1       8.213   0.091  -6.264  1.00  0.00     0.022 A 
BRANCH  95  98
ATOM     98  S   UNL     1       8.543  -2.626  -6.138  1.00  0.00     0.127 S 
ATOM     99  O   UNL     1       9.727  -2.490  -5.290  1.00  0.00    -0.237 OA
ATOM    100  O   UNL     1       7.270  -2.597  -5.417  1.00  0.00    -0.237 OA
ATOM    101  O   UNL     1       8.629  -3.661  -7.161  1.00  0.00    -0.744 OA
ENDBRANCH  95  98
ENDBRANCH  68  91
ENDBRANCH  42  43
ENDBRANCH  34  37
ENDBRANCH  32  33
ENDBRANCH  31  32
ENDBRANCH   1  31
TORSDOF 19
