REMARK SMILES O=C(NCCCCNC(=O)c1cc([C@@H]2C=NN=C2c2ccc(F)cc2)c2c(ccc3ccccc32)n1)c1ccc(-c2c3nc(c(-c4cccc(S(=O)(=O)[O-])c4F)c4ccc([nH]4)c(-c4cccc(S(=O)(=O)[O-])c4F)c4nc(c(-c5cccc(S(=O)(=O)[O-])c5F)c5ccc2[nH]5)C=C4)C=C3)cc1
REMARK SMILES IDX 5 1 4 2 3 3 1 4 2 5 37 7 38 8 99 9 39 10 98 11 40 12 41 13
REMARK SMILES IDX 42 14 92 15 43 16 97 17 91 18 93 19 44 20 96 21 90 22 89 23
REMARK SMILES IDX 45 25 77 26 57 27 76 28 58 29 61 30 75 31 94 32 59 33 60 34
REMARK SMILES IDX 74 36 95 37 62 38 46 39 47 40 55 41 48 42 50 43 56 44 49 45
REMARK SMILES IDX 51 46 52 47 53 48 54 49 78 50 79 51 87 52 80 53 82 54 88 55
REMARK SMILES IDX 81 56 83 57 84 58 85 59 86 60 63 61 64 62 72 63 65 64 67 65
REMARK SMILES IDX 73 66 66 67 68 68 69 69 70 70 71 71 6 72 7 73 8 74 9 75
REMARK SMILES IDX 10 77 11 78 12 79 36 80 13 81 27 82 26 83 28 84 35 85 29 86
REMARK SMILES IDX 30 87 34 88 31 89 33 90 32 91 14 92 15 93 18 94 16 95 17 96
REMARK SMILES IDX 19 97 20 98 25 99 21 100 24 101 22 102 23 103
REMARK H PARENT 3 6 93 24 61 35 8 76
REMARK Flexibility Score: inf
ROOT
ATOM      1  C   UNL     1       4.987  -1.499   1.696  1.00  0.00     0.023 C 
ENDROOT
BRANCH   1   2
ATOM      2  C   UNL     1       4.723  -1.110   0.241  1.00  0.00     0.116 C 
BRANCH   2   3
ATOM      3  N   UNL     1       3.333  -1.125  -0.167  1.00  0.00    -0.352 N 
ATOM      4  O   UNL     1       1.246  -0.551  -0.604  1.00  0.00    -0.269 OA
ATOM      5  C   UNL     1       2.267  -0.288   0.035  1.00  0.00     0.251 C 
ATOM      6  H   UNL     1       3.102  -1.913  -0.711  1.00  0.00     0.163 HD
BRANCH   5   7
ATOM      7  C   UNL     1       2.252   0.845   0.999  1.00  0.00     0.039 A 
ATOM      8  C   UNL     1       3.386   1.442   1.549  1.00  0.00     0.014 A 
ATOM      9  C   UNL     1       0.985   1.334   1.370  1.00  0.00     0.014 A 
ATOM     10  C   UNL     1       3.266   2.433   2.516  1.00  0.00     0.010 A 
ATOM     11  C   UNL     1       0.858   2.352   2.311  1.00  0.00     0.010 A 
ATOM     12  C   UNL     1       2.003   2.883   2.901  1.00  0.00    -0.014 A 
BRANCH  12  13
ATOM     13  C   UNL     1       1.949   4.056   3.769  1.00  0.00     0.031 A 
ATOM     14  C   UNL     1       2.449   5.314   3.142  1.00  0.00     0.074 A 
ATOM     15  C   UNL     1       1.354   4.071   4.977  1.00  0.00     0.049 A 
ATOM     16  N   UNL     1       3.407   6.088   3.540  1.00  0.00    -0.248 NA
ATOM     17  C   UNL     1       1.864   5.698   1.846  1.00  0.00     0.031 C 
ATOM     18  C   UNL     1       0.540   3.007   5.567  1.00  0.00     0.029 A 
ATOM     19  N   UNL     1       1.221   5.103   5.864  1.00  0.00    -0.354 N 
ATOM     20  C   UNL     1       3.388   7.177   2.667  1.00  0.00     0.074 A 
ATOM     21  C   UNL     1       2.549   6.804   1.560  1.00  0.00     0.031 C 
ATOM     22  C   UNL     1      -0.201   3.529   6.569  1.00  0.00     0.029 A 
ATOM     23  C   UNL     1       0.175   4.919   6.763  1.00  0.00     0.049 A 
ATOM     24  H   UNL     1       1.806   5.895   5.867  1.00  0.00     0.167 HD
ATOM     25  C   UNL     1       3.855   8.401   3.031  1.00  0.00     0.034 A 
ATOM     26  C   UNL     1      -0.407   5.868   7.534  1.00  0.00     0.034 A 
ATOM     27  C   UNL     1       4.727   8.335   4.170  1.00  0.00     0.049 A 
ATOM     28  C   UNL     1       0.530   7.008   7.638  1.00  0.00     0.074 A 
ATOM     29  C   UNL     1       5.910   7.697   4.475  1.00  0.00     0.029 A 
ATOM     30  N   UNL     1       4.223   8.802   5.356  1.00  0.00    -0.354 N 
ATOM     31  N   UNL     1       1.661   6.978   8.286  1.00  0.00    -0.248 NA
ATOM     32  C   UNL     1       0.344   8.147   6.753  1.00  0.00     0.031 C 
ATOM     33  C   UNL     1       5.846   7.444   5.875  1.00  0.00     0.029 A 
ATOM     34  C   UNL     1       4.637   7.959   6.347  1.00  0.00     0.049 A 
ATOM     35  H   UNL     1       3.662   9.602   5.472  1.00  0.00     0.167 HD
ATOM     36  C   UNL     1       2.485   7.840   7.578  1.00  0.00     0.074 A 
ATOM     37  C   UNL     1       1.584   8.638   6.757  1.00  0.00     0.031 C 
ATOM     38  C   UNL     1       3.830   7.619   7.500  1.00  0.00     0.034 A 
BRANCH  25  39
ATOM     39  C   UNL     1       3.231   9.714   2.602  1.00  0.00     0.023 A 
ATOM     40  C   UNL     1       3.916  10.904   2.943  1.00  0.00     0.012 A 
ATOM     41  C   UNL     1       1.897   9.853   2.155  1.00  0.00     0.148 A 
ATOM     42  C   UNL     1       3.288  12.154   2.895  1.00  0.00     0.002 A 
ATOM     43  C   UNL     1       1.312  11.107   2.016  1.00  0.00     0.091 A 
ATOM     44  F   UNL     1       1.125   8.774   1.995  1.00  0.00    -0.205 F 
ATOM     45  C   UNL     1       1.988  12.258   2.419  1.00  0.00     0.022 A 
BRANCH  43  46
ATOM     46  S   UNL     1      -0.335  11.284   1.319  1.00  0.00     0.127 S 
ATOM     47  O   UNL     1      -1.140  11.492   2.525  1.00  0.00    -0.237 OA
ATOM     48  O   UNL     1      -0.175  12.473   0.474  1.00  0.00    -0.237 OA
ATOM     49  O   UNL     1      -0.573  10.060   0.582  1.00  0.00    -0.744 OA
ENDBRANCH  43  46
ENDBRANCH  25  39
BRANCH  26  50
ATOM     50  C   UNL     1      -1.809   5.981   8.008  1.00  0.00     0.023 A 
ATOM     51  C   UNL     1      -2.106   6.856   9.073  1.00  0.00     0.012 A 
ATOM     52  C   UNL     1      -2.886   5.460   7.258  1.00  0.00     0.148 A 
ATOM     53  C   UNL     1      -3.424   7.236   9.353  1.00  0.00     0.002 A 
ATOM     54  C   UNL     1      -4.197   5.827   7.551  1.00  0.00     0.091 A 
ATOM     55  F   UNL     1      -2.626   4.685   6.198  1.00  0.00    -0.205 F 
ATOM     56  C   UNL     1      -4.469   6.727   8.587  1.00  0.00     0.022 A 
BRANCH  54  57
ATOM     57  S   UNL     1      -5.593   5.211   6.598  1.00  0.00     0.127 S 
ATOM     58  O   UNL     1      -6.553   4.869   7.648  1.00  0.00    -0.237 OA
ATOM     59  O   UNL     1      -5.951   6.378   5.797  1.00  0.00    -0.237 OA
ATOM     60  O   UNL     1      -5.088   4.062   5.857  1.00  0.00    -0.744 OA
ENDBRANCH  54  57
ENDBRANCH  26  50
BRANCH  38  61
ATOM     61  C   UNL     1       4.474   6.691   8.494  1.00  0.00     0.023 A 
ATOM     62  C   UNL     1       4.145   5.323   8.567  1.00  0.00     0.012 A 
ATOM     63  C   UNL     1       5.591   7.165   9.206  1.00  0.00     0.148 A 
ATOM     64  C   UNL     1       4.910   4.448   9.342  1.00  0.00     0.002 A 
ATOM     65  C   UNL     1       6.384   6.282   9.924  1.00  0.00     0.091 A 
ATOM     66  F   UNL     1       5.885   8.473   9.127  1.00  0.00    -0.205 F 
ATOM     67  C   UNL     1       6.041   4.923  10.004  1.00  0.00     0.022 A 
BRANCH  65  68
ATOM     68  S   UNL     1       7.942   6.800  10.652  1.00  0.00     0.127 S 
ATOM     69  O   UNL     1       7.614   6.851  12.074  1.00  0.00    -0.237 OA
ATOM     70  O   UNL     1       8.843   5.711  10.269  1.00  0.00    -0.237 OA
ATOM     71  O   UNL     1       8.265   8.081  10.035  1.00  0.00    -0.744 OA
ENDBRANCH  65  68
ENDBRANCH  38  61
ENDBRANCH  12  13
ENDBRANCH   5   7
ENDBRANCH   2   3
ENDBRANCH   1   2
BRANCH   1  72
ATOM     72  C   UNL     1       4.447  -2.863   2.121  1.00  0.00     0.023 C 
BRANCH  72  73
ATOM     73  C   UNL     1       4.850  -4.028   1.232  1.00  0.00     0.116 C 
BRANCH  73  74
ATOM     74  N   UNL     1       6.289  -4.246   1.190  1.00  0.00    -0.351 N 
ATOM     75  C   UNL     1       7.007  -5.395   1.454  1.00  0.00     0.269 C 
ATOM     76  H   UNL     1       6.827  -3.461   0.939  1.00  0.00     0.163 HD
ATOM     77  O   UNL     1       8.234  -5.366   1.427  1.00  0.00    -0.268 OA
BRANCH  75  78
ATOM     78  C   UNL     1       6.285  -6.671   1.722  1.00  0.00     0.129 A 
ATOM     79  C   UNL     1       5.293  -7.095   0.873  1.00  0.00     0.039 A 
ATOM     80  N   UNL     1       6.654  -7.377   2.795  1.00  0.00    -0.243 NA
ATOM     81  C   UNL     1       4.543  -8.258   1.167  1.00  0.00    -0.021 A 
ATOM     82  C   UNL     1       6.008  -8.513   3.067  1.00  0.00     0.072 A 
ATOM     83  C   UNL     1       4.910  -9.059   2.326  1.00  0.00     0.012 A 
ATOM     84  C   UNL     1       6.523  -9.153   4.170  1.00  0.00     0.029 A 
ATOM     85  C   UNL     1       4.366 -10.339   2.835  1.00  0.00    -0.009 A 
ATOM     86  C   UNL     1       6.016 -10.356   4.629  1.00  0.00     0.011 A 
ATOM     87  C   UNL     1       4.947 -10.954   3.982  1.00  0.00    -0.018 A 
ATOM     88  C   UNL     1       3.289 -11.075   2.289  1.00  0.00     0.009 A 
ATOM     89  C   UNL     1       4.479 -12.175   4.502  1.00  0.00     0.009 A 
ATOM     90  C   UNL     1       2.815 -12.288   2.808  1.00  0.00     0.001 A 
ATOM     91  C   UNL     1       3.414 -12.843   3.918  1.00  0.00     0.001 A 
BRANCH  81  92
ATOM     92  C   UNL     1       3.462  -8.479   0.131  1.00  0.00     0.115 C 
ATOM     93  C   UNL     1       2.051  -8.537   0.588  1.00  0.00     0.123 C 
ATOM     94  C   UNL     1       3.458  -9.671  -0.769  1.00  0.00     0.083 C 
ATOM     95  N   UNL     1       1.366  -9.442  -0.034  1.00  0.00    -0.162 NA
ATOM     96  N   UNL     1       2.257 -10.161  -0.905  1.00  0.00    -0.154 NA
BRANCH  94  97
ATOM     97  C   UNL     1       4.623 -10.133  -1.556  1.00  0.00    -0.001 A 
ATOM     98  C   UNL     1       4.382 -10.636  -2.842  1.00  0.00     0.013 A 
ATOM     99  C   UNL     1       5.937 -10.075  -1.077  1.00  0.00     0.013 A 
ATOM    100  C   UNL     1       5.446 -11.046  -3.648  1.00  0.00     0.040 A 
ATOM    101  C   UNL     1       7.000 -10.486  -1.885  1.00  0.00     0.040 A 
ATOM    102  C   UNL     1       6.746 -10.964  -3.163  1.00  0.00     0.123 A 
ATOM    103  F   UNL     1       7.767 -11.354  -3.936  1.00  0.00    -0.207 F 
ENDBRANCH  94  97
ENDBRANCH  81  92
ENDBRANCH  75  78
ENDBRANCH  73  74
ENDBRANCH  72  73
ENDBRANCH   1  72
TORSDOF 16
