REMARK SMILES C[C@H](c1ccccc1)[N@@H+](CC(=O)NCCCCNC(=O)c1ccc(-c2c3nc(c(-c4cccc(S(=O)(=O)[O-])c4F)c4ccc([nH]4)c(-c4cccc(S(=O)(=O)[O-])c4F)c4nc(c(-c5cccc(S(=O)(=O)[O-])c5F)c5ccc2[nH]5)C=C4)C=C3)cc1)CC(F)(F)F
REMARK SMILES IDX 15 1 14 2 13 3 11 4 12 5 10 7 9 8 2 10 1 11 3 12 4 13 8 14
REMARK SMILES IDX 5 15 7 16 6 17 84 18 85 19 86 20 87 21 88 22 16 23 17 24
REMARK SMILES IDX 18 25 19 26 20 28 21 29 22 30 83 31 23 32 82 33 24 34 25 35
REMARK SMILES IDX 26 36 76 37 27 38 81 39 75 40 77 41 28 42 80 43 74 44 73 45
REMARK SMILES IDX 29 47 61 48 41 49 60 50 42 51 45 52 59 53 78 54 43 55 44 56
REMARK SMILES IDX 58 58 79 59 46 60 30 61 31 62 39 63 32 64 34 65 40 66 33 67
REMARK SMILES IDX 35 68 36 69 37 70 38 71 62 72 63 73 71 74 64 75 66 76 72 77
REMARK SMILES IDX 65 78 67 79 68 80 69 81 70 82 47 83 48 84 56 85 49 86 51 87
REMARK SMILES IDX 57 88 50 89 52 90 53 91 54 92 55 93
REMARK H PARENT 13 6 9 9 18 27 77 46 45 57
REMARK Flexibility Score: inf
ROOT
ATOM      1  C   UNL     1       2.802   1.027  -2.815  1.00  0.00     0.023 C 
ENDROOT
BRANCH   1   2
ATOM      2  C   UNL     1       1.627   1.730  -3.518  1.00  0.00     0.116 C 
BRANCH   2   3
ATOM      3  N   UNL     1       0.642   0.860  -4.151  1.00  0.00    -0.351 N 
ATOM      4  C   UNL     1      -0.659   0.558  -3.848  1.00  0.00     0.275 C 
ATOM      5  O   UNL     1      -1.302  -0.092  -4.675  1.00  0.00    -0.269 OA
ATOM      6  H   UNL     1       0.978   0.400  -4.954  1.00  0.00     0.163 HD
BRANCH   4   7
ATOM      7  C   UNL     1      -1.310   1.004  -2.533  1.00  0.00     0.364 C 
BRANCH   7   8
ATOM      8  N   UNL     1      -1.239   0.031  -1.421  1.00  0.00    -0.314 N 
ATOM      9  H   UNL     1      -1.374   0.617  -0.597  1.00  0.00     0.349 HD
BRANCH   8  10
ATOM     10  C   UNL     1       0.090  -0.517  -1.168  1.00  0.00     0.212 C 
ATOM     11  C   UNL     1       0.574  -1.673  -2.062  1.00  0.00     0.081 C 
BRANCH  10  12
ATOM     12  C   UNL     1       0.463  -0.653   0.303  1.00  0.00     0.009 A 
ATOM     13  C   UNL     1       0.500  -1.893   0.951  1.00  0.00     0.010 A 
ATOM     14  C   UNL     1       0.925   0.481   1.002  1.00  0.00     0.010 A 
ATOM     15  C   UNL     1       1.068  -2.012   2.221  1.00  0.00     0.001 A 
ATOM     16  C   UNL     1       1.484   0.362   2.275  1.00  0.00     0.001 A 
ATOM     17  C   UNL     1       1.572  -0.889   2.876  1.00  0.00     0.000 A 
ENDBRANCH  10  12
ENDBRANCH   8  10
BRANCH   8  18
ATOM     18  C   UNL     1      -2.406  -0.849  -1.218  1.00  0.00     0.380 C 
BRANCH  18  19
ATOM     19  C   UNL     1      -2.599  -2.232  -1.876  1.00  0.00     0.438 C 
ATOM     20  F   UNL     1      -1.726  -3.143  -1.391  1.00  0.00    -0.165 F 
ATOM     21  F   UNL     1      -3.842  -2.701  -1.592  1.00  0.00    -0.165 F 
ATOM     22  F   UNL     1      -2.488  -2.190  -3.215  1.00  0.00    -0.165 F 
ENDBRANCH  18  19
ENDBRANCH   8  18
ENDBRANCH   7   8
ENDBRANCH   4   7
ENDBRANCH   2   3
ENDBRANCH   1   2
BRANCH   1  23
ATOM     23  C   UNL     1       3.480  -0.100  -3.590  1.00  0.00     0.023 C 
BRANCH  23  24
ATOM     24  C   UNL     1       4.444   0.385  -4.649  1.00  0.00     0.116 C 
BRANCH  24  25
ATOM     25  N   UNL     1       5.573   1.091  -4.056  1.00  0.00    -0.352 N 
ATOM     26  C   UNL     1       6.902   0.757  -4.077  1.00  0.00     0.251 C 
ATOM     27  H   UNL     1       5.350   1.920  -3.575  1.00  0.00     0.163 HD
ATOM     28  O   UNL     1       7.688   1.306  -3.302  1.00  0.00    -0.269 OA
BRANCH  26  29
ATOM     29  C   UNL     1       7.379  -0.260  -5.032  1.00  0.00     0.039 A 
ATOM     30  C   UNL     1       8.308  -1.216  -4.618  1.00  0.00     0.014 A 
ATOM     31  C   UNL     1       6.882  -0.274  -6.338  1.00  0.00     0.014 A 
ATOM     32  C   UNL     1       8.691  -2.227  -5.501  1.00  0.00     0.010 A 
ATOM     33  C   UNL     1       7.184  -1.334  -7.177  1.00  0.00     0.010 A 
ATOM     34  C   UNL     1       8.104  -2.312  -6.774  1.00  0.00    -0.014 A 
BRANCH  34  35
ATOM     35  C   UNL     1       8.425  -3.409  -7.717  1.00  0.00     0.031 A 
ATOM     36  C   UNL     1       9.021  -3.081  -9.060  1.00  0.00     0.074 A 
ATOM     37  C   UNL     1       8.055  -4.670  -7.417  1.00  0.00     0.049 A 
ATOM     38  N   UNL     1       9.251  -3.873 -10.073  1.00  0.00    -0.248 NA
ATOM     39  C   UNL     1       9.371  -1.671  -9.313  1.00  0.00     0.031 C 
ATOM     40  C   UNL     1       7.383  -5.085  -6.182  1.00  0.00     0.029 A 
ATOM     41  N   UNL     1       8.146  -5.828  -8.148  1.00  0.00    -0.354 N 
ATOM     42  C   UNL     1       9.714  -3.054 -11.095  1.00  0.00     0.074 A 
ATOM     43  C   UNL     1       9.718  -1.700 -10.591  1.00  0.00     0.031 C 
ATOM     44  C   UNL     1       7.110  -6.397  -6.248  1.00  0.00     0.029 A 
ATOM     45  C   UNL     1       7.551  -6.910  -7.540  1.00  0.00     0.049 A 
ATOM     46  H   UNL     1       8.594  -5.879  -9.023  1.00  0.00     0.167 HD
ATOM     47  C   UNL     1      10.120  -3.406 -12.336  1.00  0.00     0.034 A 
ATOM     48  C   UNL     1       7.358  -8.166  -7.988  1.00  0.00     0.034 A 
ATOM     49  C   UNL     1      10.174  -4.763 -12.803  1.00  0.00     0.049 A 
ATOM     50  C   UNL     1       7.874  -8.534  -9.354  1.00  0.00     0.074 A 
ATOM     51  C   UNL     1      10.702  -5.242 -13.987  1.00  0.00     0.029 A 
ATOM     52  N   UNL     1       9.666  -5.854 -12.116  1.00  0.00    -0.354 N 
ATOM     53  N   UNL     1       8.499  -7.784 -10.229  1.00  0.00    -0.248 NA
ATOM     54  C   UNL     1       7.685  -9.927  -9.784  1.00  0.00     0.031 C 
ATOM     55  C   UNL     1      10.479  -6.621 -14.034  1.00  0.00     0.029 A 
ATOM     56  C   UNL     1       9.841  -7.003 -12.865  1.00  0.00     0.049 A 
ATOM     57  H   UNL     1       9.243  -5.816 -11.228  1.00  0.00     0.167 HD
ATOM     58  C   UNL     1       8.799  -8.617 -11.299  1.00  0.00     0.074 A 
ATOM     59  C   UNL     1       8.317  -9.937 -10.949  1.00  0.00     0.031 C 
ATOM     60  C   UNL     1       9.399  -8.316 -12.476  1.00  0.00     0.034 A 
BRANCH  47  61
ATOM     61  C   UNL     1      10.588  -2.323 -13.271  1.00  0.00     0.023 A 
ATOM     62  C   UNL     1      11.833  -1.701 -13.056  1.00  0.00     0.012 A 
ATOM     63  C   UNL     1       9.840  -1.999 -14.420  1.00  0.00     0.148 A 
ATOM     64  C   UNL     1      12.322  -0.761 -13.961  1.00  0.00     0.002 A 
ATOM     65  C   UNL     1      10.353  -1.094 -15.341  1.00  0.00     0.091 A 
ATOM     66  F   UNL     1       8.648  -2.587 -14.593  1.00  0.00    -0.205 F 
ATOM     67  C   UNL     1      11.589  -0.468 -15.109  1.00  0.00     0.022 A 
BRANCH  65  68
ATOM     68  S   UNL     1       9.529  -0.709 -16.889  1.00  0.00     0.127 S 
ATOM     69  O   UNL     1       9.200   0.704 -16.704  1.00  0.00    -0.237 OA
ATOM     70  O   UNL     1      10.585  -0.966 -17.868  1.00  0.00    -0.237 OA
ATOM     71  O   UNL     1       8.384  -1.605 -16.973  1.00  0.00    -0.744 OA
ENDBRANCH  65  68
ENDBRANCH  47  61
BRANCH  48  72
ATOM     72  C   UNL     1       6.667  -9.174  -7.135  1.00  0.00     0.023 A 
ATOM     73  C   UNL     1       7.392 -10.268  -6.625  1.00  0.00     0.012 A 
ATOM     74  C   UNL     1       5.298  -9.055  -6.824  1.00  0.00     0.148 A 
ATOM     75  C   UNL     1       6.758 -11.248  -5.859  1.00  0.00     0.002 A 
ATOM     76  C   UNL     1       4.687 -10.002  -6.011  1.00  0.00     0.091 A 
ATOM     77  F   UNL     1       4.619  -8.015  -7.329  1.00  0.00    -0.205 F 
ATOM     78  C   UNL     1       5.409 -11.111  -5.545  1.00  0.00     0.022 A 
BRANCH  76  79
ATOM     79  S   UNL     1       2.990  -9.825  -5.448  1.00  0.00     0.127 S 
ATOM     80  O   UNL     1       2.293 -10.796  -6.286  1.00  0.00    -0.237 OA
ATOM     81  O   UNL     1       3.098 -10.194  -4.035  1.00  0.00    -0.237 OA
ATOM     82  O   UNL     1       2.653  -8.426  -5.673  1.00  0.00    -0.744 OA
ENDBRANCH  76  79
ENDBRANCH  48  72
BRANCH  60  83
ATOM     83  C   UNL     1       9.591  -9.431 -13.468  1.00  0.00     0.023 A 
ATOM     84  C   UNL     1       8.481  -9.935 -14.172  1.00  0.00     0.012 A 
ATOM     85  C   UNL     1      10.881  -9.911 -13.766  1.00  0.00     0.148 A 
ATOM     86  C   UNL     1       8.649 -10.924 -15.140  1.00  0.00     0.002 A 
ATOM     87  C   UNL     1      11.046 -10.857 -14.769  1.00  0.00     0.091 A 
ATOM     88  F   UNL     1      11.921  -9.424 -13.073  1.00  0.00    -0.205 F 
ATOM     89  C   UNL     1       9.931 -11.374 -15.448  1.00  0.00     0.022 A 
BRANCH  87  90
ATOM     90  S   UNL     1      12.664 -11.425 -15.303  1.00  0.00     0.127 S 
ATOM     91  O   UNL     1      12.659 -12.814 -14.847  1.00  0.00    -0.237 OA
ATOM     92  O   UNL     1      12.585 -11.258 -16.755  1.00  0.00    -0.237 OA
ATOM     93  O   UNL     1      13.634 -10.559 -14.645  1.00  0.00    -0.744 OA
ENDBRANCH  87  90
ENDBRANCH  60  83
ENDBRANCH  34  35
ENDBRANCH  26  29
ENDBRANCH  24  25
ENDBRANCH  23  24
ENDBRANCH   1  23
TORSDOF 19
