REMARK SMILES CCCCN1C(=O)[C@H]2[C@H](CCC(=O)NCCCCNC(=O)c3ccc(-c4c5nc(c(-c6cccc(S(=O)(=O)[O-])c6F)c6ccc([nH]6)c(-c6cccc(S(=O)(=O)[O-])c6F)c6nc(c(-c7cccc(S(=O)(=O)[O-])c7F)c7ccc4[nH]7)C=C6)C=C5)cc3)[NH2+][C@@]3(C(=O)Nc4c(CC)cccc43)[C@H]2C1=O
REMARK SMILES IDX 15 1 14 2 12 3 13 4 11 6 10 7 9 8 5 9 6 10 99 11 8 12 7 13
REMARK SMILES IDX 98 14 100 15 86 16 85 17 87 18 97 19 89 22 88 23 90 24 96 25
REMARK SMILES IDX 91 27 95 28 94 29 4 30 3 31 2 32 1 33 92 34 93 35 16 36
REMARK SMILES IDX 17 37 18 38 19 39 20 40 21 42 22 43 23 44 84 45 24 46 83 47
REMARK SMILES IDX 25 48 26 49 27 50 77 51 28 52 82 53 76 54 78 55 29 56 81 57
REMARK SMILES IDX 75 58 74 59 30 61 62 62 42 63 61 64 43 65 46 66 60 67 79 68
REMARK SMILES IDX 44 69 45 70 59 72 80 73 47 74 31 75 32 76 40 77 33 78 35 79
REMARK SMILES IDX 41 80 34 81 36 82 37 83 38 84 39 85 63 86 64 87 72 88 65 89
REMARK SMILES IDX 67 90 73 91 66 92 68 93 69 94 70 95 71 96 48 97 49 98 57 99
REMARK SMILES IDX 50 100 52 101 58 102 51 103 53 104 54 105 55 106 56 107
REMARK H PARENT 14 5 85 20 85 21 89 26 19 41 78 60 46 71
REMARK Flexibility Score: inf
ROOT
ATOM      1  C   UNL     1      -2.132   0.502   7.374  1.00  0.00     0.116 C 
ENDROOT
BRANCH   1   2
ATOM      2  N   UNL     1      -3.506   0.376   7.843  1.00  0.00    -0.356 N 
ATOM      3  C   UNL     1      -4.505  -0.467   7.448  1.00  0.00     0.220 C 
ATOM      4  O   UNL     1      -5.639  -0.277   7.890  1.00  0.00    -0.275 OA
ATOM      5  H   UNL     1      -3.755   1.001   8.563  1.00  0.00     0.163 HD
BRANCH   3   6
ATOM      6  C   UNL     1      -4.219  -1.620   6.503  1.00  0.00     0.106 C 
BRANCH   6   7
ATOM      7  C   UNL     1      -4.718  -1.426   5.064  1.00  0.00     0.076 C 
BRANCH   7   8
ATOM      8  C   UNL     1      -4.169  -0.161   4.399  1.00  0.00     0.197 C 
ATOM      9  N   UNL     1      -1.904   0.771   2.243  1.00  0.00    -0.282 N 
ATOM     10  C   UNL     1      -2.399  -0.382   2.775  1.00  0.00     0.239 C 
ATOM     11  C   UNL     1      -2.904   1.633   1.866  1.00  0.00     0.240 C 
ATOM     12  C   UNL     1      -3.892  -0.268   2.909  1.00  0.00     0.157 C 
ATOM     13  O   UNL     1      -1.775  -1.347   3.194  1.00  0.00    -0.274 OA
ATOM     14  C   UNL     1      -4.246   1.086   2.295  1.00  0.00     0.174 C 
ATOM     15  O   UNL     1      -2.772   2.668   1.230  1.00  0.00    -0.274 OA
ATOM     16  C   UNL     1      -4.961   1.873   3.393  1.00  0.00     0.216 C 
ATOM     17  N   UNL     1      -5.123   0.917   4.518  1.00  0.00    -0.326 N 
ATOM     18  C   UNL     1      -4.263   3.190   3.874  1.00  0.00     0.291 C 
ATOM     19  C   UNL     1      -6.363   2.381   3.137  1.00  0.00     0.047 A 
ATOM     20  H   UNL     1      -4.970   1.407   5.400  1.00  0.00     0.347 HD
ATOM     21  H   UNL     1      -6.066   0.531   4.493  1.00  0.00     0.347 HD
ATOM     22  N   UNL     1      -5.256   4.136   4.086  1.00  0.00    -0.320 N 
ATOM     23  O   UNL     1      -3.071   3.352   4.104  1.00  0.00    -0.267 OA
ATOM     24  C   UNL     1      -6.500   3.667   3.679  1.00  0.00     0.054 A 
ATOM     25  C   UNL     1      -7.470   1.685   2.681  1.00  0.00     0.013 A 
ATOM     26  H   UNL     1      -5.100   5.026   4.476  1.00  0.00     0.170 HD
ATOM     27  C   UNL     1      -7.729   4.294   3.815  1.00  0.00    -0.024 A 
ATOM     28  C   UNL     1      -8.719   2.296   2.790  1.00  0.00     0.001 A 
ATOM     29  C   UNL     1      -8.848   3.577   3.360  1.00  0.00     0.006 A 
BRANCH   9  30
ATOM     30  C   UNL     1      -0.493   1.161   2.212  1.00  0.00     0.128 C 
BRANCH  30  31
ATOM     31  C   UNL     1       0.545   0.041   2.063  1.00  0.00     0.022 C 
BRANCH  31  32
ATOM     32  C   UNL     1       0.424  -0.769   0.772  1.00  0.00    -0.002 C 
ATOM     33  C   UNL     1       0.894   0.004  -0.449  1.00  0.00     0.004 C 
ENDBRANCH  31  32
ENDBRANCH  30  31
ENDBRANCH   9  30
BRANCH  27  34
ATOM     34  C   UNL     1      -7.909   5.618   4.509  1.00  0.00     0.034 C 
ATOM     35  C   UNL     1      -8.096   5.454   6.013  1.00  0.00     0.009 C 
ENDBRANCH  27  34
ENDBRANCH   7   8
ENDBRANCH   6   7
ENDBRANCH   3   6
ENDBRANCH   1   2
BRANCH   1  36
ATOM     36  C   UNL     1      -2.021   1.645   6.369  1.00  0.00     0.023 C 
BRANCH  36  37
ATOM     37  C   UNL     1      -1.758   3.010   6.973  1.00  0.00     0.023 C 
BRANCH  37  38
ATOM     38  C   UNL     1      -0.282   3.293   7.162  1.00  0.00     0.116 C 
BRANCH  38  39
ATOM     39  N   UNL     1       0.476   3.371   5.909  1.00  0.00    -0.352 N 
ATOM     40  C   UNL     1       1.101   4.430   5.280  1.00  0.00     0.251 C 
ATOM     41  H   UNL     1       0.554   2.515   5.431  1.00  0.00     0.163 HD
ATOM     42  O   UNL     1       1.610   4.267   4.174  1.00  0.00    -0.269 OA
BRANCH  40  43
ATOM     43  C   UNL     1       1.111   5.760   5.924  1.00  0.00     0.039 A 
ATOM     44  C   UNL     1       1.274   5.849   7.299  1.00  0.00     0.014 A 
ATOM     45  C   UNL     1       0.843   6.912   5.181  1.00  0.00     0.014 A 
ATOM     46  C   UNL     1       0.818   6.978   7.955  1.00  0.00     0.010 A 
ATOM     47  C   UNL     1       0.582   8.116   5.846  1.00  0.00     0.010 A 
ATOM     48  C   UNL     1       0.475   8.138   7.245  1.00  0.00    -0.014 A 
BRANCH  48  49
ATOM     49  C   UNL     1       0.001   9.332   8.000  1.00  0.00     0.031 A 
ATOM     50  C   UNL     1      -1.311   9.999   7.673  1.00  0.00     0.074 A 
ATOM     51  C   UNL     1       0.732   9.778   9.043  1.00  0.00     0.049 A 
ATOM     52  N   UNL     1      -1.835  11.076   8.202  1.00  0.00    -0.248 NA
ATOM     53  C   UNL     1      -2.139   9.401   6.612  1.00  0.00     0.031 C 
ATOM     54  C   UNL     1       2.020   9.222   9.468  1.00  0.00     0.029 A 
ATOM     55  N   UNL     1       0.488  10.769   9.959  1.00  0.00    -0.354 N 
ATOM     56  C   UNL     1      -2.991  11.338   7.477  1.00  0.00     0.074 A 
ATOM     57  C   UNL     1      -3.117  10.289   6.490  1.00  0.00     0.031 C 
ATOM     58  C   UNL     1       2.402   9.806  10.608  1.00  0.00     0.029 A 
ATOM     59  C   UNL     1       1.456  10.866  10.930  1.00  0.00     0.049 A 
ATOM     60  H   UNL     1      -0.303  11.355   9.924  1.00  0.00     0.167 HD
ATOM     61  C   UNL     1      -3.869  12.358   7.625  1.00  0.00     0.034 A 
ATOM     62  C   UNL     1       1.604  11.732  11.949  1.00  0.00     0.034 A 
ATOM     63  C   UNL     1      -3.797  13.339   8.674  1.00  0.00     0.049 A 
ATOM     64  C   UNL     1       0.606  12.833  12.112  1.00  0.00     0.074 A 
ATOM     65  C   UNL     1      -4.685  14.363   8.955  1.00  0.00     0.029 A 
ATOM     66  N   UNL     1      -2.786  13.415   9.619  1.00  0.00    -0.354 N 
ATOM     67  N   UNL     1      -0.495  13.043  11.434  1.00  0.00    -0.248 NA
ATOM     68  C   UNL     1       0.876  13.825  13.159  1.00  0.00     0.031 C 
ATOM     69  C   UNL     1      -4.204  15.064  10.066  1.00  0.00     0.029 A 
ATOM     70  C   UNL     1      -3.020  14.475  10.478  1.00  0.00     0.049 A 
ATOM     71  H   UNL     1      -2.015  12.805   9.672  1.00  0.00     0.167 HD
ATOM     72  C   UNL     1      -1.045  14.203  11.958  1.00  0.00     0.074 A 
ATOM     73  C   UNL     1      -0.174  14.628  13.037  1.00  0.00     0.031 C 
ATOM     74  C   UNL     1      -2.155  14.870  11.560  1.00  0.00     0.034 A 
BRANCH  61  75
ATOM     75  C   UNL     1      -5.003  12.464   6.641  1.00  0.00     0.023 A 
ATOM     76  C   UNL     1      -6.138  11.643   6.786  1.00  0.00     0.012 A 
ATOM     77  C   UNL     1      -4.972  13.433   5.618  1.00  0.00     0.148 A 
ATOM     78  C   UNL     1      -7.221  11.774   5.915  1.00  0.00     0.002 A 
ATOM     79  C   UNL     1      -6.067  13.578   4.774  1.00  0.00     0.091 A 
ATOM     80  F   UNL     1      -3.873  14.190   5.489  1.00  0.00    -0.205 F 
ATOM     81  C   UNL     1      -7.189  12.745   4.917  1.00  0.00     0.022 A 
BRANCH  79  82
ATOM     82  S   UNL     1      -6.147  14.836   3.494  1.00  0.00     0.127 S 
ATOM     83  O   UNL     1      -6.052  14.026   2.280  1.00  0.00    -0.237 OA
ATOM     84  O   UNL     1      -7.463  15.430   3.728  1.00  0.00    -0.237 OA
ATOM     85  O   UNL     1      -5.024  15.730   3.737  1.00  0.00    -0.744 OA
ENDBRANCH  79  82
ENDBRANCH  61  75
BRANCH  62  86
ATOM     86  C   UNL     1       2.763  11.563  12.867  1.00  0.00     0.023 A 
ATOM     87  C   UNL     1       2.552  11.007  14.141  1.00  0.00     0.012 A 
ATOM     88  C   UNL     1       4.079  11.796  12.419  1.00  0.00     0.148 A 
ATOM     89  C   UNL     1       3.637  10.668  14.951  1.00  0.00     0.002 A 
ATOM     90  C   UNL     1       5.153  11.405  13.207  1.00  0.00     0.091 A 
ATOM     91  F   UNL     1       4.247  12.322  11.198  1.00  0.00    -0.205 F 
ATOM     92  C   UNL     1       4.935  10.850  14.478  1.00  0.00     0.022 A 
BRANCH  90  93
ATOM     93  S   UNL     1       6.851  11.454  12.622  1.00  0.00     0.127 S 
ATOM     94  O   UNL     1       7.480  12.334  13.604  1.00  0.00    -0.237 OA
ATOM     95  O   UNL     1       7.236  10.046  12.718  1.00  0.00    -0.237 OA
ATOM     96  O   UNL     1       6.791  11.978  11.265  1.00  0.00    -0.744 OA
ENDBRANCH  90  93
ENDBRANCH  62  86
BRANCH  74  97
ATOM     97  C   UNL     1      -2.485  16.147  12.276  1.00  0.00     0.023 A 
ATOM     98  C   UNL     1      -1.789  17.322  11.932  1.00  0.00     0.012 A 
ATOM     99  C   UNL     1      -3.531  16.203  13.214  1.00  0.00     0.148 A 
ATOM    100  C   UNL     1      -2.124  18.538  12.524  1.00  0.00     0.002 A 
ATOM    101  C   UNL     1      -3.881  17.424  13.776  1.00  0.00     0.091 A 
ATOM    102  F   UNL     1      -4.164  15.065  13.534  1.00  0.00    -0.205 F 
ATOM    103  C   UNL     1      -3.176  18.591  13.436  1.00  0.00     0.022 A 
BRANCH 101 104
ATOM    104  S   UNL     1      -5.266  17.603  14.905  1.00  0.00     0.127 S 
ATOM    105  O   UNL     1      -4.585  17.852  16.174  1.00  0.00    -0.237 OA
ATOM    106  O   UNL     1      -5.971  18.760  14.353  1.00  0.00    -0.237 OA
ATOM    107  O   UNL     1      -6.008  16.351  14.831  1.00  0.00    -0.744 OA
ENDBRANCH 101 104
ENDBRANCH  74  97
ENDBRANCH  48  49
ENDBRANCH  40  43
ENDBRANCH  38  39
ENDBRANCH  37  38
ENDBRANCH  36  37
ENDBRANCH   1  36
TORSDOF 20
