REMARK SMILES O=C(NCCCCNC(=O)c1cc2cnc(Cl)cc2[nH]1)c1ccc(-c2c3nc(c(-c4cccc(S(=O)(=O)[O-])c4F)c4ccc([nH]4)c(-c4cccc(S(=O)(=O)[O-])c4F)c4nc(c(-c5cccc(S(=O)(=O)[O-])c5F)c5ccc2[nH]5)C=C4)C=C3)cc1
REMARK SMILES IDX 4 1 3 2 1 3 2 4 21 6 22 7 83 8 23 9 82 10 24 11 25 12 26 13
REMARK SMILES IDX 76 14 27 15 81 16 75 17 77 18 28 19 80 20 74 21 73 22 29 24
REMARK SMILES IDX 61 25 41 26 60 27 42 28 45 29 59 30 78 31 43 32 44 33 58 35
REMARK SMILES IDX 79 36 46 37 30 38 31 39 39 40 32 41 34 42 40 43 33 44 35 45
REMARK SMILES IDX 36 46 37 47 38 48 62 49 63 50 71 51 64 52 66 53 72 54 65 55
REMARK SMILES IDX 67 56 68 57 69 58 70 59 47 60 48 61 56 62 49 63 51 64 57 65
REMARK SMILES IDX 50 66 52 67 53 68 54 69 55 70 5 71 6 72 7 73 8 74 9 75 10 77
REMARK SMILES IDX 11 78 12 79 20 80 13 81 19 82 14 84 18 85 15 86 16 87 17 88
REMARK H PARENT 3 5 77 23 45 34 8 76 20 83
REMARK Flexibility Score: inf
ROOT
ATOM      1  C   UNL     1       4.548   1.613  -0.226  1.00  0.00     0.116 C 
ENDROOT
BRANCH   1   2
ATOM      2  N   UNL     1       3.081   1.483  -0.297  1.00  0.00    -0.352 N 
ATOM      3  O   UNL     1       1.170   0.251  -0.504  1.00  0.00    -0.269 OA
ATOM      4  C   UNL     1       2.303   0.353  -0.050  1.00  0.00     0.251 C 
ATOM      5  H   UNL     1       2.588   2.297  -0.550  1.00  0.00     0.163 HD
BRANCH   4   6
ATOM      6  C   UNL     1       2.868  -0.705   0.807  1.00  0.00     0.039 A 
ATOM      7  C   UNL     1       2.658  -2.075   0.637  1.00  0.00     0.014 A 
ATOM      8  C   UNL     1       3.704  -0.249   1.810  1.00  0.00     0.014 A 
ATOM      9  C   UNL     1       3.334  -2.950   1.491  1.00  0.00     0.010 A 
ATOM     10  C   UNL     1       4.637  -1.088   2.317  1.00  0.00     0.010 A 
ATOM     11  C   UNL     1       4.316  -2.425   2.345  1.00  0.00    -0.014 A 
BRANCH  11  12
ATOM     12  C   UNL     1       5.095  -3.204   3.292  1.00  0.00     0.031 A 
ATOM     13  C   UNL     1       5.884  -4.271   2.651  1.00  0.00     0.074 A 
ATOM     14  C   UNL     1       5.265  -2.811   4.578  1.00  0.00     0.049 A 
ATOM     15  N   UNL     1       5.616  -5.532   2.651  1.00  0.00    -0.248 NA
ATOM     16  C   UNL     1       6.963  -3.882   1.732  1.00  0.00     0.031 C 
ATOM     17  C   UNL     1       4.795  -1.571   5.230  1.00  0.00     0.029 A 
ATOM     18  N   UNL     1       6.017  -3.377   5.558  1.00  0.00    -0.354 N 
ATOM     19  C   UNL     1       6.674  -6.119   1.970  1.00  0.00     0.074 A 
ATOM     20  C   UNL     1       7.293  -5.066   1.210  1.00  0.00     0.031 C 
ATOM     21  C   UNL     1       5.465  -1.376   6.388  1.00  0.00     0.029 A 
ATOM     22  C   UNL     1       6.264  -2.553   6.657  1.00  0.00     0.049 A 
ATOM     23  H   UNL     1       6.362  -4.297   5.497  1.00  0.00     0.167 HD
ATOM     24  C   UNL     1       7.143  -7.340   2.347  1.00  0.00     0.034 A 
ATOM     25  C   UNL     1       7.085  -2.825   7.702  1.00  0.00     0.034 A 
ATOM     26  C   UNL     1       6.234  -7.971   3.276  1.00  0.00     0.049 A 
ATOM     27  C   UNL     1       7.253  -4.294   7.724  1.00  0.00     0.074 A 
ATOM     28  C   UNL     1       4.918  -8.383   3.239  1.00  0.00     0.029 A 
ATOM     29  N   UNL     1       6.572  -7.855   4.604  1.00  0.00    -0.354 N 
ATOM     30  N   UNL     1       6.282  -5.123   7.983  1.00  0.00    -0.248 NA
ATOM     31  C   UNL     1       8.405  -4.863   7.046  1.00  0.00     0.031 C 
ATOM     32  C   UNL     1       4.404  -8.103   4.540  1.00  0.00     0.029 A 
ATOM     33  C   UNL     1       5.440  -7.604   5.332  1.00  0.00     0.049 A 
ATOM     34  H   UNL     1       7.481  -7.938   4.971  1.00  0.00     0.167 HD
ATOM     35  C   UNL     1       6.488  -6.170   7.096  1.00  0.00     0.074 A 
ATOM     36  C   UNL     1       7.875  -6.026   6.659  1.00  0.00     0.031 C 
ATOM     37  C   UNL     1       5.429  -6.859   6.577  1.00  0.00     0.034 A 
BRANCH  24  38
ATOM     38  C   UNL     1       8.578  -7.799   2.226  1.00  0.00     0.023 A 
ATOM     39  C   UNL     1       8.841  -9.152   2.537  1.00  0.00     0.012 A 
ATOM     40  C   UNL     1       9.700  -6.951   2.079  1.00  0.00     0.148 A 
ATOM     41  C   UNL     1      10.143  -9.623   2.733  1.00  0.00     0.002 A 
ATOM     42  C   UNL     1      10.996  -7.442   2.187  1.00  0.00     0.091 A 
ATOM     43  F   UNL     1       9.537  -5.631   1.970  1.00  0.00    -0.205 F 
ATOM     44  C   UNL     1      11.223  -8.771   2.547  1.00  0.00     0.022 A 
BRANCH  42  45
ATOM     45  S   UNL     1      12.429  -6.395   1.898  1.00  0.00     0.127 S 
ATOM     46  O   UNL     1      12.963  -6.251   3.249  1.00  0.00    -0.237 OA
ATOM     47  O   UNL     1      13.227  -7.229   0.999  1.00  0.00    -0.237 OA
ATOM     48  O   UNL     1      11.910  -5.181   1.281  1.00  0.00    -0.744 OA
ENDBRANCH  42  45
ENDBRANCH  24  38
BRANCH  25  49
ATOM     49  C   UNL     1       7.934  -1.948   8.543  1.00  0.00     0.023 A 
ATOM     50  C   UNL     1       8.418  -2.432   9.778  1.00  0.00     0.012 A 
ATOM     51  C   UNL     1       8.545  -0.802   7.992  1.00  0.00     0.148 A 
ATOM     52  C   UNL     1       9.519  -1.838  10.408  1.00  0.00     0.002 A 
ATOM     53  C   UNL     1       9.646  -0.221   8.618  1.00  0.00     0.091 A 
ATOM     54  F   UNL     1       8.108  -0.348   6.811  1.00  0.00    -0.205 F 
ATOM     55  C   UNL     1      10.146  -0.746   9.818  1.00  0.00     0.022 A 
BRANCH  53  56
ATOM     56  S   UNL     1      10.550   1.153   7.890  1.00  0.00     0.127 S 
ATOM     57  O   UNL     1      10.627   2.090   9.011  1.00  0.00    -0.237 OA
ATOM     58  O   UNL     1      11.815   0.519   7.530  1.00  0.00    -0.237 OA
ATOM     59  O   UNL     1       9.731   1.612   6.775  1.00  0.00    -0.744 OA
ENDBRANCH  53  56
ENDBRANCH  25  49
BRANCH  37  60
ATOM     60  C   UNL     1       4.075  -6.655   7.220  1.00  0.00     0.023 A 
ATOM     61  C   UNL     1       3.386  -5.424   7.181  1.00  0.00     0.012 A 
ATOM     62  C   UNL     1       3.410  -7.786   7.721  1.00  0.00     0.148 A 
ATOM     63  C   UNL     1       2.068  -5.324   7.642  1.00  0.00     0.002 A 
ATOM     64  C   UNL     1       2.084  -7.695   8.127  1.00  0.00     0.091 A 
ATOM     65  F   UNL     1       4.080  -8.948   7.758  1.00  0.00    -0.205 F 
ATOM     66  C   UNL     1       1.412  -6.463   8.098  1.00  0.00     0.022 A 
BRANCH  64  67
ATOM     67  S   UNL     1       1.144  -9.152   8.587  1.00  0.00     0.127 S 
ATOM     68  O   UNL     1       1.033  -8.998  10.036  1.00  0.00    -0.237 OA
ATOM     69  O   UNL     1      -0.107  -8.961   7.852  1.00  0.00    -0.237 OA
ATOM     70  O   UNL     1       1.929 -10.294   8.136  1.00  0.00    -0.744 OA
ENDBRANCH  64  67
ENDBRANCH  37  60
ENDBRANCH  11  12
ENDBRANCH   4   6
ENDBRANCH   1   2
BRANCH   1  71
ATOM     71  C   UNL     1       5.058   3.032  -0.436  1.00  0.00     0.023 C 
BRANCH  71  72
ATOM     72  C   UNL     1       4.586   4.055   0.606  1.00  0.00     0.023 C 
BRANCH  72  73
ATOM     73  C   UNL     1       4.943   3.768   2.071  1.00  0.00     0.116 C 
BRANCH  73  74
ATOM     74  N   UNL     1       6.364   3.878   2.354  1.00  0.00    -0.351 N 
ATOM     75  C   UNL     1       7.100   4.955   2.798  1.00  0.00     0.267 C 
ATOM     76  H   UNL     1       6.883   3.054   2.205  1.00  0.00     0.163 HD
ATOM     77  O   UNL     1       8.315   4.937   2.656  1.00  0.00    -0.268 OA
BRANCH  75  78
ATOM     78  C   UNL     1       6.392   6.094   3.330  1.00  0.00     0.105 A 
ATOM     79  C   UNL     1       6.656   7.437   3.124  1.00  0.00     0.043 A 
ATOM     80  N   UNL     1       5.347   6.045   4.224  1.00  0.00    -0.350 N 
ATOM     81  C   UNL     1       5.554   8.177   3.630  1.00  0.00     0.019 A 
ATOM     82  C   UNL     1       4.716   7.266   4.271  1.00  0.00     0.051 A 
ATOM     83  H   UNL     1       5.090   5.255   4.752  1.00  0.00     0.167 HD
ATOM     84  C   UNL     1       5.163   9.520   3.569  1.00  0.00     0.123 A 
ATOM     85  C   UNL     1       3.489   7.639   4.814  1.00  0.00     0.067 A 
ATOM     86  N   UNL     1       3.960   9.909   4.058  1.00  0.00    -0.244 NA
ATOM     87  C   UNL     1       3.175   8.978   4.642  1.00  0.00     0.131 A 
ATOM     88  Cl  UNL     1       1.648   9.576   5.158  1.00  0.00    -0.062 Cl
ENDBRANCH  75  78
ENDBRANCH  73  74
ENDBRANCH  72  73
ENDBRANCH  71  72
ENDBRANCH   1  71
TORSDOF 14
