REMARK SMILES O=C(NCCCCNC(=O)c1cc([N+](=O)[O-])cc([N+](=O)[O-])c1N1CCCCCC1)c1ccc(-c2c3nc(c(-c4cccc(S(=O)(=O)[O-])c4F)c4ccc([nH]4)c(-c4cccc(S(=O)(=O)[O-])c4F)c4nc(c(-c5cccc(S(=O)(=O)[O-])c5F)c5ccc2[nH]5)C=C4)C=C3)cc1
REMARK SMILES IDX 6 1 5 2 4 3 3 4 1 5 2 6 30 8 31 9 92 10 32 11 91 12 33 13
REMARK SMILES IDX 34 14 35 15 85 16 36 17 90 18 84 19 86 20 37 21 89 22 83 23
REMARK SMILES IDX 82 24 38 26 70 27 50 28 69 29 51 30 54 31 68 32 87 33 52 34
REMARK SMILES IDX 53 35 67 37 88 38 55 39 39 40 40 41 48 42 41 43 43 44 49 45
REMARK SMILES IDX 42 46 44 47 45 48 46 49 47 50 71 51 72 52 80 53 73 54 75 55
REMARK SMILES IDX 81 56 74 57 76 58 77 59 78 60 79 61 56 62 57 63 65 64 58 65
REMARK SMILES IDX 60 66 66 67 59 68 61 69 62 70 63 71 64 72 7 73 8 74 9 75
REMARK SMILES IDX 10 77 11 78 12 79 22 80 13 81 18 82 17 83 23 84 24 85 25 86
REMARK SMILES IDX 26 87 29 89 28 90 27 91 14 93 15 94 16 95 19 96 20 97 21 98
REMARK H PARENT 3 7 86 25 54 36 8 76
REMARK Flexibility Score: 90.00
ROOT
ATOM      1  C   UNL     1       4.553   2.113  -3.263  1.00  0.00     0.023 C 
ENDROOT
BRANCH   1   2
ATOM      2  C   UNL     1       5.009   0.905  -2.446  1.00  0.00     0.023 C 
BRANCH   2   3
ATOM      3  C   UNL     1       4.639   0.921  -0.967  1.00  0.00     0.116 C 
BRANCH   3   4
ATOM      4  N   UNL     1       3.204   0.868  -0.729  1.00  0.00    -0.352 N 
ATOM      5  O   UNL     1       1.232  -0.024  -0.106  1.00  0.00    -0.269 OA
ATOM      6  C   UNL     1       2.454  -0.101  -0.095  1.00  0.00     0.251 C 
ATOM      7  H   UNL     1       2.694   1.638  -1.070  1.00  0.00     0.163 HD
BRANCH   6   8
ATOM      8  C   UNL     1       3.131  -1.244   0.558  1.00  0.00     0.039 A 
ATOM      9  C   UNL     1       4.242  -1.035   1.375  1.00  0.00     0.014 A 
ATOM     10  C   UNL     1       2.667  -2.543   0.329  1.00  0.00     0.014 A 
ATOM     11  C   UNL     1       4.996  -2.121   1.802  1.00  0.00     0.010 A 
ATOM     12  C   UNL     1       3.372  -3.636   0.849  1.00  0.00     0.010 A 
ATOM     13  C   UNL     1       4.569  -3.437   1.552  1.00  0.00    -0.014 A 
BRANCH  13  14
ATOM     14  C   UNL     1       5.367  -4.565   2.103  1.00  0.00     0.031 A 
ATOM     15  C   UNL     1       6.034  -5.578   1.211  1.00  0.00     0.074 A 
ATOM     16  C   UNL     1       5.523  -4.641   3.441  1.00  0.00     0.049 A 
ATOM     17  N   UNL     1       6.830  -6.563   1.544  1.00  0.00    -0.248 NA
ATOM     18  C   UNL     1       5.775  -5.486  -0.235  1.00  0.00     0.031 C 
ATOM     19  C   UNL     1       4.879  -3.750   4.411  1.00  0.00     0.029 A 
ATOM     20  N   UNL     1       6.277  -5.484   4.216  1.00  0.00    -0.354 N 
ATOM     21  C   UNL     1       7.141  -7.226   0.362  1.00  0.00     0.074 A 
ATOM     22  C   UNL     1       6.440  -6.537  -0.700  1.00  0.00     0.031 C 
ATOM     23  C   UNL     1       5.300  -4.062   5.644  1.00  0.00     0.029 A 
ATOM     24  C   UNL     1       6.201  -5.206   5.561  1.00  0.00     0.049 A 
ATOM     25  H   UNL     1       6.819  -6.217   3.845  1.00  0.00     0.167 HD
ATOM     26  C   UNL     1       7.952  -8.297   0.178  1.00  0.00     0.034 A 
ATOM     27  C   UNL     1       6.785  -5.805   6.616  1.00  0.00     0.034 A 
ATOM     28  C   UNL     1       8.679  -8.955   1.233  1.00  0.00     0.049 A 
ATOM     29  C   UNL     1       7.715  -6.956   6.372  1.00  0.00     0.074 A 
ATOM     30  C   UNL     1       9.561 -10.019   1.136  1.00  0.00     0.029 A 
ATOM     31  N   UNL     1       8.613  -8.616   2.575  1.00  0.00    -0.354 N 
ATOM     32  N   UNL     1       8.089  -7.485   5.232  1.00  0.00    -0.248 NA
ATOM     33  C   UNL     1       8.326  -7.577   7.555  1.00  0.00     0.031 C 
ATOM     34  C   UNL     1      10.022 -10.326   2.421  1.00  0.00     0.029 A 
ATOM     35  C   UNL     1       9.436  -9.448   3.317  1.00  0.00     0.049 A 
ATOM     36  H   UNL     1       8.062  -7.889   2.947  1.00  0.00     0.167 HD
ATOM     37  C   UNL     1       8.984  -8.495   5.560  1.00  0.00     0.074 A 
ATOM     38  C   UNL     1       9.131  -8.472   7.001  1.00  0.00     0.031 C 
ATOM     39  C   UNL     1       9.603  -9.384   4.745  1.00  0.00     0.034 A 
BRANCH  26  40
ATOM     40  C   UNL     1       8.152  -8.802  -1.229  1.00  0.00     0.023 A 
ATOM     41  C   UNL     1       8.994  -8.086  -2.103  1.00  0.00     0.012 A 
ATOM     42  C   UNL     1       7.596 -10.025  -1.652  1.00  0.00     0.148 A 
ATOM     43  C   UNL     1       9.268  -8.571  -3.382  1.00  0.00     0.002 A 
ATOM     44  C   UNL     1       7.901 -10.520  -2.916  1.00  0.00     0.091 A 
ATOM     45  F   UNL     1       6.784 -10.683  -0.812  1.00  0.00    -0.205 F 
ATOM     46  C   UNL     1       8.732  -9.791  -3.784  1.00  0.00     0.022 A 
BRANCH  44  47
ATOM     47  S   UNL     1       7.319 -12.115  -3.504  1.00  0.00     0.127 S 
ATOM     48  O   UNL     1       6.355 -11.716  -4.530  1.00  0.00    -0.237 OA
ATOM     49  O   UNL     1       8.546 -12.720  -4.024  1.00  0.00    -0.237 OA
ATOM     50  O   UNL     1       6.753 -12.789  -2.344  1.00  0.00    -0.744 OA
ENDBRANCH  44  47
ENDBRANCH  26  40
BRANCH  27  51
ATOM     51  C   UNL     1       6.534  -5.288   7.990  1.00  0.00     0.023 A 
ATOM     52  C   UNL     1       7.573  -4.656   8.698  1.00  0.00     0.012 A 
ATOM     53  C   UNL     1       5.256  -5.371   8.576  1.00  0.00     0.148 A 
ATOM     54  C   UNL     1       7.350  -4.137   9.974  1.00  0.00     0.002 A 
ATOM     55  C   UNL     1       5.025  -4.795   9.819  1.00  0.00     0.091 A 
ATOM     56  F   UNL     1       4.282  -5.998   7.901  1.00  0.00    -0.205 F 
ATOM     57  C   UNL     1       6.073  -4.192  10.528  1.00  0.00     0.022 A 
BRANCH  55  58
ATOM     58  S   UNL     1       3.367  -4.688  10.503  1.00  0.00     0.127 S 
ATOM     59  O   UNL     1       3.325  -5.857  11.376  1.00  0.00    -0.237 OA
ATOM     60  O   UNL     1       3.396  -3.400  11.198  1.00  0.00    -0.237 OA
ATOM     61  O   UNL     1       2.483  -4.714   9.345  1.00  0.00    -0.744 OA
ENDBRANCH  55  58
ENDBRANCH  27  51
BRANCH  39  62
ATOM     62  C   UNL     1      10.494 -10.405   5.399  1.00  0.00     0.023 A 
ATOM     63  C   UNL     1       9.912 -11.469   6.118  1.00  0.00     0.012 A 
ATOM     64  C   UNL     1      11.894 -10.337   5.275  1.00  0.00     0.148 A 
ATOM     65  C   UNL     1      10.712 -12.429   6.736  1.00  0.00     0.002 A 
ATOM     66  C   UNL     1      12.684 -11.322   5.858  1.00  0.00     0.091 A 
ATOM     67  F   UNL     1      12.431  -9.305   4.608  1.00  0.00    -0.205 F 
ATOM     68  C   UNL     1      12.096 -12.361   6.598  1.00  0.00     0.022 A 
BRANCH  66  69
ATOM     69  S   UNL     1      14.469 -11.352   5.659  1.00  0.00     0.127 S 
ATOM     70  O   UNL     1      14.921 -10.786   6.928  1.00  0.00    -0.237 OA
ATOM     71  O   UNL     1      14.745 -12.780   5.495  1.00  0.00    -0.237 OA
ATOM     72  O   UNL     1      14.745 -10.549   4.475  1.00  0.00    -0.744 OA
ENDBRANCH  66  69
ENDBRANCH  39  62
ENDBRANCH  13  14
ENDBRANCH   6   8
ENDBRANCH   3   4
ENDBRANCH   2   3
ENDBRANCH   1   2
BRANCH   1  73
ATOM     73  C   UNL     1       4.851   3.472  -2.644  1.00  0.00     0.116 C 
BRANCH  73  74
ATOM     74  N   UNL     1       6.246   3.703  -2.346  1.00  0.00    -0.352 N 
ATOM     75  C   UNL     1       6.893   4.907  -2.247  1.00  0.00     0.253 C 
ATOM     76  H   UNL     1       6.797   2.900  -2.196  1.00  0.00     0.163 HD
ATOM     77  O   UNL     1       8.054   4.966  -1.854  1.00  0.00    -0.269 OA
BRANCH  75  78
ATOM     78  C   UNL     1       6.248   6.146  -2.726  1.00  0.00     0.077 A 
ATOM     79  C   UNL     1       6.828   6.620  -3.927  1.00  0.00     0.102 A 
ATOM     80  C   UNL     1       5.202   6.838  -2.059  1.00  0.00     0.129 A 
ATOM     81  C   UNL     1       6.364   7.793  -4.516  1.00  0.00     0.277 A 
ATOM     82  C   UNL     1       4.795   8.031  -2.705  1.00  0.00     0.300 A 
ATOM     83  C   UNL     1       5.340   8.510  -3.911  1.00  0.00     0.173 A 
BRANCH  80  84
ATOM     84  N   UNL     1       4.617   6.417  -0.857  1.00  0.00    -0.365 N 
BRANCH  84  85
ATOM     85  C   UNL     1       3.255   5.864  -0.875  1.00  0.00     0.117 C 
BRANCH  85  86
ATOM     86  C   UNL     1       2.241   6.711  -0.110  1.00  0.00     0.021 C 
BRANCH  86  87
ATOM     87  C   UNL     1       2.387   6.695   1.407  1.00  0.00     0.002 CG0
ATOM     88  G   UNL     1       3.775   7.073   1.917  1.00  0.00     0.000 G0
ENDBRANCH  86  87
ENDBRANCH  85  86
ENDBRANCH  84  85
BRANCH  84  89
ATOM     89  C   UNL     1       5.511   6.129   0.274  1.00  0.00     0.117 C 
BRANCH  89  90
ATOM     90  C   UNL     1       4.811   5.993   1.624  1.00  0.00     0.021 C 
BRANCH  90  91
ATOM     91  C   UNL     1       3.775   7.073   1.917  1.00  0.00     0.002 CG0
ATOM     92  G   UNL     1       2.387   6.695   1.407  1.00  0.00     0.000 G0
ENDBRANCH  90  91
ENDBRANCH  89  90
ENDBRANCH  84  89
ENDBRANCH  80  84
BRANCH  81  93
ATOM     93  N   UNL     1       6.966   8.284  -5.761  1.00  0.00     0.062 N 
ATOM     94  O   UNL     1       7.858   7.600  -6.280  1.00  0.00    -0.258 OA
ATOM     95  O   UNL     1       6.538   9.352  -6.220  1.00  0.00    -0.258 OA
ENDBRANCH  81  93
BRANCH  82  96
ATOM     96  N   UNL     1       3.822   8.910  -2.095  1.00  0.00     0.065 N 
ATOM     97  O   UNL     1       2.725   8.995  -2.667  1.00  0.00    -0.258 OA
ATOM     98  O   UNL     1       4.189   9.581  -1.123  1.00  0.00    -0.258 OA
ENDBRANCH  82  96
ENDBRANCH  75  78
ENDBRANCH  73  74
ENDBRANCH   1  73
TORSDOF 17
