REMARK SMILES CS(=O)(=O)c1ccc(N2N=C(C(=O)NCCCCNC(=O)c3ccc(-c4c5nc(c(-c6cccc(S(=O)(=O)[O-])c6F)c6ccc([nH]6)c(-c6cccc(S(=O)(=O)[O-])c6F)c6nc(c(-c7cccc(S(=O)(=O)[O-])c7F)c7ccc4[nH]7)C=C6)C=C5)cc3)C[C@H]2c2cccs2)cc1
REMARK SMILES IDX 17 1 16 2 15 3 14 4 12 5 13 6 11 8 9 9 10 10 86 11 85 12
REMARK SMILES IDX 8 13 5 14 6 15 93 16 7 17 92 18 2 19 1 20 3 21 4 22 87 23
REMARK SMILES IDX 88 24 91 25 89 26 90 27 18 28 19 29 20 30 21 32 22 33 23 34
REMARK SMILES IDX 84 35 24 36 83 37 25 38 26 39 27 40 77 41 28 42 82 43 76 44
REMARK SMILES IDX 78 45 29 46 81 47 75 48 74 49 30 51 62 52 42 53 61 54 43 55
REMARK SMILES IDX 46 56 60 57 79 58 44 59 45 60 59 62 80 63 47 64 31 65 32 66
REMARK SMILES IDX 40 67 33 68 35 69 41 70 34 71 36 72 37 73 38 74 39 75 63 76
REMARK SMILES IDX 64 77 72 78 65 79 67 80 73 81 66 82 68 83 69 84 70 85 71 86
REMARK SMILES IDX 48 87 49 88 57 89 50 90 52 91 58 92 51 93 53 94 54 95 55 96
REMARK SMILES IDX 56 97
REMARK H PARENT 14 7 19 31 78 50 46 61
REMARK Flexibility Score: inf
ROOT
ATOM      1  C   UNL     1       1.952  -7.044  11.718  1.00  0.00     0.023 C 
ENDROOT
BRANCH   1   2
ATOM      2  C   UNL     1       1.314  -5.844  11.022  1.00  0.00     0.023 C 
BRANCH   2   3
ATOM      3  C   UNL     1       2.283  -4.714  10.694  1.00  0.00     0.116 C 
BRANCH   3   4
ATOM      4  N   UNL     1       3.093  -5.021   9.532  1.00  0.00    -0.351 N 
ATOM      5  C   UNL     1       3.229  -4.477   8.279  1.00  0.00     0.267 C 
ATOM      6  O   UNL     1       3.985  -5.041   7.490  1.00  0.00    -0.268 OA
ATOM      7  H   UNL     1       3.680  -5.799   9.673  1.00  0.00     0.163 HD
BRANCH   5   8
ATOM      8  C   UNL     1       2.534  -3.204   7.816  1.00  0.00     0.128 C 
ATOM      9  N   UNL     1       2.124  -1.497   6.582  1.00  0.00    -0.256 N 
ATOM     10  N   UNL     1       2.800  -2.680   6.656  1.00  0.00    -0.171 NA
ATOM     11  C   UNL     1       1.227  -1.273   7.723  1.00  0.00     0.154 C 
ATOM     12  C   UNL     1       1.505  -2.485   8.616  1.00  0.00     0.097 C 
BRANCH   9  13
ATOM     13  C   UNL     1       1.770  -0.985   5.330  1.00  0.00     0.060 A 
ATOM     14  C   UNL     1       0.929   0.105   2.881  1.00  0.00     0.067 A 
ATOM     15  C   UNL     1       0.836  -1.272   3.094  1.00  0.00     0.022 A 
ATOM     16  C   UNL     1       1.459   0.939   3.865  1.00  0.00     0.022 A 
ATOM     17  C   UNL     1       1.273  -1.810   4.310  1.00  0.00     0.029 A 
ATOM     18  C   UNL     1       1.875   0.390   5.079  1.00  0.00     0.029 A 
BRANCH  14  19
ATOM     19  S   UNL     1       0.356   0.811   1.357  1.00  0.00     0.175 S 
ATOM     20  C   UNL     1       1.162  -0.121   0.084  1.00  0.00     0.163 C 
ATOM     21  O   UNL     1       0.869   2.168   1.281  1.00  0.00    -0.224 OA
ATOM     22  O   UNL     1      -1.068   0.553   1.283  1.00  0.00    -0.224 OA
ENDBRANCH  14  19
ENDBRANCH   9  13
BRANCH  11  23
ATOM     23  C   UNL     1       1.340   0.068   8.434  1.00  0.00     0.030 A 
ATOM     24  C   UNL     1       0.616   1.216   8.158  1.00  0.00     0.017 A 
ATOM     25  S   UNL     1       2.453   0.357   9.714  1.00  0.00    -0.147 S 
ATOM     26  C   UNL     1       0.938   2.299   9.026  1.00  0.00     0.012 A 
ATOM     27  C   UNL     1       1.884   1.945   9.958  1.00  0.00     0.065 A 
ENDBRANCH  11  23
ENDBRANCH   5   8
ENDBRANCH   3   4
ENDBRANCH   2   3
ENDBRANCH   1   2
BRANCH   1  28
ATOM     28  C   UNL     1       2.703  -6.728  13.009  1.00  0.00     0.116 C 
BRANCH  28  29
ATOM     29  N   UNL     1       1.912  -5.972  13.972  1.00  0.00    -0.352 N 
ATOM     30  C   UNL     1       1.803  -6.150  15.331  1.00  0.00     0.251 C 
ATOM     31  H   UNL     1       1.383  -5.231  13.597  1.00  0.00     0.163 HD
ATOM     32  O   UNL     1       1.002  -5.479  15.975  1.00  0.00    -0.269 OA
BRANCH  30  33
ATOM     33  C   UNL     1       2.627  -7.177  15.999  1.00  0.00     0.039 A 
ATOM     34  C   UNL     1       2.007  -8.078  16.867  1.00  0.00     0.014 A 
ATOM     35  C   UNL     1       3.995  -7.280  15.732  1.00  0.00     0.014 A 
ATOM     36  C   UNL     1       2.745  -9.133  17.405  1.00  0.00     0.010 A 
ATOM     37  C   UNL     1       4.708  -8.376  16.206  1.00  0.00     0.010 A 
ATOM     38  C   UNL     1       4.091  -9.317  17.044  1.00  0.00    -0.014 A 
BRANCH  38  39
ATOM     39  C   UNL     1       4.846 -10.513  17.496  1.00  0.00     0.031 A 
ATOM     40  C   UNL     1       6.071 -10.371  18.357  1.00  0.00     0.074 A 
ATOM     41  C   UNL     1       4.480 -11.730  17.046  1.00  0.00     0.049 A 
ATOM     42  N   UNL     1       6.853 -11.304  18.833  1.00  0.00    -0.248 NA
ATOM     43  C   UNL     1       6.491  -9.003  18.701  1.00  0.00     0.031 C 
ATOM     44  C   UNL     1       3.382 -11.990  16.113  1.00  0.00     0.029 A 
ATOM     45  N   UNL     1       5.009 -12.973  17.290  1.00  0.00    -0.354 N 
ATOM     46  C   UNL     1       7.875 -10.641  19.499  1.00  0.00     0.074 A 
ATOM     47  C   UNL     1       7.633  -9.224  19.337  1.00  0.00     0.031 C 
ATOM     48  C   UNL     1       3.316 -13.308  15.867  1.00  0.00     0.029 A 
ATOM     49  C   UNL     1       4.378 -13.984  16.604  1.00  0.00     0.049 A 
ATOM     50  H   UNL     1       5.769 -13.126  17.897  1.00  0.00     0.167 HD
ATOM     51  C   UNL     1       8.906 -11.162  20.207  1.00  0.00     0.034 A 
ATOM     52  C   UNL     1       4.626 -15.308  16.570  1.00  0.00     0.034 A 
ATOM     53  C   UNL     1       9.118 -12.571  20.403  1.00  0.00     0.049 A 
ATOM     54  C   UNL     1       5.727 -15.869  17.425  1.00  0.00     0.074 A 
ATOM     55  C   UNL     1      10.056 -13.196  21.206  1.00  0.00     0.029 A 
ATOM     56  N   UNL     1       8.396 -13.575  19.777  1.00  0.00    -0.354 N 
ATOM     57  N   UNL     1       6.559 -15.236  18.216  1.00  0.00    -0.248 NA
ATOM     58  C   UNL     1       5.898 -17.329  17.417  1.00  0.00     0.031 C 
ATOM     59  C   UNL     1       9.919 -14.580  21.041  1.00  0.00     0.029 A 
ATOM     60  C   UNL     1       8.878 -14.816  20.158  1.00  0.00     0.049 A 
ATOM     61  H   UNL     1       7.649 -13.427  19.152  1.00  0.00     0.167 HD
ATOM     62  C   UNL     1       7.338 -16.219  18.816  1.00  0.00     0.074 A 
ATOM     63  C   UNL     1       6.855 -17.492  18.321  1.00  0.00     0.031 C 
ATOM     64  C   UNL     1       8.370 -16.079  19.685  1.00  0.00     0.034 A 
BRANCH  51  65
ATOM     65  C   UNL     1       9.858 -10.196  20.866  1.00  0.00     0.023 A 
ATOM     66  C   UNL     1       9.423  -9.431  21.968  1.00  0.00     0.012 A 
ATOM     67  C   UNL     1      11.191 -10.078  20.427  1.00  0.00     0.148 A 
ATOM     68  C   UNL     1      10.286  -8.534  22.597  1.00  0.00     0.002 A 
ATOM     69  C   UNL     1      12.059  -9.216  21.089  1.00  0.00     0.091 A 
ATOM     70  F   UNL     1      11.581 -10.794  19.363  1.00  0.00    -0.205 F 
ATOM     71  C   UNL     1      11.605  -8.435  22.164  1.00  0.00     0.022 A 
BRANCH  69  72
ATOM     72  S   UNL     1      13.797  -9.078  20.657  1.00  0.00     0.127 S 
ATOM     73  O   UNL     1      13.831  -7.779  19.986  1.00  0.00    -0.237 OA
ATOM     74  O   UNL     1      14.444  -9.103  21.969  1.00  0.00    -0.237 OA
ATOM     75  O   UNL     1      14.091 -10.229  19.815  1.00  0.00    -0.744 OA
ENDBRANCH  69  72
ENDBRANCH  51  65
BRANCH  52  76
ATOM     76  C   UNL     1       3.761 -16.196  15.742  1.00  0.00     0.023 A 
ATOM     77  C   UNL     1       2.847 -17.060  16.374  1.00  0.00     0.012 A 
ATOM     78  C   UNL     1       3.800 -16.145  14.335  1.00  0.00     0.148 A 
ATOM     79  C   UNL     1       2.003 -17.876  15.620  1.00  0.00     0.002 A 
ATOM     80  C   UNL     1       2.917 -16.917  13.591  1.00  0.00     0.091 A 
ATOM     81  F   UNL     1       4.685 -15.322  13.755  1.00  0.00    -0.205 F 
ATOM     82  C   UNL     1       2.029 -17.796  14.230  1.00  0.00     0.022 A 
BRANCH  80  83
ATOM     83  S   UNL     1       2.780 -16.772  11.806  1.00  0.00     0.127 S 
ATOM     84  O   UNL     1       3.314 -18.056  11.359  1.00  0.00    -0.237 OA
ATOM     85  O   UNL     1       1.336 -16.608  11.628  1.00  0.00    -0.237 OA
ATOM     86  O   UNL     1       3.564 -15.599  11.444  1.00  0.00    -0.744 OA
ENDBRANCH  80  83
ENDBRANCH  52  76
BRANCH  64  87
ATOM     87  C   UNL     1       9.048 -17.336  20.166  1.00  0.00     0.023 A 
ATOM     88  C   UNL     1       9.859 -18.074  19.281  1.00  0.00     0.012 A 
ATOM     89  C   UNL     1       8.928 -17.756  21.506  1.00  0.00     0.148 A 
ATOM     90  C   UNL     1      10.509 -19.231  19.711  1.00  0.00     0.002 A 
ATOM     91  C   UNL     1       9.618 -18.882  21.940  1.00  0.00     0.091 A 
ATOM     92  F   UNL     1       8.136 -17.053  22.329  1.00  0.00    -0.205 F 
ATOM     93  C   UNL     1      10.397 -19.628  21.041  1.00  0.00     0.022 A 
BRANCH  91  94
ATOM     94  S   UNL     1       9.607 -19.410  23.657  1.00  0.00     0.127 S 
ATOM     95  O   UNL     1       8.717 -20.569  23.607  1.00  0.00    -0.237 OA
ATOM     96  O   UNL     1      11.015 -19.732  23.894  1.00  0.00    -0.237 OA
ATOM     97  O   UNL     1       9.114 -18.272  24.421  1.00  0.00    -0.744 OA
ENDBRANCH  91  94
ENDBRANCH  64  87
ENDBRANCH  38  39
ENDBRANCH  30  33
ENDBRANCH  28  29
ENDBRANCH   1  28
TORSDOF 17
