REMARK SMILES Cc1nsc(N[C@H](C)c2cccs2)c1C(=O)NCCCCNC(=O)c1ccc(-c2c3nc(c(-c4cccc(S(=O)(=O)[O-])c4F)c4ccc([nH]4)c(-c4cccc(S(=O)(=O)[O-])c4F)c4nc(c(-c5cccc(S(=O)(=O)[O-])c5F)c5ccc2[nH]5)C=C4)C=C3)cc1
REMARK SMILES IDX 19 1 18 2 17 3 15 4 16 5 14 7 1 8 2 9 3 10 4 11 5 12 6 13
REMARK SMILES IDX 7 15 8 16 9 17 10 18 13 19 11 20 12 21 20 22 21 23 22 24
REMARK SMILES IDX 23 25 24 27 25 28 26 29 87 30 27 31 86 32 28 33 29 34 30 35
REMARK SMILES IDX 80 36 31 37 85 38 79 39 81 40 32 41 84 42 78 43 77 44 33 46
REMARK SMILES IDX 65 47 45 48 64 49 46 50 49 51 63 52 82 53 47 54 48 55 62 57
REMARK SMILES IDX 83 58 50 59 34 60 35 61 43 62 36 63 38 64 44 65 37 66 39 67
REMARK SMILES IDX 40 68 41 69 42 70 66 71 67 72 75 73 68 74 70 75 76 76 69 77
REMARK SMILES IDX 71 78 72 79 73 80 74 81 51 82 52 83 60 84 53 85 55 86 61 87
REMARK SMILES IDX 54 88 56 89 57 90 58 91 59 92
REMARK H PARENT 17 6 6 14 22 26 81 45 49 56
REMARK Flexibility Score: inf
ROOT
ATOM      1  C   UNL     1       6.177   5.588   8.841  1.00  0.00     0.023 C 
ENDROOT
BRANCH   1   2
ATOM      2  C   UNL     1       5.202   6.656   8.335  1.00  0.00     0.116 C 
BRANCH   2   3
ATOM      3  N   UNL     1       4.625   6.301   7.062  1.00  0.00    -0.352 N 
ATOM      4  C   UNL     1       3.500   5.690   6.585  1.00  0.00     0.256 C 
ATOM      5  O   UNL     1       3.525   5.620   5.346  1.00  0.00    -0.269 OA
ATOM      6  H   UNL     1       5.212   6.580   6.323  1.00  0.00     0.163 HD
BRANCH   4   7
ATOM      7  C   UNL     1       2.357   5.120   7.340  1.00  0.00     0.097 A 
ATOM      8  C   UNL     1       2.752   5.403   9.979  1.00  0.00     0.069 C 
ATOM      9  C   UNL     1       2.024   4.975   8.757  1.00  0.00     0.066 A 
ATOM     10  N   UNL     1       0.876   4.354   9.042  1.00  0.00    -0.195 NA
ATOM     11  S   UNL     1       0.092   3.978   7.663  1.00  0.00    -0.018 S 
ATOM     12  C   UNL     1       1.289   4.566   6.594  1.00  0.00     0.123 A 
BRANCH  12  13
ATOM     13  N   UNL     1       1.197   4.494   5.233  1.00  0.00    -0.368 N 
ATOM     14  H   UNL     1       2.018   4.674   4.720  1.00  0.00     0.162 HD
BRANCH  13  15
ATOM     15  C   UNL     1      -0.000   4.175   4.470  1.00  0.00     0.117 C 
ATOM     16  C   UNL     1       0.435   3.759   3.058  1.00  0.00     0.037 C 
BRANCH  15  17
ATOM     17  C   UNL     1      -1.049   5.263   4.383  1.00  0.00     0.027 A 
ATOM     18  C   UNL     1      -2.424   5.111   4.332  1.00  0.00     0.017 A 
ATOM     19  S   UNL     1      -0.609   6.920   4.305  1.00  0.00    -0.147 S 
ATOM     20  C   UNL     1      -3.111   6.356   4.245  1.00  0.00     0.012 A 
ATOM     21  C   UNL     1      -2.240   7.423   4.236  1.00  0.00     0.065 A 
ENDBRANCH  15  17
ENDBRANCH  13  15
ENDBRANCH  12  13
ENDBRANCH   4   7
ENDBRANCH   2   3
ENDBRANCH   1   2
BRANCH   1  22
ATOM     22  C   UNL     1       7.611   5.722   8.300  1.00  0.00     0.023 C 
BRANCH  22  23
ATOM     23  C   UNL     1       8.371   6.952   8.800  1.00  0.00     0.116 C 
BRANCH  23  24
ATOM     24  N   UNL     1       8.573   6.943  10.247  1.00  0.00    -0.352 N 
ATOM     25  C   UNL     1       8.895   8.014  11.062  1.00  0.00     0.251 C 
ATOM     26  H   UNL     1       8.467   6.073  10.695  1.00  0.00     0.163 HD
ATOM     27  O   UNL     1       9.383   7.847  12.164  1.00  0.00    -0.269 OA
BRANCH  25  28
ATOM     28  C   UNL     1       8.625   9.371  10.555  1.00  0.00     0.039 A 
ATOM     29  C   UNL     1       9.646  10.322  10.506  1.00  0.00     0.014 A 
ATOM     30  C   UNL     1       7.354   9.643  10.050  1.00  0.00     0.014 A 
ATOM     31  C   UNL     1       9.409  11.526   9.848  1.00  0.00     0.010 A 
ATOM     32  C   UNL     1       7.149  10.800   9.327  1.00  0.00     0.010 A 
ATOM     33  C   UNL     1       8.169  11.750   9.228  1.00  0.00    -0.014 A 
BRANCH  33  34
ATOM     34  C   UNL     1       8.013  12.887   8.313  1.00  0.00     0.031 A 
ATOM     35  C   UNL     1       9.008  12.934   7.200  1.00  0.00     0.074 A 
ATOM     36  C   UNL     1       6.922  13.684   8.296  1.00  0.00     0.049 A 
ATOM     37  N   UNL     1       9.880  13.856   6.949  1.00  0.00    -0.248 NA
ATOM     38  C   UNL     1       9.126  11.755   6.326  1.00  0.00     0.031 C 
ATOM     39  C   UNL     1       5.716  13.530   9.118  1.00  0.00     0.029 A 
ATOM     40  N   UNL     1       6.580  14.691   7.436  1.00  0.00    -0.354 N 
ATOM     41  C   UNL     1      10.476  13.488   5.740  1.00  0.00     0.074 A 
ATOM     42  C   UNL     1      10.131  12.110   5.524  1.00  0.00     0.031 C 
ATOM     43  C   UNL     1       4.696  14.200   8.544  1.00  0.00     0.029 A 
ATOM     44  C   UNL     1       5.217  14.973   7.433  1.00  0.00     0.049 A 
ATOM     45  H   UNL     1       7.233  15.169   6.875  1.00  0.00     0.167 HD
ATOM     46  C   UNL     1      10.943  14.431   4.874  1.00  0.00     0.034 A 
ATOM     47  C   UNL     1       4.535  15.762   6.572  1.00  0.00     0.034 A 
ATOM     48  C   UNL     1      11.020  15.721   5.508  1.00  0.00     0.049 A 
ATOM     49  C   UNL     1       5.492  16.704   5.960  1.00  0.00     0.074 A 
ATOM     50  C   UNL     1      11.813  16.354   6.435  1.00  0.00     0.029 A 
ATOM     51  N   UNL     1       9.878  16.460   5.363  1.00  0.00    -0.354 N 
ATOM     52  N   UNL     1       6.114  17.630   6.636  1.00  0.00    -0.248 NA
ATOM     53  C   UNL     1       6.004  16.457   4.618  1.00  0.00     0.031 C 
ATOM     54  C   UNL     1      11.014  17.402   6.983  1.00  0.00     0.029 A 
ATOM     55  C   UNL     1       9.767  17.388   6.359  1.00  0.00     0.049 A 
ATOM     56  H   UNL     1       9.223  16.340   4.638  1.00  0.00     0.167 HD
ATOM     57  C   UNL     1       7.338  17.734   6.004  1.00  0.00     0.074 A 
ATOM     58  C   UNL     1       7.135  17.166   4.679  1.00  0.00     0.031 C 
ATOM     59  C   UNL     1       8.478  17.938   6.723  1.00  0.00     0.034 A 
BRANCH  46  60
ATOM     60  C   UNL     1      10.872  14.364   3.352  1.00  0.00     0.023 A 
ATOM     61  C   UNL     1      11.441  15.450   2.640  1.00  0.00     0.012 A 
ATOM     62  C   UNL     1      10.022  13.508   2.617  1.00  0.00     0.148 A 
ATOM     63  C   UNL     1      11.120  15.713   1.303  1.00  0.00     0.002 A 
ATOM     64  C   UNL     1       9.759  13.734   1.268  1.00  0.00     0.091 A 
ATOM     65  F   UNL     1       9.343  12.540   3.236  1.00  0.00    -0.205 F 
ATOM     66  C   UNL     1      10.277  14.854   0.614  1.00  0.00     0.022 A 
BRANCH  64  67
ATOM     67  S   UNL     1       8.697  12.634   0.321  1.00  0.00     0.127 S 
ATOM     68  O   UNL     1       7.476  13.426   0.220  1.00  0.00    -0.237 OA
ATOM     69  O   UNL     1       9.450  12.488  -0.925  1.00  0.00    -0.237 OA
ATOM     70  O   UNL     1       8.608  11.410   1.109  1.00  0.00    -0.744 OA
ENDBRANCH  64  67
ENDBRANCH  46  60
BRANCH  47  71
ATOM     71  C   UNL     1       3.117  15.707   6.163  1.00  0.00     0.023 A 
ATOM     72  C   UNL     1       2.456  16.879   5.749  1.00  0.00     0.012 A 
ATOM     73  C   UNL     1       2.483  14.464   5.944  1.00  0.00     0.148 A 
ATOM     74  C   UNL     1       1.216  16.814   5.103  1.00  0.00     0.002 A 
ATOM     75  C   UNL     1       1.249  14.404   5.305  1.00  0.00     0.091 A 
ATOM     76  F   UNL     1       3.132  13.344   6.292  1.00  0.00    -0.205 F 
ATOM     77  C   UNL     1       0.618  15.578   4.872  1.00  0.00     0.022 A 
BRANCH  75  78
ATOM     78  S   UNL     1       0.421  12.848   4.949  1.00  0.00     0.127 S 
ATOM     79  O   UNL     1      -0.910  13.080   5.511  1.00  0.00    -0.237 OA
ATOM     80  O   UNL     1       0.470  12.809   3.489  1.00  0.00    -0.237 OA
ATOM     81  O   UNL     1       1.194  11.822   5.636  1.00  0.00    -0.744 OA
ENDBRANCH  75  78
ENDBRANCH  47  71
BRANCH  59  82
ATOM     82  C   UNL     1       8.350  18.564   8.080  1.00  0.00     0.023 A 
ATOM     83  C   UNL     1       7.705  17.924   9.157  1.00  0.00     0.012 A 
ATOM     84  C   UNL     1       8.997  19.791   8.302  1.00  0.00     0.148 A 
ATOM     85  C   UNL     1       7.687  18.510  10.425  1.00  0.00     0.002 A 
ATOM     86  C   UNL     1       9.019  20.346   9.574  1.00  0.00     0.091 A 
ATOM     87  F   UNL     1       9.599  20.388   7.262  1.00  0.00    -0.205 F 
ATOM     88  C   UNL     1       8.355  19.714  10.637  1.00  0.00     0.022 A 
BRANCH  86  89
ATOM     89  S   UNL     1       9.967  21.826   9.927  1.00  0.00     0.127 S 
ATOM     90  O   UNL     1       8.925  22.848   9.998  1.00  0.00    -0.237 OA
ATOM     91  O   UNL     1      10.594  21.500  11.209  1.00  0.00    -0.237 OA
ATOM     92  O   UNL     1      10.912  21.965   8.825  1.00  0.00    -0.744 OA
ENDBRANCH  86  89
ENDBRANCH  59  82
ENDBRANCH  33  34
ENDBRANCH  25  28
ENDBRANCH  23  24
ENDBRANCH  22  23
ENDBRANCH   1  22
TORSDOF 17
