REMARK SMILES NS(=O)(=O)c1ccc(-n2nc(C(=O)NCCCCCCCCCCC(=O)NCCCCNC(=O)c3ccc(-c4c5nc(c(-c6cccc(S(=O)(=O)[O-])c6F)c6ccc([nH]6)c(-c6cccc(S(=O)(=O)[O-])c6F)c6nc(c(-c7cccc(S(=O)(=O)[O-])c7F)c7ccc4[nH]7)C=C6)C=C5)cc3)cc2-c2ccccc2)cc1
REMARK SMILES IDX 22 1 21 2 20 3 19 4 18 5 17 6 16 7 15 8 14 9 12 10 13 11
REMARK SMILES IDX 11 13 9 14 10 15 99 16 98 17 8 18 5 19 6 20 107 21 7 22
REMARK SMILES IDX 106 23 2 24 3 25 4 26 1 27 100 30 101 31 105 32 102 33
REMARK SMILES IDX 104 34 103 35 23 36 24 37 25 38 26 39 27 40 28 42 29 43
REMARK SMILES IDX 30 44 31 45 32 46 33 47 34 49 35 50 36 51 97 52 37 53 96 54
REMARK SMILES IDX 38 55 39 56 40 57 90 58 41 59 95 60 89 61 91 62 42 63 94 64
REMARK SMILES IDX 88 65 87 66 43 68 75 69 55 70 74 71 56 72 59 73 73 74 92 75
REMARK SMILES IDX 57 76 58 77 72 79 93 80 60 81 44 82 45 83 53 84 46 85 48 86
REMARK SMILES IDX 54 87 47 88 49 89 50 90 51 91 52 92 76 93 77 94 85 95 78 96
REMARK SMILES IDX 80 97 86 98 79 99 81 100 82 101 83 102 84 103 61 104 62 105
REMARK SMILES IDX 70 106 63 107 65 108 71 109 64 110 66 111 67 112 68 113
REMARK SMILES IDX 69 114
REMARK H PARENT 14 12 1 28 1 29 27 41 32 48 91 67 59 78
REMARK Flexibility Score: inf
ROOT
ATOM      1  C   UNL     1       5.809  -7.649  14.360  1.00  0.00     0.001 C 
ENDROOT
BRANCH   1   2
ATOM      2  C   UNL     1       6.172  -6.185  14.094  1.00  0.00     0.000 C 
BRANCH   2   3
ATOM      3  C   UNL     1       5.896  -5.785  12.652  1.00  0.00     0.000 C 
BRANCH   3   4
ATOM      4  C   UNL     1       4.410  -5.863  12.297  1.00  0.00     0.000 C 
BRANCH   4   5
ATOM      5  C   UNL     1       3.526  -4.961  13.169  1.00  0.00     0.000 C 
BRANCH   5   6
ATOM      6  C   UNL     1       3.816  -3.465  12.992  1.00  0.00     0.002 C 
BRANCH   6   7
ATOM      7  C   UNL     1       3.877  -3.033  11.523  1.00  0.00     0.021 C 
BRANCH   7   8
ATOM      8  C   UNL     1       2.603  -3.419  10.775  1.00  0.00     0.116 C 
BRANCH   8   9
ATOM      9  N   UNL     1       1.664  -2.329  10.809  1.00  0.00    -0.351 N 
ATOM     10  C   UNL     1       1.309  -1.399   9.868  1.00  0.00     0.271 C 
ATOM     11  O   UNL     1       0.479  -0.558  10.224  1.00  0.00    -0.267 OA
ATOM     12  H   UNL     1       1.190  -2.235  11.667  1.00  0.00     0.163 HD
BRANCH  10  13
ATOM     13  C   UNL     1       1.838  -1.458   8.490  1.00  0.00     0.151 A 
ATOM     14  N   UNL     1       1.789  -1.146   6.368  1.00  0.00    -0.232 N 
ATOM     15  N   UNL     1       1.265  -0.710   7.528  1.00  0.00    -0.162 NA
ATOM     16  C   UNL     1       2.785  -2.084   6.557  1.00  0.00     0.075 A 
ATOM     17  C   UNL     1       2.914  -2.185   7.925  1.00  0.00     0.065 A 
BRANCH  14  18
ATOM     18  C   UNL     1       1.334  -0.609   5.147  1.00  0.00     0.065 A 
ATOM     19  C   UNL     1       0.676   0.487   2.698  1.00  0.00     0.082 A 
ATOM     20  C   UNL     1       0.719  -0.904   2.839  1.00  0.00     0.024 A 
ATOM     21  C   UNL     1       0.923   1.333   3.784  1.00  0.00     0.024 A 
ATOM     22  C   UNL     1       1.068  -1.456   4.066  1.00  0.00     0.030 A 
ATOM     23  C   UNL     1       1.219   0.781   5.028  1.00  0.00     0.030 A 
BRANCH  19  24
ATOM     24  S   UNL     1       0.386   1.188   1.106  1.00  0.00     0.238 S 
ATOM     25  O   UNL     1       1.140   2.424   0.990  1.00  0.00    -0.207 OA
ATOM     26  O   UNL     1      -1.014   1.096   0.803  1.00  0.00    -0.207 OA
BRANCH  24  27
ATOM     27  N   UNL     1       1.166   0.118   0.067  1.00  0.00    -0.225 NA
ATOM     28  H   UNL     1       1.057   0.437  -0.895  1.00  0.00     0.137 HD
ATOM     29  H   UNL     1       0.757  -0.811   0.166  1.00  0.00     0.137 HD
ENDBRANCH  24  27
ENDBRANCH  19  24
ENDBRANCH  14  18
BRANCH  16  30
ATOM     30  C   UNL     1       3.621  -2.686   5.529  1.00  0.00     0.000 A 
ATOM     31  C   UNL     1       4.533  -1.906   4.810  1.00  0.00     0.010 A 
ATOM     32  C   UNL     1       3.543  -4.062   5.279  1.00  0.00     0.010 A 
ATOM     33  C   UNL     1       5.350  -2.493   3.845  1.00  0.00     0.001 A 
ATOM     34  C   UNL     1       4.359  -4.646   4.309  1.00  0.00     0.001 A 
ATOM     35  C   UNL     1       5.261  -3.861   3.594  1.00  0.00     0.000 A 
ENDBRANCH  16  30
ENDBRANCH  10  13
ENDBRANCH   8   9
ENDBRANCH   7   8
ENDBRANCH   6   7
ENDBRANCH   5   6
ENDBRANCH   4   5
ENDBRANCH   3   4
ENDBRANCH   2   3
ENDBRANCH   1   2
BRANCH   1  36
ATOM     36  C   UNL     1       7.007  -8.551  14.600  1.00  0.00     0.010 C 
BRANCH  36  37
ATOM     37  C   UNL     1       7.890  -8.149  15.779  1.00  0.00     0.100 C 
BRANCH  37  38
ATOM     38  C   UNL     1       7.390  -8.649  17.121  1.00  0.00     0.219 C 
ATOM     39  O   UNL     1       7.714  -9.771  17.520  1.00  0.00    -0.275 OA
ATOM     40  N   UNL     1       6.565  -7.904  17.909  1.00  0.00    -0.356 N 
ATOM     41  H   UNL     1       6.418  -8.279  18.807  1.00  0.00     0.163 HD
BRANCH  40  42
ATOM     42  C   UNL     1       5.861  -6.655  17.664  1.00  0.00     0.116 C 
BRANCH  42  43
ATOM     43  C   UNL     1       4.353  -6.895  17.427  1.00  0.00     0.023 C 
BRANCH  43  44
ATOM     44  C   UNL     1       3.455  -7.000  18.663  1.00  0.00     0.023 C 
BRANCH  44  45
ATOM     45  C   UNL     1       3.224  -5.684  19.381  1.00  0.00     0.116 C 
BRANCH  45  46
ATOM     46  N   UNL     1       2.418  -4.718  18.614  1.00  0.00    -0.352 N 
ATOM     47  C   UNL     1       2.134  -3.405  18.974  1.00  0.00     0.251 C 
ATOM     48  H   UNL     1       2.043  -5.034  17.760  1.00  0.00     0.163 HD
ATOM     49  O   UNL     1       1.185  -2.790  18.508  1.00  0.00    -0.269 OA
BRANCH  47  50
ATOM     50  C   UNL     1       3.074  -2.762  19.904  1.00  0.00     0.039 A 
ATOM     51  C   UNL     1       2.687  -2.070  21.056  1.00  0.00     0.014 A 
ATOM     52  C   UNL     1       4.409  -3.031  19.630  1.00  0.00     0.014 A 
ATOM     53  C   UNL     1       3.677  -1.713  21.970  1.00  0.00     0.010 A 
ATOM     54  C   UNL     1       5.304  -2.942  20.647  1.00  0.00     0.010 A 
ATOM     55  C   UNL     1       4.984  -2.170  21.752  1.00  0.00    -0.014 A 
BRANCH  55  56
ATOM     56  C   UNL     1       6.083  -1.943  22.674  1.00  0.00     0.031 A 
ATOM     57  C   UNL     1       5.892  -2.560  24.012  1.00  0.00     0.074 A 
ATOM     58  C   UNL     1       7.271  -1.483  22.215  1.00  0.00     0.049 A 
ATOM     59  N   UNL     1       5.679  -1.954  25.131  1.00  0.00    -0.248 NA
ATOM     60  C   UNL     1       5.732  -4.022  24.094  1.00  0.00     0.031 C 
ATOM     61  C   UNL     1       7.673  -1.201  20.824  1.00  0.00     0.029 A 
ATOM     62  N   UNL     1       8.438  -1.323  22.883  1.00  0.00    -0.354 N 
ATOM     63  C   UNL     1       5.627  -2.956  26.099  1.00  0.00     0.074 A 
ATOM     64  C   UNL     1       5.405  -4.180  25.379  1.00  0.00     0.031 C 
ATOM     65  C   UNL     1       9.021  -1.175  20.736  1.00  0.00     0.029 A 
ATOM     66  C   UNL     1       9.570  -1.254  22.075  1.00  0.00     0.049 A 
ATOM     67  H   UNL     1       8.483  -1.259  23.864  1.00  0.00     0.167 HD
ATOM     68  C   UNL     1       6.054  -2.721  27.373  1.00  0.00     0.034 A 
ATOM     69  C   UNL     1      10.862  -1.314  22.487  1.00  0.00     0.034 A 
ATOM     70  C   UNL     1       6.255  -1.304  27.580  1.00  0.00     0.049 A 
ATOM     71  C   UNL     1      10.859  -0.990  23.934  1.00  0.00     0.074 A 
ATOM     72  C   UNL     1       5.453  -0.181  27.518  1.00  0.00     0.029 A 
ATOM     73  N   UNL     1       7.550  -0.849  27.483  1.00  0.00    -0.354 N 
ATOM     74  N   UNL     1      10.494   0.173  24.402  1.00  0.00    -0.248 NA
ATOM     75  C   UNL     1      10.764  -2.101  24.867  1.00  0.00     0.031 C 
ATOM     76  C   UNL     1       6.269   0.812  26.897  1.00  0.00     0.029 A 
ATOM     77  C   UNL     1       7.543   0.276  26.701  1.00  0.00     0.049 A 
ATOM     78  H   UNL     1       8.341  -1.259  27.901  1.00  0.00     0.167 HD
ATOM     79  C   UNL     1       9.693  -0.133  25.495  1.00  0.00     0.074 A 
ATOM     80  C   UNL     1       9.972  -1.542  25.788  1.00  0.00     0.031 C 
ATOM     81  C   UNL     1       8.652   0.675  25.859  1.00  0.00     0.034 A 
BRANCH  68  82
ATOM     82  C   UNL     1       6.684  -3.732  28.316  1.00  0.00     0.023 A 
ATOM     83  C   UNL     1       7.044  -3.253  29.599  1.00  0.00     0.012 A 
ATOM     84  C   UNL     1       7.191  -5.000  27.953  1.00  0.00     0.148 A 
ATOM     85  C   UNL     1       7.939  -3.941  30.425  1.00  0.00     0.002 A 
ATOM     86  C   UNL     1       8.036  -5.710  28.803  1.00  0.00     0.091 A 
ATOM     87  F   UNL     1       6.958  -5.501  26.741  1.00  0.00    -0.205 F 
ATOM     88  C   UNL     1       8.442  -5.168  30.023  1.00  0.00     0.022 A 
BRANCH  86  89
ATOM     89  S   UNL     1       8.698  -7.323  28.354  1.00  0.00     0.127 S 
ATOM     90  O   UNL     1      10.104  -7.005  28.122  1.00  0.00    -0.237 OA
ATOM     91  O   UNL     1       8.428  -8.101  29.563  1.00  0.00    -0.237 OA
ATOM     92  O   UNL     1       7.940  -7.752  27.185  1.00  0.00    -0.744 OA
ENDBRANCH  86  89
ENDBRANCH  68  82
BRANCH  69  93
ATOM     93  C   UNL     1      12.033  -1.930  21.816  1.00  0.00     0.023 A 
ATOM     94  C   UNL     1      13.342  -1.570  22.197  1.00  0.00     0.012 A 
ATOM     95  C   UNL     1      11.873  -3.075  21.003  1.00  0.00     0.148 A 
ATOM     96  C   UNL     1      14.448  -2.338  21.804  1.00  0.00     0.002 A 
ATOM     97  C   UNL     1      12.974  -3.832  20.610  1.00  0.00     0.091 A 
ATOM     98  F   UNL     1      10.632  -3.476  20.696  1.00  0.00    -0.205 F 
ATOM     99  C   UNL     1      14.264  -3.473  21.018  1.00  0.00     0.022 A 
BRANCH  97 100
ATOM    100  S   UNL     1      12.803  -5.323  19.619  1.00  0.00     0.127 S 
ATOM    101  O   UNL     1      13.788  -5.097  18.561  1.00  0.00    -0.237 OA
ATOM    102  O   UNL     1      13.160  -6.364  20.578  1.00  0.00    -0.237 OA
ATOM    103  O   UNL     1      11.420  -5.335  19.156  1.00  0.00    -0.744 OA
ENDBRANCH  97 100
ENDBRANCH  69  93
BRANCH  81 104
ATOM    104  C   UNL     1       8.508   2.010  25.165  1.00  0.00     0.023 A 
ATOM    105  C   UNL     1       8.211   2.131  23.789  1.00  0.00     0.012 A 
ATOM    106  C   UNL     1       8.481   3.164  25.962  1.00  0.00     0.148 A 
ATOM    107  C   UNL     1       7.911   3.374  23.222  1.00  0.00     0.002 A 
ATOM    108  C   UNL     1       8.138   4.390  25.405  1.00  0.00     0.091 A 
ATOM    109  F   UNL     1       8.755   3.034  27.268  1.00  0.00    -0.205 F 
ATOM    110  C   UNL     1       7.861   4.503  24.034  1.00  0.00     0.022 A 
BRANCH 108 111
ATOM    111  S   UNL     1       7.934   5.852  26.423  1.00  0.00     0.127 S 
ATOM    112  O   UNL     1       9.121   6.630  26.078  1.00  0.00    -0.237 OA
ATOM    113  O   UNL     1       6.672   6.406  25.927  1.00  0.00    -0.237 OA
ATOM    114  O   UNL     1       7.873   5.378  27.800  1.00  0.00    -0.744 OA
ENDBRANCH 108 111
ENDBRANCH  81 104
ENDBRANCH  55  56
ENDBRANCH  47  50
ENDBRANCH  45  46
ENDBRANCH  44  45
ENDBRANCH  43  44
ENDBRANCH  42  43
ENDBRANCH  40  42
ENDBRANCH  37  38
ENDBRANCH  36  37
ENDBRANCH   1  36
TORSDOF 29
