REMARK SMILES CC1=Nc2c(c(C)nn2-c2ccc(F)cc2)[C@H](c2ccc(C(=O)NCCCCNC(=O)c3ccc(-c4c5nc(c(-c6cccc(S(=O)(=O)[O-])c6F)c6ccc([nH]6)c(-c6cccc(S(=O)(=O)[O-])c6F)c6nc(c(-c7cccc(S(=O)(=O)[O-])c7F)c7ccc4[nH]7)C=C6)C=C5)cc3)cc2)S1
REMARK SMILES IDX 27 1 26 2 25 3 24 4 22 5 23 6 21 8 18 9 19 10 96 11 20 12
REMARK SMILES IDX 95 13 17 14 1 15 2 16 3 17 97 18 4 19 5 20 9 21 6 22 8 23
REMARK SMILES IDX 7 24 10 25 11 26 16 27 12 28 15 29 13 30 14 31 28 32 29 33
REMARK SMILES IDX 30 34 31 36 32 37 33 38 94 39 34 40 93 41 35 42 36 43 37 44
REMARK SMILES IDX 87 45 38 46 92 47 86 48 88 49 39 50 91 51 85 52 84 53 40 55
REMARK SMILES IDX 72 56 52 57 71 58 53 59 56 60 70 61 89 62 54 63 55 64 69 66
REMARK SMILES IDX 90 67 57 68 41 69 42 70 50 71 43 72 45 73 51 74 44 75 46 76
REMARK SMILES IDX 47 77 48 78 49 79 73 80 74 81 82 82 75 83 77 84 83 85 76 86
REMARK SMILES IDX 78 87 79 88 80 89 81 90 58 91 59 92 67 93 60 94 62 95 68 96
REMARK SMILES IDX 61 97 63 98 64 99 65 100 66 101
REMARK H PARENT 24 7 29 35 88 54 56 65
REMARK Flexibility Score: inf
ROOT
ATOM      1  C   UNL     1      -3.570   0.939   7.943  1.00  0.00     0.023 C 
ENDROOT
BRANCH   1   2
ATOM      2  C   UNL     1      -3.218   0.846   6.450  1.00  0.00     0.023 C 
BRANCH   2   3
ATOM      3  C   UNL     1      -4.379   1.127   5.487  1.00  0.00     0.116 C 
BRANCH   3   4
ATOM      4  N   UNL     1      -4.735   2.531   5.503  1.00  0.00    -0.352 N 
ATOM      5  C   UNL     1      -4.436   3.563   4.654  1.00  0.00     0.251 C 
ATOM      6  O   UNL     1      -4.834   4.692   4.938  1.00  0.00    -0.269 OA
ATOM      7  H   UNL     1      -5.296   2.792   6.268  1.00  0.00     0.163 HD
BRANCH   5   8
ATOM      8  C   UNL     1      -3.679   3.377   3.390  1.00  0.00     0.039 A 
ATOM      9  C   UNL     1      -2.292   3.210   0.921  1.00  0.00    -0.030 A 
ATOM     10  C   UNL     1      -3.390   4.073   1.079  1.00  0.00     0.006 A 
ATOM     11  C   UNL     1      -1.898   2.444   2.032  1.00  0.00     0.006 A 
ATOM     12  C   UNL     1      -4.066   4.164   2.298  1.00  0.00     0.014 A 
ATOM     13  C   UNL     1      -2.577   2.534   3.252  1.00  0.00     0.014 A 
BRANCH   9  14
ATOM     14  C   UNL     1      -1.550   3.192  -0.407  1.00  0.00     0.119 C 
ATOM     15  C   UNL     1       0.917  -0.121  -0.190  1.00  0.00     0.075 C 
ATOM     16  C   UNL     1       0.494   1.312  -0.383  1.00  0.00     0.074 C 
ATOM     17  N   UNL     1       1.341   2.240  -0.068  1.00  0.00    -0.227 NA
ATOM     18  S   UNL     1      -1.137   1.520  -1.005  1.00  0.00    -0.098 SA
ATOM     19  C   UNL     1       0.927   3.530  -0.117  1.00  0.00     0.161 A 
ATOM     20  C   UNL     1      -0.347   4.038  -0.216  1.00  0.00     0.038 A 
ATOM     21  N   UNL     1       1.766   4.617   0.068  1.00  0.00    -0.215 N 
ATOM     22  C   UNL     1      -0.195   5.441  -0.064  1.00  0.00     0.067 A 
ATOM     23  N   UNL     1       1.076   5.777   0.199  1.00  0.00    -0.171 NA
ATOM     24  C   UNL     1      -1.238   6.498  -0.118  1.00  0.00     0.069 C 
BRANCH  21  25
ATOM     25  C   UNL     1       3.180   4.603   0.108  1.00  0.00     0.067 A 
ATOM     26  C   UNL     1       3.890   3.783  -0.782  1.00  0.00     0.031 A 
ATOM     27  C   UNL     1       3.856   5.396   1.042  1.00  0.00     0.031 A 
ATOM     28  C   UNL     1       5.282   3.752  -0.730  1.00  0.00     0.041 A 
ATOM     29  C   UNL     1       5.247   5.316   1.123  1.00  0.00     0.041 A 
ATOM     30  C   UNL     1       5.946   4.502   0.234  1.00  0.00     0.123 A 
ATOM     31  F   UNL     1       7.282   4.439   0.308  1.00  0.00    -0.207 F 
ENDBRANCH  21  25
ENDBRANCH   9  14
ENDBRANCH   5   8
ENDBRANCH   3   4
ENDBRANCH   2   3
ENDBRANCH   1   2
BRANCH   1  32
ATOM     32  C   UNL     1      -4.511  -0.149   8.448  1.00  0.00     0.116 C 
BRANCH  32  33
ATOM     33  N   UNL     1      -3.946  -1.492   8.301  1.00  0.00    -0.352 N 
ATOM     34  C   UNL     1      -4.604  -2.702   8.362  1.00  0.00     0.251 C 
ATOM     35  H   UNL     1      -2.977  -1.536   8.139  1.00  0.00     0.163 HD
ATOM     36  O   UNL     1      -3.988  -3.740   8.606  1.00  0.00    -0.269 OA
BRANCH  34  37
ATOM     37  C   UNL     1      -6.053  -2.736   8.117  1.00  0.00     0.039 A 
ATOM     38  C   UNL     1      -6.912  -3.470   8.936  1.00  0.00     0.014 A 
ATOM     39  C   UNL     1      -6.549  -1.967   7.066  1.00  0.00     0.014 A 
ATOM     40  C   UNL     1      -8.286  -3.347   8.746  1.00  0.00     0.010 A 
ATOM     41  C   UNL     1      -7.900  -1.740   6.968  1.00  0.00     0.010 A 
ATOM     42  C   UNL     1      -8.776  -2.456   7.776  1.00  0.00    -0.014 A 
BRANCH  42  43
ATOM     43  C   UNL     1     -10.205  -2.162   7.699  1.00  0.00     0.031 A 
ATOM     44  C   UNL     1     -10.814  -1.722   8.985  1.00  0.00     0.074 A 
ATOM     45  C   UNL     1     -10.886  -2.084   6.534  1.00  0.00     0.049 A 
ATOM     46  N   UNL     1     -11.630  -2.388   9.734  1.00  0.00    -0.248 NA
ATOM     47  C   UNL     1     -10.340  -0.469   9.591  1.00  0.00     0.031 C 
ATOM     48  C   UNL     1     -10.352  -2.169   5.169  1.00  0.00     0.029 A 
ATOM     49  N   UNL     1     -12.193  -1.763   6.323  1.00  0.00    -0.354 N 
ATOM     50  C   UNL     1     -11.978  -1.522  10.771  1.00  0.00     0.074 A 
ATOM     51  C   UNL     1     -10.992  -0.476  10.757  1.00  0.00     0.031 C 
ATOM     52  C   UNL     1     -11.246  -1.647   4.301  1.00  0.00     0.029 A 
ATOM     53  C   UNL     1     -12.476  -1.372   5.016  1.00  0.00     0.049 A 
ATOM     54  H   UNL     1     -12.876  -1.804   7.030  1.00  0.00     0.167 HD
ATOM     55  C   UNL     1     -13.206  -1.594  11.359  1.00  0.00     0.034 A 
ATOM     56  C   UNL     1     -13.630  -0.821   4.568  1.00  0.00     0.034 A 
ATOM     57  C   UNL     1     -13.875  -2.823  11.003  1.00  0.00     0.049 A 
ATOM     58  C   UNL     1     -14.682  -1.190   5.538  1.00  0.00     0.074 A 
ATOM     59  C   UNL     1     -13.604  -4.170  11.123  1.00  0.00     0.029 A 
ATOM     60  N   UNL     1     -14.869  -2.716  10.061  1.00  0.00    -0.354 N 
ATOM     61  N   UNL     1     -15.087  -2.414   5.733  1.00  0.00    -0.248 NA
ATOM     62  C   UNL     1     -15.012  -0.242   6.588  1.00  0.00     0.031 C 
ATOM     63  C   UNL     1     -14.117  -4.755   9.928  1.00  0.00     0.029 A 
ATOM     64  C   UNL     1     -14.732  -3.748   9.180  1.00  0.00     0.049 A 
ATOM     65  H   UNL     1     -15.560  -2.016  10.028  1.00  0.00     0.167 HD
ATOM     66  C   UNL     1     -15.290  -2.487   7.103  1.00  0.00     0.074 A 
ATOM     67  C   UNL     1     -15.361  -1.098   7.550  1.00  0.00     0.031 C 
ATOM     68  C   UNL     1     -15.081  -3.655   7.779  1.00  0.00     0.034 A 
BRANCH  55  69
ATOM     69  C   UNL     1     -14.011  -0.415  11.888  1.00  0.00     0.023 A 
ATOM     70  C   UNL     1     -15.269  -0.717  12.468  1.00  0.00     0.012 A 
ATOM     71  C   UNL     1     -13.768   0.943  11.584  1.00  0.00     0.148 A 
ATOM     72  C   UNL     1     -16.264   0.252  12.628  1.00  0.00     0.002 A 
ATOM     73  C   UNL     1     -14.734   1.918  11.818  1.00  0.00     0.091 A 
ATOM     74  F   UNL     1     -12.653   1.305  10.950  1.00  0.00    -0.205 F 
ATOM     75  C   UNL     1     -15.997   1.573  12.300  1.00  0.00     0.022 A 
BRANCH  73  76
ATOM     76  S   UNL     1     -14.426   3.654  11.462  1.00  0.00     0.127 S 
ATOM     77  O   UNL     1     -15.254   3.857  10.277  1.00  0.00    -0.237 OA
ATOM     78  O   UNL     1     -14.917   4.297  12.682  1.00  0.00    -0.237 OA
ATOM     79  O   UNL     1     -12.986   3.765  11.267  1.00  0.00    -0.744 OA
ENDBRANCH  73  76
ENDBRANCH  55  69
BRANCH  56  80
ATOM     80  C   UNL     1     -13.862   0.208   3.527  1.00  0.00     0.023 A 
ATOM     81  C   UNL     1     -15.166   0.390   3.021  1.00  0.00     0.012 A 
ATOM     82  C   UNL     1     -12.902   1.212   3.272  1.00  0.00     0.148 A 
ATOM     83  C   UNL     1     -15.520   1.561   2.341  1.00  0.00     0.002 A 
ATOM     84  C   UNL     1     -13.260   2.375   2.595  1.00  0.00     0.091 A 
ATOM     85  F   UNL     1     -11.669   1.068   3.775  1.00  0.00    -0.205 F 
ATOM     86  C   UNL     1     -14.573   2.560   2.143  1.00  0.00     0.022 A 
BRANCH  84  87
ATOM     87  S   UNL     1     -12.104   3.729   2.337  1.00  0.00     0.127 S 
ATOM     88  O   UNL     1     -12.268   3.996   0.907  1.00  0.00    -0.237 OA
ATOM     89  O   UNL     1     -12.646   4.759   3.219  1.00  0.00    -0.237 OA
ATOM     90  O   UNL     1     -10.794   3.207   2.702  1.00  0.00    -0.744 OA
ENDBRANCH  84  87
ENDBRANCH  56  80
BRANCH  68  91
ATOM     91  C   UNL     1     -14.950  -4.931   6.991  1.00  0.00     0.023 A 
ATOM     92  C   UNL     1     -13.866  -5.184   6.125  1.00  0.00     0.012 A 
ATOM     93  C   UNL     1     -15.826  -5.980   7.315  1.00  0.00     0.148 A 
ATOM     94  C   UNL     1     -13.663  -6.463   5.596  1.00  0.00     0.002 A 
ATOM     95  C   UNL     1     -15.588  -7.259   6.835  1.00  0.00     0.091 A 
ATOM     96  F   UNL     1     -16.854  -5.713   8.135  1.00  0.00    -0.205 F 
ATOM     97  C   UNL     1     -14.512  -7.505   5.968  1.00  0.00     0.022 A 
BRANCH  95  98
ATOM     98  S   UNL     1     -16.547  -8.664   7.404  1.00  0.00     0.127 S 
ATOM     99  O   UNL     1     -17.349  -8.985   6.226  1.00  0.00    -0.237 OA
ATOM    100  O   UNL     1     -15.507  -9.644   7.723  1.00  0.00    -0.237 OA
ATOM    101  O   UNL     1     -17.298  -8.197   8.563  1.00  0.00    -0.744 OA
ENDBRANCH  95  98
ENDBRANCH  68  91
ENDBRANCH  42  43
ENDBRANCH  34  37
ENDBRANCH  32  33
ENDBRANCH   1  32
TORSDOF 16
