REMARK SMILES COc1cccc([C@@H]2[NH2+][C@@](C)(C(=O)NCCCCNC(=O)c3ccc(-c4c5nc(c(-c6cccc(S(=O)(=O)[O-])c6F)c6ccc([nH]6)c(-c6cccc(S(=O)(=O)[O-])c6F)c6nc(c(-c7cccc(S(=O)(=O)[O-])c7F)c7ccc4[nH]7)C=C6)C=C5)cc3)[C@@H]3C(=O)N(C)C(=O)[C@@H]32)c1O
REMARK SMILES IDX 17 1 16 2 15 3 14 4 12 5 13 6 10 8 8 9 9 10 92 11 85 14
REMARK SMILES IDX 90 15 11 16 86 17 88 18 91 19 87 20 89 21 7 22 3 23 4 24
REMARK SMILES IDX 93 25 5 26 6 27 2 28 1 29 94 30 18 32 19 33 20 34 21 36
REMARK SMILES IDX 22 37 23 38 84 39 24 40 83 41 25 42 26 43 27 44 77 45 28 46
REMARK SMILES IDX 82 47 76 48 78 49 29 50 81 51 75 52 74 53 30 55 62 56 42 57
REMARK SMILES IDX 61 58 43 59 46 60 60 61 79 62 44 63 45 64 59 66 80 67 47 68
REMARK SMILES IDX 31 69 32 70 40 71 33 72 35 73 41 74 34 75 36 76 37 77 38 78
REMARK SMILES IDX 39 79 63 80 64 81 72 82 65 83 67 84 73 85 66 86 68 87 69 88
REMARK SMILES IDX 70 89 71 90 48 91 49 92 57 93 50 94 52 95 58 96 51 97 53 98
REMARK SMILES IDX 54 99 55 100 56 101
REMARK H PARENT 14 7 9 12 9 13 94 31 19 35 78 54 46 65
REMARK Flexibility Score: inf
ROOT
ATOM      1  C   UNL     1       7.505  -7.190  -1.793  1.00  0.00     0.023 C 
ENDROOT
BRANCH   1   2
ATOM      2  C   UNL     1       6.680  -6.107  -1.097  1.00  0.00     0.023 C 
BRANCH   2   3
ATOM      3  C   UNL     1       6.181  -4.997  -2.015  1.00  0.00     0.116 C 
BRANCH   3   4
ATOM      4  N   UNL     1       5.247  -5.484  -3.017  1.00  0.00    -0.351 N 
ATOM      5  C   UNL     1       3.973  -5.080  -3.304  1.00  0.00     0.281 C 
ATOM      6  O   UNL     1       3.380  -5.680  -4.205  1.00  0.00    -0.268 OA
ATOM      7  H   UNL     1       5.585  -6.220  -3.576  1.00  0.00     0.163 HD
BRANCH   5   8
ATOM      8  C   UNL     1       3.316  -3.875  -2.556  1.00  0.00     0.185 C 
ATOM      9  C   UNL     1       2.036  -4.628  -0.650  1.00  0.00     0.232 C 
ATOM     10  N   UNL     1       3.362  -4.155  -1.097  1.00  0.00    -0.326 N 
ATOM     11  C   UNL     1       1.137  -4.696  -1.893  1.00  0.00     0.161 C 
ATOM     12  H   UNL     1       4.061  -4.874  -0.910  1.00  0.00     0.347 HD
ATOM     13  H   UNL     1       3.609  -3.304  -0.593  1.00  0.00     0.347 HD
ATOM     14  C   UNL     1       1.829  -3.810  -2.921  1.00  0.00     0.169 C 
ATOM     15  C   UNL     1      -0.222  -4.064  -1.753  1.00  0.00     0.239 C 
ATOM     16  C   UNL     1       4.094  -2.610  -2.952  1.00  0.00     0.091 C 
ATOM     17  C   UNL     1       1.081  -2.508  -2.771  1.00  0.00     0.240 C 
ATOM     18  N   UNL     1      -0.145  -2.785  -2.235  1.00  0.00    -0.285 N 
ATOM     19  O   UNL     1      -1.195  -4.583  -1.236  1.00  0.00    -0.274 OA
ATOM     20  O   UNL     1       1.483  -1.389  -3.058  1.00  0.00    -0.274 OA
ATOM     21  C   UNL     1      -1.200  -1.816  -2.062  1.00  0.00     0.156 C 
BRANCH   9  22
ATOM     22  C   UNL     1       1.495  -3.826   0.534  1.00  0.00     0.056 A 
ATOM     23  C   UNL     1       0.905  -1.718   1.649  1.00  0.00     0.161 A 
ATOM     24  C   UNL     1       0.254  -2.450   2.646  1.00  0.00     0.050 A 
ATOM     25  C   UNL     1       1.565  -2.417   0.630  1.00  0.00     0.166 A 
ATOM     26  C   UNL     1       0.226  -3.844   2.610  1.00  0.00     0.005 A 
ATOM     27  C   UNL     1       0.824  -4.524   1.552  1.00  0.00     0.014 A 
BRANCH  23  28
ATOM     28  O   UNL     1       0.855  -0.365   1.845  1.00  0.00    -0.493 OA
ATOM     29  C   UNL     1       0.950   0.476   0.705  1.00  0.00     0.278 C 
ENDBRANCH  23  28
BRANCH  25  30
ATOM     30  O   UNL     1       2.391  -1.772  -0.249  1.00  0.00    -0.504 OA
ATOM     31  H   UNL     1       2.468  -0.839  -0.221  1.00  0.00     0.293 HD
ENDBRANCH  25  30
ENDBRANCH   9  22
ENDBRANCH   5   8
ENDBRANCH   3   4
ENDBRANCH   2   3
ENDBRANCH   1   2
BRANCH   1  32
ATOM     32  C   UNL     1       8.671  -6.681  -2.635  1.00  0.00     0.116 C 
BRANCH  32  33
ATOM     33  N   UNL     1       9.638  -5.909  -1.863  1.00  0.00    -0.352 N 
ATOM     34  C   UNL     1      10.990  -6.111  -1.710  1.00  0.00     0.251 C 
ATOM     35  H   UNL     1       9.270  -5.133  -1.383  1.00  0.00     0.163 HD
ATOM     36  O   UNL     1      11.629  -5.434  -0.910  1.00  0.00    -0.269 OA
BRANCH  34  37
ATOM     37  C   UNL     1      11.662  -7.175  -2.486  1.00  0.00     0.039 A 
ATOM     38  C   UNL     1      12.458  -8.101  -1.809  1.00  0.00     0.014 A 
ATOM     39  C   UNL     1      11.459  -7.290  -3.864  1.00  0.00     0.014 A 
ATOM     40  C   UNL     1      12.967  -9.205  -2.498  1.00  0.00     0.010 A 
ATOM     41  C   UNL     1      11.906  -8.428  -4.531  1.00  0.00     0.010 A 
ATOM     42  C   UNL     1      12.645  -9.408  -3.850  1.00  0.00    -0.014 A 
BRANCH  42  43
ATOM     43  C   UNL     1      12.992 -10.676  -4.544  1.00  0.00     0.031 A 
ATOM     44  C   UNL     1      13.894 -10.673  -5.746  1.00  0.00     0.074 A 
ATOM     45  C   UNL     1      12.393 -11.822  -4.155  1.00  0.00     0.049 A 
ATOM     46  N   UNL     1      14.229 -11.669  -6.525  1.00  0.00    -0.248 NA
ATOM     47  C   UNL     1      14.480  -9.381  -6.140  1.00  0.00     0.031 C 
ATOM     48  C   UNL     1      11.433 -11.942  -3.055  1.00  0.00     0.029 A 
ATOM     49  N   UNL     1      12.469 -13.095  -4.666  1.00  0.00    -0.354 N 
ATOM     50  C   UNL     1      15.030 -11.123  -7.520  1.00  0.00     0.074 A 
ATOM     51  C   UNL     1      15.120  -9.703  -7.256  1.00  0.00     0.031 C 
ATOM     52  C   UNL     1      11.002 -13.211  -2.981  1.00  0.00     0.029 A 
ATOM     53  C   UNL     1      11.620 -13.987  -4.051  1.00  0.00     0.049 A 
ATOM     54  H   UNL     1      13.074 -13.345  -5.401  1.00  0.00     0.167 HD
ATOM     55  C   UNL     1      15.648 -11.751  -8.548  1.00  0.00     0.034 A 
ATOM     56  C   UNL     1      11.343 -15.275  -4.332  1.00  0.00     0.034 A 
ATOM     57  C   UNL     1      15.585 -13.169  -8.787  1.00  0.00     0.049 A 
ATOM     58  C   UNL     1      12.059 -15.948  -5.471  1.00  0.00     0.074 A 
ATOM     59  C   UNL     1      16.270 -13.909  -9.735  1.00  0.00     0.029 A 
ATOM     60  N   UNL     1      14.776 -14.056  -8.095  1.00  0.00    -0.354 N 
ATOM     61  N   UNL     1      12.962 -15.455  -6.284  1.00  0.00    -0.248 NA
ATOM     62  C   UNL     1      11.741 -17.363  -5.716  1.00  0.00     0.031 C 
ATOM     63  C   UNL     1      15.843 -15.237  -9.645  1.00  0.00     0.029 A 
ATOM     64  C   UNL     1      14.920 -15.331  -8.616  1.00  0.00     0.049 A 
ATOM     65  H   UNL     1      14.187 -13.815  -7.344  1.00  0.00     0.167 HD
ATOM     66  C   UNL     1      13.334 -16.501  -7.120  1.00  0.00     0.074 A 
ATOM     67  C   UNL     1      12.585 -17.664  -6.694  1.00  0.00     0.031 C 
ATOM     68  C   UNL     1      14.202 -16.493  -8.161  1.00  0.00     0.034 A 
BRANCH  55  69
ATOM     69  C   UNL     1      16.488 -10.923  -9.484  1.00  0.00     0.023 A 
ATOM     70  C   UNL     1      17.732 -10.423  -9.050  1.00  0.00     0.012 A 
ATOM     71  C   UNL     1      16.091 -10.726 -10.822  1.00  0.00     0.148 A 
ATOM     72  C   UNL     1      18.559  -9.722  -9.925  1.00  0.00     0.002 A 
ATOM     73  C   UNL     1      16.941 -10.065 -11.700  1.00  0.00     0.091 A 
ATOM     74  F   UNL     1      14.896 -11.194 -11.209  1.00  0.00    -0.205 F 
ATOM     75  C   UNL     1      18.170  -9.554 -11.252  1.00  0.00     0.022 A 
BRANCH  73  76
ATOM     76  S   UNL     1      16.570  -9.867 -13.447  1.00  0.00     0.127 S 
ATOM     77  O   UNL     1      16.386  -8.419 -13.546  1.00  0.00    -0.237 OA
ATOM     78  O   UNL     1      17.790 -10.371 -14.077  1.00  0.00    -0.237 OA
ATOM     79  O   UNL     1      15.377 -10.662 -13.700  1.00  0.00    -0.744 OA
ENDBRANCH  73  76
ENDBRANCH  55  69
BRANCH  56  80
ATOM     80  C   UNL     1      10.348 -16.024  -3.512  1.00  0.00     0.023 A 
ATOM     81  C   UNL     1      10.778 -17.078  -2.683  1.00  0.00     0.012 A 
ATOM     82  C   UNL     1       8.979 -15.692  -3.544  1.00  0.00     0.148 A 
ATOM     83  C   UNL     1       9.860 -17.813  -1.932  1.00  0.00     0.002 A 
ATOM     84  C   UNL     1       8.078 -16.388  -2.747  1.00  0.00     0.091 A 
ATOM     85  F   UNL     1       8.585 -14.695  -4.350  1.00  0.00    -0.205 F 
ATOM     86  C   UNL     1       8.513 -17.462  -1.956  1.00  0.00     0.022 A 
BRANCH  84  87
ATOM     87  S   UNL     1       6.351 -15.913  -2.612  1.00  0.00     0.127 S 
ATOM     88  O   UNL     1       5.687 -16.990  -3.342  1.00  0.00    -0.237 OA
ATOM     89  O   UNL     1       6.145 -15.931  -1.163  1.00  0.00    -0.237 OA
ATOM     90  O   UNL     1       6.262 -14.589  -3.212  1.00  0.00    -0.744 OA
ENDBRANCH  84  87
ENDBRANCH  56  80
BRANCH  68  91
ATOM     91  C   UNL     1      14.408 -17.783  -8.911  1.00  0.00     0.023 A 
ATOM     92  C   UNL     1      13.389 -18.272  -9.752  1.00  0.00     0.012 A 
ATOM     93  C   UNL     1      15.637 -18.469  -8.843  1.00  0.00     0.148 A 
ATOM     94  C   UNL     1      13.577 -19.440 -10.490  1.00  0.00     0.002 A 
ATOM     95  C   UNL     1      15.837 -19.603  -9.621  1.00  0.00     0.091 A 
ATOM     96  F   UNL     1      16.589 -17.995  -8.027  1.00  0.00    -0.205 F 
ATOM     97  C   UNL     1      14.804 -20.098 -10.434  1.00  0.00     0.022 A 
BRANCH  95  98
ATOM     98  S   UNL     1      17.411 -20.466  -9.688  1.00  0.00     0.127 S 
ATOM     99  O   UNL     1      17.083 -21.736  -9.042  1.00  0.00    -0.237 OA
ATOM    100  O   UNL     1      17.650 -20.558 -11.129  1.00  0.00    -0.237 OA
ATOM    101  O   UNL     1      18.361 -19.631  -8.967  1.00  0.00    -0.744 OA
ENDBRANCH  95  98
ENDBRANCH  68  91
ENDBRANCH  42  43
ENDBRANCH  34  37
ENDBRANCH  32  33
ENDBRANCH   1  32
TORSDOF 17
