REMARK SMILES CC(C)(C(=O)NCCCCNC(=O)c1ccc(-c2c3nc(c(-c4cccc(S(=O)(=O)[O-])c4F)c4ccc([nH]4)c(-c4cccc(S(=O)(=O)[O-])c4F)c4nc(c(-c5cccc(S(=O)(=O)[O-])c5F)c5ccc2[nH]5)C=C4)C=C3)cc1)c1ccc(NS(=O)(=O)c2c(F)cc(F)cc2F)cc1
REMARK SMILES IDX 8 1 7 2 6 3 4 4 5 5 2 7 1 8 3 9 77 10 78 11 95 12 79 13
REMARK SMILES IDX 94 14 80 15 81 16 82 18 83 19 84 20 85 21 86 22 92 23 87 24
REMARK SMILES IDX 88 25 91 26 93 27 89 28 90 29 9 30 10 31 11 32 12 33 13 35
REMARK SMILES IDX 14 36 15 37 76 38 16 39 75 40 17 41 18 42 19 43 69 44 20 45
REMARK SMILES IDX 74 46 68 47 70 48 21 49 73 50 67 51 66 52 22 54 54 55 34 56
REMARK SMILES IDX 53 57 35 58 38 59 52 60 71 61 36 62 37 63 51 65 72 66 39 67
REMARK SMILES IDX 23 68 24 69 32 70 25 71 27 72 33 73 26 74 28 75 29 76 30 77
REMARK SMILES IDX 31 78 55 79 56 80 64 81 57 82 59 83 65 84 58 85 60 86 61 87
REMARK SMILES IDX 62 88 63 89 40 90 41 91 49 92 42 93 44 94 50 95 43 96 45 97
REMARK SMILES IDX 46 98 47 99 48 100
REMARK H PARENT 6 6 81 17 11 34 70 53 38 64
REMARK Flexibility Score: inf
ROOT
ATOM      1  C   UNL     1      -1.471   0.801   2.583  1.00  0.00     0.023 C 
ENDROOT
BRANCH   1   2
ATOM      2  C   UNL     1      -1.037  -0.608   2.200  1.00  0.00     0.116 C 
BRANCH   2   3
ATOM      3  N   UNL     1      -1.385  -0.953   0.836  1.00  0.00    -0.355 N 
ATOM      4  C   UNL     1      -0.636  -1.268  -0.260  1.00  0.00     0.230 C 
ATOM      5  O   UNL     1      -1.283  -1.583  -1.265  1.00  0.00    -0.274 OA
ATOM      6  H   UNL     1      -2.355  -0.961   0.666  1.00  0.00     0.163 HD
BRANCH   4   7
ATOM      7  C   UNL     1       0.927  -1.239  -0.263  1.00  0.00     0.068 C 
ATOM      8  C   UNL     1       1.428   0.181   0.081  1.00  0.00     0.026 C 
ATOM      9  C   UNL     1       1.463  -2.244   0.784  1.00  0.00     0.026 C 
BRANCH   7  10
ATOM     10  C   UNL     1       1.472  -1.611  -1.683  1.00  0.00    -0.033 A 
ATOM     11  C   UNL     1       2.197  -2.793  -1.918  1.00  0.00     0.007 A 
ATOM     12  C   UNL     1       1.247  -0.771  -2.793  1.00  0.00     0.007 A 
ATOM     13  C   UNL     1       2.688  -3.112  -3.185  1.00  0.00     0.027 A 
ATOM     14  C   UNL     1       1.688  -1.123  -4.081  1.00  0.00     0.027 A 
ATOM     15  C   UNL     1       2.389  -2.310  -4.279  1.00  0.00     0.049 A 
BRANCH  15  16
ATOM     16  N   UNL     1       2.838  -2.708  -5.582  1.00  0.00    -0.279 N 
ATOM     17  H   UNL     1       3.604  -2.253  -6.000  1.00  0.00     0.180 HD
BRANCH  16  18
ATOM     18  S   UNL     1       2.037  -3.977  -6.413  1.00  0.00     0.267 S 
ATOM     19  O   UNL     1       0.799  -3.429  -6.929  1.00  0.00    -0.201 OA
ATOM     20  O   UNL     1       3.019  -4.476  -7.352  1.00  0.00    -0.201 OA
BRANCH  18  21
ATOM     21  C   UNL     1       1.642  -5.249  -5.272  1.00  0.00     0.159 A 
ATOM     22  C   UNL     1       0.582  -5.074  -4.386  1.00  0.00     0.149 A 
ATOM     23  C   UNL     1       2.340  -6.453  -5.254  1.00  0.00     0.149 A 
ATOM     24  F   UNL     1      -0.151  -3.955  -4.400  1.00  0.00    -0.205 F 
ATOM     25  C   UNL     1       0.296  -6.029  -3.414  1.00  0.00     0.080 A 
ATOM     26  C   UNL     1       2.039  -7.436  -4.310  1.00  0.00     0.080 A 
ATOM     27  F   UNL     1       3.323  -6.720  -6.122  1.00  0.00    -0.205 F 
ATOM     28  C   UNL     1       1.035  -7.202  -3.380  1.00  0.00     0.129 A 
ATOM     29  F   UNL     1       0.782  -8.120  -2.440  1.00  0.00    -0.207 F 
ENDBRANCH  18  21
ENDBRANCH  16  18
ENDBRANCH  15  16
ENDBRANCH   7  10
ENDBRANCH   4   7
ENDBRANCH   2   3
ENDBRANCH   1   2
BRANCH   1  30
ATOM     30  C   UNL     1      -2.964   0.964   2.859  1.00  0.00     0.023 C 
BRANCH  30  31
ATOM     31  C   UNL     1      -3.549   0.013   3.898  1.00  0.00     0.116 C 
BRANCH  31  32
ATOM     32  N   UNL     1      -2.834   0.022   5.169  1.00  0.00    -0.352 N 
ATOM     33  C   UNL     1      -3.347   0.022   6.445  1.00  0.00     0.251 C 
ATOM     34  H   UNL     1      -1.852   0.030   5.104  1.00  0.00     0.163 HD
ATOM     35  O   UNL     1      -2.599   0.129   7.412  1.00  0.00    -0.269 OA
BRANCH  33  36
ATOM     36  C   UNL     1      -4.809  -0.070   6.636  1.00  0.00     0.039 A 
ATOM     37  C   UNL     1      -5.445   0.861   7.459  1.00  0.00     0.014 A 
ATOM     38  C   UNL     1      -5.551  -1.040   5.957  1.00  0.00     0.014 A 
ATOM     39  C   UNL     1      -6.839   0.868   7.541  1.00  0.00     0.010 A 
ATOM     40  C   UNL     1      -6.941  -0.981   5.979  1.00  0.00     0.010 A 
ATOM     41  C   UNL     1      -7.599  -0.027   6.769  1.00  0.00    -0.014 A 
BRANCH  41  42
ATOM     42  C   UNL     1      -9.084   0.029   6.757  1.00  0.00     0.031 A 
ATOM     43  C   UNL     1      -9.888  -1.149   7.234  1.00  0.00     0.074 A 
ATOM     44  C   UNL     1      -9.705   1.100   6.225  1.00  0.00     0.049 A 
ATOM     45  N   UNL     1     -11.185  -1.316   7.234  1.00  0.00    -0.248 NA
ATOM     46  C   UNL     1      -9.136  -2.306   7.749  1.00  0.00     0.031 C 
ATOM     47  C   UNL     1      -9.036   2.267   5.646  1.00  0.00     0.029 A 
ATOM     48  N   UNL     1     -11.041   1.367   6.054  1.00  0.00    -0.354 N 
ATOM     49  C   UNL     1     -11.402  -2.602   7.712  1.00  0.00     0.074 A 
ATOM     50  C   UNL     1     -10.102  -3.188   7.956  1.00  0.00     0.031 C 
ATOM     51  C   UNL     1      -9.962   3.124   5.186  1.00  0.00     0.029 A 
ATOM     52  C   UNL     1     -11.289   2.558   5.411  1.00  0.00     0.049 A 
ATOM     53  H   UNL     1     -11.755   0.763   6.363  1.00  0.00     0.167 HD
ATOM     54  C   UNL     1     -12.577  -3.229   7.960  1.00  0.00     0.034 A 
ATOM     55  C   UNL     1     -12.452   3.127   5.037  1.00  0.00     0.034 A 
ATOM     56  C   UNL     1     -13.867  -2.627   7.761  1.00  0.00     0.049 A 
ATOM     57  C   UNL     1     -13.745   2.432   5.371  1.00  0.00     0.074 A 
ATOM     58  C   UNL     1     -15.114  -3.144   8.066  1.00  0.00     0.029 A 
ATOM     59  N   UNL     1     -14.078  -1.376   7.202  1.00  0.00    -0.354 N 
ATOM     60  N   UNL     1     -13.932   1.285   5.976  1.00  0.00    -0.248 NA
ATOM     61  C   UNL     1     -14.987   3.128   5.005  1.00  0.00     0.031 C 
ATOM     62  C   UNL     1     -16.080  -2.212   7.674  1.00  0.00     0.029 A 
ATOM     63  C   UNL     1     -15.434  -1.105   7.147  1.00  0.00     0.049 A 
ATOM     64  H   UNL     1     -13.368  -0.770   6.890  1.00  0.00     0.167 HD
ATOM     65  C   UNL     1     -15.309   1.136   6.096  1.00  0.00     0.074 A 
ATOM     66  C   UNL     1     -15.908   2.323   5.519  1.00  0.00     0.031 C 
ATOM     67  C   UNL     1     -16.014   0.104   6.621  1.00  0.00     0.034 A 
BRANCH  54  68
ATOM     68  C   UNL     1     -12.517  -4.620   8.536  1.00  0.00     0.023 A 
ATOM     69  C   UNL     1     -12.089  -4.799   9.868  1.00  0.00     0.012 A 
ATOM     70  C   UNL     1     -12.928  -5.738   7.786  1.00  0.00     0.148 A 
ATOM     71  C   UNL     1     -12.035  -6.073  10.433  1.00  0.00     0.002 A 
ATOM     72  C   UNL     1     -12.915  -7.000   8.371  1.00  0.00     0.091 A 
ATOM     73  F   UNL     1     -13.310  -5.552   6.515  1.00  0.00    -0.205 F 
ATOM     74  C   UNL     1     -12.457  -7.170   9.688  1.00  0.00     0.022 A 
BRANCH  72  75
ATOM     75  S   UNL     1     -13.511  -8.466   7.523  1.00  0.00     0.127 S 
ATOM     76  O   UNL     1     -12.264  -9.181   7.255  1.00  0.00    -0.237 OA
ATOM     77  O   UNL     1     -14.362  -9.086   8.540  1.00  0.00    -0.237 OA
ATOM     78  O   UNL     1     -14.224  -7.987   6.347  1.00  0.00    -0.744 OA
ENDBRANCH  72  75
ENDBRANCH  54  68
BRANCH  55  79
ATOM     79  C   UNL     1     -12.447   4.459   4.369  1.00  0.00     0.023 A 
ATOM     80  C   UNL     1     -12.915   5.587   5.071  1.00  0.00     0.012 A 
ATOM     81  C   UNL     1     -11.953   4.621   3.060  1.00  0.00     0.148 A 
ATOM     82  C   UNL     1     -12.922   6.846   4.471  1.00  0.00     0.002 A 
ATOM     83  C   UNL     1     -11.911   5.888   2.489  1.00  0.00     0.091 A 
ATOM     84  F   UNL     1     -11.521   3.535   2.404  1.00  0.00    -0.205 F 
ATOM     85  C   UNL     1     -12.411   6.999   3.185  1.00  0.00     0.022 A 
BRANCH  83  86
ATOM     86  S   UNL     1     -11.145   6.199   0.893  1.00  0.00     0.127 S 
ATOM     87  O   UNL     1     -12.307   6.477   0.053  1.00  0.00    -0.237 OA
ATOM     88  O   UNL     1     -10.301   7.359   1.184  1.00  0.00    -0.237 OA
ATOM     89  O   UNL     1     -10.405   4.986   0.572  1.00  0.00    -0.744 OA
ENDBRANCH  83  86
ENDBRANCH  55  79
BRANCH  67  90
ATOM     90  C   UNL     1     -17.516   0.218   6.633  1.00  0.00     0.023 A 
ATOM     91  C   UNL     1     -18.238   0.088   5.430  1.00  0.00     0.012 A 
ATOM     92  C   UNL     1     -18.215   0.375   7.846  1.00  0.00     0.148 A 
ATOM     93  C   UNL     1     -19.631   0.142   5.431  1.00  0.00     0.002 A 
ATOM     94  C   UNL     1     -19.604   0.380   7.846  1.00  0.00     0.091 A 
ATOM     95  F   UNL     1     -17.509   0.516   8.978  1.00  0.00    -0.205 F 
ATOM     96  C   UNL     1     -20.314   0.276   6.638  1.00  0.00     0.022 A 
BRANCH  94  97
ATOM     97  S   UNL     1     -20.567   0.450   9.361  1.00  0.00     0.127 S 
ATOM     98  O   UNL     1     -21.088   1.815   9.319  1.00  0.00    -0.237 OA
ATOM     99  O   UNL     1     -21.569  -0.593   9.141  1.00  0.00    -0.237 OA
ATOM    100  O   UNL     1     -19.632   0.170  10.443  1.00  0.00    -0.744 OA
ENDBRANCH  94  97
ENDBRANCH  67  90
ENDBRANCH  41  42
ENDBRANCH  33  36
ENDBRANCH  31  32
ENDBRANCH  30  31
ENDBRANCH   1  30
TORSDOF 18
