REMARK SMILES Cc1ccc(Oc2ccc(NC(=O)CCCC(=O)NCCCCNC(=O)c3ccc(-c4c5nc(c(-c6cccc(S(=O)(=O)[O-])c6F)c6ccc([nH]6)c(-c6cccc(S(=O)(=O)[O-])c6F)c6nc(c(-c7cccc(S(=O)(=O)[O-])c7F)c7ccc4[nH]7)C=C6)C=C5)cc3)cc2)cc1C
REMARK SMILES IDX 20 1 19 2 17 3 18 4 16 6 15 7 14 8 12 9 11 10 13 12 10 13
REMARK SMILES IDX 7 14 8 15 91 16 9 17 90 18 6 19 5 20 1 21 2 22 3 23 93 24
REMARK SMILES IDX 4 25 92 26 94 27 21 28 22 29 23 30 24 31 25 32 26 34 27 35
REMARK SMILES IDX 28 36 89 37 29 38 88 39 30 40 31 41 32 42 82 43 33 44 87 45
REMARK SMILES IDX 81 46 83 47 34 48 86 49 80 50 79 51 35 53 67 54 47 55 66 56
REMARK SMILES IDX 48 57 51 58 65 59 84 60 49 61 50 62 64 64 85 65 52 66 36 67
REMARK SMILES IDX 37 68 45 69 38 70 40 71 46 72 39 73 41 74 42 75 43 76 44 77
REMARK SMILES IDX 68 78 69 79 77 80 70 81 72 82 78 83 71 84 73 85 74 86 75 87
REMARK SMILES IDX 76 88 53 89 54 90 62 91 55 92 57 93 63 94 56 95 58 96 59 97
REMARK SMILES IDX 60 98 61 99
REMARK H PARENT 19 5 11 11 24 33 83 52 51 63
REMARK Flexibility Score: inf
ROOT
ATOM      1  C   UNL     1      -6.914   0.370   3.205  1.00  0.00     0.116 C 
ENDROOT
BRANCH   1   2
ATOM      2  N   UNL     1      -6.946  -1.073   3.381  1.00  0.00    -0.356 N 
ATOM      3  C   UNL     1      -7.173  -2.173   2.633  1.00  0.00     0.220 C 
ATOM      4  O   UNL     1      -6.789  -3.232   3.152  1.00  0.00    -0.275 OA
ATOM      5  H   UNL     1      -6.744  -1.317   4.313  1.00  0.00     0.163 HD
BRANCH   3   6
ATOM      6  C   UNL     1      -7.769  -2.249   1.229  1.00  0.00     0.100 C 
BRANCH   6   7
ATOM      7  C   UNL     1      -9.126  -1.651   0.885  1.00  0.00     0.020 C 
BRANCH   7   8
ATOM      8  C   UNL     1      -9.332  -0.148   0.733  1.00  0.00     0.101 C 
BRANCH   8   9
ATOM      9  C   UNL     1      -9.161   0.576  -0.601  1.00  0.00     0.224 C 
ATOM     10  N   UNL     1      -8.033   0.790  -1.322  1.00  0.00    -0.326 N 
ATOM     11  H   UNL     1      -8.236   1.288  -2.147  1.00  0.00     0.169 HD
ATOM     12  O   UNL     1     -10.182   1.080  -1.103  1.00  0.00    -0.275 OA
BRANCH  10  13
ATOM     13  C   UNL     1      -6.662   0.510  -1.236  1.00  0.00     0.041 A 
ATOM     14  C   UNL     1      -3.959  -0.274  -1.287  1.00  0.00     0.127 A 
ATOM     15  C   UNL     1      -4.693  -0.395  -0.121  1.00  0.00     0.049 A 
ATOM     16  C   UNL     1      -4.537   0.302  -2.414  1.00  0.00     0.049 A 
ATOM     17  C   UNL     1      -6.025   0.026  -0.114  1.00  0.00     0.030 A 
ATOM     18  C   UNL     1      -5.879   0.710  -2.380  1.00  0.00     0.030 A 
BRANCH  14  19
ATOM     19  O   UNL     1      -2.730  -0.867  -1.380  1.00  0.00    -0.457 OA
BRANCH  19  20
ATOM     20  C   UNL     1      -1.645  -0.237  -0.816  1.00  0.00     0.127 A 
ATOM     21  C   UNL     1       2.106   1.548   0.340  1.00  0.00     0.044 C 
ATOM     22  C   UNL     1       0.798   0.878   0.015  1.00  0.00    -0.048 A 
ATOM     23  C   UNL     1      -0.361   1.667  -0.086  1.00  0.00     0.007 A 
ATOM     24  C   UNL     1       0.713  -0.504  -0.235  1.00  0.00    -0.045 A 
ATOM     25  C   UNL     1      -1.576   1.116  -0.499  1.00  0.00     0.047 A 
ATOM     26  C   UNL     1      -0.516  -1.045  -0.647  1.00  0.00     0.050 A 
ATOM     27  C   UNL     1       1.873  -1.444  -0.052  1.00  0.00     0.045 C 
ENDBRANCH  19  20
ENDBRANCH  14  19
ENDBRANCH  10  13
ENDBRANCH   8   9
ENDBRANCH   7   8
ENDBRANCH   6   7
ENDBRANCH   3   6
ENDBRANCH   1   2
BRANCH   1  28
ATOM     28  C   UNL     1      -7.673   1.122   4.298  1.00  0.00     0.023 C 
BRANCH  28  29
ATOM     29  C   UNL     1      -6.813   2.208   4.941  1.00  0.00     0.023 C 
BRANCH  29  30
ATOM     30  C   UNL     1      -6.344   3.294   3.974  1.00  0.00     0.116 C 
BRANCH  30  31
ATOM     31  N   UNL     1      -7.376   4.282   3.690  1.00  0.00    -0.352 N 
ATOM     32  C   UNL     1      -7.438   5.602   4.076  1.00  0.00     0.251 C 
ATOM     33  H   UNL     1      -8.132   3.961   3.147  1.00  0.00     0.163 HD
ATOM     34  O   UNL     1      -8.456   6.260   3.873  1.00  0.00    -0.269 OA
BRANCH  32  35
ATOM     35  C   UNL     1      -6.284   6.213   4.769  1.00  0.00     0.039 A 
ATOM     36  C   UNL     1      -6.489   6.871   5.983  1.00  0.00     0.014 A 
ATOM     37  C   UNL     1      -4.995   6.091   4.243  1.00  0.00     0.014 A 
ATOM     38  C   UNL     1      -5.389   7.331   6.713  1.00  0.00     0.010 A 
ATOM     39  C   UNL     1      -3.899   6.468   5.013  1.00  0.00     0.010 A 
ATOM     40  C   UNL     1      -4.081   7.096   6.255  1.00  0.00    -0.014 A 
BRANCH  40  41
ATOM     41  C   UNL     1      -2.894   7.488   7.063  1.00  0.00     0.031 A 
ATOM     42  C   UNL     1      -1.892   8.467   6.508  1.00  0.00     0.074 A 
ATOM     43  C   UNL     1      -2.665   6.894   8.253  1.00  0.00     0.049 A 
ATOM     44  N   UNL     1      -0.770   8.884   7.035  1.00  0.00    -0.248 NA
ATOM     45  C   UNL     1      -2.167   9.028   5.174  1.00  0.00     0.031 C 
ATOM     46  C   UNL     1      -3.505   5.857   8.861  1.00  0.00     0.029 A 
ATOM     47  N   UNL     1      -1.640   7.053   9.154  1.00  0.00    -0.354 N 
ATOM     48  C   UNL     1      -0.184   9.710   6.082  1.00  0.00     0.074 A 
ATOM     49  C   UNL     1      -1.061   9.717   4.933  1.00  0.00     0.031 C 
ATOM     50  C   UNL     1      -2.963   5.479  10.031  1.00  0.00     0.029 A 
ATOM     51  C   UNL     1      -1.726   6.221  10.248  1.00  0.00     0.049 A 
ATOM     52  H   UNL     1      -0.910   7.702   9.028  1.00  0.00     0.167 HD
ATOM     53  C   UNL     1       0.964  10.421   6.167  1.00  0.00     0.034 A 
ATOM     54  C   UNL     1      -0.900   6.070  11.303  1.00  0.00     0.034 A 
ATOM     55  C   UNL     1       1.794  10.474   7.338  1.00  0.00     0.049 A 
ATOM     56  C   UNL     1       0.327   6.939  11.401  1.00  0.00     0.074 A 
ATOM     57  C   UNL     1       2.908  11.264   7.564  1.00  0.00     0.029 A 
ATOM     58  N   UNL     1       1.608   9.708   8.476  1.00  0.00    -0.354 N 
ATOM     59  N   UNL     1       0.757   7.857  10.571  1.00  0.00    -0.248 NA
ATOM     60  C   UNL     1       1.161   6.781  12.603  1.00  0.00     0.031 C 
ATOM     61  C   UNL     1       3.409  10.957   8.832  1.00  0.00     0.029 A 
ATOM     62  C   UNL     1       2.591   9.998   9.405  1.00  0.00     0.049 A 
ATOM     63  H   UNL     1       0.883   9.054   8.605  1.00  0.00     0.167 HD
ATOM     64  C   UNL     1       1.882   8.414  11.168  1.00  0.00     0.074 A 
ATOM     65  C   UNL     1       2.054   7.747  12.441  1.00  0.00     0.031 C 
ATOM     66  C   UNL     1       2.709   9.379  10.698  1.00  0.00     0.034 A 
BRANCH  53  67
ATOM     67  C   UNL     1       1.372  11.257   4.983  1.00  0.00     0.023 A 
ATOM     68  C   UNL     1       0.672  12.446   4.694  1.00  0.00     0.012 A 
ATOM     69  C   UNL     1       2.510  10.920   4.224  1.00  0.00     0.148 A 
ATOM     70  C   UNL     1       1.086  13.277   3.655  1.00  0.00     0.002 A 
ATOM     71  C   UNL     1       2.942  11.776   3.219  1.00  0.00     0.091 A 
ATOM     72  F   UNL     1       3.149   9.775   4.504  1.00  0.00    -0.205 F 
ATOM     73  C   UNL     1       2.227  12.950   2.927  1.00  0.00     0.022 A 
BRANCH  71  74
ATOM     74  S   UNL     1       4.445  11.489   2.277  1.00  0.00     0.127 S 
ATOM     75  O   UNL     1       3.912  11.252   0.936  1.00  0.00    -0.237 OA
ATOM     76  O   UNL     1       5.153  12.759   2.437  1.00  0.00    -0.237 OA
ATOM     77  O   UNL     1       5.098  10.344   2.896  1.00  0.00    -0.744 OA
ENDBRANCH  71  74
ENDBRANCH  53  67
BRANCH  54  78
ATOM     78  C   UNL     1      -1.227   5.101  12.389  1.00  0.00     0.023 A 
ATOM     79  C   UNL     1      -1.569   5.583  13.669  1.00  0.00     0.012 A 
ATOM     80  C   UNL     1      -1.186   3.711  12.171  1.00  0.00     0.148 A 
ATOM     81  C   UNL     1      -1.814   4.700  14.722  1.00  0.00     0.002 A 
ATOM     82  C   UNL     1      -1.488   2.837  13.210  1.00  0.00     0.091 A 
ATOM     83  F   UNL     1      -0.844   3.267  10.954  1.00  0.00    -0.205 F 
ATOM     84  C   UNL     1      -1.782   3.328  14.491  1.00  0.00     0.022 A 
BRANCH  82  85
ATOM     85  S   UNL     1      -1.599   1.062  12.958  1.00  0.00     0.127 S 
ATOM     86  O   UNL     1      -0.331   0.600  13.516  1.00  0.00    -0.237 OA
ATOM     87  O   UNL     1      -2.783   0.713  13.744  1.00  0.00    -0.237 OA
ATOM     88  O   UNL     1      -1.767   0.889  11.521  1.00  0.00    -0.744 OA
ENDBRANCH  82  85
ENDBRANCH  54  78
BRANCH  66  89
ATOM     89  C   UNL     1       3.847   9.821  11.579  1.00  0.00     0.023 A 
ATOM     90  C   UNL     1       4.956   8.974  11.774  1.00  0.00     0.012 A 
ATOM     91  C   UNL     1       3.853  11.110  12.146  1.00  0.00     0.148 A 
ATOM     92  C   UNL     1       6.037   9.391  12.549  1.00  0.00     0.002 A 
ATOM     93  C   UNL     1       4.956  11.538  12.874  1.00  0.00     0.091 A 
ATOM     94  F   UNL     1       2.780  11.895  11.964  1.00  0.00    -0.205 F 
ATOM     95  C   UNL     1       6.043  10.676  13.087  1.00  0.00     0.022 A 
BRANCH  93  96
ATOM     96  S   UNL     1       5.092  13.211  13.515  1.00  0.00     0.127 S 
ATOM     97  O   UNL     1       4.867  13.001  14.944  1.00  0.00    -0.237 OA
ATOM     98  O   UNL     1       6.466  13.570  13.160  1.00  0.00    -0.237 OA
ATOM     99  O   UNL     1       4.070  13.987  12.826  1.00  0.00    -0.744 OA
ENDBRANCH  93  96
ENDBRANCH  66  89
ENDBRANCH  40  41
ENDBRANCH  32  35
ENDBRANCH  30  31
ENDBRANCH  29  30
ENDBRANCH  28  29
ENDBRANCH   1  28
TORSDOF 20
