REMARK SMILES [NH3+][C@H](CCC(=O)NCCCCNC(=O)c1ccc(-c2c3nc(c(-c4cccc(S(=O)(=O)[O-])c4F)c4ccc([nH]4)c(-c4cccc(S(=O)(=O)[O-])c4F)c4nc(c(-c5cccc(S(=O)(=O)[O-])c5F)c5ccc2[nH]5)C=C4)C=C3)cc1)c1nccc2[nH]ccc12
REMARK SMILES IDX 9 1 8 2 7 3 5 4 6 5 4 7 3 8 2 9 1 10 78 14 79 15 86 16 80 17
REMARK SMILES IDX 82 18 85 19 81 20 83 21 84 22 10 24 11 25 12 26 13 27 14 29
REMARK SMILES IDX 15 30 16 31 77 32 17 33 76 34 18 35 19 36 20 37 70 38 21 39
REMARK SMILES IDX 75 40 69 41 71 42 22 43 74 44 68 45 67 46 23 48 55 49 35 50
REMARK SMILES IDX 54 51 36 52 39 53 53 54 72 55 37 56 38 57 52 59 73 60 40 61
REMARK SMILES IDX 24 62 25 63 33 64 26 65 28 66 34 67 27 68 29 69 30 70 31 71
REMARK SMILES IDX 32 72 56 73 57 74 65 75 58 76 60 77 66 78 59 79 61 80 62 81
REMARK SMILES IDX 63 82 64 83 41 84 42 85 50 86 43 87 45 88 51 89 44 90 46 91
REMARK SMILES IDX 47 92 48 93 49 94
REMARK H PARENT 7 6 1 11 1 12 1 13 83 23 12 28 71 47 39 58
REMARK Flexibility Score: inf
ROOT
ATOM      1  C   UNL     1       1.197   3.249   1.148  1.00  0.00     0.023 C 
ENDROOT
BRANCH   1   2
ATOM      2  C   UNL     1       0.913   3.305  -0.353  1.00  0.00     0.116 C 
BRANCH   2   3
ATOM      3  N   UNL     1       1.831   2.459  -1.082  1.00  0.00    -0.356 N 
ATOM      4  C   UNL     1       1.604   1.246  -1.656  1.00  0.00     0.220 C 
ATOM      5  O   UNL     1       2.575   0.603  -2.063  1.00  0.00    -0.275 OA
ATOM      6  H   UNL     1       2.746   2.808  -1.176  1.00  0.00     0.163 HD
BRANCH   4   7
ATOM      7  C   UNL     1       0.192   0.714  -1.848  1.00  0.00     0.106 C 
BRANCH   7   8
ATOM      8  C   UNL     1      -0.196  -0.455  -0.936  1.00  0.00     0.082 C 
BRANCH   8   9
ATOM      9  C   UNL     1      -1.192  -0.249   0.234  1.00  0.00     0.232 C 
BRANCH   9  10
ATOM     10  N   UNL     1      -0.468   0.180   1.456  1.00  0.00    -0.350 N 
ATOM     11  H   UNL     1      -1.134   0.312   2.217  1.00  0.00     0.345 HD
ATOM     12  H   UNL     1       0.018   1.058   1.273  1.00  0.00     0.345 HD
ATOM     13  H   UNL     1       0.210  -0.535   1.718  1.00  0.00     0.345 HD
ENDBRANCH   9  10
BRANCH   9  14
ATOM     14  C   UNL     1      -2.386   0.699   0.062  1.00  0.00     0.107 A 
ATOM     15  N   UNL     1      -2.042   2.024  -0.051  1.00  0.00    -0.254 NA
ATOM     16  C   UNL     1      -3.685   0.418   0.560  1.00  0.00     0.027 A 
ATOM     17  C   UNL     1      -2.772   2.983   0.547  1.00  0.00     0.114 A 
ATOM     18  C   UNL     1      -4.340   1.429   1.272  1.00  0.00     0.049 A 
ATOM     19  C   UNL     1      -4.552  -0.715   0.592  1.00  0.00     0.030 A 
ATOM     20  C   UNL     1      -3.865   2.734   1.343  1.00  0.00     0.047 A 
ATOM     21  N   UNL     1      -5.435   0.861   1.876  1.00  0.00    -0.361 N 
ATOM     22  C   UNL     1      -5.649  -0.389   1.361  1.00  0.00     0.083 A 
ATOM     23  H   UNL     1      -5.982   1.287   2.574  1.00  0.00     0.166 HD
ENDBRANCH   9  14
ENDBRANCH   8   9
ENDBRANCH   7   8
ENDBRANCH   4   7
ENDBRANCH   2   3
ENDBRANCH   1   2
BRANCH   1  24
ATOM     24  C   UNL     1       2.098   4.381   1.637  1.00  0.00     0.023 C 
BRANCH  24  25
ATOM     25  C   UNL     1       1.430   5.752   1.637  1.00  0.00     0.116 C 
BRANCH  25  26
ATOM     26  N   UNL     1       0.277   5.839   2.525  1.00  0.00    -0.352 N 
ATOM     27  C   UNL     1      -0.179   6.934   3.228  1.00  0.00     0.251 C 
ATOM     28  H   UNL     1      -0.242   5.010   2.637  1.00  0.00     0.163 HD
ATOM     29  O   UNL     1      -1.125   6.835   3.989  1.00  0.00    -0.269 OA
BRANCH  27  30
ATOM     30  C   UNL     1       0.535   8.222   3.072  1.00  0.00     0.039 A 
ATOM     31  C   UNL     1       0.983   8.888   4.215  1.00  0.00     0.014 A 
ATOM     32  C   UNL     1       0.821   8.724   1.800  1.00  0.00     0.014 A 
ATOM     33  C   UNL     1       1.784  10.024   4.079  1.00  0.00     0.010 A 
ATOM     34  C   UNL     1       1.681   9.807   1.668  1.00  0.00     0.010 A 
ATOM     35  C   UNL     1       2.171  10.469   2.804  1.00  0.00    -0.014 A 
BRANCH  35  36
ATOM     36  C   UNL     1       3.096  11.618   2.631  1.00  0.00     0.031 A 
ATOM     37  C   UNL     1       2.632  12.854   1.908  1.00  0.00     0.074 A 
ATOM     38  C   UNL     1       4.380  11.508   3.027  1.00  0.00     0.049 A 
ATOM     39  N   UNL     1       3.308  13.927   1.592  1.00  0.00    -0.248 NA
ATOM     40  C   UNL     1       1.232  12.872   1.449  1.00  0.00     0.031 C 
ATOM     41  C   UNL     1       4.974  10.326   3.657  1.00  0.00     0.029 A 
ATOM     42  N   UNL     1       5.425  12.393   2.933  1.00  0.00    -0.354 N 
ATOM     43  C   UNL     1       2.435  14.723   0.860  1.00  0.00     0.074 A 
ATOM     44  C   UNL     1       1.190  13.996   0.750  1.00  0.00     0.031 C 
ATOM     45  C   UNL     1       6.274  10.562   3.899  1.00  0.00     0.029 A 
ATOM     46  C   UNL     1       6.614  11.899   3.421  1.00  0.00     0.049 A 
ATOM     47  H   UNL     1       5.334  13.296   2.553  1.00  0.00     0.167 HD
ATOM     48  C   UNL     1       2.639  15.963   0.355  1.00  0.00     0.034 A 
ATOM     49  C   UNL     1       7.837  12.461   3.478  1.00  0.00     0.034 A 
ATOM     50  C   UNL     1       3.856  16.707   0.524  1.00  0.00     0.049 A 
ATOM     51  C   UNL     1       8.017  13.867   2.970  1.00  0.00     0.074 A 
ATOM     52  C   UNL     1       4.127  18.011   0.148  1.00  0.00     0.029 A 
ATOM     53  N   UNL     1       5.007  16.215   1.120  1.00  0.00    -0.354 N 
ATOM     54  N   UNL     1       7.129  14.671   2.437  1.00  0.00    -0.248 NA
ATOM     55  C   UNL     1       9.357  14.457   3.105  1.00  0.00     0.031 C 
ATOM     56  C   UNL     1       5.448  18.301   0.504  1.00  0.00     0.029 A 
ATOM     57  C   UNL     1       5.993  17.185   1.118  1.00  0.00     0.049 A 
ATOM     58  H   UNL     1       5.107  15.308   1.490  1.00  0.00     0.167 HD
ATOM     59  C   UNL     1       7.791  15.873   2.210  1.00  0.00     0.074 A 
ATOM     60  C   UNL     1       9.149  15.697   2.680  1.00  0.00     0.031 C 
ATOM     61  C   UNL     1       7.322  17.013   1.647  1.00  0.00     0.034 A 
BRANCH  48  62
ATOM     62  C   UNL     1       1.496  16.618  -0.375  1.00  0.00     0.023 A 
ATOM     63  C   UNL     1       0.375  17.067   0.353  1.00  0.00     0.012 A 
ATOM     64  C   UNL     1       1.551  16.839  -1.764  1.00  0.00     0.148 A 
ATOM     65  C   UNL     1      -0.690  17.692  -0.294  1.00  0.00     0.002 A 
ATOM     66  C   UNL     1       0.506  17.503  -2.396  1.00  0.00     0.091 A 
ATOM     67  F   UNL     1       2.615  16.386  -2.444  1.00  0.00    -0.205 F 
ATOM     68  C   UNL     1      -0.620  17.919  -1.665  1.00  0.00     0.022 A 
BRANCH  66  69
ATOM     69  S   UNL     1       0.535  17.914  -4.145  1.00  0.00     0.127 S 
ATOM     70  O   UNL     1      -0.459  16.985  -4.682  1.00  0.00    -0.237 OA
ATOM     71  O   UNL     1       0.118  19.317  -4.139  1.00  0.00    -0.237 OA
ATOM     72  O   UNL     1       1.904  17.690  -4.587  1.00  0.00    -0.744 OA
ENDBRANCH  66  69
ENDBRANCH  48  62
BRANCH  49  73
ATOM     73  C   UNL     1       8.968  11.729   4.116  1.00  0.00     0.023 A 
ATOM     74  C   UNL     1       9.457  12.173   5.361  1.00  0.00     0.012 A 
ATOM     75  C   UNL     1       9.544  10.591   3.520  1.00  0.00     0.148 A 
ATOM     76  C   UNL     1      10.520  11.519   5.984  1.00  0.00     0.002 A 
ATOM     77  C   UNL     1      10.568   9.912   4.172  1.00  0.00     0.091 A 
ATOM     78  F   UNL     1       9.075  10.190   2.330  1.00  0.00    -0.205 F 
ATOM     79  C   UNL     1      11.069  10.383   5.395  1.00  0.00     0.022 A 
BRANCH  77  80
ATOM     80  S   UNL     1      11.245   8.368   3.550  1.00  0.00     0.127 S 
ATOM     81  O   UNL     1      12.554   8.791   3.059  1.00  0.00    -0.237 OA
ATOM     82  O   UNL     1      11.278   7.542   4.758  1.00  0.00    -0.237 OA
ATOM     83  O   UNL     1      10.303   7.909   2.538  1.00  0.00    -0.744 OA
ENDBRANCH  77  80
ENDBRANCH  49  73
BRANCH  61  84
ATOM     84  C   UNL     1       8.267  18.180   1.538  1.00  0.00     0.023 A 
ATOM     85  C   UNL     1       9.299  18.157   0.580  1.00  0.00     0.012 A 
ATOM     86  C   UNL     1       8.078  19.333   2.326  1.00  0.00     0.148 A 
ATOM     87  C   UNL     1      10.147  19.253   0.427  1.00  0.00     0.002 A 
ATOM     88  C   UNL     1       8.897  20.439   2.135  1.00  0.00     0.091 A 
ATOM     89  F   UNL     1       7.102  19.327   3.246  1.00  0.00    -0.205 F 
ATOM     90  C   UNL     1       9.938  20.397   1.194  1.00  0.00     0.022 A 
BRANCH  88  91
ATOM     91  S   UNL     1       8.637  21.987   3.008  1.00  0.00     0.127 S 
ATOM     92  O   UNL     1       9.732  21.971   3.976  1.00  0.00    -0.237 OA
ATOM     93  O   UNL     1       8.782  22.977   1.940  1.00  0.00    -0.237 OA
ATOM     94  O   UNL     1       7.298  21.906   3.575  1.00  0.00    -0.744 OA
ENDBRANCH  88  91
ENDBRANCH  61  84
ENDBRANCH  35  36
ENDBRANCH  27  30
ENDBRANCH  25  26
ENDBRANCH  24  25
ENDBRANCH   1  24
TORSDOF 18
