REMARK SMILES CC(C)(C)N(CC(=O)NCCCCNC(=O)c1ccc(-c2c3nc(c(-c4cccc(S(=O)(=O)[O-])c4F)c4ccc([nH]4)c(-c4cccc(S(=O)(=O)[O-])c4F)c4nc(c(-c5cccc(S(=O)(=O)[O-])c5F)c5ccc2[nH]5)C=C4)C=C3)cc1)C(=O)Nc1ccc([N+](=O)[O-])cc1
REMARK SMILES IDX 11 1 10 2 9 3 7 4 8 5 6 7 5 8 2 9 1 10 3 11 4 12 80 13 81 14
REMARK SMILES IDX 82 15 83 17 84 18 91 19 85 20 90 21 86 22 87 23 88 24 89 25
REMARK SMILES IDX 12 26 13 27 14 28 15 29 16 31 17 32 18 33 79 34 19 35 78 36
REMARK SMILES IDX 20 37 21 38 22 39 72 40 23 41 77 42 71 43 73 44 24 45 76 46
REMARK SMILES IDX 70 47 69 48 25 50 57 51 37 52 56 53 38 54 41 55 55 56 74 57
REMARK SMILES IDX 39 58 40 59 54 61 75 62 42 63 26 64 27 65 35 66 28 67 30 68
REMARK SMILES IDX 36 69 29 70 31 71 32 72 33 73 34 74 58 75 59 76 67 77 60 78
REMARK SMILES IDX 62 79 68 80 61 81 63 82 64 83 65 84 66 85 43 86 44 87 52 88
REMARK SMILES IDX 45 89 47 90 53 91 46 92 48 93 49 94 50 95 51 96
REMARK H PARENT 9 6 82 16 14 30 73 49 41 60
REMARK Flexibility Score: inf
ROOT
ATOM      1  C   UNL     1       3.572   1.478   2.774  1.00  0.00     0.023 C 
ENDROOT
BRANCH   1   2
ATOM      2  C   UNL     1       3.694   0.766   1.432  1.00  0.00     0.116 C 
BRANCH   2   3
ATOM      3  N   UNL     1       4.112  -0.609   1.507  1.00  0.00    -0.355 N 
ATOM      4  C   UNL     1       3.409  -1.718   1.148  1.00  0.00     0.239 C 
ATOM      5  O   UNL     1       4.068  -2.674   0.719  1.00  0.00    -0.273 OA
ATOM      6  H   UNL     1       5.017  -0.766   1.861  1.00  0.00     0.163 HD
BRANCH   4   7
ATOM      7  C   UNL     1       1.866  -1.805   1.161  1.00  0.00     0.221 C 
BRANCH   7   8
ATOM      8  N   UNL     1       1.039  -0.901   1.985  1.00  0.00    -0.310 N 
BRANCH   8   9
ATOM      9  C   UNL     1       0.104   0.080   1.266  1.00  0.00     0.037 C 
ATOM     10  C   UNL     1       0.316   0.179  -0.274  1.00  0.00     0.034 C 
ATOM     11  C   UNL     1       0.211   1.535   1.791  1.00  0.00     0.034 C 
ATOM     12  C   UNL     1      -1.363  -0.398   1.433  1.00  0.00     0.034 C 
ENDBRANCH   8   9
BRANCH   8  13
ATOM     13  C   UNL     1       0.798  -1.103   3.344  1.00  0.00     0.322 C 
ATOM     14  O   UNL     1       0.127  -0.307   4.013  1.00  0.00    -0.248 OA
ATOM     15  N   UNL     1       1.042  -2.268   3.996  1.00  0.00    -0.308 N 
ATOM     16  H   UNL     1       0.470  -2.358   4.792  1.00  0.00     0.171 HD
BRANCH  15  17
ATOM     17  C   UNL     1       1.880  -3.370   3.849  1.00  0.00     0.043 A 
ATOM     18  C   UNL     1       1.312  -4.642   3.988  1.00  0.00     0.033 A 
ATOM     19  C   UNL     1       3.252  -3.248   3.654  1.00  0.00     0.033 A 
ATOM     20  C   UNL     1       2.077  -5.785   3.739  1.00  0.00     0.088 A 
ATOM     21  C   UNL     1       4.030  -4.384   3.397  1.00  0.00     0.088 A 
ATOM     22  C   UNL     1       3.427  -5.646   3.398  1.00  0.00     0.269 A 
BRANCH  22  23
ATOM     23  N   UNL     1       4.201  -6.830   3.010  1.00  0.00     0.062 N 
ATOM     24  O   UNL     1       3.701  -7.942   3.241  1.00  0.00    -0.258 OA
ATOM     25  O   UNL     1       5.292  -6.653   2.452  1.00  0.00    -0.258 OA
ENDBRANCH  22  23
ENDBRANCH  15  17
ENDBRANCH   8  13
ENDBRANCH   7   8
ENDBRANCH   4   7
ENDBRANCH   2   3
ENDBRANCH   1   2
BRANCH   1  26
ATOM     26  C   UNL     1       4.882   1.762   3.505  1.00  0.00     0.023 C 
BRANCH  26  27
ATOM     27  C   UNL     1       6.018   2.321   2.656  1.00  0.00     0.116 C 
BRANCH  27  28
ATOM     28  N   UNL     1       5.649   3.465   1.830  1.00  0.00    -0.352 N 
ATOM     29  C   UNL     1       6.432   4.527   1.442  1.00  0.00     0.251 C 
ATOM     30  H   UNL     1       4.719   3.478   1.509  1.00  0.00     0.163 HD
ATOM     31  O   UNL     1       5.962   5.421   0.744  1.00  0.00    -0.269 OA
BRANCH  29  32
ATOM     32  C   UNL     1       7.825   4.609   1.926  1.00  0.00     0.039 A 
ATOM     33  C   UNL     1       8.238   5.776   2.574  1.00  0.00     0.014 A 
ATOM     34  C   UNL     1       8.686   3.514   1.818  1.00  0.00     0.014 A 
ATOM     35  C   UNL     1       9.489   5.813   3.193  1.00  0.00     0.010 A 
ATOM     36  C   UNL     1       9.898   3.527   2.499  1.00  0.00     0.010 A 
ATOM     37  C   UNL     1      10.309   4.673   3.198  1.00  0.00    -0.014 A 
BRANCH  37  38
ATOM     38  C   UNL     1      11.588   4.645   3.949  1.00  0.00     0.031 A 
ATOM     39  C   UNL     1      12.887   4.452   3.217  1.00  0.00     0.074 A 
ATOM     40  C   UNL     1      11.570   4.689   5.297  1.00  0.00     0.049 A 
ATOM     41  N   UNL     1      14.094   4.326   3.700  1.00  0.00    -0.248 NA
ATOM     42  C   UNL     1      12.815   4.352   1.749  1.00  0.00     0.031 C 
ATOM     43  C   UNL     1      10.365   4.780   6.126  1.00  0.00     0.029 A 
ATOM     44  N   UNL     1      12.594   4.631   6.209  1.00  0.00    -0.354 N 
ATOM     45  C   UNL     1      14.918   4.091   2.607  1.00  0.00     0.074 A 
ATOM     46  C   UNL     1      14.068   4.058   1.436  1.00  0.00     0.031 C 
ATOM     47  C   UNL     1      10.720   4.776   7.421  1.00  0.00     0.029 A 
ATOM     48  C   UNL     1      12.171   4.661   7.518  1.00  0.00     0.049 A 
ATOM     49  H   UNL     1      13.542   4.574   5.951  1.00  0.00     0.167 HD
ATOM     50  C   UNL     1      16.264   3.951   2.573  1.00  0.00     0.034 A 
ATOM     51  C   UNL     1      12.875   4.604   8.666  1.00  0.00     0.034 A 
ATOM     52  C   UNL     1      17.110   4.051   3.730  1.00  0.00     0.049 A 
ATOM     53  C   UNL     1      14.376   4.525   8.596  1.00  0.00     0.074 A 
ATOM     54  C   UNL     1      18.492   4.027   3.791  1.00  0.00     0.029 A 
ATOM     55  N   UNL     1      16.654   4.199   5.031  1.00  0.00    -0.354 N 
ATOM     56  N   UNL     1      15.151   4.477   7.539  1.00  0.00    -0.248 NA
ATOM     57  C   UNL     1      15.104   4.534   9.874  1.00  0.00     0.031 C 
ATOM     58  C   UNL     1      18.872   4.155   5.131  1.00  0.00     0.029 A 
ATOM     59  C   UNL     1      17.726   4.269   5.903  1.00  0.00     0.049 A 
ATOM     60  H   UNL     1      15.707   4.248   5.295  1.00  0.00     0.167 HD
ATOM     61  C   UNL     1      16.455   4.484   8.021  1.00  0.00     0.074 A 
ATOM     62  C   UNL     1      16.366   4.563   9.465  1.00  0.00     0.031 C 
ATOM     63  C   UNL     1      17.620   4.412   7.332  1.00  0.00     0.034 A 
BRANCH  50  64
ATOM     64  C   UNL     1      16.910   3.751   1.229  1.00  0.00     0.023 A 
ATOM     65  C   UNL     1      16.982   4.835   0.330  1.00  0.00     0.012 A 
ATOM     66  C   UNL     1      17.486   2.517   0.871  1.00  0.00     0.148 A 
ATOM     67  C   UNL     1      17.585   4.686  -0.918  1.00  0.00     0.002 A 
ATOM     68  C   UNL     1      18.124   2.387  -0.358  1.00  0.00     0.091 A 
ATOM     69  F   UNL     1      17.387   1.490   1.728  1.00  0.00    -0.205 F 
ATOM     70  C   UNL     1      18.165   3.466  -1.257  1.00  0.00     0.022 A 
BRANCH  68  71
ATOM     71  S   UNL     1      18.964   0.880  -0.857  1.00  0.00     0.127 S 
ATOM     72  O   UNL     1      18.038   0.341  -1.851  1.00  0.00    -0.237 OA
ATOM     73  O   UNL     1      20.219   1.393  -1.409  1.00  0.00    -0.237 OA
ATOM     74  O   UNL     1      19.116   0.088   0.356  1.00  0.00    -0.744 OA
ENDBRANCH  68  71
ENDBRANCH  50  64
BRANCH  51  75
ATOM     75  C   UNL     1      12.172   4.711   9.976  1.00  0.00     0.023 A 
ATOM     76  C   UNL     1      12.306   5.893  10.730  1.00  0.00     0.012 A 
ATOM     77  C   UNL     1      11.351   3.676  10.463  1.00  0.00     0.148 A 
ATOM     78  C   UNL     1      11.659   6.032  11.959  1.00  0.00     0.002 A 
ATOM     79  C   UNL     1      10.668   3.841  11.663  1.00  0.00     0.091 A 
ATOM     80  F   UNL     1      11.247   2.553   9.739  1.00  0.00    -0.205 F 
ATOM     81  C   UNL     1      10.833   5.011  12.420  1.00  0.00     0.022 A 
BRANCH  79  82
ATOM     82  S   UNL     1       9.483   2.631  12.264  1.00  0.00     0.127 S 
ATOM     83  O   UNL     1      10.237   1.976  13.329  1.00  0.00    -0.237 OA
ATOM     84  O   UNL     1       8.382   3.481  12.720  1.00  0.00    -0.237 OA
ATOM     85  O   UNL     1       9.157   1.804  11.109  1.00  0.00    -0.744 OA
ENDBRANCH  79  82
ENDBRANCH  51  75
BRANCH  63  86
ATOM     86  C   UNL     1      18.901   4.443   8.121  1.00  0.00     0.023 A 
ATOM     87  C   UNL     1      19.301   3.302   8.843  1.00  0.00     0.012 A 
ATOM     88  C   UNL     1      19.747   5.568   8.077  1.00  0.00     0.148 A 
ATOM     89  C   UNL     1      20.513   3.288   9.531  1.00  0.00     0.002 A 
ATOM     90  C   UNL     1      20.975   5.531   8.729  1.00  0.00     0.091 A 
ATOM     91  F   UNL     1      19.338   6.652   7.402  1.00  0.00    -0.205 F 
ATOM     92  C   UNL     1      21.355   4.396   9.463  1.00  0.00     0.022 A 
BRANCH  90  93
ATOM     93  S   UNL     1      22.158   6.878   8.616  1.00  0.00     0.127 S 
ATOM     94  O   UNL     1      22.000   7.525   9.917  1.00  0.00    -0.237 OA
ATOM     95  O   UNL     1      23.426   6.169   8.438  1.00  0.00    -0.237 OA
ATOM     96  O   UNL     1      21.748   7.672   7.465  1.00  0.00    -0.744 OA
ENDBRANCH  90  93
ENDBRANCH  63  86
ENDBRANCH  37  38
ENDBRANCH  29  32
ENDBRANCH  27  28
ENDBRANCH  26  27
ENDBRANCH   1  26
TORSDOF 19
