REMARK SMILES CC[C@@H]1CCCN1C(=O)N(CC(=O)NCCCCNC(=O)c1ccc(-c2c3nc(c(-c4cccc(S(=O)(=O)[O-])c4F)c4ccc([nH]4)c(-c4cccc(S(=O)(=O)[O-])c4F)c4nc(c(-c5cccc(S(=O)(=O)[O-])c5F)c5ccc2[nH]5)C=C4)C=C3)cc1)CC(F)(F)F
REMARK SMILES IDX 16 1 15 2 14 3 12 4 13 5 11 7 10 8 8 9 9 10 7 11 3 12 4 13
REMARK SMILES IDX 5 14 6 15 2 16 1 17 85 18 86 19 87 20 88 21 89 22 17 23
REMARK SMILES IDX 18 24 19 25 20 26 21 28 22 29 23 30 84 31 24 32 83 33 25 34
REMARK SMILES IDX 26 35 27 36 77 37 28 38 82 39 76 40 78 41 29 42 81 43 75 44
REMARK SMILES IDX 74 45 30 47 62 48 42 49 61 50 43 51 46 52 60 53 79 54 44 55
REMARK SMILES IDX 45 56 59 58 80 59 47 60 31 61 32 62 40 63 33 64 35 65 41 66
REMARK SMILES IDX 34 67 36 68 37 69 38 70 39 71 63 72 64 73 72 74 65 75 67 76
REMARK SMILES IDX 73 77 66 78 68 79 69 80 70 81 71 82 48 83 49 84 57 85 50 86
REMARK SMILES IDX 52 87 58 88 51 89 53 90 54 91 55 92 56 93
REMARK H PARENT 14 6 19 27 78 46 46 57
REMARK Flexibility Score: inf
ROOT
ATOM      1  C   UNL     1      -3.498  -1.075   0.836  1.00  0.00     0.023 C 
ENDROOT
BRANCH   1   2
ATOM      2  C   UNL     1      -2.216  -1.334   0.059  1.00  0.00     0.116 C 
BRANCH   2   3
ATOM      3  N   UNL     1      -1.983  -0.335  -0.956  1.00  0.00    -0.355 N 
ATOM      4  C   UNL     1      -1.099   0.694  -0.999  1.00  0.00     0.239 C 
ATOM      5  O   UNL     1      -1.066   1.361  -2.040  1.00  0.00    -0.273 OA
ATOM      6  H   UNL     1      -2.561  -0.413  -1.749  1.00  0.00     0.163 HD
BRANCH   4   7
ATOM      7  C   UNL     1      -0.011   0.912   0.063  1.00  0.00     0.221 C 
BRANCH   7   8
ATOM      8  N   UNL     1      -0.254   0.949   1.494  1.00  0.00    -0.306 N 
BRANCH   8   9
ATOM      9  C   UNL     1      -0.095  -0.012   2.456  1.00  0.00     0.321 C 
ATOM     10  O   UNL     1      -0.519   0.276   3.589  1.00  0.00    -0.248 OA
BRANCH   9  11
ATOM     11  N   UNL     1       0.403  -1.285   2.265  1.00  0.00    -0.322 N 
ATOM     12  C   UNL     1       1.386  -2.039   1.418  1.00  0.00     0.086 C 
ATOM     13  C   UNL     1       0.933  -3.498   1.650  1.00  0.00     0.027 C 
ATOM     14  C   UNL     1       0.649  -3.540   3.129  1.00  0.00     0.024 C 
ATOM     15  C   UNL     1       0.061  -2.170   3.400  1.00  0.00     0.122 C 
BRANCH  12  16
ATOM     16  C   UNL     1       1.598  -1.900  -0.094  1.00  0.00     0.022 C 
ATOM     17  C   UNL     1       2.739  -0.943  -0.444  1.00  0.00     0.006 C 
ENDBRANCH  12  16
ENDBRANCH   9  11
ENDBRANCH   8   9
BRANCH   8  18
ATOM     18  C   UNL     1      -0.827   2.248   1.960  1.00  0.00     0.237 C 
BRANCH  18  19
ATOM     19  C   UNL     1      -2.353   2.374   1.982  1.00  0.00     0.406 C 
ATOM     20  F   UNL     1      -2.947   1.516   2.834  1.00  0.00    -0.169 F 
ATOM     21  F   UNL     1      -2.708   3.627   2.361  1.00  0.00    -0.169 F 
ATOM     22  F   UNL     1      -2.875   2.175   0.751  1.00  0.00    -0.169 F 
ENDBRANCH  18  19
ENDBRANCH   8  18
ENDBRANCH   7   8
ENDBRANCH   4   7
ENDBRANCH   2   3
ENDBRANCH   1   2
BRANCH   1  23
ATOM     23  C   UNL     1      -4.764  -1.188  -0.009  1.00  0.00     0.023 C 
BRANCH  23  24
ATOM     24  C   UNL     1      -4.954  -2.548  -0.662  1.00  0.00     0.116 C 
BRANCH  24  25
ATOM     25  N   UNL     1      -5.040  -3.625   0.316  1.00  0.00    -0.352 N 
ATOM     26  C   UNL     1      -5.973  -4.633   0.386  1.00  0.00     0.251 C 
ATOM     27  H   UNL     1      -4.345  -3.631   1.012  1.00  0.00     0.163 HD
ATOM     28  O   UNL     1      -6.026  -5.373   1.356  1.00  0.00    -0.269 OA
BRANCH  26  29
ATOM     29  C   UNL     1      -6.921  -4.784  -0.735  1.00  0.00     0.039 A 
ATOM     30  C   UNL     1      -8.291  -4.817  -0.470  1.00  0.00     0.014 A 
ATOM     31  C   UNL     1      -6.444  -4.813  -2.049  1.00  0.00     0.014 A 
ATOM     32  C   UNL     1      -9.191  -4.824  -1.536  1.00  0.00     0.010 A 
ATOM     33  C   UNL     1      -7.343  -4.735  -3.104  1.00  0.00     0.010 A 
ATOM     34  C   UNL     1      -8.724  -4.752  -2.859  1.00  0.00    -0.014 A 
BRANCH  34  35
ATOM     35  C   UNL     1      -9.661  -4.704  -4.009  1.00  0.00     0.031 A 
ATOM     36  C   UNL     1      -9.648  -5.813  -5.027  1.00  0.00     0.074 A 
ATOM     37  C   UNL     1     -10.456  -3.630  -4.181  1.00  0.00     0.049 A 
ATOM     38  N   UNL     1     -10.333  -5.924  -6.134  1.00  0.00    -0.248 NA
ATOM     39  C   UNL     1      -8.718  -6.930  -4.784  1.00  0.00     0.031 C 
ATOM     40  C   UNL     1     -10.500  -2.457  -3.305  1.00  0.00     0.029 A 
ATOM     41  N   UNL     1     -11.364  -3.339  -5.168  1.00  0.00    -0.354 N 
ATOM     42  C   UNL     1      -9.899  -7.101  -6.731  1.00  0.00     0.074 A 
ATOM     43  C   UNL     1      -8.855  -7.644  -5.891  1.00  0.00     0.031 C 
ATOM     44  C   UNL     1     -11.395  -1.579  -3.788  1.00  0.00     0.029 A 
ATOM     45  C   UNL     1     -11.967  -2.111  -5.020  1.00  0.00     0.049 A 
ATOM     46  H   UNL     1     -11.566  -3.952  -5.911  1.00  0.00     0.167 HD
ATOM     47  C   UNL     1     -10.354  -7.699  -7.857  1.00  0.00     0.034 A 
ATOM     48  C   UNL     1     -12.876  -1.487  -5.794  1.00  0.00     0.034 A 
ATOM     49  C   UNL     1     -11.424  -7.179  -8.663  1.00  0.00     0.049 A 
ATOM     50  C   UNL     1     -13.388  -2.190  -7.023  1.00  0.00     0.074 A 
ATOM     51  C   UNL     1     -12.008  -7.739  -9.784  1.00  0.00     0.029 A 
ATOM     52  N   UNL     1     -12.072  -5.975  -8.432  1.00  0.00    -0.354 N 
ATOM     53  N   UNL     1     -13.070  -3.373  -7.491  1.00  0.00    -0.248 NA
ATOM     54  C   UNL     1     -14.412  -1.489  -7.811  1.00  0.00     0.031 C 
ATOM     55  C   UNL     1     -13.003  -6.867 -10.239  1.00  0.00     0.029 A 
ATOM     56  C   UNL     1     -13.052  -5.775  -9.388  1.00  0.00     0.049 A 
ATOM     57  H   UNL     1     -11.866  -5.355  -7.696  1.00  0.00     0.167 HD
ATOM     58  C   UNL     1     -13.883  -3.575  -8.601  1.00  0.00     0.074 A 
ATOM     59  C   UNL     1     -14.722  -2.401  -8.722  1.00  0.00     0.031 C 
ATOM     60  C   UNL     1     -13.921  -4.628  -9.453  1.00  0.00     0.034 A 
BRANCH  47  61
ATOM     61  C   UNL     1      -9.743  -9.022  -8.240  1.00  0.00     0.023 A 
ATOM     62  C   UNL     1     -10.024 -10.163  -7.460  1.00  0.00     0.012 A 
ATOM     63  C   UNL     1      -8.938  -9.151  -9.388  1.00  0.00     0.148 A 
ATOM     64  C   UNL     1      -9.486 -11.404  -7.795  1.00  0.00     0.002 A 
ATOM     65  C   UNL     1      -8.441 -10.401  -9.741  1.00  0.00     0.091 A 
ATOM     66  F   UNL     1      -8.664  -8.052 -10.105  1.00  0.00    -0.205 F 
ATOM     67  C   UNL     1      -8.704 -11.525  -8.939  1.00  0.00     0.022 A 
BRANCH  65  68
ATOM     68  S   UNL     1      -7.488 -10.681 -11.237  1.00  0.00     0.127 S 
ATOM     69  O   UNL     1      -6.159 -10.959 -10.692  1.00  0.00    -0.237 OA
ATOM     70  O   UNL     1      -8.163 -11.841 -11.820  1.00  0.00    -0.237 OA
ATOM     71  O   UNL     1      -7.598  -9.457 -12.018  1.00  0.00    -0.744 OA
ENDBRANCH  65  68
ENDBRANCH  47  61
BRANCH  48  72
ATOM     72  C   UNL     1     -13.420  -0.157  -5.395  1.00  0.00     0.023 A 
ATOM     73  C   UNL     1     -14.763  -0.059  -4.980  1.00  0.00     0.012 A 
ATOM     74  C   UNL     1     -12.623   1.004  -5.417  1.00  0.00     0.148 A 
ATOM     75  C   UNL     1     -15.314   1.176  -4.635  1.00  0.00     0.002 A 
ATOM     76  C   UNL     1     -13.164   2.222  -5.020  1.00  0.00     0.091 A 
ATOM     77  F   UNL     1     -11.351   0.894  -5.827  1.00  0.00    -0.205 F 
ATOM     78  C   UNL     1     -14.513   2.314  -4.647  1.00  0.00     0.022 A 
BRANCH  76  79
ATOM     79  S   UNL     1     -12.171   3.713  -4.886  1.00  0.00     0.127 S 
ATOM     80  O   UNL     1     -12.616   4.475  -6.050  1.00  0.00    -0.237 OA
ATOM     81  O   UNL     1     -12.604   4.251  -3.595  1.00  0.00    -0.237 OA
ATOM     82  O   UNL     1     -10.787   3.262  -4.911  1.00  0.00    -0.744 OA
ENDBRANCH  76  79
ENDBRANCH  48  72
BRANCH  60  83
ATOM     83  C   UNL     1     -14.932  -4.588 -10.568  1.00  0.00     0.023 A 
ATOM     84  C   UNL     1     -14.738  -3.719 -11.660  1.00  0.00     0.012 A 
ATOM     85  C   UNL     1     -16.035  -5.465 -10.567  1.00  0.00     0.148 A 
ATOM     86  C   UNL     1     -15.643  -3.701 -12.720  1.00  0.00     0.002 A 
ATOM     87  C   UNL     1     -16.905  -5.477 -11.650  1.00  0.00     0.091 A 
ATOM     88  F   UNL     1     -16.211  -6.271  -9.510  1.00  0.00    -0.205 F 
ATOM     89  C   UNL     1     -16.718  -4.588 -12.721  1.00  0.00     0.022 A 
BRANCH  87  90
ATOM     90  S   UNL     1     -18.259  -6.650 -11.784  1.00  0.00     0.127 S 
ATOM     91  O   UNL     1     -19.420  -5.793 -11.550  1.00  0.00    -0.237 OA
ATOM     92  O   UNL     1     -18.120  -7.128 -13.160  1.00  0.00    -0.237 OA
ATOM     93  O   UNL     1     -18.014  -7.663 -10.766  1.00  0.00    -0.744 OA
ENDBRANCH  87  90
ENDBRANCH  60  83
ENDBRANCH  34  35
ENDBRANCH  26  29
ENDBRANCH  24  25
ENDBRANCH  23  24
ENDBRANCH   1  23
TORSDOF 20
