REMARK SMILES COC[C@@H](NS(=O)(=O)c1ccc(C(=O)NCCCCNC(=O)c2ccc(-c3c4nc(c(-c5cccc(S(=O)(=O)[O-])c5F)c5ccc([nH]5)c(-c5cccc(S(=O)(=O)[O-])c5F)c5nc(c(-c6cccc(S(=O)(=O)[O-])c6F)c6ccc3[nH]6)C=C5)C=C4)cc2)cc1F)C(C)C
REMARK SMILES IDX 16 1 15 2 13 3 14 4 12 6 9 7 10 8 87 9 11 10 86 11 88 12
REMARK SMILES IDX 6 13 7 14 8 15 5 16 4 18 3 19 2 20 1 21 89 22 90 23 91 24
REMARK SMILES IDX 17 25 18 26 19 27 20 28 21 29 22 31 23 32 24 33 85 34 25 35
REMARK SMILES IDX 84 36 26 37 27 38 28 39 78 40 29 41 83 42 77 43 79 44 30 45
REMARK SMILES IDX 82 46 76 47 75 48 31 50 63 51 43 52 62 53 44 54 47 55 61 56
REMARK SMILES IDX 80 57 45 58 46 59 60 61 81 62 48 63 32 64 33 65 41 66 34 67
REMARK SMILES IDX 36 68 42 69 35 70 37 71 38 72 39 73 40 74 64 75 65 76 73 77
REMARK SMILES IDX 66 78 68 79 74 80 67 81 69 82 70 83 71 84 72 85 49 86 50 87
REMARK SMILES IDX 58 88 51 89 53 90 59 91 52 92 54 93 55 94 56 95 57 96
REMARK H PARENT 15 5 5 17 20 30 79 49 47 60
REMARK Flexibility Score: inf
ROOT
ATOM      1  C   UNL     1       0.196  -9.126  -2.889  1.00  0.00     0.116 C 
ENDROOT
BRANCH   1   2
ATOM      2  N   UNL     1       1.509  -9.121  -3.513  1.00  0.00    -0.352 N 
ATOM      3  C   UNL     1       2.284  -8.096  -3.992  1.00  0.00     0.251 C 
ATOM      4  O   UNL     1       3.417  -8.337  -4.401  1.00  0.00    -0.269 OA
ATOM      5  H   UNL     1       1.914 -10.014  -3.609  1.00  0.00     0.163 HD
BRANCH   3   6
ATOM      6  C   UNL     1       1.834  -6.685  -3.942  1.00  0.00     0.042 A 
ATOM      7  C   UNL     1       1.050  -4.050  -3.489  1.00  0.00     0.118 A 
ATOM      8  C   UNL     1       2.393  -4.410  -3.319  1.00  0.00     0.026 A 
ATOM      9  C   UNL     1       0.142  -4.961  -4.009  1.00  0.00     0.144 A 
ATOM     10  C   UNL     1       2.780  -5.731  -3.540  1.00  0.00     0.015 A 
ATOM     11  C   UNL     1       0.535  -6.276  -4.255  1.00  0.00     0.054 A 
ATOM     12  F   UNL     1      -1.134  -4.632  -4.240  1.00  0.00    -0.205 F 
BRANCH   7  13
ATOM     13  S   UNL     1       0.508  -2.504  -2.845  1.00  0.00     0.243 S 
ATOM     14  O   UNL     1      -0.922  -2.499  -2.662  1.00  0.00    -0.207 OA
ATOM     15  O   UNL     1       1.198  -1.476  -3.595  1.00  0.00    -0.207 OA
BRANCH  13  16
ATOM     16  N   UNL     1       1.241  -2.510  -1.317  1.00  0.00    -0.205 NA
ATOM     17  H   UNL     1       1.973  -3.220  -1.351  1.00  0.00     0.141 HD
BRANCH  16  18
ATOM     18  C   UNL     1       0.450  -2.778  -0.076  1.00  0.00     0.098 C 
BRANCH  18  19
ATOM     19  C   UNL     1       0.776  -1.655   0.951  1.00  0.00     0.180 C 
BRANCH  19  20
ATOM     20  O   UNL     1       0.145  -0.406   0.653  1.00  0.00    -0.383 OA
ATOM     21  C   UNL     1       0.883   0.456  -0.195  1.00  0.00     0.194 C 
ENDBRANCH  19  20
ENDBRANCH  18  19
BRANCH  18  22
ATOM     22  C   UNL     1       0.821  -4.198   0.463  1.00  0.00     0.003 C 
ATOM     23  C   UNL     1       0.376  -4.449   1.910  1.00  0.00     0.009 C 
ATOM     24  C   UNL     1       0.215  -5.313  -0.399  1.00  0.00     0.009 C 
ENDBRANCH  18  22
ENDBRANCH  16  18
ENDBRANCH  13  16
ENDBRANCH   7  13
ENDBRANCH   3   6
ENDBRANCH   1   2
BRANCH   1  25
ATOM     25  C   UNL     1      -0.880  -9.591  -3.871  1.00  0.00     0.023 C 
BRANCH  25  26
ATOM     26  C   UNL     1      -0.829 -11.085  -4.208  1.00  0.00     0.023 C 
BRANCH  26  27
ATOM     27  C   UNL     1      -1.177 -12.024  -3.056  1.00  0.00     0.116 C 
BRANCH  27  28
ATOM     28  N   UNL     1      -2.531 -11.833  -2.559  1.00  0.00    -0.352 N 
ATOM     29  C   UNL     1      -3.443 -12.774  -2.144  1.00  0.00     0.251 C 
ATOM     30  H   UNL     1      -2.837 -10.898  -2.513  1.00  0.00     0.163 HD
ATOM     31  O   UNL     1      -4.588 -12.431  -1.864  1.00  0.00    -0.269 OA
BRANCH  29  32
ATOM     32  C   UNL     1      -3.055 -14.200  -2.068  1.00  0.00     0.039 A 
ATOM     33  C   UNL     1      -3.912 -15.158  -2.619  1.00  0.00     0.014 A 
ATOM     34  C   UNL     1      -1.857 -14.592  -1.465  1.00  0.00     0.014 A 
ATOM     35  C   UNL     1      -3.534 -16.503  -2.628  1.00  0.00     0.010 A 
ATOM     36  C   UNL     1      -1.458 -15.925  -1.522  1.00  0.00     0.010 A 
ATOM     37  C   UNL     1      -2.288 -16.891  -2.109  1.00  0.00    -0.014 A 
BRANCH  37  38
ATOM     38  C   UNL     1      -1.817 -18.295  -2.204  1.00  0.00     0.031 A 
ATOM     39  C   UNL     1      -1.623 -19.119  -0.963  1.00  0.00     0.074 A 
ATOM     40  C   UNL     1      -1.471 -18.795  -3.407  1.00  0.00     0.049 A 
ATOM     41  N   UNL     1      -1.146 -20.330  -0.847  1.00  0.00    -0.248 NA
ATOM     42  C   UNL     1      -1.990 -18.492   0.318  1.00  0.00     0.031 C 
ATOM     43  C   UNL     1      -1.546 -18.068  -4.676  1.00  0.00     0.029 A 
ATOM     44  N   UNL     1      -0.964 -20.022  -3.757  1.00  0.00    -0.354 N 
ATOM     45  C   UNL     1      -1.123 -20.600   0.515  1.00  0.00     0.074 A 
ATOM     46  C   UNL     1      -1.615 -19.419   1.190  1.00  0.00     0.031 C 
ATOM     47  C   UNL     1      -1.105 -18.862  -5.665  1.00  0.00     0.029 A 
ATOM     48  C   UNL     1      -0.696 -20.145  -5.100  1.00  0.00     0.049 A 
ATOM     49  H   UNL     1      -0.806 -20.744  -3.107  1.00  0.00     0.167 HD
ATOM     50  C   UNL     1      -0.754 -21.740   1.144  1.00  0.00     0.034 A 
ATOM     51  C   UNL     1      -0.181 -21.176  -5.800  1.00  0.00     0.034 A 
ATOM     52  C   UNL     1      -0.326 -22.935   0.469  1.00  0.00     0.049 A 
ATOM     53  C   UNL     1       0.164 -22.451  -5.082  1.00  0.00     0.074 A 
ATOM     54  C   UNL     1      -0.012 -24.166   1.019  1.00  0.00     0.029 A 
ATOM     55  N   UNL     1      -0.160 -23.054  -0.901  1.00  0.00    -0.354 N 
ATOM     56  N   UNL     1       0.042 -22.736  -3.808  1.00  0.00    -0.248 NA
ATOM     57  C   UNL     1       0.685 -23.559  -5.897  1.00  0.00     0.031 C 
ATOM     58  C   UNL     1       0.341 -25.031  -0.021  1.00  0.00     0.029 A 
ATOM     59  C   UNL     1       0.248 -24.337  -1.218  1.00  0.00     0.049 A 
ATOM     60  H   UNL     1      -0.310 -22.331  -1.553  1.00  0.00     0.167 HD
ATOM     61  C   UNL     1       0.444 -24.059  -3.672  1.00  0.00     0.074 A 
ATOM     62  C   UNL     1       0.796 -24.528  -4.997  1.00  0.00     0.031 C 
ATOM     63  C   UNL     1       0.533 -24.810  -2.548  1.00  0.00     0.034 A 
BRANCH  50  64
ATOM     64  C   UNL     1      -0.875 -21.784   2.643  1.00  0.00     0.023 A 
ATOM     65  C   UNL     1      -2.150 -21.950   3.219  1.00  0.00     0.012 A 
ATOM     66  C   UNL     1       0.263 -21.746   3.471  1.00  0.00     0.148 A 
ATOM     67  C   UNL     1      -2.295 -22.059   4.601  1.00  0.00     0.002 A 
ATOM     68  C   UNL     1       0.114 -21.889   4.847  1.00  0.00     0.091 A 
ATOM     69  F   UNL     1       1.463 -21.564   2.904  1.00  0.00    -0.205 F 
ATOM     70  C   UNL     1      -1.163 -22.040   5.413  1.00  0.00     0.022 A 
BRANCH  68  71
ATOM     71  S   UNL     1       1.515 -21.940   5.970  1.00  0.00     0.127 S 
ATOM     72  O   UNL     1       1.440 -20.621   6.595  1.00  0.00    -0.237 OA
ATOM     73  O   UNL     1       1.166 -23.054   6.853  1.00  0.00    -0.237 OA
ATOM     74  O   UNL     1       2.686 -22.174   5.135  1.00  0.00    -0.744 OA
ENDBRANCH  68  71
ENDBRANCH  50  64
BRANCH  51  75
ATOM     75  C   UNL     1      -0.058 -21.067  -7.280  1.00  0.00     0.023 A 
ATOM     76  C   UNL     1      -0.963 -21.777  -8.093  1.00  0.00     0.012 A 
ATOM     77  C   UNL     1       0.892 -20.222  -7.885  1.00  0.00     0.148 A 
ATOM     78  C   UNL     1      -0.916 -21.659  -9.482  1.00  0.00     0.002 A 
ATOM     79  C   UNL     1       0.901 -20.071  -9.268  1.00  0.00     0.091 A 
ATOM     80  F   UNL     1       1.758 -19.570  -7.097  1.00  0.00    -0.205 F 
ATOM     81  C   UNL     1       0.006 -20.797 -10.069  1.00  0.00     0.022 A 
BRANCH  79  82
ATOM     82  S   UNL     1       1.965 -18.875 -10.086  1.00  0.00     0.127 S 
ATOM     83  O   UNL     1       3.042 -19.724 -10.587  1.00  0.00    -0.237 OA
ATOM     84  O   UNL     1       1.081 -18.328 -11.117  1.00  0.00    -0.237 OA
ATOM     85  O   UNL     1       2.332 -17.918  -9.050  1.00  0.00    -0.744 OA
ENDBRANCH  79  82
ENDBRANCH  51  75
BRANCH  63  86
ATOM     86  C   UNL     1       1.020 -26.227  -2.681  1.00  0.00     0.023 A 
ATOM     87  C   UNL     1       2.398 -26.468  -2.838  1.00  0.00     0.012 A 
ATOM     88  C   UNL     1       0.137 -27.314  -2.531  1.00  0.00     0.148 A 
ATOM     89  C   UNL     1       2.891 -27.772  -2.852  1.00  0.00     0.002 A 
ATOM     90  C   UNL     1       0.639 -28.610  -2.510  1.00  0.00     0.091 A 
ATOM     91  F   UNL     1      -1.175 -27.062  -2.406  1.00  0.00    -0.205 F 
ATOM     92  C   UNL     1       2.015 -28.841  -2.675  1.00  0.00     0.022 A 
BRANCH  90  93
ATOM     93  S   UNL     1      -0.410 -30.035  -2.195  1.00  0.00     0.127 S 
ATOM     94  O   UNL     1      -0.591 -30.576  -3.541  1.00  0.00    -0.237 OA
ATOM     95  O   UNL     1       0.426 -30.854  -1.316  1.00  0.00    -0.237 OA
ATOM     96  O   UNL     1      -1.610 -29.508  -1.560  1.00  0.00    -0.744 OA
ENDBRANCH  90  93
ENDBRANCH  63  86
ENDBRANCH  37  38
ENDBRANCH  29  32
ENDBRANCH  27  28
ENDBRANCH  26  27
ENDBRANCH  25  26
ENDBRANCH   1  25
TORSDOF 20
