REMARK SMILES COc1cccc(-c2nn(-c3cc4c(cc3C(N)=O)OCO4)cc2C(=O)NCCCCNC(=O)c2ccc(-c3c4nc(c(-c5cccc(S(=O)(=O)[O-])c5F)c5ccc([nH]5)c(-c5cccc(S(=O)(=O)[O-])c5F)c5nc(c(-c6cccc(S(=O)(=O)[O-])c6F)c6ccc3[nH]6)C=C5)C=C4)cc2)c1
REMARK SMILES IDX 30 1 29 2 28 3 27 4 25 5 26 6 24 8 8 9 9 10 10 11 23 12 7 13
REMARK SMILES IDX 3 14 4 15 98 16 5 17 6 18 2 19 1 20 11 21 12 22 16 23 13 24
REMARK SMILES IDX 15 25 14 26 22 27 20 28 21 29 17 30 18 31 19 32 31 35 32 36
REMARK SMILES IDX 33 37 34 39 35 40 36 41 97 42 37 43 96 44 38 45 39 46 40 47
REMARK SMILES IDX 90 48 41 49 95 50 89 51 91 52 42 53 94 54 88 55 87 56 43 58
REMARK SMILES IDX 75 59 55 60 74 61 56 62 59 63 73 64 92 65 57 66 58 67 72 69
REMARK SMILES IDX 93 70 60 71 44 72 45 73 53 74 46 75 48 76 54 77 47 78 49 79
REMARK SMILES IDX 50 80 51 81 52 82 76 83 77 84 85 85 78 86 80 87 86 88 79 89
REMARK SMILES IDX 81 90 82 91 83 92 84 93 61 94 62 95 70 96 63 97 65 98 71 99
REMARK SMILES IDX 64 100 66 101 67 102 68 103 69 104
REMARK H PARENT 27 7 18 33 18 34 32 38 91 57 59 68
REMARK Flexibility Score: inf
ROOT
ATOM      1  C   UNL     1       5.493   9.513   3.056  1.00  0.00     0.023 C 
ENDROOT
BRANCH   1   2
ATOM      2  C   UNL     1       6.093   8.356   2.240  1.00  0.00     0.023 C 
BRANCH   2   3
ATOM      3  C   UNL     1       5.688   6.955   2.713  1.00  0.00     0.116 C 
BRANCH   3   4
ATOM      4  N   UNL     1       4.311   6.665   2.376  1.00  0.00    -0.352 N 
ATOM      5  C   UNL     1       3.717   6.029   1.314  1.00  0.00     0.255 C 
ATOM      6  O   UNL     1       2.486   6.035   1.316  1.00  0.00    -0.269 OA
ATOM      7  H   UNL     1       3.668   6.990   3.046  1.00  0.00     0.163 HD
BRANCH   5   8
ATOM      8  C   UNL     1       4.484   5.390   0.250  1.00  0.00     0.086 A 
ATOM      9  C   UNL     1       4.022   4.449  -0.743  1.00  0.00     0.106 A 
ATOM     10  N   UNL     1       5.043   3.997  -1.510  1.00  0.00    -0.167 NA
ATOM     11  N   UNL     1       6.137   4.464  -0.871  1.00  0.00    -0.239 N 
ATOM     12  C   UNL     1       5.816   5.534  -0.072  1.00  0.00     0.129 A 
BRANCH   9  13
ATOM     13  C   UNL     1       2.643   4.006  -0.975  1.00  0.00     0.007 A 
ATOM     14  C   UNL     1       0.961   2.259  -1.039  1.00  0.00     0.119 A 
ATOM     15  C   UNL     1      -0.027   3.215  -1.286  1.00  0.00     0.046 A 
ATOM     16  C   UNL     1       2.297   2.650  -0.896  1.00  0.00     0.056 A 
ATOM     17  C   UNL     1       0.310   4.562  -1.378  1.00  0.00     0.005 A 
ATOM     18  C   UNL     1       1.641   4.953  -1.238  1.00  0.00     0.011 A 
BRANCH  14  19
ATOM     19  O   UNL     1       0.538   0.956  -1.023  1.00  0.00    -0.497 OA
ATOM     20  C   UNL     1       1.046   0.202   0.078  1.00  0.00     0.278 C 
ENDBRANCH  14  19
ENDBRANCH   9  13
BRANCH  11  21
ATOM     21  C   UNL     1       7.461   4.057  -1.175  1.00  0.00     0.081 A 
ATOM     22  C   UNL     1       7.829   3.956  -2.530  1.00  0.00     0.079 A 
ATOM     23  C   UNL     1       8.424   3.855  -0.139  1.00  0.00     0.069 A 
ATOM     24  C   UNL     1       9.165   3.743  -2.807  1.00  0.00     0.167 A 
ATOM     25  C   UNL     1       9.781   3.733  -0.477  1.00  0.00     0.066 A 
ATOM     26  C   UNL     1      10.111   3.667  -1.810  1.00  0.00     0.166 A 
ATOM     27  O   UNL     1       9.723   3.599  -4.041  1.00  0.00    -0.454 OA
ATOM     28  O   UNL     1      11.367   3.469  -2.293  1.00  0.00    -0.454 OA
ATOM     29  C   UNL     1      11.067   3.216  -3.679  1.00  0.00     0.468 C 
BRANCH  23  30
ATOM     30  C   UNL     1       8.028   3.576   1.280  1.00  0.00     0.251 C 
ATOM     31  N   UNL     1       8.905   2.900   2.081  1.00  0.00    -0.366 N 
ATOM     32  O   UNL     1       6.933   3.866   1.746  1.00  0.00    -0.269 OA
ATOM     33  H   UNL     1       9.793   2.651   1.738  1.00  0.00     0.159 HD
ATOM     34  H   UNL     1       8.648   2.661   3.000  1.00  0.00     0.159 HD
ENDBRANCH  23  30
ENDBRANCH  11  21
ENDBRANCH   5   8
ENDBRANCH   3   4
ENDBRANCH   2   3
ENDBRANCH   1   2
BRANCH   1  35
ATOM     35  C   UNL     1       5.930   9.560   4.516  1.00  0.00     0.116 C 
BRANCH  35  36
ATOM     36  N   UNL     1       7.381   9.719   4.672  1.00  0.00    -0.352 N 
ATOM     37  C   UNL     1       8.136   9.619   5.827  1.00  0.00     0.251 C 
ATOM     38  H   UNL     1       7.881   9.922   3.849  1.00  0.00     0.163 HD
ATOM     39  O   UNL     1       9.239  10.148   5.905  1.00  0.00    -0.269 OA
BRANCH  37  40
ATOM     40  C   UNL     1       7.602   8.838   6.955  1.00  0.00     0.039 A 
ATOM     41  C   UNL     1       7.752   9.241   8.286  1.00  0.00     0.014 A 
ATOM     42  C   UNL     1       6.908   7.675   6.640  1.00  0.00     0.014 A 
ATOM     43  C   UNL     1       7.128   8.496   9.286  1.00  0.00     0.010 A 
ATOM     44  C   UNL     1       6.141   7.064   7.590  1.00  0.00     0.010 A 
ATOM     45  C   UNL     1       6.311   7.415   8.922  1.00  0.00    -0.014 A 
BRANCH  45  46
ATOM     46  C   UNL     1       5.495   6.699   9.894  1.00  0.00     0.031 A 
ATOM     47  C   UNL     1       4.538   7.573  10.621  1.00  0.00     0.074 A 
ATOM     48  C   UNL     1       5.442   5.346   9.915  1.00  0.00     0.049 A 
ATOM     49  N   UNL     1       4.564   7.882  11.875  1.00  0.00    -0.248 NA
ATOM     50  C   UNL     1       3.552   8.344   9.844  1.00  0.00     0.031 C 
ATOM     51  C   UNL     1       6.135   4.409   9.017  1.00  0.00     0.029 A 
ATOM     52  N   UNL     1       4.631   4.517  10.627  1.00  0.00    -0.354 N 
ATOM     53  C   UNL     1       3.423   8.652  12.087  1.00  0.00     0.074 A 
ATOM     54  C   UNL     1       3.009   9.113  10.791  1.00  0.00     0.031 C 
ATOM     55  C   UNL     1       5.519   3.208   9.053  1.00  0.00     0.029 A 
ATOM     56  C   UNL     1       4.500   3.238  10.082  1.00  0.00     0.049 A 
ATOM     57  H   UNL     1       4.176   4.795  11.455  1.00  0.00     0.167 HD
ATOM     58  C   UNL     1       2.743   8.574  13.265  1.00  0.00     0.034 A 
ATOM     59  C   UNL     1       3.583   2.292  10.416  1.00  0.00     0.034 A 
ATOM     60  C   UNL     1       3.530   7.896  14.268  1.00  0.00     0.049 A 
ATOM     61  C   UNL     1       3.067   2.648  11.757  1.00  0.00     0.074 A 
ATOM     62  C   UNL     1       4.780   8.085  14.824  1.00  0.00     0.029 A 
ATOM     63  N   UNL     1       3.188   6.591  14.535  1.00  0.00    -0.354 N 
ATOM     64  N   UNL     1       3.800   2.612  12.833  1.00  0.00    -0.248 NA
ATOM     65  C   UNL     1       1.886   3.493  11.828  1.00  0.00     0.031 C 
ATOM     66  C   UNL     1       5.318   6.773  14.969  1.00  0.00     0.029 A 
ATOM     67  C   UNL     1       4.339   5.853  14.588  1.00  0.00     0.049 A 
ATOM     68  H   UNL     1       2.275   6.248  14.665  1.00  0.00     0.167 HD
ATOM     69  C   UNL     1       3.472   3.784  13.499  1.00  0.00     0.074 A 
ATOM     70  C   UNL     1       2.208   4.220  12.903  1.00  0.00     0.031 C 
ATOM     71  C   UNL     1       4.407   4.452  14.238  1.00  0.00     0.034 A 
BRANCH  58  72
ATOM     72  C   UNL     1       1.240   8.704  13.423  1.00  0.00     0.023 A 
ATOM     73  C   UNL     1       0.739   8.688  14.746  1.00  0.00     0.012 A 
ATOM     74  C   UNL     1       0.296   8.545  12.384  1.00  0.00     0.148 A 
ATOM     75  C   UNL     1      -0.610   8.442  15.020  1.00  0.00     0.002 A 
ATOM     76  C   UNL     1      -1.057   8.375  12.658  1.00  0.00     0.091 A 
ATOM     77  F   UNL     1       0.698   8.421  11.118  1.00  0.00    -0.205 F 
ATOM     78  C   UNL     1      -1.510   8.286  13.975  1.00  0.00     0.022 A 
BRANCH  76  79
ATOM     79  S   UNL     1      -2.273   8.207  11.344  1.00  0.00     0.127 S 
ATOM     80  O   UNL     1      -2.632   6.796  11.460  1.00  0.00    -0.237 OA
ATOM     81  O   UNL     1      -3.306   9.149  11.774  1.00  0.00    -0.237 OA
ATOM     82  O   UNL     1      -1.586   8.592  10.118  1.00  0.00    -0.744 OA
ENDBRANCH  76  79
ENDBRANCH  58  72
BRANCH  59  83
ATOM     83  C   UNL     1       2.945   1.230   9.598  1.00  0.00     0.023 A 
ATOM     84  C   UNL     1       2.292   0.151  10.230  1.00  0.00     0.012 A 
ATOM     85  C   UNL     1       2.720   1.420   8.217  1.00  0.00     0.148 A 
ATOM     86  C   UNL     1       1.415  -0.683   9.522  1.00  0.00     0.002 A 
ATOM     87  C   UNL     1       1.850   0.588   7.517  1.00  0.00     0.091 A 
ATOM     88  F   UNL     1       3.282   2.474   7.612  1.00  0.00    -0.205 F 
ATOM     89  C   UNL     1       1.185  -0.458   8.168  1.00  0.00     0.022 A 
BRANCH  87  90
ATOM     90  S   UNL     1       1.473   0.847   5.777  1.00  0.00     0.127 S 
ATOM     91  O   UNL     1       1.647  -0.497   5.224  1.00  0.00    -0.237 OA
ATOM     92  O   UNL     1       0.090   1.312   5.837  1.00  0.00    -0.237 OA
ATOM     93  O   UNL     1       2.450   1.819   5.305  1.00  0.00    -0.744 OA
ENDBRANCH  87  90
ENDBRANCH  59  83
BRANCH  71  94
ATOM     94  C   UNL     1       5.718   3.758  14.516  1.00  0.00     0.023 A 
ATOM     95  C   UNL     1       6.624   3.394  13.496  1.00  0.00     0.012 A 
ATOM     96  C   UNL     1       6.118   3.625  15.854  1.00  0.00     0.148 A 
ATOM     97  C   UNL     1       7.888   2.884  13.807  1.00  0.00     0.002 A 
ATOM     98  C   UNL     1       7.392   3.164  16.159  1.00  0.00     0.091 A 
ATOM     99  F   UNL     1       5.248   3.980  16.812  1.00  0.00    -0.205 F 
ATOM    100  C   UNL     1       8.277   2.782  15.140  1.00  0.00     0.022 A 
BRANCH  98 101
ATOM    101  S   UNL     1       7.989   3.132  17.849  1.00  0.00     0.127 S 
ATOM    102  O   UNL     1       7.929   1.707  18.166  1.00  0.00    -0.237 OA
ATOM    103  O   UNL     1       9.343   3.674  17.715  1.00  0.00    -0.237 OA
ATOM    104  O   UNL     1       7.083   3.984  18.610  1.00  0.00    -0.744 OA
ENDBRANCH  98 101
ENDBRANCH  71  94
ENDBRANCH  45  46
ENDBRANCH  37  40
ENDBRANCH  35  36
ENDBRANCH   1  35
TORSDOF 18
