REMARK SMILES COC(CNS(=O)(=O)c1ccc(Cl)c(C(=O)NCCCCNC(=O)c2ccc(-c3c4nc(c(-c5cccc(S(=O)(=O)[O-])c5F)c5ccc([nH]5)c(-c5cccc(S(=O)(=O)[O-])c5F)c5nc(c(-c6cccc(S(=O)(=O)[O-])c6F)c6ccc3[nH]6)C=C5)C=C4)cc2)c1Cl)OC
REMARK SMILES IDX 18 1 17 2 15 3 16 4 14 6 9 7 10 8 88 9 11 10 89 11 12 12
REMARK SMILES IDX 13 13 6 14 7 15 8 16 5 17 4 19 3 20 2 21 1 22 90 23 91 24
REMARK SMILES IDX 19 25 20 26 21 27 22 28 23 29 24 31 25 32 26 33 87 34 27 35
REMARK SMILES IDX 86 36 28 37 29 38 30 39 80 40 31 41 85 42 79 43 81 44 32 45
REMARK SMILES IDX 84 46 78 47 77 48 33 50 65 51 45 52 64 53 46 54 49 55 63 56
REMARK SMILES IDX 82 57 47 58 48 59 62 61 83 62 50 63 34 64 35 65 43 66 36 67
REMARK SMILES IDX 38 68 44 69 37 70 39 71 40 72 41 73 42 74 66 75 67 76 75 77
REMARK SMILES IDX 68 78 70 79 76 80 69 81 71 82 72 83 73 84 74 85 51 86 52 87
REMARK SMILES IDX 60 88 53 89 55 90 61 91 54 92 56 93 57 94 58 95 59 96
REMARK H PARENT 17 5 5 18 22 30 81 49 49 60
REMARK Flexibility Score: inf
ROOT
ATOM      1  C   UNL     1       3.443   9.495  -1.221  1.00  0.00     0.116 C 
ENDROOT
BRANCH   1   2
ATOM      2  N   UNL     1       3.787   8.095  -1.158  1.00  0.00    -0.352 N 
ATOM      3  C   UNL     1       3.379   6.982  -0.481  1.00  0.00     0.254 C 
ATOM      4  O   UNL     1       3.920   5.968  -0.935  1.00  0.00    -0.269 OA
ATOM      5  H   UNL     1       4.523   7.883  -1.776  1.00  0.00     0.163 HD
BRANCH   3   6
ATOM      6  C   UNL     1       2.309   6.823   0.581  1.00  0.00     0.078 A 
ATOM      7  C   UNL     1       0.774   5.156   1.563  1.00  0.00     0.101 A 
ATOM      8  C   UNL     1      -0.142   6.159   1.867  1.00  0.00     0.025 A 
ATOM      9  C   UNL     1       2.018   5.482   0.995  1.00  0.00     0.075 A 
ATOM     10  C   UNL     1       0.229   7.479   1.696  1.00  0.00     0.023 A 
ATOM     11  Cl  UNL     1       3.302   4.299   1.116  1.00  0.00    -0.082 Cl
ATOM     12  C   UNL     1       1.456   7.814   1.098  1.00  0.00     0.055 A 
ATOM     13  Cl  UNL     1       1.865   9.456   1.408  1.00  0.00    -0.083 Cl
BRANCH   7  14
ATOM     14  S   UNL     1       0.259   3.505   1.949  1.00  0.00     0.242 S 
ATOM     15  O   UNL     1      -1.183   3.457   1.785  1.00  0.00    -0.207 OA
ATOM     16  O   UNL     1       0.874   3.147   3.202  1.00  0.00    -0.207 OA
BRANCH  14  17
ATOM     17  N   UNL     1       0.888   2.498   0.793  1.00  0.00    -0.206 NA
ATOM     18  H   UNL     1       1.888   2.697   0.756  1.00  0.00     0.141 HD
BRANCH  17  19
ATOM     19  C   UNL     1       0.415   2.513  -0.595  1.00  0.00     0.161 C 
BRANCH  19  20
ATOM     20  C   UNL     1       1.105   1.473  -1.525  1.00  0.00     0.263 C 
BRANCH  20  21
ATOM     21  O   UNL     1       0.710   0.105  -1.409  1.00  0.00    -0.355 OA
ATOM     22  C   UNL     1       0.628  -0.457  -0.116  1.00  0.00     0.198 C 
ENDBRANCH  20  21
BRANCH  20  23
ATOM     23  O   UNL     1       2.498   1.701  -1.735  1.00  0.00    -0.355 OA
ATOM     24  C   UNL     1       3.406   1.143  -0.810  1.00  0.00     0.198 C 
ENDBRANCH  20  23
ENDBRANCH  19  20
ENDBRANCH  17  19
ENDBRANCH  14  17
ENDBRANCH   7  14
ENDBRANCH   3   6
ENDBRANCH   1   2
BRANCH   1  25
ATOM     25  C   UNL     1       4.314  10.310  -0.263  1.00  0.00     0.023 C 
BRANCH  25  26
ATOM     26  C   UNL     1       5.591  10.873  -0.879  1.00  0.00     0.023 C 
BRANCH  26  27
ATOM     27  C   UNL     1       5.366  11.826  -2.044  1.00  0.00     0.116 C 
BRANCH  27  28
ATOM     28  N   UNL     1       4.428  12.904  -1.749  1.00  0.00    -0.352 N 
ATOM     29  C   UNL     1       4.437  14.186  -2.245  1.00  0.00     0.251 C 
ATOM     30  H   UNL     1       3.702  12.688  -1.120  1.00  0.00     0.163 HD
ATOM     31  O   UNL     1       3.641  15.026  -1.840  1.00  0.00    -0.269 OA
BRANCH  29  32
ATOM     32  C   UNL     1       5.458  14.532  -3.251  1.00  0.00     0.039 A 
ATOM     33  C   UNL     1       6.315  15.604  -3.004  1.00  0.00     0.014 A 
ATOM     34  C   UNL     1       5.627  13.719  -4.374  1.00  0.00     0.014 A 
ATOM     35  C   UNL     1       7.394  15.822  -3.860  1.00  0.00     0.010 A 
ATOM     36  C   UNL     1       6.752  13.883  -5.169  1.00  0.00     0.010 A 
ATOM     37  C   UNL     1       7.643  14.939  -4.925  1.00  0.00    -0.014 A 
BRANCH  37  38
ATOM     38  C   UNL     1       8.832  15.101  -5.796  1.00  0.00     0.031 A 
ATOM     39  C   UNL     1       8.654  15.354  -7.268  1.00  0.00     0.074 A 
ATOM     40  C   UNL     1      10.066  14.936  -5.279  1.00  0.00     0.049 A 
ATOM     41  N   UNL     1       9.563  15.473  -8.198  1.00  0.00    -0.248 NA
ATOM     42  C   UNL     1       7.271  15.459  -7.766  1.00  0.00     0.031 C 
ATOM     43  C   UNL     1      10.363  14.604  -3.883  1.00  0.00     0.029 A 
ATOM     44  N   UNL     1      11.301  15.002  -5.873  1.00  0.00    -0.354 N 
ATOM     45  C   UNL     1       8.867  15.630  -9.390  1.00  0.00     0.074 A 
ATOM     46  C   UNL     1       7.459  15.549  -9.073  1.00  0.00     0.031 C 
ATOM     47  C   UNL     1      11.693  14.506  -3.727  1.00  0.00     0.029 A 
ATOM     48  C   UNL     1      12.342  14.733  -5.014  1.00  0.00     0.049 A 
ATOM     49  H   UNL     1      11.430  15.220  -6.824  1.00  0.00     0.167 HD
ATOM     50  C   UNL     1       9.354  15.855 -10.633  1.00  0.00     0.034 A 
ATOM     51  C   UNL     1      13.668  14.668  -5.242  1.00  0.00     0.034 A 
ATOM     52  C   UNL     1      10.753  15.973 -10.935  1.00  0.00     0.049 A 
ATOM     53  C   UNL     1      14.184  14.952  -6.627  1.00  0.00     0.074 A 
ATOM     54  C   UNL     1      11.347  16.287 -12.145  1.00  0.00     0.029 A 
ATOM     55  N   UNL     1      11.779  15.774 -10.024  1.00  0.00    -0.354 N 
ATOM     56  N   UNL     1      13.512  15.258  -7.711  1.00  0.00    -0.248 NA
ATOM     57  C   UNL     1      15.641  14.920  -6.814  1.00  0.00     0.031 C 
ATOM     58  C   UNL     1      12.734  16.244 -11.972  1.00  0.00     0.029 A 
ATOM     59  C   UNL     1      13.003  15.944 -10.646  1.00  0.00     0.049 A 
ATOM     60  H   UNL     1      11.654  15.545  -9.075  1.00  0.00     0.167 HD
ATOM     61  C   UNL     1      14.464  15.492  -8.696  1.00  0.00     0.074 A 
ATOM     62  C   UNL     1      15.760  15.313  -8.075  1.00  0.00     0.031 C 
ATOM     63  C   UNL     1      14.284  15.814 -10.001  1.00  0.00     0.034 A 
BRANCH  50  64
ATOM     64  C   UNL     1       8.361  16.035 -11.752  1.00  0.00     0.023 A 
ATOM     65  C   UNL     1       7.563  17.197 -11.797  1.00  0.00     0.012 A 
ATOM     66  C   UNL     1       8.259  15.085 -12.786  1.00  0.00     0.148 A 
ATOM     67  C   UNL     1       6.653  17.394 -12.834  1.00  0.00     0.002 A 
ATOM     68  C   UNL     1       7.385  15.313 -13.843  1.00  0.00     0.091 A 
ATOM     69  F   UNL     1       9.010  13.977 -12.715  1.00  0.00    -0.205 F 
ATOM     70  C   UNL     1       6.573  16.459 -13.862  1.00  0.00     0.022 A 
BRANCH  68  71
ATOM     71  S   UNL     1       7.266  14.212 -15.257  1.00  0.00     0.127 S 
ATOM     72  O   UNL     1       5.928  13.650 -15.081  1.00  0.00    -0.237 OA
ATOM     73  O   UNL     1       7.394  15.142 -16.380  1.00  0.00    -0.237 OA
ATOM     74  O   UNL     1       8.362  13.263 -15.123  1.00  0.00    -0.744 OA
ENDBRANCH  68  71
ENDBRANCH  50  64
BRANCH  51  75
ATOM     75  C   UNL     1      14.608  14.374  -4.122  1.00  0.00     0.023 A 
ATOM     76  C   UNL     1      15.473  15.385  -3.658  1.00  0.00     0.012 A 
ATOM     77  C   UNL     1      14.642  13.107  -3.508  1.00  0.00     0.148 A 
ATOM     78  C   UNL     1      16.382  15.128  -2.631  1.00  0.00     0.002 A 
ATOM     79  C   UNL     1      15.510  12.876  -2.447  1.00  0.00     0.091 A 
ATOM     80  F   UNL     1      13.818  12.156  -3.969  1.00  0.00    -0.205 F 
ATOM     81  C   UNL     1      16.394  13.878  -2.020  1.00  0.00     0.022 A 
BRANCH  79  82
ATOM     82  S   UNL     1      15.504  11.339  -1.517  1.00  0.00     0.127 S 
ATOM     83  O   UNL     1      16.783  10.751  -1.904  1.00  0.00    -0.237 OA
ATOM     84  O   UNL     1      15.439  11.824  -0.137  1.00  0.00    -0.237 OA
ATOM     85  O   UNL     1      14.317  10.618  -1.955  1.00  0.00    -0.744 OA
ENDBRANCH  79  82
ENDBRANCH  51  75
BRANCH  63  86
ATOM     86  C   UNL     1      15.512  16.044 -10.842  1.00  0.00     0.023 A 
ATOM     87  C   UNL     1      16.326  14.957 -11.216  1.00  0.00     0.012 A 
ATOM     88  C   UNL     1      15.812  17.332 -11.327  1.00  0.00     0.148 A 
ATOM     89  C   UNL     1      17.440  15.154 -12.030  1.00  0.00     0.002 A 
ATOM     90  C   UNL     1      16.892  17.513 -12.181  1.00  0.00     0.091 A 
ATOM     91  F   UNL     1      15.034  18.356 -10.946  1.00  0.00    -0.205 F 
ATOM     92  C   UNL     1      17.716  16.428 -12.523  1.00  0.00     0.022 A 
BRANCH  90  93
ATOM     93  S   UNL     1      17.263  19.095 -12.945  1.00  0.00     0.127 S 
ATOM     94  O   UNL     1      18.494  19.477 -12.256  1.00  0.00    -0.237 OA
ATOM     95  O   UNL     1      17.440  18.726 -14.350  1.00  0.00    -0.237 OA
ATOM     96  O   UNL     1      16.112  19.949 -12.684  1.00  0.00    -0.744 OA
ENDBRANCH  90  93
ENDBRANCH  63  86
ENDBRANCH  37  38
ENDBRANCH  29  32
ENDBRANCH  27  28
ENDBRANCH  26  27
ENDBRANCH  25  26
ENDBRANCH   1  25
TORSDOF 20
