REMARK SMILES C[NH2+][C@]1(C(=O)NCCCCNC(=O)c2ccc(-c3c4nc(c(-c5cccc(S(=O)(=O)[O-])c5F)c5ccc([nH]5)c(-c5cccc(S(=O)(=O)[O-])c5F)c5nc(c(-c6cccc(S(=O)(=O)[O-])c6F)c6ccc3[nH]6)C=C5)C=C4)cc2)CCC[C@@H]1CC[N@H+]1CCC[C@H]([NH+](C)C)C1
REMARK SMILES IDX 8 1 7 2 6 3 4 4 5 5 3 7 77 8 80 9 78 10 79 11 2 12 1 13
REMARK SMILES IDX 81 16 82 17 83 18 84 19 91 20 85 22 87 23 86 24 88 25 89 26
REMARK SMILES IDX 90 27 9 29 10 30 11 31 12 32 13 34 14 35 15 36 76 37 16 38
REMARK SMILES IDX 75 39 17 40 18 41 19 42 69 43 20 44 74 45 68 46 70 47 21 48
REMARK SMILES IDX 73 49 67 50 66 51 22 53 54 54 34 55 53 56 35 57 38 58 52 59
REMARK SMILES IDX 71 60 36 61 37 62 51 64 72 65 39 66 23 67 24 68 32 69 25 70
REMARK SMILES IDX 27 71 33 72 26 73 28 74 29 75 30 76 31 77 55 78 56 79 64 80
REMARK SMILES IDX 57 81 59 82 65 83 58 84 60 85 61 86 62 87 63 88 40 89 41 90
REMARK SMILES IDX 49 91 42 92 44 93 50 94 43 95 45 96 46 97 47 98 48 99
REMARK H PARENT 6 6 2 14 2 15 83 21 88 28 11 33 70 52 38 63
REMARK Flexibility Score: inf
ROOT
ATOM      1  C   UNL     1       0.782   1.022  -2.737  1.00  0.00     0.023 C 
ENDROOT
BRANCH   1   2
ATOM      2  C   UNL     1       0.619  -0.475  -2.462  1.00  0.00     0.116 C 
BRANCH   2   3
ATOM      3  N   UNL     1       0.989  -0.789  -1.093  1.00  0.00    -0.351 N 
ATOM      4  C   UNL     1       0.277  -1.023   0.049  1.00  0.00     0.281 C 
ATOM      5  O   UNL     1       0.981  -1.148   1.059  1.00  0.00    -0.268 OA
ATOM      6  H   UNL     1       1.963  -0.845  -0.959  1.00  0.00     0.163 HD
BRANCH   4   7
ATOM      7  C   UNL     1      -1.290  -1.212   0.079  1.00  0.00     0.178 C 
ATOM      8  C   UNL     1      -2.010  -0.015  -0.588  1.00  0.00     0.079 C 
ATOM      9  C   UNL     1      -1.754  -2.417  -0.800  1.00  0.00     0.066 C 
ATOM     10  C   UNL     1      -3.337  -0.550  -1.109  1.00  0.00     0.008 C 
ATOM     11  C   UNL     1      -3.180  -2.061  -1.254  1.00  0.00     0.011 C 
BRANCH   7  12
ATOM     12  N   UNL     1      -1.838  -1.173   1.470  1.00  0.00    -0.336 N 
ATOM     13  C   UNL     1      -1.399  -2.159   2.441  1.00  0.00     0.331 C 
ATOM     14  H   UNL     1      -1.608  -0.257   1.853  1.00  0.00     0.346 HD
ATOM     15  H   UNL     1      -2.827  -1.388   1.343  1.00  0.00     0.346 HD
ENDBRANCH   7  12
BRANCH   9  16
ATOM     16  C   UNL     1      -1.674  -3.803  -0.132  1.00  0.00     0.072 C 
BRANCH  16  17
ATOM     17  C   UNL     1      -1.405  -4.999  -1.057  1.00  0.00     0.262 C 
BRANCH  17  18
ATOM     18  N   UNL     1      -0.119  -5.028  -1.771  1.00  0.00    -0.330 N 
ATOM     19  C   UNL     1       1.034  -4.504  -1.029  1.00  0.00     0.262 C 
ATOM     20  C   UNL     1       0.189  -6.415  -2.183  1.00  0.00     0.327 C 
ATOM     21  H   UNL     1      -0.253  -4.402  -2.565  1.00  0.00     0.348 HD
ATOM     22  C   UNL     1       2.254  -4.404  -1.942  1.00  0.00     0.068 C 
ATOM     23  C   UNL     1       1.400  -6.522  -3.152  1.00  0.00     0.239 C 
ATOM     24  C   UNL     1       2.609  -5.738  -2.592  1.00  0.00     0.077 C 
BRANCH  23  25
ATOM     25  N   UNL     1       1.122  -6.258  -4.586  1.00  0.00    -0.333 N 
ATOM     26  C   UNL     1       0.177  -7.227  -5.144  1.00  0.00     0.332 C 
ATOM     27  C   UNL     1       0.678  -4.902  -4.889  1.00  0.00     0.332 C 
ATOM     28  H   UNL     1       2.032  -6.365  -5.035  1.00  0.00     0.348 HD
ENDBRANCH  23  25
ENDBRANCH  17  18
ENDBRANCH  16  17
ENDBRANCH   9  16
ENDBRANCH   4   7
ENDBRANCH   2   3
ENDBRANCH   1   2
BRANCH   1  29
ATOM     29  C   UNL     1       2.233   1.479  -2.909  1.00  0.00     0.023 C 
BRANCH  29  30
ATOM     30  C   UNL     1       2.957   0.890  -4.115  1.00  0.00     0.116 C 
BRANCH  30  31
ATOM     31  N   UNL     1       2.300   1.193  -5.378  1.00  0.00    -0.352 N 
ATOM     32  C   UNL     1       2.865   1.522  -6.588  1.00  0.00     0.251 C 
ATOM     33  H   UNL     1       1.316   1.157  -5.364  1.00  0.00     0.163 HD
ATOM     34  O   UNL     1       2.155   1.867  -7.524  1.00  0.00    -0.269 OA
BRANCH  32  35
ATOM     35  C   UNL     1       4.336   1.488  -6.737  1.00  0.00     0.039 A 
ATOM     36  C   UNL     1       4.978   2.580  -7.328  1.00  0.00     0.014 A 
ATOM     37  C   UNL     1       5.079   0.398  -6.277  1.00  0.00     0.014 A 
ATOM     38  C   UNL     1       6.373   2.606  -7.397  1.00  0.00     0.010 A 
ATOM     39  C   UNL     1       6.469   0.457  -6.284  1.00  0.00     0.010 A 
ATOM     40  C   UNL     1       7.130   1.560  -6.845  1.00  0.00    -0.014 A 
BRANCH  40  41
ATOM     41  C   UNL     1       8.615   1.609  -6.826  1.00  0.00     0.031 A 
ATOM     42  C   UNL     1       9.418   0.579  -7.571  1.00  0.00     0.074 A 
ATOM     43  C   UNL     1       9.238   2.524  -6.057  1.00  0.00     0.049 A 
ATOM     44  N   UNL     1      10.716   0.425  -7.622  1.00  0.00    -0.248 NA
ATOM     45  C   UNL     1       8.666  -0.429  -8.336  1.00  0.00     0.031 C 
ATOM     46  C   UNL     1       8.570   3.520  -5.217  1.00  0.00     0.029 A 
ATOM     47  N   UNL     1      10.575   2.744  -5.832  1.00  0.00    -0.354 N 
ATOM     48  C   UNL     1      10.934  -0.714  -8.386  1.00  0.00     0.074 A 
ATOM     49  C   UNL     1       9.635  -1.231  -8.755  1.00  0.00     0.031 C 
ATOM     50  C   UNL     1       9.497   4.242  -4.568  1.00  0.00     0.029 A 
ATOM     51  C   UNL     1      10.823   3.747  -4.924  1.00  0.00     0.049 A 
ATOM     52  H   UNL     1      11.287   2.233  -6.279  1.00  0.00     0.167 HD
ATOM     53  C   UNL     1      12.110  -1.265  -8.771  1.00  0.00     0.034 A 
ATOM     54  C   UNL     1      11.987   4.212  -4.428  1.00  0.00     0.034 A 
ATOM     55  C   UNL     1      13.400  -0.719  -8.446  1.00  0.00     0.049 A 
ATOM     56  C   UNL     1      13.280   3.621  -4.920  1.00  0.00     0.074 A 
ATOM     57  C   UNL     1      14.645  -1.141  -8.876  1.00  0.00     0.029 A 
ATOM     58  N   UNL     1      13.612   0.363  -7.607  1.00  0.00    -0.354 N 
ATOM     59  N   UNL     1      13.468   2.653  -5.784  1.00  0.00    -0.248 NA
ATOM     60  C   UNL     1      14.522   4.211  -4.401  1.00  0.00     0.031 C 
ATOM     61  C   UNL     1      15.613  -0.327  -8.278  1.00  0.00     0.029 A 
ATOM     62  C   UNL     1      14.969   0.618  -7.497  1.00  0.00     0.049 A 
ATOM     63  H   UNL     1      12.903   0.876  -7.155  1.00  0.00     0.167 HD
ATOM     64  C   UNL     1      14.845   2.540  -5.938  1.00  0.00     0.074 A 
ATOM     65  C   UNL     1      15.443   3.554  -5.094  1.00  0.00     0.031 C 
ATOM     66  C   UNL     1      15.550   1.665  -6.696  1.00  0.00     0.034 A 
BRANCH  53  67
ATOM     67  C   UNL     1      12.058  -2.494  -9.641  1.00  0.00     0.023 A 
ATOM     68  C   UNL     1      11.644  -2.378 -10.983  1.00  0.00     0.012 A 
ATOM     69  C   UNL     1      12.478  -3.747  -9.153  1.00  0.00     0.148 A 
ATOM     70  C   UNL     1      11.616  -3.494 -11.818  1.00  0.00     0.002 A 
ATOM     71  C   UNL     1      12.490  -4.847 -10.004  1.00  0.00     0.091 A 
ATOM     72  F   UNL     1      12.848  -3.843  -7.868  1.00  0.00    -0.205 F 
ATOM     73  C   UNL     1      12.049  -4.724 -11.332  1.00  0.00     0.022 A 
BRANCH  71  74
ATOM     74  S   UNL     1      13.105  -6.457  -9.498  1.00  0.00     0.127 S 
ATOM     75  O   UNL     1      11.869  -7.236  -9.427  1.00  0.00    -0.237 OA
ATOM     76  O   UNL     1      13.986  -6.813 -10.611  1.00  0.00    -0.237 OA
ATOM     77  O   UNL     1      13.786  -6.246  -8.229  1.00  0.00    -0.744 OA
ENDBRANCH  71  74
ENDBRANCH  53  67
BRANCH  54  78
ATOM     78  C   UNL     1      11.981   5.346  -3.461  1.00  0.00     0.023 A 
ATOM     79  C   UNL     1      12.438   6.611  -3.877  1.00  0.00     0.012 A 
ATOM     80  C   UNL     1      11.493   5.188  -2.149  1.00  0.00     0.148 A 
ATOM     81  C   UNL     1      12.439   7.692  -2.995  1.00  0.00     0.002 A 
ATOM     82  C   UNL     1      11.446   6.283  -1.293  1.00  0.00     0.091 A 
ATOM     83  F   UNL     1      11.073   3.973  -1.769  1.00  0.00    -0.205 F 
ATOM     84  C   UNL     1      11.934   7.531  -1.708  1.00  0.00     0.022 A 
BRANCH  82  85
ATOM     85  S   UNL     1      10.691   6.200   0.335  1.00  0.00     0.127 S 
ATOM     86  O   UNL     1      11.856   6.287   1.210  1.00  0.00    -0.237 OA
ATOM     87  O   UNL     1       9.833   7.385   0.330  1.00  0.00    -0.237 OA
ATOM     88  O   UNL     1       9.966   4.936   0.367  1.00  0.00    -0.744 OA
ENDBRANCH  82  85
ENDBRANCH  54  78
BRANCH  66  89
ATOM     89  C   UNL     1      17.052   1.778  -6.682  1.00  0.00     0.023 A 
ATOM     90  C   UNL     1      17.774   1.359  -5.547  1.00  0.00     0.012 A 
ATOM     91  C   UNL     1      17.751   2.221  -7.822  1.00  0.00     0.148 A 
ATOM     92  C   UNL     1      19.168   1.408  -5.536  1.00  0.00     0.002 A 
ATOM     93  C   UNL     1      19.140   2.222  -7.822  1.00  0.00     0.091 A 
ATOM     94  F   UNL     1      17.045   2.634  -8.885  1.00  0.00    -0.205 F 
ATOM     95  C   UNL     1      19.850   1.827  -6.676  1.00  0.00     0.022 A 
BRANCH  93  96
ATOM     96  S   UNL     1      20.102   2.653  -9.277  1.00  0.00     0.127 S 
ATOM     97  O   UNL     1      20.616   3.973  -8.914  1.00  0.00    -0.237 OA
ATOM     98  O   UNL     1      21.110   1.593  -9.309  1.00  0.00    -0.237 OA
ATOM     99  O   UNL     1      19.168   2.631 -10.395  1.00  0.00    -0.744 OA
ENDBRANCH  93  96
ENDBRANCH  66  89
ENDBRANCH  40  41
ENDBRANCH  32  35
ENDBRANCH  30  31
ENDBRANCH  29  30
ENDBRANCH   1  29
TORSDOF 19
