REMARK SMILES C=C(C)CN(CC)c1ccc(F)cc1C(=O)NCCCCNC(=O)c1ccc(-c2c3nc(c(-c4cccc(S(=O)(=O)[O-])c4F)c4ccc([nH]4)c(-c4cccc(S(=O)(=O)[O-])c4F)c4nc(c(-c5cccc(S(=O)(=O)[O-])c5F)c5ccc2[nH]5)C=C4)C=C3)cc1
REMARK SMILES IDX 19 1 18 2 17 3 15 4 16 5 14 7 8 8 9 9 10 10 13 11 11 12
REMARK SMILES IDX 12 13 5 14 4 15 2 16 1 17 3 18 6 19 7 20 20 21 21 22 22 23
REMARK SMILES IDX 23 24 24 26 25 27 26 28 87 29 27 30 86 31 28 32 29 33 30 34
REMARK SMILES IDX 80 35 31 36 85 37 79 38 81 39 32 40 84 41 78 42 77 43 33 45
REMARK SMILES IDX 65 46 45 47 64 48 46 49 49 50 63 51 82 52 47 53 48 54 62 56
REMARK SMILES IDX 83 57 50 58 34 59 35 60 43 61 36 62 38 63 44 64 37 65 39 66
REMARK SMILES IDX 40 67 41 68 42 69 66 70 67 71 75 72 68 73 70 74 76 75 69 76
REMARK SMILES IDX 71 77 72 78 73 79 74 80 51 81 52 82 60 83 53 84 55 85 61 86
REMARK SMILES IDX 54 87 56 88 57 89 58 90 59 91
REMARK H PARENT 17 6 22 25 81 44 49 55
REMARK Flexibility Score: inf
ROOT
ATOM      1  C   UNL     1       2.355  -3.619   4.577  1.00  0.00     0.023 C 
ENDROOT
BRANCH   1   2
ATOM      2  C   UNL     1       2.131  -3.849   3.090  1.00  0.00     0.116 C 
BRANCH   2   3
ATOM      3  N   UNL     1       2.583  -5.091   2.533  1.00  0.00    -0.352 N 
ATOM      4  C   UNL     1       2.383  -5.570   1.258  1.00  0.00     0.253 C 
ATOM      5  O   UNL     1       2.937  -6.635   0.968  1.00  0.00    -0.269 OA
ATOM      6  H   UNL     1       3.099  -5.673   3.137  1.00  0.00     0.163 HD
BRANCH   4   7
ATOM      7  C   UNL     1       1.482  -4.947   0.225  1.00  0.00     0.066 A 
ATOM      8  C   UNL     1       1.383  -3.585  -0.172  1.00  0.00     0.050 A 
ATOM      9  C   UNL     1       0.552  -3.287  -1.280  1.00  0.00     0.030 A 
ATOM     10  C   UNL     1      -0.184  -4.258  -1.955  1.00  0.00     0.041 A 
ATOM     11  C   UNL     1       0.743  -5.921  -0.490  1.00  0.00     0.055 A 
ATOM     12  C   UNL     1      -0.080  -5.572  -1.551  1.00  0.00     0.124 A 
ATOM     13  F   UNL     1      -0.763  -6.519  -2.207  1.00  0.00    -0.207 F 
BRANCH   8  14
ATOM     14  N   UNL     1       2.081  -2.523   0.399  1.00  0.00    -0.367 N 
BRANCH  14  15
ATOM     15  C   UNL     1       1.341  -1.499   1.165  1.00  0.00     0.146 C 
BRANCH  15  16
ATOM     16  C   UNL     1       0.529  -0.528   0.348  1.00  0.00    -0.061 C 
ATOM     17  C   UNL     1       1.077   0.415  -0.435  1.00  0.00     0.009 C 
ATOM     18  C   UNL     1      -0.960  -0.611   0.559  1.00  0.00     0.041 C 
ENDBRANCH  15  16
ENDBRANCH  14  15
BRANCH  14  19
ATOM     19  C   UNL     1       3.414  -2.181  -0.116  1.00  0.00     0.113 C 
ATOM     20  C   UNL     1       4.415  -3.328  -0.057  1.00  0.00     0.027 C 
ENDBRANCH  14  19
ENDBRANCH   8  14
ENDBRANCH   4   7
ENDBRANCH   2   3
ENDBRANCH   1   2
BRANCH   1  21
ATOM     21  C   UNL     1       3.808  -3.642   5.059  1.00  0.00     0.023 C 
BRANCH  21  22
ATOM     22  C   UNL     1       4.848  -2.906   4.214  1.00  0.00     0.116 C 
BRANCH  22  23
ATOM     23  N   UNL     1       4.694  -1.458   4.176  1.00  0.00    -0.352 N 
ATOM     24  C   UNL     1       5.461  -0.450   4.725  1.00  0.00     0.251 C 
ATOM     25  H   UNL     1       3.907  -1.145   3.674  1.00  0.00     0.163 HD
ATOM     26  O   UNL     1       5.106   0.713   4.589  1.00  0.00    -0.269 OA
BRANCH  24  27
ATOM     27  C   UNL     1       6.678  -0.759   5.518  1.00  0.00     0.039 A 
ATOM     28  C   UNL     1       6.858  -0.106   6.742  1.00  0.00     0.014 A 
ATOM     29  C   UNL     1       7.636  -1.674   5.081  1.00  0.00     0.014 A 
ATOM     30  C   UNL     1       7.931  -0.455   7.571  1.00  0.00     0.010 A 
ATOM     31  C   UNL     1       8.654  -2.085   5.944  1.00  0.00     0.010 A 
ATOM     32  C   UNL     1       8.805  -1.493   7.207  1.00  0.00    -0.014 A 
BRANCH  32  33
ATOM     33  C   UNL     1       9.831  -2.006   8.158  1.00  0.00     0.031 A 
ATOM     34  C   UNL     1      11.298  -1.956   7.824  1.00  0.00     0.074 A 
ATOM     35  C   UNL     1       9.432  -2.601   9.302  1.00  0.00     0.049 A 
ATOM     36  N   UNL     1      12.316  -2.385   8.526  1.00  0.00    -0.248 NA
ATOM     37  C   UNL     1      11.673  -1.371   6.527  1.00  0.00     0.031 C 
ATOM     38  C   UNL     1       8.039  -2.794   9.711  1.00  0.00     0.029 A 
ATOM     39  N   UNL     1      10.156  -3.170  10.323  1.00  0.00    -0.354 N 
ATOM     40  C   UNL     1      13.444  -2.149   7.750  1.00  0.00     0.074 A 
ATOM     41  C   UNL     1      12.984  -1.572   6.506  1.00  0.00     0.031 C 
ATOM     42  C   UNL     1       8.009  -3.414  10.900  1.00  0.00     0.029 A 
ATOM     43  C   UNL     1       9.376  -3.698  11.328  1.00  0.00     0.049 A 
ATOM     44  H   UNL     1      11.140  -3.198  10.336  1.00  0.00     0.167 HD
ATOM     45  C   UNL     1      14.746  -2.362   8.056  1.00  0.00     0.034 A 
ATOM     46  C   UNL     1       9.714  -4.339  12.465  1.00  0.00     0.034 A 
ATOM     47  C   UNL     1      15.207  -2.895   9.310  1.00  0.00     0.049 A 
ATOM     48  C   UNL     1      11.168  -4.533  12.798  1.00  0.00     0.074 A 
ATOM     49  C   UNL     1      16.512  -3.061   9.742  1.00  0.00     0.029 A 
ATOM     50  N   UNL     1      14.388  -3.354  10.329  1.00  0.00    -0.354 N 
ATOM     51  N   UNL     1      12.223  -4.160  12.117  1.00  0.00    -0.248 NA
ATOM     52  C   UNL     1      11.482  -5.204  14.069  1.00  0.00     0.031 C 
ATOM     53  C   UNL     1      16.482  -3.645  11.010  1.00  0.00     0.029 A 
ATOM     54  C   UNL     1      15.159  -3.813  11.384  1.00  0.00     0.049 A 
ATOM     55  H   UNL     1      13.404  -3.353  10.307  1.00  0.00     0.167 HD
ATOM     56  C   UNL     1      13.323  -4.520  12.888  1.00  0.00     0.074 A 
ATOM     57  C   UNL     1      12.807  -5.128  14.096  1.00  0.00     0.031 C 
ATOM     58  C   UNL     1      14.641  -4.369  12.609  1.00  0.00     0.034 A 
BRANCH  45  59
ATOM     59  C   UNL     1      15.788  -1.953   7.045  1.00  0.00     0.023 A 
ATOM     60  C   UNL     1      16.037  -0.583   6.827  1.00  0.00     0.012 A 
ATOM     61  C   UNL     1      16.585  -2.913   6.390  1.00  0.00     0.148 A 
ATOM     62  C   UNL     1      17.044  -0.173   5.955  1.00  0.00     0.002 A 
ATOM     63  C   UNL     1      17.617  -2.496   5.557  1.00  0.00     0.091 A 
ATOM     64  F   UNL     1      16.322  -4.211   6.597  1.00  0.00    -0.205 F 
ATOM     65  C   UNL     1      17.841  -1.128   5.330  1.00  0.00     0.022 A 
BRANCH  63  66
ATOM     66  S   UNL     1      18.758  -3.643   4.775  1.00  0.00     0.127 S 
ATOM     67  O   UNL     1      18.375  -3.526   3.368  1.00  0.00    -0.237 OA
ATOM     68  O   UNL     1      20.057  -3.057   5.103  1.00  0.00    -0.237 OA
ATOM     69  O   UNL     1      18.505  -4.941   5.384  1.00  0.00    -0.744 OA
ENDBRANCH  63  66
ENDBRANCH  45  59
BRANCH  46  70
ATOM     70  C   UNL     1       8.643  -4.764  13.412  1.00  0.00     0.023 A 
ATOM     71  C   UNL     1       8.485  -4.072  14.628  1.00  0.00     0.012 A 
ATOM     72  C   UNL     1       7.737  -5.793  13.084  1.00  0.00     0.148 A 
ATOM     73  C   UNL     1       7.455  -4.405  15.508  1.00  0.00     0.002 A 
ATOM     74  C   UNL     1       6.679  -6.080  13.938  1.00  0.00     0.091 A 
ATOM     75  F   UNL     1       7.911  -6.445  11.926  1.00  0.00    -0.205 F 
ATOM     76  C   UNL     1       6.545  -5.399  15.158  1.00  0.00     0.022 A 
BRANCH  74  77
ATOM     77  S   UNL     1       5.375  -7.239  13.508  1.00  0.00     0.127 S 
ATOM     78  O   UNL     1       5.579  -8.299  14.491  1.00  0.00    -0.237 OA
ATOM     79  O   UNL     1       4.174  -6.428  13.716  1.00  0.00    -0.237 OA
ATOM     80  O   UNL     1       5.617  -7.610  12.120  1.00  0.00    -0.744 OA
ENDBRANCH  74  77
ENDBRANCH  46  70
BRANCH  58  81
ATOM     81  C   UNL     1      15.648  -4.838  13.627  1.00  0.00     0.023 A 
ATOM     82  C   UNL     1      15.886  -6.216  13.789  1.00  0.00     0.012 A 
ATOM     83  C   UNL     1      16.453  -3.910  14.318  1.00  0.00     0.148 A 
ATOM     84  C   UNL     1      16.903  -6.665  14.632  1.00  0.00     0.002 A 
ATOM     85  C   UNL     1      17.495  -4.362  15.118  1.00  0.00     0.091 A 
ATOM     86  F   UNL     1      16.198  -2.603  14.161  1.00  0.00    -0.205 F 
ATOM     87  C   UNL     1      17.716  -5.739  15.283  1.00  0.00     0.022 A 
BRANCH  85  88
ATOM     88  S   UNL     1      18.661  -3.249  15.912  1.00  0.00     0.127 S 
ATOM     89  O   UNL     1      18.336  -3.435  17.325  1.00  0.00    -0.237 OA
ATOM     90  O   UNL     1      19.950  -3.808  15.503  1.00  0.00    -0.237 OA
ATOM     91  O   UNL     1      18.379  -1.922  15.380  1.00  0.00    -0.744 OA
ENDBRANCH  85  88
ENDBRANCH  58  81
ENDBRANCH  32  33
ENDBRANCH  24  27
ENDBRANCH  22  23
ENDBRANCH  21  22
ENDBRANCH   1  21
TORSDOF 18
