REMARK SMILES C[C@H]1[C@H](C(=O)NCCCCNC(=O)c2ccc(-c3c4nc(c(-c5cccc(S(=O)(=O)[O-])c5F)c5ccc([nH]5)c(-c5cccc(S(=O)(=O)[O-])c5F)c5nc(c(-c6cccc(S(=O)(=O)[O-])c6F)c6ccc3[nH]6)C=C5)C=C4)cc2)CCN1C(=O)[C@H]1CC=CCC1
REMARK SMILES IDX 9 1 8 2 7 3 6 4 4 5 5 6 3 8 1 9 2 10 79 11 77 12 78 13 80 14
REMARK SMILES IDX 81 15 82 16 83 17 87 18 84 19 86 20 85 21 10 22 11 23 12 24
REMARK SMILES IDX 13 26 14 27 15 28 76 29 16 30 75 31 17 32 18 33 19 34 69 35
REMARK SMILES IDX 20 36 74 37 68 38 70 39 21 40 73 41 67 42 66 43 22 45 54 46
REMARK SMILES IDX 34 47 53 48 35 49 38 50 52 51 71 52 36 53 37 54 51 56 72 57
REMARK SMILES IDX 39 58 23 59 24 60 32 61 25 62 27 63 33 64 26 65 28 66 29 67
REMARK SMILES IDX 30 68 31 69 55 70 56 71 64 72 57 73 59 74 65 75 58 76 60 77
REMARK SMILES IDX 61 78 62 79 63 80 40 81 41 82 49 83 42 84 44 85 50 86 43 87
REMARK SMILES IDX 45 88 46 89 47 90 48 91
REMARK H PARENT 6 7 11 25 70 44 38 55
REMARK Flexibility Score: inf
ROOT
ATOM      1  C   UNL     1      -0.396   0.936   5.376  1.00  0.00     0.023 C 
ENDROOT
BRANCH   1   2
ATOM      2  C   UNL     1      -0.222   0.095   4.123  1.00  0.00     0.023 C 
BRANCH   2   3
ATOM      3  C   UNL     1      -0.989   0.566   2.893  1.00  0.00     0.116 C 
BRANCH   3   4
ATOM      4  N   UNL     1      -0.470   1.810   2.359  1.00  0.00    -0.356 N 
ATOM      5  C   UNL     1      -0.201   2.196   1.087  1.00  0.00     0.225 C 
ATOM      6  O   UNL     1       0.200   3.353   0.922  1.00  0.00    -0.275 OA
ATOM      7  H   UNL     1      -0.280   2.496   3.040  1.00  0.00     0.163 HD
BRANCH   5   8
ATOM      8  C   UNL     1      -0.331   1.278  -0.120  1.00  0.00     0.102 C 
ATOM      9  C   UNL     1       1.491   0.268  -1.500  1.00  0.00     0.032 C 
ATOM     10  C   UNL     1       0.749   0.181  -0.162  1.00  0.00     0.094 C 
ATOM     11  N   UNL     1       0.017  -1.076  -0.034  1.00  0.00    -0.339 N 
ATOM     12  C   UNL     1      -1.678   0.580  -0.291  1.00  0.00     0.037 C 
ATOM     13  C   UNL     1      -1.353  -0.892  -0.493  1.00  0.00     0.120 C 
BRANCH  11  14
ATOM     14  C   UNL     1       0.412  -2.319   0.406  1.00  0.00     0.226 C 
ATOM     15  O   UNL     1      -0.402  -3.255   0.355  1.00  0.00    -0.275 OA
BRANCH  14  16
ATOM     16  C   UNL     1       1.798  -2.639   1.001  1.00  0.00     0.083 C 
ATOM     17  C   UNL     1       2.995  -2.539   0.055  1.00  0.00     0.040 C 
ATOM     18  C   UNL     1       2.063  -2.121   2.417  1.00  0.00     0.018 C 
ATOM     19  C   UNL     1       3.956  -1.426   0.340  1.00  0.00    -0.030 C 
ATOM     20  C   UNL     1       2.904  -0.849   2.527  1.00  0.00     0.028 C 
ATOM     21  C   UNL     1       3.918  -0.675   1.447  1.00  0.00    -0.031 C 
ENDBRANCH  14  16
ENDBRANCH  11  14
ENDBRANCH   5   8
ENDBRANCH   3   4
ENDBRANCH   2   3
ENDBRANCH   1   2
BRANCH   1  22
ATOM     22  C   UNL     1      -1.820   0.982   5.895  1.00  0.00     0.116 C 
BRANCH  22  23
ATOM     23  N   UNL     1      -2.346  -0.341   6.214  1.00  0.00    -0.352 N 
ATOM     24  C   UNL     1      -2.747  -0.856   7.424  1.00  0.00     0.251 C 
ATOM     25  H   UNL     1      -2.426  -0.956   5.450  1.00  0.00     0.163 HD
ATOM     26  O   UNL     1      -2.999  -2.054   7.532  1.00  0.00    -0.269 OA
BRANCH  24  27
ATOM     27  C   UNL     1      -2.848   0.037   8.596  1.00  0.00     0.039 A 
ATOM     28  C   UNL     1      -2.342  -0.383   9.828  1.00  0.00     0.014 A 
ATOM     29  C   UNL     1      -3.401   1.311   8.459  1.00  0.00     0.014 A 
ATOM     30  C   UNL     1      -2.317   0.512  10.900  1.00  0.00     0.010 A 
ATOM     31  C   UNL     1      -3.259   2.233   9.484  1.00  0.00     0.010 A 
ATOM     32  C   UNL     1      -2.733   1.842  10.723  1.00  0.00    -0.014 A 
BRANCH  32  33
ATOM     33  C   UNL     1      -2.649   2.845  11.813  1.00  0.00     0.031 A 
ATOM     34  C   UNL     1      -3.897   3.552  12.275  1.00  0.00     0.074 A 
ATOM     35  C   UNL     1      -1.446   3.201  12.306  1.00  0.00     0.049 A 
ATOM     36  N   UNL     1      -4.022   4.527  13.136  1.00  0.00    -0.248 NA
ATOM     37  C   UNL     1      -5.169   3.140  11.653  1.00  0.00     0.031 C 
ATOM     38  C   UNL     1      -0.155   2.663  11.870  1.00  0.00     0.029 A 
ATOM     39  N   UNL     1      -1.110   4.124  13.265  1.00  0.00    -0.354 N 
ATOM     40  C   UNL     1      -5.367   4.877  13.119  1.00  0.00     0.074 A 
ATOM     41  C   UNL     1      -6.011   4.044  12.129  1.00  0.00     0.031 C 
ATOM     42  C   UNL     1       0.828   3.254  12.567  1.00  0.00     0.029 A 
ATOM     43  C   UNL     1       0.245   4.234  13.477  1.00  0.00     0.049 A 
ATOM     44  H   UNL     1      -1.776   4.658  13.755  1.00  0.00     0.167 HD
ATOM     45  C   UNL     1      -6.020   5.780  13.888  1.00  0.00     0.034 A 
ATOM     46  C   UNL     1       0.937   5.035  14.309  1.00  0.00     0.034 A 
ATOM     47  C   UNL     1      -5.389   6.550  14.923  1.00  0.00     0.049 A 
ATOM     48  C   UNL     1       0.180   5.975  15.209  1.00  0.00     0.074 A 
ATOM     49  C   UNL     1      -5.975   7.410  15.833  1.00  0.00     0.029 A 
ATOM     50  N   UNL     1      -4.028   6.549  15.187  1.00  0.00    -0.354 N 
ATOM     51  N   UNL     1      -1.114   6.170  15.296  1.00  0.00    -0.248 NA
ATOM     52  C   UNL     1       0.973   6.777  16.151  1.00  0.00     0.031 C 
ATOM     53  C   UNL     1      -4.964   7.942  16.641  1.00  0.00     0.029 A 
ATOM     54  C   UNL     1      -3.752   7.397  16.245  1.00  0.00     0.049 A 
ATOM     55  H   UNL     1      -3.357   6.024  14.695  1.00  0.00     0.167 HD
ATOM     56  C   UNL     1      -1.293   7.088  16.324  1.00  0.00     0.074 A 
ATOM     57  C   UNL     1       0.025   7.394  16.844  1.00  0.00     0.031 C 
ATOM     58  C   UNL     1      -2.441   7.643  16.785  1.00  0.00     0.034 A 
BRANCH  45  59
ATOM     59  C   UNL     1      -7.505   5.929  13.683  1.00  0.00     0.023 A 
ATOM     60  C   UNL     1      -8.369   4.888  14.081  1.00  0.00     0.012 A 
ATOM     61  C   UNL     1      -8.050   7.109  13.142  1.00  0.00     0.148 A 
ATOM     62  C   UNL     1      -9.748   5.001  13.907  1.00  0.00     0.002 A 
ATOM     63  C   UNL     1      -9.429   7.234  13.015  1.00  0.00     0.091 A 
ATOM     64  F   UNL     1      -7.213   8.079  12.747  1.00  0.00    -0.205 F 
ATOM     65  C   UNL     1     -10.277   6.177  13.384  1.00  0.00     0.022 A 
BRANCH  63  66
ATOM     66  S   UNL     1     -10.216   8.738  12.429  1.00  0.00     0.127 S 
ATOM     67  O   UNL     1     -10.694   8.326  11.110  1.00  0.00    -0.237 OA
ATOM     68  O   UNL     1     -11.270   8.941  13.423  1.00  0.00    -0.237 OA
ATOM     69  O   UNL     1      -9.178   9.760  12.428  1.00  0.00    -0.744 OA
ENDBRANCH  63  66
ENDBRANCH  45  59
BRANCH  46  70
ATOM     70  C   UNL     1       2.421   4.922  14.391  1.00  0.00     0.023 A 
ATOM     71  C   UNL     1       3.006   4.362  15.544  1.00  0.00     0.012 A 
ATOM     72  C   UNL     1       3.252   5.333  13.331  1.00  0.00     0.148 A 
ATOM     73  C   UNL     1       4.392   4.242  15.654  1.00  0.00     0.002 A 
ATOM     74  C   UNL     1       4.629   5.161  13.425  1.00  0.00     0.091 A 
ATOM     75  F   UNL     1       2.679   5.873  12.247  1.00  0.00    -0.205 F 
ATOM     76  C   UNL     1       5.202   4.632  14.592  1.00  0.00     0.022 A 
BRANCH  74  77
ATOM     77  S   UNL     1       5.738   5.512  12.055  1.00  0.00     0.127 S 
ATOM     78  O   UNL     1       6.414   6.721  12.520  1.00  0.00    -0.237 OA
ATOM     79  O   UNL     1       6.574   4.311  12.026  1.00  0.00    -0.237 OA
ATOM     80  O   UNL     1       4.880   5.673  10.889  1.00  0.00    -0.744 OA
ENDBRANCH  74  77
ENDBRANCH  46  70
BRANCH  58  81
ATOM     81  C   UNL     1      -2.336   8.612  17.932  1.00  0.00     0.023 A 
ATOM     82  C   UNL     1      -1.818   9.903  17.711  1.00  0.00     0.012 A 
ATOM     83  C   UNL     1      -2.829   8.271  19.207  1.00  0.00     0.148 A 
ATOM     84  C   UNL     1      -1.764  10.831  18.750  1.00  0.00     0.002 A 
ATOM     85  C   UNL     1      -2.817   9.217  20.224  1.00  0.00     0.091 A 
ATOM     86  F   UNL     1      -3.301   7.031  19.400  1.00  0.00    -0.205 F 
ATOM     87  C   UNL     1      -2.275  10.493  20.002  1.00  0.00     0.022 A 
BRANCH  85  88
ATOM     88  S   UNL     1      -3.544   8.902  21.837  1.00  0.00     0.127 S 
ATOM     89  O   UNL     1      -2.356   8.747  22.674  1.00  0.00    -0.237 OA
ATOM     90  O   UNL     1      -4.306  10.128  22.080  1.00  0.00    -0.237 OA
ATOM     91  O   UNL     1      -4.361   7.706  21.681  1.00  0.00    -0.744 OA
ENDBRANCH  85  88
ENDBRANCH  58  81
ENDBRANCH  32  33
ENDBRANCH  24  27
ENDBRANCH  22  23
ENDBRANCH   1  22
TORSDOF 16
