REMARK SMILES O=C(NCCCCNC(=O)C1(CCc2ccc3c(c2)CCO3)CCCCCC1)c1ccc(-c2c3nc(c(-c4cccc(S(=O)(=O)[O-])c4F)c4ccc([nH]4)c(-c4cccc(S(=O)(=O)[O-])c4F)c4nc(c(-c5cccc(S(=O)(=O)[O-])c5F)c5ccc2[nH]5)C=C4)C=C3)cc1
REMARK SMILES IDX 5 1 4 2 3 3 1 4 2 5 29 7 30 8 91 9 31 10 90 11 32 12 33 13
REMARK SMILES IDX 34 14 84 15 35 16 89 17 83 18 85 19 36 20 88 21 82 22 81 23
REMARK SMILES IDX 37 25 69 26 49 27 68 28 50 29 53 30 67 31 86 32 51 33 52 34
REMARK SMILES IDX 66 36 87 37 54 38 38 39 39 40 47 41 40 42 42 43 48 44 41 45
REMARK SMILES IDX 43 46 44 47 45 48 46 49 70 50 71 51 79 52 72 53 74 54 80 55
REMARK SMILES IDX 73 56 75 57 76 58 77 59 78 60 55 61 56 62 64 63 57 64 59 65
REMARK SMILES IDX 65 66 58 67 60 68 61 69 62 70 63 71 6 72 7 73 8 74 9 75
REMARK SMILES IDX 10 77 11 78 12 79 13 80 14 81 15 82 19 83 16 84 18 85 17 86
REMARK SMILES IDX 20 87 22 88 21 89 23 90 24 91 25 92 28 94 27 95 26 96
REMARK H PARENT 3 6 85 24 53 35 8 76
REMARK Flexibility Score: 100.00
ROOT
ATOM      1  C   UNL     1       4.703  -2.786  -0.080  1.00  0.00     0.023 C 
ENDROOT
BRANCH   1   2
ATOM      2  C   UNL     1       4.490  -1.283  -0.233  1.00  0.00     0.116 C 
BRANCH   2   3
ATOM      3  N   UNL     1       3.113  -0.921  -0.543  1.00  0.00    -0.352 N 
ATOM      4  O   UNL     1       1.185   0.242  -0.313  1.00  0.00    -0.269 OA
ATOM      5  C   UNL     1       2.373   0.120  -0.030  1.00  0.00     0.251 C 
ATOM      6  H   UNL     1       2.655  -1.491  -1.202  1.00  0.00     0.163 HD
BRANCH   5   7
ATOM      7  C   UNL     1       3.035   1.060   0.894  1.00  0.00     0.039 A 
ATOM      8  C   UNL     1       4.251   1.642   0.530  1.00  0.00     0.014 A 
ATOM      9  C   UNL     1       2.491   1.274   2.162  1.00  0.00     0.014 A 
ATOM     10  C   UNL     1       5.004   2.301   1.492  1.00  0.00     0.010 A 
ATOM     11  C   UNL     1       3.215   2.010   3.102  1.00  0.00     0.010 A 
ATOM     12  C   UNL     1       4.499   2.485   2.791  1.00  0.00    -0.014 A 
BRANCH  12  13
ATOM     13  C   UNL     1       5.331   3.199   3.793  1.00  0.00     0.031 A 
ATOM     14  C   UNL     1       5.840   2.502   5.027  1.00  0.00     0.074 A 
ATOM     15  C   UNL     1       5.654   4.485   3.560  1.00  0.00     0.049 A 
ATOM     16  N   UNL     1       6.626   2.966   5.964  1.00  0.00    -0.248 NA
ATOM     17  C   UNL     1       5.404   1.114   5.248  1.00  0.00     0.031 C 
ATOM     18  C   UNL     1       5.182   5.275   2.419  1.00  0.00     0.029 A 
ATOM     19  N   UNL     1       6.458   5.351   4.254  1.00  0.00    -0.354 N 
ATOM     20  C   UNL     1       6.742   1.952   6.907  1.00  0.00     0.074 A 
ATOM     21  C   UNL     1       5.942   0.844   6.431  1.00  0.00     0.031 C 
ATOM     22  C   UNL     1       5.739   6.493   2.468  1.00  0.00     0.029 A 
ATOM     23  C   UNL     1       6.568   6.588   3.664  1.00  0.00     0.049 A 
ATOM     24  H   UNL     1       6.912   5.111   5.093  1.00  0.00     0.167 HD
ATOM     25  C   UNL     1       7.461   1.940   8.055  1.00  0.00     0.034 A 
ATOM     26  C   UNL     1       7.260   7.679   4.042  1.00  0.00     0.034 A 
ATOM     27  C   UNL     1       8.303   3.023   8.492  1.00  0.00     0.049 A 
ATOM     28  C   UNL     1       8.100   7.612   5.284  1.00  0.00     0.074 A 
ATOM     29  C   UNL     1       9.126   3.079   9.603  1.00  0.00     0.029 A 
ATOM     30  N   UNL     1       8.434   4.238   7.838  1.00  0.00    -0.354 N 
ATOM     31  N   UNL     1       8.293   6.598   6.093  1.00  0.00    -0.248 NA
ATOM     32  C   UNL     1       8.839   8.827   5.651  1.00  0.00     0.031 C 
ATOM     33  C   UNL     1       9.748   4.332   9.625  1.00  0.00     0.029 A 
ATOM     34  C   UNL     1       9.321   5.052   8.521  1.00  0.00     0.049 A 
ATOM     35  H   UNL     1       7.965   4.486   7.008  1.00  0.00     0.167 HD
ATOM     36  C   UNL     1       9.196   7.044   7.050  1.00  0.00     0.074 A 
ATOM     37  C   UNL     1       9.531   8.411   6.702  1.00  0.00     0.031 C 
ATOM     38  C   UNL     1       9.687   6.389   8.130  1.00  0.00     0.034 A 
BRANCH  25  39
ATOM     39  C   UNL     1       7.410   0.698   8.908  1.00  0.00     0.023 A 
ATOM     40  C   UNL     1       8.118  -0.452   8.505  1.00  0.00     0.012 A 
ATOM     41  C   UNL     1       6.728   0.691  10.140  1.00  0.00     0.148 A 
ATOM     42  C   UNL     1       8.128  -1.596   9.302  1.00  0.00     0.002 A 
ATOM     43  C   UNL     1       6.773  -0.441  10.948  1.00  0.00     0.091 A 
ATOM     44  F   UNL     1       6.039   1.785  10.497  1.00  0.00    -0.205 F 
ATOM     45  C   UNL     1       7.466  -1.587  10.527  1.00  0.00     0.022 A 
BRANCH  43  46
ATOM     46  S   UNL     1       6.011  -0.493  12.575  1.00  0.00     0.127 S 
ATOM     47  O   UNL     1       4.806  -1.278  12.311  1.00  0.00    -0.237 OA
ATOM     48  O   UNL     1       7.024  -1.184  13.373  1.00  0.00    -0.237 OA
ATOM     49  O   UNL     1       5.789   0.895  12.953  1.00  0.00    -0.744 OA
ENDBRANCH  43  46
ENDBRANCH  25  39
BRANCH  26  50
ATOM     50  C   UNL     1       7.240   8.895   3.182  1.00  0.00     0.023 A 
ATOM     51  C   UNL     1       8.399   9.254   2.468  1.00  0.00     0.012 A 
ATOM     52  C   UNL     1       6.066   9.655   3.015  1.00  0.00     0.148 A 
ATOM     53  C   UNL     1       8.395  10.360   1.617  1.00  0.00     0.002 A 
ATOM     54  C   UNL     1       6.052  10.718   2.120  1.00  0.00     0.091 A 
ATOM     55  F   UNL     1       4.978   9.309   3.717  1.00  0.00    -0.205 F 
ATOM     56  C   UNL     1       7.219  11.082   1.432  1.00  0.00     0.022 A 
BRANCH  54  57
ATOM     57  S   UNL     1       4.538  11.595   1.712  1.00  0.00     0.127 S 
ATOM     58  O   UNL     1       4.683  12.822   2.489  1.00  0.00    -0.237 OA
ATOM     59  O   UNL     1       4.660  11.763   0.264  1.00  0.00    -0.237 OA
ATOM     60  O   UNL     1       3.458  10.704   2.116  1.00  0.00    -0.744 OA
ENDBRANCH  54  57
ENDBRANCH  26  50
BRANCH  38  61
ATOM     61  C   UNL     1      10.657   7.135   9.006  1.00  0.00     0.023 A 
ATOM     62  C   UNL     1      10.184   8.148   9.862  1.00  0.00     0.012 A 
ATOM     63  C   UNL     1      12.024   6.796   9.023  1.00  0.00     0.148 A 
ATOM     64  C   UNL     1      11.061   8.836  10.698  1.00  0.00     0.002 A 
ATOM     65  C   UNL     1      12.886   7.457   9.890  1.00  0.00     0.091 A 
ATOM     66  F   UNL     1      12.461   5.846   8.183  1.00  0.00    -0.205 F 
ATOM     67  C   UNL     1      12.409   8.484  10.721  1.00  0.00     0.022 A 
BRANCH  65  68
ATOM     68  S   UNL     1      14.616   6.998  10.039  1.00  0.00     0.127 S 
ATOM     69  O   UNL     1      15.265   8.000   9.197  1.00  0.00    -0.237 OA
ATOM     70  O   UNL     1      14.864   7.153  11.473  1.00  0.00    -0.237 OA
ATOM     71  O   UNL     1      14.697   5.622   9.564  1.00  0.00    -0.744 OA
ENDBRANCH  65  68
ENDBRANCH  38  61
ENDBRANCH  12  13
ENDBRANCH   5   7
ENDBRANCH   2   3
ENDBRANCH   1   2
BRANCH   1  72
ATOM     72  C   UNL     1       4.270  -3.627  -1.281  1.00  0.00     0.023 C 
BRANCH  72  73
ATOM     73  C   UNL     1       4.977  -3.248  -2.577  1.00  0.00     0.116 C 
BRANCH  73  74
ATOM     74  N   UNL     1       6.317  -3.795  -2.630  1.00  0.00    -0.356 N 
ATOM     75  C   UNL     1       6.949  -4.630  -3.492  1.00  0.00     0.226 C 
ATOM     76  H   UNL     1       6.889  -3.499  -1.885  1.00  0.00     0.163 HD
ATOM     77  O   UNL     1       8.152  -4.807  -3.261  1.00  0.00    -0.274 OA
BRANCH  75  78
ATOM     78  C   UNL     1       6.274  -5.284  -4.732  1.00  0.00     0.049 C 
BRANCH  78  79
ATOM     79  C   UNL     1       6.335  -4.313  -5.970  1.00  0.00     0.021 C 
BRANCH  79  80
ATOM     80  C   UNL     1       5.696  -2.911  -5.933  1.00  0.00     0.036 C 
BRANCH  80  81
ATOM     81  C   UNL     1       6.403  -1.770  -5.228  1.00  0.00    -0.047 A 
ATOM     82  C   UNL     1       7.740  -1.841  -4.783  1.00  0.00     0.007 A 
ATOM     83  C   UNL     1       5.680  -0.579  -5.002  1.00  0.00     0.011 A 
ATOM     84  C   UNL     1       8.313  -0.809  -4.033  1.00  0.00     0.047 A 
ATOM     85  C   UNL     1       6.274   0.449  -4.287  1.00  0.00    -0.002 A 
ATOM     86  C   UNL     1       7.558   0.317  -3.794  1.00  0.00     0.122 A 
ATOM     87  C   UNL     1       5.714   1.748  -3.851  1.00  0.00     0.081 C 
ATOM     88  O   UNL     1       7.980   1.380  -3.045  1.00  0.00    -0.493 OA
ATOM     89  C   UNL     1       6.980   2.397  -3.283  1.00  0.00     0.234 C 
ENDBRANCH  80  81
ENDBRANCH  79  80
ENDBRANCH  78  79
BRANCH  78  90
ATOM     90  C   UNL     1       7.194  -6.489  -5.149  1.00  0.00     0.017 C 
BRANCH  90  91
ATOM     91  C   UNL     1       7.252  -7.657  -4.162  1.00  0.00     0.001 C 
BRANCH  91  92
ATOM     92  C   UNL     1       6.228  -8.743  -4.465  1.00  0.00     0.000 CG0
ATOM     93  G   UNL     1       4.785  -8.320  -4.236  1.00  0.00     0.000 G0
ENDBRANCH  91  92
ENDBRANCH  90  91
ENDBRANCH  78  90
BRANCH  78  94
ATOM     94  C   UNL     1       4.828  -5.772  -4.436  1.00  0.00     0.017 C 
BRANCH  94  95
ATOM     95  C   UNL     1       4.352  -7.097  -5.040  1.00  0.00     0.001 C 
BRANCH  95  96
ATOM     96  C   UNL     1       4.785  -8.320  -4.236  1.00  0.00     0.000 CG0
ATOM     97  G   UNL     1       6.228  -8.743  -4.465  1.00  0.00     0.000 G0
ENDBRANCH  95  96
ENDBRANCH  94  95
ENDBRANCH  78  94
ENDBRANCH  75  78
ENDBRANCH  73  74
ENDBRANCH  72  73
ENDBRANCH   1  72
TORSDOF 17
