REMARK SMILES CSCC[C@H](NC(=O)N[C@@H]1CCCCC1(C)C)C(=O)NCCCCNC(=O)c1ccc(-c2c3nc(c(-c4cccc(S(=O)(=O)[O-])c4F)c4ccc([nH]4)c(-c4cccc(S(=O)(=O)[O-])c4F)c4nc(c(-c5cccc(S(=O)(=O)[O-])c5F)c5ccc2[nH]5)C=C4)C=C3)cc1
REMARK SMILES IDX 22 1 21 2 20 3 18 4 19 5 5 7 4 8 3 9 2 10 1 11 6 12 7 13
REMARK SMILES IDX 8 15 9 16 10 18 11 19 15 20 12 21 14 22 16 23 17 24 13 25
REMARK SMILES IDX 23 26 24 27 25 28 26 29 27 31 28 32 29 33 90 34 30 35 89 36
REMARK SMILES IDX 31 37 32 38 33 39 83 40 34 41 88 42 82 43 84 44 35 45 87 46
REMARK SMILES IDX 81 47 80 48 36 50 68 51 48 52 67 53 49 54 52 55 66 56 85 57
REMARK SMILES IDX 50 58 51 59 65 61 86 62 53 63 37 64 38 65 46 66 39 67 41 68
REMARK SMILES IDX 47 69 40 70 42 71 43 72 44 73 45 74 69 75 70 76 78 77 71 78
REMARK SMILES IDX 73 79 79 80 72 81 74 82 75 83 76 84 77 85 54 86 55 87 63 88
REMARK SMILES IDX 56 89 58 90 64 91 57 92 59 93 60 94 61 95 62 96
REMARK H PARENT 20 6 6 14 9 17 25 30 84 49 52 60
REMARK Flexibility Score: inf
ROOT
ATOM      1  C   UNL     1      -0.153   0.502   6.648  1.00  0.00     0.023 C 
ENDROOT
BRANCH   1   2
ATOM      2  C   UNL     1       0.245  -0.840   6.018  1.00  0.00     0.116 C 
BRANCH   2   3
ATOM      3  N   UNL     1      -0.438  -1.107   4.721  1.00  0.00    -0.354 N 
ATOM      4  C   UNL     1      -0.519  -0.872   3.393  1.00  0.00     0.242 C 
ATOM      5  O   UNL     1      -1.480  -1.525   2.919  1.00  0.00    -0.273 OA
ATOM      6  H   UNL     1      -1.158  -1.747   4.924  1.00  0.00     0.163 HD
BRANCH   4   7
ATOM      7  C   UNL     1       0.405  -0.150   2.267  1.00  0.00     0.174 C 
BRANCH   7   8
ATOM      8  C   UNL     1       1.350  -1.265   1.710  1.00  0.00     0.046 C 
BRANCH   8   9
ATOM      9  C   UNL     1       1.735  -1.403   0.225  1.00  0.00     0.072 C 
BRANCH   9  10
ATOM     10  S   UNL     1       1.743   0.019  -0.903  1.00  0.00    -0.165 SA
ATOM     11  C   UNL     1      -0.008   0.078  -1.347  1.00  0.00     0.085 C 
ENDBRANCH   9  10
ENDBRANCH   8   9
ENDBRANCH   7   8
BRANCH   7  12
ATOM     12  N   UNL     1       0.695   1.363   2.013  1.00  0.00    -0.326 N 
ATOM     13  C   UNL     1       1.367   2.518   2.106  1.00  0.00     0.315 C 
ATOM     14  H   UNL     1      -0.070   1.622   1.449  1.00  0.00     0.166 HD
ATOM     15  O   UNL     1       0.840   3.440   1.459  1.00  0.00    -0.249 OA
ATOM     16  N   UNL     1       2.501   2.877   2.736  1.00  0.00    -0.335 N 
ATOM     17  H   UNL     1       2.751   3.792   2.473  1.00  0.00     0.165 HD
BRANCH  16  18
ATOM     18  C   UNL     1       3.510   2.335   3.712  1.00  0.00     0.089 C 
ATOM     19  C   UNL     1       4.942   2.849   3.533  1.00  0.00     0.025 C 
ATOM     20  C   UNL     1       3.524   0.823   3.644  1.00  0.00    -0.015 C 
ATOM     21  C   UNL     1       5.582   2.444   2.212  1.00  0.00     0.002 C 
ATOM     22  C   UNL     1       3.878   0.504   2.162  1.00  0.00     0.008 C 
ATOM     23  C   UNL     1       4.466  -0.044   4.501  1.00  0.00     0.013 C 
ATOM     24  C   UNL     1       2.214   0.530   4.345  1.00  0.00     0.013 C 
ATOM     25  C   UNL     1       5.266   1.023   1.757  1.00  0.00     0.001 C 
ENDBRANCH  16  18
ENDBRANCH   7  12
ENDBRANCH   4   7
ENDBRANCH   2   3
ENDBRANCH   1   2
BRANCH   1  26
ATOM     26  C   UNL     1      -0.193   0.526   8.183  1.00  0.00     0.023 C 
BRANCH  26  27
ATOM     27  C   UNL     1       1.117   0.317   8.936  1.00  0.00     0.116 C 
BRANCH  27  28
ATOM     28  N   UNL     1       2.027   1.458   8.941  1.00  0.00    -0.352 N 
ATOM     29  C   UNL     1       2.851   1.876   9.974  1.00  0.00     0.251 C 
ATOM     30  H   UNL     1       2.059   1.993   8.115  1.00  0.00     0.163 HD
ATOM     31  O   UNL     1       3.536   2.892   9.858  1.00  0.00    -0.269 OA
BRANCH  29  32
ATOM     32  C   UNL     1       2.862   1.111  11.246  1.00  0.00     0.039 A 
ATOM     33  C   UNL     1       2.650   1.772  12.460  1.00  0.00     0.014 A 
ATOM     34  C   UNL     1       2.970  -0.280  11.219  1.00  0.00     0.014 A 
ATOM     35  C   UNL     1       2.439   1.025  13.627  1.00  0.00     0.010 A 
ATOM     36  C   UNL     1       2.649  -1.017  12.353  1.00  0.00     0.010 A 
ATOM     37  C   UNL     1       2.384  -0.379  13.575  1.00  0.00    -0.014 A 
BRANCH  37  38
ATOM     38  C   UNL     1       2.061  -1.199  14.776  1.00  0.00     0.031 A 
ATOM     39  C   UNL     1       3.038  -2.238  15.267  1.00  0.00     0.074 A 
ATOM     40  C   UNL     1       0.853  -1.089  15.369  1.00  0.00     0.049 A 
ATOM     41  N   UNL     1       2.923  -3.076  16.265  1.00  0.00    -0.248 NA
ATOM     42  C   UNL     1       4.293  -2.388  14.509  1.00  0.00     0.031 C 
ATOM     43  C   UNL     1      -0.236  -0.214  14.928  1.00  0.00     0.029 A 
ATOM     44  N   UNL     1       0.330  -1.735  16.463  1.00  0.00    -0.354 N 
ATOM     45  C   UNL     1       4.061  -3.873  16.226  1.00  0.00     0.074 A 
ATOM     46  C   UNL     1       4.825  -3.463  15.070  1.00  0.00     0.031 C 
ATOM     47  C   UNL     1      -1.285  -0.362  15.754  1.00  0.00     0.029 A 
ATOM     48  C   UNL     1      -0.955  -1.351  16.775  1.00  0.00     0.049 A 
ATOM     49  H   UNL     1       0.828  -2.412  16.977  1.00  0.00     0.167 HD
ATOM     50  C   UNL     1       4.467  -4.828  17.097  1.00  0.00     0.034 A 
ATOM     51  C   UNL     1      -1.767  -1.738  17.780  1.00  0.00     0.034 A 
ATOM     52  C   UNL     1       3.747  -5.183  18.288  1.00  0.00     0.049 A 
ATOM     53  C   UNL     1      -1.253  -2.727  18.794  1.00  0.00     0.074 A 
ATOM     54  C   UNL     1       4.123  -6.055  19.294  1.00  0.00     0.029 A 
ATOM     55  N   UNL     1       2.505  -4.679  18.637  1.00  0.00    -0.354 N 
ATOM     56  N   UNL     1      -0.091  -3.333  18.841  1.00  0.00    -0.248 NA
ATOM     57  C   UNL     1      -2.143  -3.048  19.920  1.00  0.00     0.031 C 
ATOM     58  C   UNL     1       3.100  -6.084  20.249  1.00  0.00     0.029 A 
ATOM     59  C   UNL     1       2.097  -5.218  19.845  1.00  0.00     0.049 A 
ATOM     60  H   UNL     1       1.988  -4.032  18.105  1.00  0.00     0.167 HD
ATOM     61  C   UNL     1      -0.096  -4.078  20.015  1.00  0.00     0.074 A 
ATOM     62  C   UNL     1      -1.366  -3.824  20.664  1.00  0.00     0.031 C 
ATOM     63  C   UNL     1       0.855  -4.911  20.505  1.00  0.00     0.034 A 
BRANCH  50  64
ATOM     64  C   UNL     1       5.792  -5.493  16.829  1.00  0.00     0.023 A 
ATOM     65  C   UNL     1       6.983  -4.752  16.986  1.00  0.00     0.012 A 
ATOM     66  C   UNL     1       5.868  -6.848  16.456  1.00  0.00     0.148 A 
ATOM     67  C   UNL     1       8.223  -5.333  16.731  1.00  0.00     0.002 A 
ATOM     68  C   UNL     1       7.112  -7.435  16.250  1.00  0.00     0.091 A 
ATOM     69  F   UNL     1       4.727  -7.532  16.291  1.00  0.00    -0.205 F 
ATOM     70  C   UNL     1       8.288  -6.676  16.373  1.00  0.00     0.022 A 
BRANCH  68  71
ATOM     71  S   UNL     1       7.310  -9.177  15.862  1.00  0.00     0.127 S 
ATOM     72  O   UNL     1       7.719  -9.122  14.459  1.00  0.00    -0.237 OA
ATOM     73  O   UNL     1       8.366  -9.582  16.790  1.00  0.00    -0.237 OA
ATOM     74  O   UNL     1       6.014  -9.793  16.112  1.00  0.00    -0.744 OA
ENDBRANCH  68  71
ENDBRANCH  50  64
BRANCH  51  75
ATOM     75  C   UNL     1      -3.112  -1.112  17.942  1.00  0.00     0.023 A 
ATOM     76  C   UNL     1      -3.332  -0.224  19.014  1.00  0.00     0.012 A 
ATOM     77  C   UNL     1      -4.163  -1.373  17.043  1.00  0.00     0.148 A 
ATOM     78  C   UNL     1      -4.583   0.364  19.210  1.00  0.00     0.002 A 
ATOM     79  C   UNL     1      -5.392  -0.743  17.213  1.00  0.00     0.091 A 
ATOM     80  F   UNL     1      -3.940  -2.229  16.036  1.00  0.00    -0.205 F 
ATOM     81  C   UNL     1      -5.609   0.112  18.305  1.00  0.00     0.022 A 
BRANCH  79  82
ATOM     82  S   UNL     1      -6.731  -0.908  16.026  1.00  0.00     0.127 S 
ATOM     83  O   UNL     1      -7.677  -1.747  16.756  1.00  0.00    -0.237 OA
ATOM     84  O   UNL     1      -7.150   0.483  15.846  1.00  0.00    -0.237 OA
ATOM     85  O   UNL     1      -6.130  -1.508  14.842  1.00  0.00    -0.744 OA
ENDBRANCH  79  82
ENDBRANCH  51  75
BRANCH  63  86
ATOM     86  C   UNL     1       0.579  -5.589  21.821  1.00  0.00     0.023 A 
ATOM     87  C   UNL     1      -0.375  -6.624  21.888  1.00  0.00     0.012 A 
ATOM     88  C   UNL     1       1.310  -5.247  22.976  1.00  0.00     0.148 A 
ATOM     89  C   UNL     1      -0.624  -7.282  23.091  1.00  0.00     0.002 A 
ATOM     90  C   UNL     1       1.091  -5.941  24.160  1.00  0.00     0.091 A 
ATOM     91  F   UNL     1       2.198  -4.245  22.899  1.00  0.00    -0.205 F 
ATOM     92  C   UNL     1       0.116  -6.949  24.223  1.00  0.00     0.022 A 
BRANCH  90  93
ATOM     93  S   UNL     1       2.072  -5.641  25.635  1.00  0.00     0.127 S 
ATOM     94  O   UNL     1       1.163  -4.827  26.438  1.00  0.00    -0.237 OA
ATOM     95  O   UNL     1       2.292  -6.995  26.147  1.00  0.00    -0.237 OA
ATOM     96  O   UNL     1       3.281  -4.971  25.176  1.00  0.00    -0.744 OA
ENDBRANCH  90  93
ENDBRANCH  63  86
ENDBRANCH  37  38
ENDBRANCH  29  32
ENDBRANCH  27  28
ENDBRANCH  26  27
ENDBRANCH   1  26
TORSDOF 19
