REMARK SMILES C[C@H](C(=O)NCCCCNC(=O)c1ccc(-c2c3nc(c(-c4cccc(S(=O)(=O)[O-])c4F)c4ccc([nH]4)c(-c4cccc(S(=O)(=O)[O-])c4F)c4nc(c(-c5cccc(S(=O)(=O)[O-])c5F)c5ccc2[nH]5)C=C4)C=C3)cc1)[C@@H](C)[NH2+]Cc1ccc(F)c(F)c1
REMARK SMILES IDX 7 1 6 2 5 3 3 4 4 5 2 7 1 8 76 9 77 10 78 11 79 14 80 15
REMARK SMILES IDX 81 16 87 17 82 18 85 19 83 20 86 21 84 22 8 23 9 24 10 25
REMARK SMILES IDX 11 26 12 28 13 29 14 30 75 31 15 32 74 33 16 34 17 35 18 36
REMARK SMILES IDX 68 37 19 38 73 39 67 40 69 41 20 42 72 43 66 44 65 45 21 47
REMARK SMILES IDX 53 48 33 49 52 50 34 51 37 52 51 53 70 54 35 55 36 56 50 58
REMARK SMILES IDX 71 59 38 60 22 61 23 62 31 63 24 64 26 65 32 66 25 67 27 68
REMARK SMILES IDX 28 69 29 70 30 71 54 72 55 73 63 74 56 75 58 76 64 77 57 78
REMARK SMILES IDX 59 79 60 80 61 81 62 82 39 83 40 84 48 85 41 86 43 87 49 88
REMARK SMILES IDX 42 89 44 90 45 91 46 92 47 93
REMARK H PARENT 5 6 78 12 78 13 10 27 69 46 37 57
REMARK Flexibility Score: inf
ROOT
ATOM      1  C   UNL     1      -1.390   0.115   2.084  1.00  0.00     0.023 C 
ENDROOT
BRANCH   1   2
ATOM      2  C   UNL     1       0.098   0.464   1.988  1.00  0.00     0.116 C 
BRANCH   2   3
ATOM      3  N   UNL     1       0.825  -0.372   1.045  1.00  0.00    -0.356 N 
ATOM      4  C   UNL     1       1.048  -0.450  -0.284  1.00  0.00     0.228 C 
ATOM      5  O   UNL     1       1.891  -1.316  -0.573  1.00  0.00    -0.275 OA
ATOM      6  H   UNL     1       1.295  -1.097   1.517  1.00  0.00     0.163 HD
BRANCH   4   7
ATOM      7  C   UNL     1       0.475   0.448  -1.415  1.00  0.00     0.133 C 
ATOM      8  C   UNL     1       0.790  -0.298  -2.739  1.00  0.00     0.024 C 
BRANCH   7   9
ATOM      9  C   UNL     1      -1.024   0.870  -1.315  1.00  0.00     0.191 C 
ATOM     10  C   UNL     1      -1.086   2.197  -0.536  1.00  0.00     0.076 C 
BRANCH   9  11
ATOM     11  N   UNL     1      -1.644   1.116  -2.642  1.00  0.00    -0.340 N 
ATOM     12  H   UNL     1      -1.244   0.444  -3.296  1.00  0.00     0.346 HD
ATOM     13  H   UNL     1      -1.443   2.095  -2.845  1.00  0.00     0.346 HD
BRANCH  11  14
ATOM     14  C   UNL     1      -3.103   1.008  -2.739  1.00  0.00     0.297 C 
BRANCH  14  15
ATOM     15  C   UNL     1      -3.868   1.943  -1.833  1.00  0.00     0.009 A 
ATOM     16  C   UNL     1      -3.763   3.340  -1.975  1.00  0.00     0.013 A 
ATOM     17  C   UNL     1      -4.599   1.419  -0.754  1.00  0.00     0.052 A 
ATOM     18  C   UNL     1      -4.288   4.189  -0.997  1.00  0.00     0.043 A 
ATOM     19  C   UNL     1      -5.130   2.275   0.205  1.00  0.00     0.159 A 
ATOM     20  C   UNL     1      -4.955   3.648   0.097  1.00  0.00     0.158 A 
ATOM     21  F   UNL     1      -5.770   1.754   1.260  1.00  0.00    -0.204 F 
ATOM     22  F   UNL     1      -5.407   4.465   1.057  1.00  0.00    -0.204 F 
ENDBRANCH  14  15
ENDBRANCH  11  14
ENDBRANCH   9  11
ENDBRANCH   7   9
ENDBRANCH   4   7
ENDBRANCH   2   3
ENDBRANCH   1   2
BRANCH   1  23
ATOM     23  C   UNL     1      -1.821  -0.384   3.465  1.00  0.00     0.023 C 
BRANCH  23  24
ATOM     24  C   UNL     1      -1.782   0.670   4.568  1.00  0.00     0.116 C 
BRANCH  24  25
ATOM     25  N   UNL     1      -2.816   1.694   4.446  1.00  0.00    -0.352 N 
ATOM     26  C   UNL     1      -3.511   2.313   5.465  1.00  0.00     0.251 C 
ATOM     27  H   UNL     1      -3.044   1.975   3.530  1.00  0.00     0.163 HD
ATOM     28  O   UNL     1      -4.398   3.127   5.228  1.00  0.00    -0.269 OA
BRANCH  26  29
ATOM     29  C   UNL     1      -3.203   1.932   6.860  1.00  0.00     0.039 A 
ATOM     30  C   UNL     1      -4.215   1.384   7.652  1.00  0.00     0.014 A 
ATOM     31  C   UNL     1      -1.886   1.983   7.321  1.00  0.00     0.014 A 
ATOM     32  C   UNL     1      -3.883   0.772   8.863  1.00  0.00     0.010 A 
ATOM     33  C   UNL     1      -1.550   1.312   8.492  1.00  0.00     0.010 A 
ATOM     34  C   UNL     1      -2.539   0.672   9.258  1.00  0.00    -0.014 A 
BRANCH  34  35
ATOM     35  C   UNL     1      -2.121  -0.169  10.410  1.00  0.00     0.031 A 
ATOM     36  C   UNL     1      -1.396   0.446  11.575  1.00  0.00     0.074 A 
ATOM     37  C   UNL     1      -2.251  -1.511  10.330  1.00  0.00     0.049 A 
ATOM     38  N   UNL     1      -0.832  -0.142  12.596  1.00  0.00    -0.248 NA
ATOM     39  C   UNL     1      -1.256   1.912  11.574  1.00  0.00     0.031 C 
ATOM     40  C   UNL     1      -2.842  -2.240   9.204  1.00  0.00     0.029 A 
ATOM     41  N   UNL     1      -1.851  -2.505  11.190  1.00  0.00    -0.354 N 
ATOM     42  C   UNL     1      -0.222   0.869  13.327  1.00  0.00     0.074 A 
ATOM     43  C   UNL     1      -0.475   2.110  12.627  1.00  0.00     0.031 C 
ATOM     44  C   UNL     1      -2.752  -3.560   9.435  1.00  0.00     0.029 A 
ATOM     45  C   UNL     1      -2.072  -3.776  10.707  1.00  0.00     0.049 A 
ATOM     46  H   UNL     1      -1.444  -2.326  12.068  1.00  0.00     0.167 HD
ATOM     47  C   UNL     1       0.464   0.775  14.490  1.00  0.00     0.034 A 
ATOM     48  C   UNL     1      -1.748  -4.980  11.220  1.00  0.00     0.034 A 
ATOM     49  C   UNL     1       0.642  -0.446  15.225  1.00  0.00     0.049 A 
ATOM     50  C   UNL     1      -1.047  -5.046  12.550  1.00  0.00     0.074 A 
ATOM     51  C   UNL     1       1.178  -0.615  16.489  1.00  0.00     0.029 A 
ATOM     52  N   UNL     1       0.298  -1.705  14.763  1.00  0.00    -0.354 N 
ATOM     53  N   UNL     1      -0.671  -4.063  13.332  1.00  0.00    -0.248 NA
ATOM     54  C   UNL     1      -0.752  -6.384  13.085  1.00  0.00     0.031 C 
ATOM     55  C   UNL     1       1.175  -1.982  16.785  1.00  0.00     0.029 A 
ATOM     56  C   UNL     1       0.630  -2.661  15.707  1.00  0.00     0.049 A 
ATOM     57  H   UNL     1      -0.120  -1.893  13.892  1.00  0.00     0.167 HD
ATOM     58  C   UNL     1      -0.117  -4.662  14.457  1.00  0.00     0.074 A 
ATOM     59  C   UNL     1      -0.233  -6.093  14.271  1.00  0.00     0.031 C 
ATOM     60  C   UNL     1       0.459  -4.079  15.536  1.00  0.00     0.034 A 
BRANCH  47  61
ATOM     61  C   UNL     1       1.019   2.039  15.087  1.00  0.00     0.023 A 
ATOM     62  C   UNL     1       0.147   2.944  15.723  1.00  0.00     0.012 A 
ATOM     63  C   UNL     1       2.406   2.283  15.101  1.00  0.00     0.148 A 
ATOM     64  C   UNL     1       0.644   4.086  16.348  1.00  0.00     0.002 A 
ATOM     65  C   UNL     1       2.898   3.405  15.758  1.00  0.00     0.091 A 
ATOM     66  F   UNL     1       3.215   1.418  14.473  1.00  0.00    -0.205 F 
ATOM     67  C   UNL     1       2.018   4.310  16.375  1.00  0.00     0.022 A 
BRANCH  65  68
ATOM     68  S   UNL     1       4.654   3.751  15.911  1.00  0.00     0.127 S 
ATOM     69  O   UNL     1       4.795   4.936  15.066  1.00  0.00    -0.237 OA
ATOM     70  O   UNL     1       4.793   4.004  17.345  1.00  0.00    -0.237 OA
ATOM     71  O   UNL     1       5.342   2.560  15.433  1.00  0.00    -0.744 OA
ENDBRANCH  65  68
ENDBRANCH  47  61
BRANCH  48  72
ATOM     72  C   UNL     1      -2.123  -6.230  10.498  1.00  0.00     0.023 A 
ATOM     73  C   UNL     1      -3.131  -7.057  11.030  1.00  0.00     0.012 A 
ATOM     74  C   UNL     1      -1.503  -6.598   9.289  1.00  0.00     0.148 A 
ATOM     75  C   UNL     1      -3.490  -8.245  10.390  1.00  0.00     0.002 A 
ATOM     76  C   UNL     1      -1.903  -7.755   8.628  1.00  0.00     0.091 A 
ATOM     77  F   UNL     1      -0.530  -5.813   8.804  1.00  0.00    -0.205 F 
ATOM     78  C   UNL     1      -2.884  -8.589   9.185  1.00  0.00     0.022 A 
BRANCH  76  79
ATOM     79  S   UNL     1      -1.260  -8.183   7.006  1.00  0.00     0.127 S 
ATOM     80  O   UNL     1      -0.205  -9.134   7.340  1.00  0.00    -0.237 OA
ATOM     81  O   UNL     1      -2.431  -8.768   6.349  1.00  0.00    -0.237 OA
ATOM     82  O   UNL     1      -0.828  -6.917   6.427  1.00  0.00    -0.744 OA
ENDBRANCH  76  79
ENDBRANCH  48  72
BRANCH  60  83
ATOM     83  C   UNL     1       1.003  -4.978  16.613  1.00  0.00     0.023 A 
ATOM     84  C   UNL     1       2.213  -5.664  16.392  1.00  0.00     0.012 A 
ATOM     85  C   UNL     1       0.373  -5.069  17.869  1.00  0.00     0.148 A 
ATOM     86  C   UNL     1       2.780  -6.443  17.399  1.00  0.00     0.002 A 
ATOM     87  C   UNL     1       0.966  -5.812  18.883  1.00  0.00     0.091 A 
ATOM     88  F   UNL     1      -0.787  -4.422  18.052  1.00  0.00    -0.205 F 
ATOM     89  C   UNL     1       2.164  -6.506  18.647  1.00  0.00     0.022 A 
BRANCH  87  90
ATOM     90  S   UNL     1       0.295  -5.875  20.549  1.00  0.00     0.127 S 
ATOM     91  O   UNL     1      -0.253  -7.229  20.598  1.00  0.00    -0.237 OA
ATOM     92  O   UNL     1       1.486  -5.667  21.373  1.00  0.00    -0.237 OA
ATOM     93  O   UNL     1      -0.685  -4.800  20.626  1.00  0.00    -0.744 OA
ENDBRANCH  87  90
ENDBRANCH  60  83
ENDBRANCH  34  35
ENDBRANCH  26  29
ENDBRANCH  24  25
ENDBRANCH  23  24
ENDBRANCH   1  23
TORSDOF 18
