REMARK SMILES O=C(NCCCCNC(=O)[C@@H]1CC(=O)N(c2ccc(Cl)cc2C(=O)c2ccccc2)C1)c1ccc(-c2c3nc(c(-c4cccc(S(=O)(=O)[O-])c4F)c4ccc([nH]4)c(-c4cccc(S(=O)(=O)[O-])c4F)c4nc(c(-c5cccc(S(=O)(=O)[O-])c5F)c5ccc2[nH]5)C=C4)C=C3)cc1
REMARK SMILES IDX 5 1 4 2 3 3 1 4 2 5 32 7 33 8 94 9 34 10 93 11 35 12 36 13
REMARK SMILES IDX 37 14 87 15 38 16 92 17 86 18 88 19 39 20 91 21 85 22 84 23
REMARK SMILES IDX 40 25 72 26 52 27 71 28 53 29 56 30 70 31 89 32 54 33 55 34
REMARK SMILES IDX 69 36 90 37 57 38 41 39 42 40 50 41 43 42 45 43 51 44 44 45
REMARK SMILES IDX 46 46 47 47 48 48 49 49 73 50 74 51 82 52 75 53 77 54 83 55
REMARK SMILES IDX 76 56 78 57 79 58 80 59 81 60 58 61 59 62 67 63 60 64 62 65
REMARK SMILES IDX 68 66 61 67 63 68 64 69 65 70 66 71 6 72 7 73 8 74 9 75
REMARK SMILES IDX 10 77 11 78 12 79 31 80 13 81 15 82 14 83 16 84 17 85 22 86
REMARK SMILES IDX 18 87 21 88 19 89 20 90 23 91 24 92 25 93 26 94 30 95 27 96
REMARK SMILES IDX 29 97 28 98
REMARK H PARENT 3 6 88 24 56 35 8 76
REMARK Flexibility Score: inf
ROOT
ATOM      1  C   UNL     1       4.701  -0.818   2.657  1.00  0.00     0.023 C 
ENDROOT
BRANCH   1   2
ATOM      2  C   UNL     1       4.312  -1.008   1.188  1.00  0.00     0.116 C 
BRANCH   2   3
ATOM      3  N   UNL     1       2.896  -0.850   0.927  1.00  0.00    -0.352 N 
ATOM      4  O   UNL     1       0.993   0.002   0.115  1.00  0.00    -0.269 OA
ATOM      5  C   UNL     1       2.221   0.051   0.142  1.00  0.00     0.251 C 
ATOM      6  H   UNL     1       2.320  -1.499   1.393  1.00  0.00     0.163 HD
BRANCH   5   7
ATOM      7  C   UNL     1       2.933   1.107  -0.617  1.00  0.00     0.039 A 
ATOM      8  C   UNL     1       4.050   0.844  -1.415  1.00  0.00     0.014 A 
ATOM      9  C   UNL     1       2.418   2.405  -0.556  1.00  0.00     0.014 A 
ATOM     10  C   UNL     1       4.723   1.896  -2.047  1.00  0.00     0.010 A 
ATOM     11  C   UNL     1       3.055   3.445  -1.236  1.00  0.00     0.010 A 
ATOM     12  C   UNL     1       4.235   3.209  -1.959  1.00  0.00    -0.014 A 
BRANCH  12  13
ATOM     13  C   UNL     1       4.919   4.346  -2.634  1.00  0.00     0.031 A 
ATOM     14  C   UNL     1       5.501   5.474  -1.824  1.00  0.00     0.074 A 
ATOM     15  C   UNL     1       4.934   4.415  -3.979  1.00  0.00     0.049 A 
ATOM     16  N   UNL     1       6.015   6.607  -2.231  1.00  0.00    -0.248 NA
ATOM     17  C   UNL     1       5.488   5.315  -0.361  1.00  0.00     0.031 C 
ATOM     18  C   UNL     1       4.371   3.409  -4.879  1.00  0.00     0.029 A 
ATOM     19  N   UNL     1       5.400   5.395  -4.820  1.00  0.00    -0.354 N 
ATOM     20  C   UNL     1       6.342   7.315  -1.081  1.00  0.00     0.074 A 
ATOM     21  C   UNL     1       5.963   6.485   0.043  1.00  0.00     0.031 C 
ATOM     22  C   UNL     1       4.500   3.834  -6.145  1.00  0.00     0.029 A 
ATOM     23  C   UNL     1       5.114   5.159  -6.145  1.00  0.00     0.049 A 
ATOM     24  H   UNL     1       5.891   6.189  -4.507  1.00  0.00     0.167 HD
ATOM     25  C   UNL     1       6.914   8.539  -0.968  1.00  0.00     0.034 A 
ATOM     26  C   UNL     1       5.289   5.932  -7.235  1.00  0.00     0.034 A 
ATOM     27  C   UNL     1       7.316   9.351  -2.086  1.00  0.00     0.049 A 
ATOM     28  C   UNL     1       5.935   7.282  -7.089  1.00  0.00     0.074 A 
ATOM     29  C   UNL     1       7.972  10.569  -2.073  1.00  0.00     0.029 A 
ATOM     30  N   UNL     1       7.086   9.037  -3.417  1.00  0.00    -0.354 N 
ATOM     31  N   UNL     1       6.358   7.879  -6.002  1.00  0.00    -0.248 NA
ATOM     32  C   UNL     1       6.158   8.052  -8.322  1.00  0.00     0.031 C 
ATOM     33  C   UNL     1       8.114  11.005  -3.394  1.00  0.00     0.029 A 
ATOM     34  C   UNL     1       7.577  10.042  -4.233  1.00  0.00     0.049 A 
ATOM     35  H   UNL     1       6.639   8.219  -3.735  1.00  0.00     0.167 HD
ATOM     36  C   UNL     1       6.933   9.073  -6.420  1.00  0.00     0.074 A 
ATOM     37  C   UNL     1       6.810   9.113  -7.863  1.00  0.00     0.031 C 
ATOM     38  C   UNL     1       7.505  10.049  -5.673  1.00  0.00     0.034 A 
BRANCH  25  39
ATOM     39  C   UNL     1       7.168   9.068   0.422  1.00  0.00     0.023 A 
ATOM     40  C   UNL     1       8.182   8.492   1.214  1.00  0.00     0.012 A 
ATOM     41  C   UNL     1       6.440  10.164   0.925  1.00  0.00     0.148 A 
ATOM     42  C   UNL     1       8.438   8.969   2.499  1.00  0.00     0.002 A 
ATOM     43  C   UNL     1       6.731  10.663   2.190  1.00  0.00     0.091 A 
ATOM     44  F   UNL     1       5.466  10.689   0.168  1.00  0.00    -0.205 F 
ATOM     45  C   UNL     1       7.720  10.059   2.983  1.00  0.00     0.022 A 
BRANCH  43  46
ATOM     46  S   UNL     1       5.912  12.114   2.864  1.00  0.00     0.127 S 
ATOM     47  O   UNL     1       4.972  11.511   3.807  1.00  0.00    -0.237 OA
ATOM     48  O   UNL     1       7.022  12.836   3.489  1.00  0.00    -0.237 OA
ATOM     49  O   UNL     1       5.315  12.797   1.725  1.00  0.00    -0.744 OA
ENDBRANCH  43  46
ENDBRANCH  25  39
BRANCH  26  50
ATOM     50  C   UNL     1       4.875   5.413  -8.568  1.00  0.00     0.023 A 
ATOM     51  C   UNL     1       5.861   5.020  -9.493  1.00  0.00     0.012 A 
ATOM     52  C   UNL     1       3.515   5.239  -8.894  1.00  0.00     0.148 A 
ATOM     53  C   UNL     1       5.500   4.478 -10.727  1.00  0.00     0.002 A 
ATOM     54  C   UNL     1       3.164   4.648 -10.101  1.00  0.00     0.091 A 
ATOM     55  F   UNL     1       2.595   5.628  -8.000  1.00  0.00    -0.205 F 
ATOM     56  C   UNL     1       4.155   4.280 -11.025  1.00  0.00     0.022 A 
BRANCH  54  57
ATOM     57  S   UNL     1       1.468   4.231 -10.518  1.00  0.00     0.127 S 
ATOM     58  O   UNL     1       1.212   5.118 -11.650  1.00  0.00    -0.237 OA
ATOM     59  O   UNL     1       1.585   2.813 -10.860  1.00  0.00    -0.237 OA
ATOM     60  O   UNL     1       0.686   4.500  -9.319  1.00  0.00    -0.744 OA
ENDBRANCH  54  57
ENDBRANCH  26  50
BRANCH  38  61
ATOM     61  C   UNL     1       8.103  11.232  -6.389  1.00  0.00     0.023 A 
ATOM     62  C   UNL     1       7.266  12.219  -6.944  1.00  0.00     0.012 A 
ATOM     63  C   UNL     1       9.501  11.415  -6.415  1.00  0.00     0.148 A 
ATOM     64  C   UNL     1       7.811  13.360  -7.532  1.00  0.00     0.002 A 
ATOM     65  C   UNL     1      10.034  12.577  -6.960  1.00  0.00     0.091 A 
ATOM     66  F   UNL     1      10.280  10.454  -5.898  1.00  0.00    -0.205 F 
ATOM     67  C   UNL     1       9.192  13.546  -7.527  1.00  0.00     0.022 A 
BRANCH  65  68
ATOM     68  S   UNL     1      11.792  12.947  -6.909  1.00  0.00     0.127 S 
ATOM     69  O   UNL     1      12.163  12.823  -8.318  1.00  0.00    -0.237 OA
ATOM     70  O   UNL     1      11.805  14.316  -6.393  1.00  0.00    -0.237 OA
ATOM     71  O   UNL     1      12.387  11.959  -6.019  1.00  0.00    -0.744 OA
ENDBRANCH  65  68
ENDBRANCH  38  61
ENDBRANCH  12  13
ENDBRANCH   5   7
ENDBRANCH   2   3
ENDBRANCH   1   2
BRANCH   1  72
ATOM     72  C   UNL     1       4.088  -1.815   3.648  1.00  0.00     0.023 C 
BRANCH  72  73
ATOM     73  C   UNL     1       4.490  -3.270   3.424  1.00  0.00     0.116 C 
BRANCH  73  74
ATOM     74  N   UNL     1       5.832  -3.590   3.875  1.00  0.00    -0.356 N 
ATOM     75  C   UNL     1       6.417  -4.796   4.130  1.00  0.00     0.225 C 
ATOM     76  H   UNL     1       6.415  -2.810   4.021  1.00  0.00     0.163 HD
ATOM     77  O   UNL     1       7.572  -4.779   4.561  1.00  0.00    -0.275 OA
BRANCH  75  78
ATOM     78  C   UNL     1       5.633  -6.104   4.045  1.00  0.00     0.107 C 
ATOM     79  C   UNL     1       6.561  -7.338   4.020  1.00  0.00     0.116 C 
ATOM     80  C   UNL     1       4.788  -6.317   2.810  1.00  0.00     0.139 C 
ATOM     81  C   UNL     1       6.574  -7.771   2.571  1.00  0.00     0.227 C 
ATOM     82  N   UNL     1       5.650  -6.993   1.885  1.00  0.00    -0.311 N 
ATOM     83  O   UNL     1       7.273  -8.666   2.109  1.00  0.00    -0.274 OA
BRANCH  82  84
ATOM     84  C   UNL     1       5.209  -7.222   0.568  1.00  0.00     0.055 A 
ATOM     85  C   UNL     1       4.559  -8.444   0.321  1.00  0.00     0.028 A 
ATOM     86  C   UNL     1       5.197  -6.212  -0.416  1.00  0.00     0.048 A 
ATOM     87  C   UNL     1       3.836  -8.641  -0.856  1.00  0.00     0.023 A 
ATOM     88  C   UNL     1       4.469  -6.435  -1.603  1.00  0.00     0.035 A 
ATOM     89  C   UNL     1       3.783  -7.630  -1.807  1.00  0.00     0.041 A 
ATOM     90  Cl  UNL     1       2.834  -7.845  -3.225  1.00  0.00    -0.084 Cl
BRANCH  86  91
ATOM     91  C   UNL     1       5.805  -4.853  -0.300  1.00  0.00     0.195 C 
ATOM     92  O   UNL     1       5.179  -3.928  -0.825  1.00  0.00    -0.289 OA
BRANCH  91  93
ATOM     93  C   UNL     1       7.070  -4.505   0.409  1.00  0.00     0.023 A 
ATOM     94  C   UNL     1       7.296  -3.147   0.695  1.00  0.00     0.012 A 
ATOM     95  C   UNL     1       8.036  -5.431   0.800  1.00  0.00     0.012 A 
ATOM     96  C   UNL     1       8.381  -2.736   1.469  1.00  0.00     0.001 A 
ATOM     97  C   UNL     1       9.120  -5.024   1.588  1.00  0.00     0.001 A 
ATOM     98  C   UNL     1       9.278  -3.684   1.942  1.00  0.00     0.000 A 
ENDBRANCH  91  93
ENDBRANCH  86  91
ENDBRANCH  82  84
ENDBRANCH  75  78
ENDBRANCH  73  74
ENDBRANCH  72  73
ENDBRANCH   1  72
TORSDOF 17
