REMARK SMILES Cc1ccc(C(=O)N2CCC(CC(=O)NCCCCNC(=O)c3ccc(-c4c5nc(c(-c6cccc(S(=O)(=O)[O-])c6F)c6ccc([nH]6)c(-c6cccc(S(=O)(=O)[O-])c6F)c6nc(c(-c7cccc(S(=O)(=O)[O-])c7F)c7ccc4[nH]7)C=C6)C=C5)cc3)CC2)cn1
REMARK SMILES IDX 18 1 17 2 16 3 15 4 13 5 14 6 12 8 11 9 6 10 7 11 8 12 9 13
REMARK SMILES IDX 87 14 10 15 86 16 5 17 1 18 2 19 3 20 89 21 4 22 88 23 19 24
REMARK SMILES IDX 20 25 21 26 22 28 23 29 24 30 85 31 25 32 84 33 26 34 27 35
REMARK SMILES IDX 28 36 78 37 29 38 83 39 77 40 79 41 30 42 82 43 76 44 75 45
REMARK SMILES IDX 31 47 63 48 43 49 62 50 44 51 47 52 61 53 80 54 45 55 46 56
REMARK SMILES IDX 60 58 81 59 48 60 32 61 33 62 41 63 34 64 36 65 42 66 35 67
REMARK SMILES IDX 37 68 38 69 39 70 40 71 64 72 65 73 73 74 66 75 68 76 74 77
REMARK SMILES IDX 67 78 69 79 70 80 71 81 72 82 49 83 50 84 58 85 51 86 53 87
REMARK SMILES IDX 59 88 52 89 54 90 55 91 56 92 57 93
REMARK H PARENT 15 7 20 27 79 46 47 57
REMARK Flexibility Score: inf
ROOT
ATOM      1  C   UNL     1      -7.703  -0.609  -4.769  1.00  0.00     0.023 C 
ENDROOT
BRANCH   1   2
ATOM      2  C   UNL     1      -7.296  -0.675  -3.309  1.00  0.00     0.023 C 
BRANCH   2   3
ATOM      3  C   UNL     1      -8.446  -0.841  -2.311  1.00  0.00     0.116 C 
BRANCH   3   4
ATOM      4  N   UNL     1      -8.776  -2.241  -2.091  1.00  0.00    -0.356 N 
ATOM      5  C   UNL     1      -8.520  -3.052  -1.024  1.00  0.00     0.220 C 
ATOM      6  O   UNL     1      -8.857  -4.236  -1.083  1.00  0.00    -0.275 OA
ATOM      7  H   UNL     1      -9.261  -2.672  -2.831  1.00  0.00     0.163 HD
BRANCH   5   8
ATOM      8  C   UNL     1      -7.821  -2.513   0.213  1.00  0.00     0.103 C 
BRANCH   8   9
ATOM      9  C   UNL     1      -6.299  -2.765   0.232  1.00  0.00     0.002 C 
ATOM     10  C   UNL     1      -3.090  -0.361   0.454  1.00  0.00     0.255 C 
ATOM     11  O   UNL     1      -3.752   0.627   0.744  1.00  0.00    -0.269 OA
ATOM     12  N   UNL     1      -3.620  -1.635   0.362  1.00  0.00    -0.339 N 
ATOM     13  C   UNL     1      -4.088  -2.119  -0.919  1.00  0.00     0.120 C 
ATOM     14  C   UNL     1      -4.175  -2.280   1.535  1.00  0.00     0.120 C 
ATOM     15  C   UNL     1      -5.606  -2.116  -0.969  1.00  0.00     0.026 C 
ATOM     16  C   UNL     1      -5.698  -2.237   1.545  1.00  0.00     0.026 C 
BRANCH  10  17
ATOM     17  C   UNL     1      -1.619  -0.284   0.266  1.00  0.00     0.058 A 
ATOM     18  C   UNL     1       2.603   0.135  -0.019  1.00  0.00     0.066 C 
ATOM     19  C   UNL     1       1.118  -0.036   0.076  1.00  0.00     0.037 A 
ATOM     20  C   UNL     1       0.553  -1.306   0.034  1.00  0.00     0.024 A 
ATOM     21  N   UNL     1       0.373   1.091   0.196  1.00  0.00    -0.261 NA
ATOM     22  C   UNL     1      -0.829  -1.428   0.133  1.00  0.00     0.017 A 
ATOM     23  C   UNL     1      -0.976   0.944   0.288  1.00  0.00     0.125 A 
ENDBRANCH  10  17
ENDBRANCH   8   9
ENDBRANCH   5   8
ENDBRANCH   3   4
ENDBRANCH   2   3
ENDBRANCH   1   2
BRANCH   1  24
ATOM     24  C   UNL     1      -8.434   0.663  -5.150  1.00  0.00     0.116 C 
BRANCH  24  25
ATOM     25  N   UNL     1      -7.652   1.875  -4.928  1.00  0.00    -0.352 N 
ATOM     26  C   UNL     1      -7.489   2.954  -5.769  1.00  0.00     0.251 C 
ATOM     27  H   UNL     1      -7.180   1.929  -4.065  1.00  0.00     0.163 HD
ATOM     28  O   UNL     1      -6.725   3.864  -5.484  1.00  0.00    -0.269 OA
BRANCH  26  29
ATOM     29  C   UNL     1      -8.228   2.960  -7.048  1.00  0.00     0.039 A 
ATOM     30  C   UNL     1      -7.532   3.181  -8.237  1.00  0.00     0.014 A 
ATOM     31  C   UNL     1      -9.584   2.629  -7.065  1.00  0.00     0.014 A 
ATOM     32  C   UNL     1      -8.182   2.978  -9.455  1.00  0.00     0.010 A 
ATOM     33  C   UNL     1     -10.191   2.316  -8.270  1.00  0.00     0.010 A 
ATOM     34  C   UNL     1      -9.502   2.497  -9.479  1.00  0.00    -0.014 A 
BRANCH  34  35
ATOM     35  C   UNL     1     -10.204   2.188 -10.749  1.00  0.00     0.031 A 
ATOM     36  C   UNL     1     -11.484   2.908 -11.077  1.00  0.00     0.074 A 
ATOM     37  C   UNL     1      -9.761   1.190 -11.539  1.00  0.00     0.049 A 
ATOM     38  N   UNL     1     -12.314   2.707 -12.066  1.00  0.00    -0.248 NA
ATOM     39  C   UNL     1     -11.914   3.963 -10.142  1.00  0.00     0.031 C 
ATOM     40  C   UNL     1      -8.586   0.354 -11.277  1.00  0.00     0.029 A 
ATOM     41  N   UNL     1     -10.267   0.688 -12.712  1.00  0.00    -0.354 N 
ATOM     42  C   UNL     1     -13.381   3.568 -11.842  1.00  0.00     0.074 A 
ATOM     43  C   UNL     1     -13.120   4.257 -10.600  1.00  0.00     0.031 C 
ATOM     44  C   UNL     1      -8.454  -0.544 -12.267  1.00  0.00     0.029 A 
ATOM     45  C   UNL     1      -9.547  -0.369 -13.218  1.00  0.00     0.049 A 
ATOM     46  H   UNL     1     -11.070   1.051 -13.150  1.00  0.00     0.167 HD
ATOM     47  C   UNL     1     -14.462   3.799 -12.623  1.00  0.00     0.034 A 
ATOM     48  C   UNL     1      -9.747  -1.110 -14.326  1.00  0.00     0.034 A 
ATOM     49  C   UNL     1     -14.673   3.172 -13.897  1.00  0.00     0.049 A 
ATOM     50  C   UNL     1     -10.912  -0.778 -15.219  1.00  0.00     0.074 A 
ATOM     51  C   UNL     1     -15.675   3.410 -14.818  1.00  0.00     0.029 A 
ATOM     52  N   UNL     1     -13.856   2.189 -14.434  1.00  0.00    -0.354 N 
ATOM     53  N   UNL     1     -11.826   0.151 -15.071  1.00  0.00    -0.248 NA
ATOM     54  C   UNL     1     -11.055  -1.569 -16.450  1.00  0.00     0.031 C 
ATOM     55  C   UNL     1     -15.467   2.566 -15.914  1.00  0.00     0.029 A 
ATOM     56  C   UNL     1     -14.329   1.810 -15.677  1.00  0.00     0.049 A 
ATOM     57  H   UNL     1     -13.058   1.816 -13.995  1.00  0.00     0.167 HD
ATOM     58  C   UNL     1     -12.628   0.081 -16.204  1.00  0.00     0.074 A 
ATOM     59  C   UNL     1     -12.081  -0.969 -17.038  1.00  0.00     0.031 C 
ATOM     60  C   UNL     1     -13.729   0.808 -16.519  1.00  0.00     0.034 A 
BRANCH  47  61
ATOM     61  C   UNL     1     -15.452   4.831 -12.151  1.00  0.00     0.023 A 
ATOM     62  C   UNL     1     -15.090   6.194 -12.166  1.00  0.00     0.012 A 
ATOM     63  C   UNL     1     -16.742   4.463 -11.724  1.00  0.00     0.148 A 
ATOM     64  C   UNL     1     -15.980   7.171 -11.725  1.00  0.00     0.002 A 
ATOM     65  C   UNL     1     -17.641   5.449 -11.329  1.00  0.00     0.091 A 
ATOM     66  F   UNL     1     -17.061   3.162 -11.691  1.00  0.00    -0.205 F 
ATOM     67  C   UNL     1     -17.257   6.800 -11.317  1.00  0.00     0.022 A 
BRANCH  65  68
ATOM     68  S   UNL     1     -19.334   5.079 -10.859  1.00  0.00     0.127 S 
ATOM     69  O   UNL     1     -19.284   5.255  -9.409  1.00  0.00    -0.237 OA
ATOM     70  O   UNL     1     -20.086   6.112 -11.573  1.00  0.00    -0.237 OA
ATOM     71  O   UNL     1     -19.588   3.720 -11.319  1.00  0.00    -0.744 OA
ENDBRANCH  65  68
ENDBRANCH  47  61
BRANCH  48  72
ATOM     72  C   UNL     1      -8.768  -2.170 -14.702  1.00  0.00     0.023 A 
ATOM     73  C   UNL     1      -7.918  -1.955 -15.806  1.00  0.00     0.012 A 
ATOM     74  C   UNL     1      -8.646  -3.364 -13.966  1.00  0.00     0.148 A 
ATOM     75  C   UNL     1      -6.987  -2.921 -16.188  1.00  0.00     0.002 A 
ATOM     76  C   UNL     1      -7.680  -4.301 -14.321  1.00  0.00     0.091 A 
ATOM     77  F   UNL     1      -9.470  -3.557 -12.927  1.00  0.00    -0.205 F 
ATOM     78  C   UNL     1      -6.861  -4.088 -15.441  1.00  0.00     0.022 A 
BRANCH  76  79
ATOM     79  S   UNL     1      -7.361  -5.772 -13.340  1.00  0.00     0.127 S 
ATOM     80  O   UNL     1      -7.939  -6.821 -14.176  1.00  0.00    -0.237 OA
ATOM     81  O   UNL     1      -5.900  -5.778 -13.265  1.00  0.00    -0.237 OA
ATOM     82  O   UNL     1      -8.023  -5.539 -12.063  1.00  0.00    -0.744 OA
ENDBRANCH  76  79
ENDBRANCH  48  72
BRANCH  60  83
ATOM     83  C   UNL     1     -14.402   0.523 -17.834  1.00  0.00     0.023 A 
ATOM     84  C   UNL     1     -15.180  -0.642 -17.980  1.00  0.00     0.012 A 
ATOM     85  C   UNL     1     -14.341   1.455 -18.888  1.00  0.00     0.148 A 
ATOM     86  C   UNL     1     -15.870  -0.887 -19.166  1.00  0.00     0.002 A 
ATOM     87  C   UNL     1     -15.068   1.226 -20.050  1.00  0.00     0.091 A 
ATOM     88  F   UNL     1     -13.578   2.547 -18.735  1.00  0.00    -0.205 F 
ATOM     89  C   UNL     1     -15.824   0.052 -20.195  1.00  0.00     0.022 A 
BRANCH  87  90
ATOM     90  S   UNL     1     -15.144   2.425 -21.386  1.00  0.00     0.127 S 
ATOM     91  O   UNL     1     -14.288   1.804 -22.394  1.00  0.00    -0.237 OA
ATOM     92  O   UNL     1     -16.570   2.434 -21.716  1.00  0.00    -0.237 OA
ATOM     93  O   UNL     1     -14.649   3.676 -20.827  1.00  0.00    -0.744 OA
ENDBRANCH  87  90
ENDBRANCH  60  83
ENDBRANCH  34  35
ENDBRANCH  26  29
ENDBRANCH  24  25
ENDBRANCH   1  24
TORSDOF 16
