REMARK SMILES O=C(NCCCCNC(=O)[C@H]1[C@@H]2C[C@H]3C[C@@H](C2)C[C@]1(n1ncc(N2CCN(c4ccc(F)cc4)CC2)c(Cl)c1=O)C3)c1ccc(-c2c3nc(c(-c4cccc(S(=O)(=O)[O-])c4F)c4ccc([nH]4)c(-c4cccc(S(=O)(=O)[O-])c4F)c4nc(c(-c5cccc(S(=O)(=O)[O-])c5F)c5ccc2[nH]5)C=C4)C=C3)cc1
REMARK SMILES IDX 5 1 4 2 3 3 1 4 2 5 42 7 43 8 104 9 44 10 103 11 45 12 46 13
REMARK SMILES IDX 47 14 97 15 48 16 102 17 96 18 98 19 49 20 101 21 95 22
REMARK SMILES IDX 94 23 50 25 82 26 62 27 81 28 63 29 66 30 80 31 99 32 64 33
REMARK SMILES IDX 65 34 79 36 100 37 67 38 51 39 52 40 60 41 53 42 55 43 61 44
REMARK SMILES IDX 54 45 56 46 57 47 58 48 59 49 83 50 84 51 92 52 85 53 87 54
REMARK SMILES IDX 93 55 86 56 88 57 89 58 90 59 91 60 68 61 69 62 77 63 70 64
REMARK SMILES IDX 72 65 78 66 71 67 73 68 74 69 75 70 76 71 6 72 7 73 8 74
REMARK SMILES IDX 9 75 10 77 11 78 12 79 19 80 17 81 13 82 41 83 18 84 16 85
REMARK SMILES IDX 14 86 15 87 20 88 21 89 39 90 22 91 37 92 40 93 23 94 38 95
REMARK SMILES IDX 24 96 25 97 36 98 26 99 35 100 27 101 28 102 29 103 34 104
REMARK SMILES IDX 30 105 33 106 31 107 32 108
REMARK H PARENT 3 6 98 24 66 35 8 76
REMARK Flexibility Score: inf
ROOT
ATOM      1  C   UNL     1      11.909   6.023   3.579  1.00  0.00     0.023 C 
ENDROOT
BRANCH   1   2
ATOM      2  C   UNL     1      11.686   5.846   5.084  1.00  0.00     0.116 C 
BRANCH   2   3
ATOM      3  N   UNL     1      11.915   4.496   5.574  1.00  0.00    -0.352 N 
ATOM      4  O   UNL     1      12.893   2.801   6.676  1.00  0.00    -0.269 OA
ATOM      5  C   UNL     1      12.839   4.013   6.472  1.00  0.00     0.251 C 
ATOM      6  H   UNL     1      11.308   3.816   5.202  1.00  0.00     0.163 HD
BRANCH   5   7
ATOM      7  C   UNL     1      13.783   4.912   7.180  1.00  0.00     0.039 A 
ATOM      8  C   UNL     1      15.127   4.532   7.271  1.00  0.00     0.014 A 
ATOM      9  C   UNL     1      13.356   6.084   7.809  1.00  0.00     0.014 A 
ATOM     10  C   UNL     1      16.046   5.346   7.944  1.00  0.00     0.010 A 
ATOM     11  C   UNL     1      14.286   6.928   8.425  1.00  0.00     0.010 A 
ATOM     12  C   UNL     1      15.640   6.565   8.511  1.00  0.00    -0.014 A 
BRANCH  12  13
ATOM     13  C   UNL     1      16.607   7.445   9.226  1.00  0.00     0.031 A 
ATOM     14  C   UNL     1      16.440   7.712  10.702  1.00  0.00     0.074 A 
ATOM     15  C   UNL     1      17.615   8.038   8.553  1.00  0.00     0.049 A 
ATOM     16  N   UNL     1      17.142   8.494  11.481  1.00  0.00    -0.248 NA
ATOM     17  C   UNL     1      15.335   7.022  11.391  1.00  0.00     0.031 C 
ATOM     18  C   UNL     1      17.877   7.897   7.120  1.00  0.00     0.029 A 
ATOM     19  N   UNL     1      18.603   8.891   8.986  1.00  0.00    -0.354 N 
ATOM     20  C   UNL     1      16.548   8.417  12.735  1.00  0.00     0.074 A 
ATOM     21  C   UNL     1      15.414   7.528  12.614  1.00  0.00     0.031 C 
ATOM     22  C   UNL     1      18.960   8.622   6.795  1.00  0.00     0.029 A 
ATOM     23  C   UNL     1      19.454   9.307   7.987  1.00  0.00     0.049 A 
ATOM     24  H   UNL     1      18.694   9.178   9.923  1.00  0.00     0.167 HD
ATOM     25  C   UNL     1      16.928   9.007  13.892  1.00  0.00     0.034 A 
ATOM     26  C   UNL     1      20.509  10.148   8.020  1.00  0.00     0.034 A 
ATOM     27  C   UNL     1      18.090   9.838  14.037  1.00  0.00     0.049 A 
ATOM     28  C   UNL     1      20.915  10.780   9.324  1.00  0.00     0.074 A 
ATOM     29  C   UNL     1      18.583  10.422  15.192  1.00  0.00     0.029 A 
ATOM     30  N   UNL     1      18.943  10.197  13.009  1.00  0.00    -0.354 N 
ATOM     31  N   UNL     1      20.390  10.619  10.513  1.00  0.00    -0.248 NA
ATOM     32  C   UNL     1      22.072  11.689   9.297  1.00  0.00     0.031 C 
ATOM     33  C   UNL     1      19.730  11.144  14.860  1.00  0.00     0.029 A 
ATOM     34  C   UNL     1      19.960  10.994  13.502  1.00  0.00     0.049 A 
ATOM     35  H   UNL     1      18.841   9.927  12.068  1.00  0.00     0.167 HD
ATOM     36  C   UNL     1      21.168  11.378  11.379  1.00  0.00     0.074 A 
ATOM     37  C   UNL     1      22.207  11.995  10.582  1.00  0.00     0.031 C 
ATOM     38  C   UNL     1      21.024  11.553  12.713  1.00  0.00     0.034 A 
BRANCH  25  39
ATOM     39  C   UNL     1      16.132   8.727  15.136  1.00  0.00     0.023 A 
ATOM     40  C   UNL     1      16.346   7.518  15.826  1.00  0.00     0.012 A 
ATOM     41  C   UNL     1      15.300   9.714  15.698  1.00  0.00     0.148 A 
ATOM     42  C   UNL     1      15.745   7.295  17.064  1.00  0.00     0.002 A 
ATOM     43  C   UNL     1      14.727   9.497  16.946  1.00  0.00     0.091 A 
ATOM     44  F   UNL     1      15.111  10.852  15.017  1.00  0.00    -0.205 F 
ATOM     45  C   UNL     1      14.948   8.288  17.628  1.00  0.00     0.022 A 
BRANCH  43  46
ATOM     46  S   UNL     1      13.731  10.730  17.790  1.00  0.00     0.127 S 
ATOM     47  O   UNL     1      12.451  10.035  17.921  1.00  0.00    -0.237 OA
ATOM     48  O   UNL     1      14.462  10.906  19.045  1.00  0.00    -0.237 OA
ATOM     49  O   UNL     1      13.708  11.898  16.920  1.00  0.00    -0.744 OA
ENDBRANCH  43  46
ENDBRANCH  25  39
BRANCH  26  50
ATOM     50  C   UNL     1      21.301  10.392   6.783  1.00  0.00     0.023 A 
ATOM     51  C   UNL     1      22.580   9.814   6.661  1.00  0.00     0.012 A 
ATOM     52  C   UNL     1      20.790  11.164   5.722  1.00  0.00     0.148 A 
ATOM     53  C   UNL     1      23.343  10.012   5.511  1.00  0.00     0.002 A 
ATOM     54  C   UNL     1      21.540  11.326   4.563  1.00  0.00     0.091 A 
ATOM     55  F   UNL     1      19.575  11.711   5.866  1.00  0.00    -0.205 F 
ATOM     56  C   UNL     1      22.821  10.760   4.459  1.00  0.00     0.022 A 
BRANCH  54  57
ATOM     57  S   UNL     1      20.919  12.197   3.120  1.00  0.00     0.127 S 
ATOM     58  O   UNL     1      21.817  13.347   3.055  1.00  0.00    -0.237 OA
ATOM     59  O   UNL     1      21.113  11.202   2.064  1.00  0.00    -0.237 OA
ATOM     60  O   UNL     1      19.526  12.505   3.412  1.00  0.00    -0.744 OA
ENDBRANCH  54  57
ENDBRANCH  26  50
BRANCH  38  61
ATOM     61  C   UNL     1      22.022  12.415  13.436  1.00  0.00     0.023 A 
ATOM     62  C   UNL     1      21.903  13.816  13.372  1.00  0.00     0.012 A 
ATOM     63  C   UNL     1      22.974  11.834  14.296  1.00  0.00     0.148 A 
ATOM     64  C   UNL     1      22.724  14.629  14.153  1.00  0.00     0.002 A 
ATOM     65  C   UNL     1      23.765  12.649  15.097  1.00  0.00     0.091 A 
ATOM     66  F   UNL     1      23.066  10.496  14.335  1.00  0.00    -0.205 F 
ATOM     67  C   UNL     1      23.643  14.046  15.024  1.00  0.00     0.022 A 
BRANCH  65  68
ATOM     68  S   UNL     1      24.923  11.994  16.304  1.00  0.00     0.127 S 
ATOM     69  O   UNL     1      26.204  12.440  15.758  1.00  0.00    -0.237 OA
ATOM     70  O   UNL     1      24.511  12.677  17.529  1.00  0.00    -0.237 OA
ATOM     71  O   UNL     1      24.726  10.550  16.314  1.00  0.00    -0.744 OA
ENDBRANCH  65  68
ENDBRANCH  38  61
ENDBRANCH  12  13
ENDBRANCH   5   7
ENDBRANCH   2   3
ENDBRANCH   1   2
BRANCH   1  72
ATOM     72  C   UNL     1      11.064   5.178   2.616  1.00  0.00     0.023 C 
BRANCH  72  73
ATOM     73  C   UNL     1       9.549   5.188   2.808  1.00  0.00     0.116 C 
BRANCH  73  74
ATOM     74  N   UNL     1       8.816   6.385   2.398  1.00  0.00    -0.356 N 
ATOM     75  C   UNL     1       7.498   6.710   2.757  1.00  0.00     0.225 C 
ATOM     76  H   UNL     1       9.290   7.022   1.816  1.00  0.00     0.163 HD
ATOM     77  O   UNL     1       6.913   7.613   2.183  1.00  0.00    -0.275 OA
BRANCH  75  78
ATOM     78  C   UNL     1       6.970   5.981   3.995  1.00  0.00     0.109 C 
ATOM     79  C   UNL     1       7.748   6.648   5.190  1.00  0.00     0.004 C 
ATOM     80  C   UNL     1       5.480   5.749   4.426  1.00  0.00     0.079 C 
ATOM     81  C   UNL     1       7.036   7.906   5.726  1.00  0.00     0.008 C 
ATOM     82  C   UNL     1       7.872   5.622   6.316  1.00  0.00     0.008 C 
ATOM     83  C   UNL     1       5.643   4.704   5.625  1.00  0.00     0.035 C 
ATOM     84  C   UNL     1       4.838   7.015   5.057  1.00  0.00     0.035 C 
ATOM     85  C   UNL     1       5.646   7.544   6.244  1.00  0.00    -0.008 C 
ATOM     86  C   UNL     1       6.472   5.240   6.794  1.00  0.00    -0.008 C 
ATOM     87  C   UNL     1       5.759   6.476   7.342  1.00  0.00     0.007 C 
BRANCH  80  88
ATOM     88  N   UNL     1       4.503   5.127   3.441  1.00  0.00    -0.222 N 
ATOM     89  N   UNL     1       4.225   3.785   3.656  1.00  0.00    -0.175 NA
ATOM     90  C   UNL     1       3.695   5.894   2.587  1.00  0.00     0.288 A 
ATOM     91  C   UNL     1       3.036   3.364   3.384  1.00  0.00     0.161 A 
ATOM     92  C   UNL     1       2.320   5.330   2.323  1.00  0.00     0.132 A 
ATOM     93  O   UNL     1       3.982   7.015   2.181  1.00  0.00    -0.266 OA
ATOM     94  C   UNL     1       1.917   4.152   2.827  1.00  0.00     0.082 A 
ATOM     95  Cl  UNL     1       1.186   6.386   1.537  1.00  0.00    -0.076 Cl
BRANCH  94  96
ATOM     96  N   UNL     1       0.639   3.581   2.836  1.00  0.00    -0.365 N 
ATOM     97  C   UNL     1      -0.019   3.123   4.089  1.00  0.00     0.138 C 
ATOM     98  C   UNL     1      -0.005   3.062   1.609  1.00  0.00     0.138 C 
ATOM     99  C   UNL     1      -1.549   3.407   4.074  1.00  0.00     0.138 C 
ATOM    100  C   UNL     1      -1.522   3.345   1.599  1.00  0.00     0.138 C 
ATOM    101  N   UNL     1      -2.139   2.858   2.846  1.00  0.00    -0.368 N 
BRANCH 101 102
ATOM    102  C   UNL     1      -3.392   2.285   2.808  1.00  0.00     0.037 A 
ATOM    103  C   UNL     1      -3.598   1.127   2.038  1.00  0.00     0.029 A 
ATOM    104  C   UNL     1      -4.484   2.794   3.523  1.00  0.00     0.029 A 
ATOM    105  C   UNL     1      -4.841   0.495   1.984  1.00  0.00     0.041 A 
ATOM    106  C   UNL     1      -5.740   2.176   3.459  1.00  0.00     0.041 A 
ATOM    107  C   UNL     1      -5.905   1.030   2.693  1.00  0.00     0.123 A 
ATOM    108  F   UNL     1      -7.102   0.432   2.639  1.00  0.00    -0.207 F 
ENDBRANCH 101 102
ENDBRANCH  94  96
ENDBRANCH  80  88
ENDBRANCH  75  78
ENDBRANCH  73  74
ENDBRANCH  72  73
ENDBRANCH   1  72
TORSDOF 17
