REMARK SMILES N#Cc1cccnc1N1CC[NH+]([C@@H](C(=O)NCCCCNC(=O)c2ccc(-c3c4nc(c(-c5cccc(S(=O)(=O)[O-])c5F)c5ccc([nH]5)c(-c5cccc(S(=O)(=O)[O-])c5F)c5nc(c(-c6cccc(S(=O)(=O)[O-])c6F)c6ccc3[nH]6)C=C5)C=C4)cc2)c2c[nH]c3cc(CO)ccc23)CC1
REMARK SMILES IDX 18 1 17 2 16 3 14 4 15 5 13 7 12 8 9 9 10 10 99 11 11 12
REMARK SMILES IDX 98 13 8 15 3 16 4 17 5 18 7 19 6 20 2 21 1 22 87 23 88 24
REMARK SMILES IDX 97 25 89 26 90 27 96 28 91 30 95 31 92 32 93 33 94 34 19 36
REMARK SMILES IDX 20 37 21 38 22 39 23 41 24 42 25 43 86 44 26 45 85 46 27 47
REMARK SMILES IDX 28 48 29 49 79 50 30 51 84 52 78 53 80 54 31 55 83 56 77 57
REMARK SMILES IDX 76 58 32 60 64 61 44 62 63 63 45 64 48 65 62 66 81 67 46 68
REMARK SMILES IDX 47 69 61 71 82 72 49 73 33 74 34 75 42 76 35 77 37 78 43 79
REMARK SMILES IDX 36 80 38 81 39 82 40 83 41 84 65 85 66 86 74 87 67 88 69 89
REMARK SMILES IDX 75 90 68 91 70 92 71 93 72 94 73 95 50 96 51 97 59 98 52 99
REMARK SMILES IDX 54 100 60 101 53 102 55 103 56 104 57 105 58 106
REMARK H PARENT 16 6 12 14 89 29 94 35 21 40 80 59 48 70
REMARK Flexibility Score: inf
ROOT
ATOM      1  C   UNL     1       2.152  -3.361   3.106  1.00  0.00     0.023 C 
ENDROOT
BRANCH   1   2
ATOM      2  C   UNL     1       1.365  -4.659   2.767  1.00  0.00     0.116 C 
BRANCH   2   3
ATOM      3  N   UNL     1       0.100  -4.498   2.052  1.00  0.00    -0.351 N 
ATOM      4  C   UNL     1      -0.402  -4.811   0.810  1.00  0.00     0.283 C 
ATOM      5  O   UNL     1      -1.619  -4.616   0.717  1.00  0.00    -0.268 OA
ATOM      6  H   UNL     1      -0.573  -4.043   2.609  1.00  0.00     0.163 HD
BRANCH   4   7
ATOM      7  C   UNL     1       0.444  -5.412  -0.354  1.00  0.00     0.307 C 
BRANCH   7   8
ATOM      8  N   UNL     1       1.427  -4.489  -1.068  1.00  0.00    -0.318 N 
ATOM      9  N   UNL     1       0.655  -1.607  -1.060  1.00  0.00    -0.344 N 
ATOM     10  C   UNL     1      -0.002  -2.575  -1.947  1.00  0.00     0.179 C 
ATOM     11  C   UNL     1       1.313  -2.216   0.107  1.00  0.00     0.179 C 
ATOM     12  C   UNL     1       0.990  -3.708  -2.247  1.00  0.00     0.284 C 
ATOM     13  C   UNL     1       2.119  -3.503  -0.238  1.00  0.00     0.284 C 
ATOM     14  H   UNL     1       2.026  -5.255  -1.375  1.00  0.00     0.349 HD
BRANCH   9  15
ATOM     15  C   UNL     1      -0.128  -0.486  -0.734  1.00  0.00     0.146 A 
ATOM     16  C   UNL     1       0.462   0.735  -0.378  1.00  0.00     0.095 A 
ATOM     17  C   UNL     1      -0.350   1.796   0.034  1.00  0.00     0.025 A 
ATOM     18  C   UNL     1      -1.728   1.629   0.078  1.00  0.00     0.022 A 
ATOM     19  N   UNL     1      -1.477  -0.632  -0.725  1.00  0.00    -0.238 NA
ATOM     20  C   UNL     1      -2.241   0.408  -0.313  1.00  0.00     0.113 A 
BRANCH  16  21
ATOM     21  C   UNL     1       1.886   0.923  -0.448  1.00  0.00     0.103 C 
ATOM     22  N   UNL     1       3.029   1.064  -0.476  1.00  0.00    -0.192 NA
ENDBRANCH  16  21
ENDBRANCH   9  15
ENDBRANCH   7   8
BRANCH   7  23
ATOM     23  C   UNL     1      -0.360  -6.184  -1.442  1.00  0.00     0.044 A 
ATOM     24  C   UNL     1       0.104  -7.291  -2.146  1.00  0.00     0.094 A 
ATOM     25  C   UNL     1      -1.465  -5.738  -2.256  1.00  0.00     0.009 A 
ATOM     26  N   UNL     1      -0.048  -6.919  -3.468  1.00  0.00    -0.361 N 
ATOM     27  C   UNL     1      -1.002  -5.931  -3.561  1.00  0.00     0.046 A 
ATOM     28  C   UNL     1      -2.618  -4.954  -2.083  1.00  0.00     0.011 A 
ATOM     29  H   UNL     1       0.449  -7.302  -4.227  1.00  0.00     0.166 HD
ATOM     30  C   UNL     1      -1.382  -5.088  -4.619  1.00  0.00     0.032 A 
ATOM     31  C   UNL     1      -3.107  -4.206  -3.159  1.00  0.00     0.007 A 
ATOM     32  C   UNL     1      -2.396  -4.148  -4.363  1.00  0.00    -0.021 A 
BRANCH  32  33
ATOM     33  C   UNL     1      -2.677  -3.033  -5.339  1.00  0.00     0.191 C 
BRANCH  33  34
ATOM     34  O   UNL     1      -2.543  -1.750  -4.730  1.00  0.00    -0.392 OA
ATOM     35  H   UNL     1      -3.181  -1.669  -4.004  1.00  0.00     0.211 HD
ENDBRANCH  33  34
ENDBRANCH  32  33
ENDBRANCH   7  23
ENDBRANCH   4   7
ENDBRANCH   2   3
ENDBRANCH   1   2
BRANCH   1  36
ATOM     36  C   UNL     1       1.342  -2.080   3.344  1.00  0.00     0.023 C 
BRANCH  36  37
ATOM     37  C   UNL     1       1.366  -1.589   4.776  1.00  0.00     0.116 C 
BRANCH  37  38
ATOM     38  N   UNL     1       2.663  -1.058   5.166  1.00  0.00    -0.352 N 
ATOM     39  C   UNL     1       2.948   0.029   5.963  1.00  0.00     0.251 C 
ATOM     40  H   UNL     1       3.445  -1.542   4.813  1.00  0.00     0.163 HD
ATOM     41  O   UNL     1       4.111   0.404   6.085  1.00  0.00    -0.269 OA
BRANCH  39  42
ATOM     42  C   UNL     1       1.854   0.762   6.645  1.00  0.00     0.039 A 
ATOM     43  C   UNL     1       1.932   2.154   6.751  1.00  0.00     0.014 A 
ATOM     44  C   UNL     1       0.753   0.087   7.177  1.00  0.00     0.014 A 
ATOM     45  C   UNL     1       0.887   2.864   7.349  1.00  0.00     0.010 A 
ATOM     46  C   UNL     1      -0.333   0.800   7.667  1.00  0.00     0.010 A 
ATOM     47  C   UNL     1      -0.265   2.193   7.790  1.00  0.00    -0.014 A 
BRANCH  47  48
ATOM     48  C   UNL     1      -1.398   2.920   8.412  1.00  0.00     0.031 A 
ATOM     49  C   UNL     1      -1.797   2.616   9.832  1.00  0.00     0.074 A 
ATOM     50  C   UNL     1      -2.117   3.785   7.673  1.00  0.00     0.049 A 
ATOM     51  N   UNL     1      -2.767   3.127  10.543  1.00  0.00    -0.248 NA
ATOM     52  C   UNL     1      -1.030   1.571  10.533  1.00  0.00     0.031 C 
ATOM     53  C   UNL     1      -1.884   4.085   6.258  1.00  0.00     0.029 A 
ATOM     54  N   UNL     1      -3.199   4.560   8.003  1.00  0.00    -0.354 N 
ATOM     55  C   UNL     1      -2.755   2.438  11.751  1.00  0.00     0.074 A 
ATOM     56  C   UNL     1      -1.715   1.440  11.659  1.00  0.00     0.031 C 
ATOM     57  C   UNL     1      -2.777   5.001   5.851  1.00  0.00     0.029 A 
ATOM     58  C   UNL     1      -3.660   5.333   6.963  1.00  0.00     0.049 A 
ATOM     59  H   UNL     1      -3.607   4.563   8.899  1.00  0.00     0.167 HD
ATOM     60  C   UNL     1      -3.517   2.641  12.852  1.00  0.00     0.034 A 
ATOM     61  C   UNL     1      -4.674   6.219   6.920  1.00  0.00     0.034 A 
ATOM     62  C   UNL     1      -4.509   3.676  12.951  1.00  0.00     0.049 A 
ATOM     63  C   UNL     1      -5.460   6.479   8.175  1.00  0.00     0.074 A 
ATOM     64  C   UNL     1      -5.258   4.051  14.051  1.00  0.00     0.029 A 
ATOM     65  N   UNL     1      -4.895   4.499  11.903  1.00  0.00    -0.354 N 
ATOM     66  N   UNL     1      -5.318   5.944   9.364  1.00  0.00    -0.248 NA
ATOM     67  C   UNL     1      -6.521   7.492   8.094  1.00  0.00     0.031 C 
ATOM     68  C   UNL     1      -6.117   5.084  13.660  1.00  0.00     0.029 A 
ATOM     69  C   UNL     1      -5.884   5.370  12.323  1.00  0.00     0.049 A 
ATOM     70  H   UNL     1      -4.521   4.467  10.993  1.00  0.00     0.167 HD
ATOM     71  C   UNL     1      -6.249   6.574  10.181  1.00  0.00     0.074 A 
ATOM     72  C   UNL     1      -6.932   7.550   9.354  1.00  0.00     0.031 C 
ATOM     73  C   UNL     1      -6.525   6.358  11.491  1.00  0.00     0.034 A 
BRANCH  60  74
ATOM     74  C   UNL     1      -3.265   1.754  14.046  1.00  0.00     0.023 A 
ATOM     75  C   UNL     1      -2.056   1.872  14.764  1.00  0.00     0.012 A 
ATOM     76  C   UNL     1      -4.226   0.815  14.468  1.00  0.00     0.148 A 
ATOM     77  C   UNL     1      -1.785   1.036  15.847  1.00  0.00     0.002 A 
ATOM     78  C   UNL     1      -3.970   0.019  15.580  1.00  0.00     0.091 A 
ATOM     79  F   UNL     1      -5.359   0.696  13.763  1.00  0.00    -0.205 F 
ATOM     80  C   UNL     1      -2.745   0.117  16.260  1.00  0.00     0.022 A 
BRANCH  78  81
ATOM     81  S   UNL     1      -5.177  -1.138  16.237  1.00  0.00     0.127 S 
ATOM     82  O   UNL     1      -4.624  -2.420  15.802  1.00  0.00    -0.237 OA
ATOM     83  O   UNL     1      -5.088  -0.893  17.677  1.00  0.00    -0.237 OA
ATOM     84  O   UNL     1      -6.451  -0.766  15.638  1.00  0.00    -0.744 OA
ENDBRANCH  78  81
ENDBRANCH  60  74
BRANCH  61  85
ATOM     85  C   UNL     1      -4.923   6.993   5.671  1.00  0.00     0.023 A 
ATOM     86  C   UNL     1      -4.600   8.364   5.638  1.00  0.00     0.012 A 
ATOM     87  C   UNL     1      -5.410   6.375   4.504  1.00  0.00     0.148 A 
ATOM     88  C   UNL     1      -4.778   9.110   4.473  1.00  0.00     0.002 A 
ATOM     89  C   UNL     1      -5.532   7.111   3.330  1.00  0.00     0.091 A 
ATOM     90  F   UNL     1      -5.718   5.071   4.557  1.00  0.00    -0.205 F 
ATOM     91  C   UNL     1      -5.233   8.482   3.317  1.00  0.00     0.022 A 
BRANCH  89  92
ATOM     92  S   UNL     1      -5.965   6.355   1.759  1.00  0.00     0.127 S 
ATOM     93  O   UNL     1      -7.287   6.923   1.507  1.00  0.00    -0.237 OA
ATOM     94  O   UNL     1      -4.902   6.850   0.883  1.00  0.00    -0.237 OA
ATOM     95  O   UNL     1      -5.927   4.917   1.988  1.00  0.00    -0.744 OA
ENDBRANCH  89  92
ENDBRANCH  61  85
BRANCH  73  96
ATOM     96  C   UNL     1      -7.602   7.203  12.118  1.00  0.00     0.023 A 
ATOM     97  C   UNL     1      -8.952   6.979  11.780  1.00  0.00     0.012 A 
ATOM     98  C   UNL     1      -7.283   8.174  13.087  1.00  0.00     0.148 A 
ATOM     99  C   UNL     1      -9.964   7.735  12.369  1.00  0.00     0.002 A 
ATOM    100  C   UNL     1      -8.301   8.887  13.708  1.00  0.00     0.091 A 
ATOM    101  F   UNL     1      -5.992   8.386  13.381  1.00  0.00    -0.205 F 
ATOM    102  C   UNL     1      -9.640   8.679  13.340  1.00  0.00     0.022 A 
BRANCH 100 103
ATOM    103  S   UNL     1      -7.983  10.050  15.040  1.00  0.00     0.127 S 
ATOM    104  O   UNL     1      -8.168  11.333  14.365  1.00  0.00    -0.237 OA
ATOM    105  O   UNL     1      -9.029   9.711  16.006  1.00  0.00    -0.237 OA
ATOM    106  O   UNL     1      -6.628   9.771  15.497  1.00  0.00    -0.744 OA
ENDBRANCH 100 103
ENDBRANCH  73  96
ENDBRANCH  47  48
ENDBRANCH  39  42
ENDBRANCH  37  38
ENDBRANCH  36  37
ENDBRANCH   1  36
TORSDOF 20
