REMARK SMILES C[C@@H]1CCC[C@H](C)[N@H+]1Cc1cc2c(cc1Cl)C=C(C(=O)NCCCCNC(=O)c1ccc(-c3c4nc(c(-c5cccc(S(=O)(=O)[O-])c5F)c5ccc([nH]5)c(-c5cccc(S(=O)(=O)[O-])c5F)c5nc(c(-c6cccc(S(=O)(=O)[O-])c6F)c6ccc3[nH]6)C=C5)C=C4)cc1)[C@@H](C(F)(F)F)O2
REMARK SMILES IDX 24 1 23 2 22 3 21 4 19 5 20 6 18 8 10 9 11 10 15 11 12 12
REMARK SMILES IDX 14 13 16 14 13 15 97 16 17 17 92 18 9 19 8 20 7 21 6 22 5 23
REMARK SMILES IDX 4 24 2 25 3 27 1 28 93 29 94 30 95 31 96 32 25 33 26 34
REMARK SMILES IDX 27 35 28 37 29 38 30 39 91 40 31 41 90 42 32 43 33 44 34 45
REMARK SMILES IDX 84 46 35 47 89 48 83 49 85 50 36 51 88 52 82 53 81 54 37 56
REMARK SMILES IDX 69 57 49 58 68 59 50 60 53 61 67 62 86 63 51 64 52 65 66 67
REMARK SMILES IDX 87 68 54 69 38 70 39 71 47 72 40 73 42 74 48 75 41 76 43 77
REMARK SMILES IDX 44 78 45 79 46 80 70 81 71 82 79 83 72 84 74 85 80 86 73 87
REMARK SMILES IDX 75 88 76 89 77 90 78 91 55 92 56 93 64 94 57 95 59 96 65 97
REMARK SMILES IDX 58 98 60 99 61 100 62 101 63 102
REMARK H PARENT 21 7 8 26 26 36 85 55 53 66
REMARK Flexibility Score: inf
ROOT
ATOM      1  C   UNL     1       5.620   8.737   6.772  1.00  0.00     0.023 C 
ENDROOT
BRANCH   1   2
ATOM      2  C   UNL     1       4.507   7.745   6.428  1.00  0.00     0.023 C 
BRANCH   2   3
ATOM      3  C   UNL     1       3.143   8.389   6.192  1.00  0.00     0.116 C 
BRANCH   3   4
ATOM      4  N   UNL     1       2.981   8.825   4.817  1.00  0.00    -0.352 N 
ATOM      5  C   UNL     1       2.219   8.462   3.760  1.00  0.00     0.251 C 
ATOM      6  O   UNL     1       2.343   9.161   2.750  1.00  0.00    -0.270 OA
ATOM      7  H   UNL     1       3.578   9.577   4.598  1.00  0.00     0.163 HD
BRANCH   5   8
ATOM      8  C   UNL     1       1.298   7.291   3.730  1.00  0.00     0.067 C 
ATOM      9  C   UNL     1      -1.371   3.433   1.883  1.00  0.00     0.029 A 
ATOM     10  C   UNL     1      -0.499   3.599   2.973  1.00  0.00     0.058 A 
ATOM     11  C   UNL     1      -1.804   4.586   1.206  1.00  0.00     0.050 A 
ATOM     12  C   UNL     1       0.054   4.844   3.252  1.00  0.00     0.128 A 
ATOM     13  C   UNL     1      -1.220   5.831   1.469  1.00  0.00     0.033 A 
ATOM     14  Cl  UNL     1      -3.047   4.549   0.006  1.00  0.00    -0.084 Cl
ATOM     15  C   UNL     1      -0.247   5.949   2.459  1.00  0.00     0.019 A 
ATOM     16  O   UNL     1       0.961   4.902   4.275  1.00  0.00    -0.475 OA
ATOM     17  C   UNL     1       0.547   7.162   2.619  1.00  0.00     0.025 C 
ATOM     18  C   UNL     1       1.198   6.240   4.799  1.00  0.00     0.314 C 
BRANCH   9  19
ATOM     19  C   UNL     1      -1.712   2.022   1.449  1.00  0.00     0.301 C 
BRANCH  19  20
ATOM     20  N   UNL     1      -0.752   1.365   0.530  1.00  0.00    -0.327 N 
ATOM     21  C   UNL     1       1.000  -0.374   0.703  1.00  0.00     0.075 C 
ATOM     22  C   UNL     1       0.561   1.040   1.112  1.00  0.00     0.181 C 
ATOM     23  C   UNL     1       1.677   2.055   0.805  1.00  0.00     0.065 C 
ATOM     24  C   UNL     1       1.726   2.471  -0.658  1.00  0.00     0.012 C 
ATOM     25  C   UNL     1      -0.752   1.903  -0.840  1.00  0.00     0.181 C 
ATOM     26  H   UNL     1      -1.140   0.431   0.397  1.00  0.00     0.348 HD
ATOM     27  C   UNL     1       0.353   2.934  -1.121  1.00  0.00     0.065 C 
ATOM     28  C   UNL     1      -0.722   0.772  -1.877  1.00  0.00     0.075 C 
ENDBRANCH  19  20
ENDBRANCH   9  19
BRANCH  18  29
ATOM     29  C   UNL     1       0.128   6.594   5.856  1.00  0.00     0.429 C 
ATOM     30  F   UNL     1       0.291   5.837   6.969  1.00  0.00    -0.167 F 
ATOM     31  F   UNL     1       0.203   7.887   6.251  1.00  0.00    -0.167 F 
ATOM     32  F   UNL     1      -1.136   6.397   5.416  1.00  0.00    -0.167 F 
ENDBRANCH  18  29
ENDBRANCH   5   8
ENDBRANCH   3   4
ENDBRANCH   2   3
ENDBRANCH   1   2
BRANCH   1  33
ATOM     33  C   UNL     1       5.345   9.634   7.976  1.00  0.00     0.116 C 
BRANCH  33  34
ATOM     34  N   UNL     1       4.955   8.918   9.184  1.00  0.00    -0.352 N 
ATOM     35  C   UNL     1       5.113   9.333  10.488  1.00  0.00     0.251 C 
ATOM     36  H   UNL     1       4.532   8.039   9.053  1.00  0.00     0.163 HD
ATOM     37  O   UNL     1       4.793   8.607  11.423  1.00  0.00    -0.269 OA
BRANCH  35  38
ATOM     38  C   UNL     1       5.733  10.651  10.723  1.00  0.00     0.039 A 
ATOM     39  C   UNL     1       5.199  11.785  10.107  1.00  0.00     0.014 A 
ATOM     40  C   UNL     1       6.936  10.718  11.429  1.00  0.00     0.014 A 
ATOM     41  C   UNL     1       5.961  12.944  10.045  1.00  0.00     0.010 A 
ATOM     42  C   UNL     1       7.663  11.909  11.428  1.00  0.00     0.010 A 
ATOM     43  C   UNL     1       7.213  13.009  10.681  1.00  0.00    -0.014 A 
BRANCH  43  44
ATOM     44  C   UNL     1       8.045  14.228  10.524  1.00  0.00     0.031 A 
ATOM     45  C   UNL     1       9.359  14.178   9.791  1.00  0.00     0.074 A 
ATOM     46  C   UNL     1       7.585  15.400  11.003  1.00  0.00     0.049 A 
ATOM     47  N   UNL     1      10.194  15.153   9.539  1.00  0.00    -0.248 NA
ATOM     48  C   UNL     1       9.800  12.870   9.278  1.00  0.00     0.031 C 
ATOM     49  C   UNL     1       6.334  15.570  11.744  1.00  0.00     0.029 A 
ATOM     50  N   UNL     1       8.105  16.666  10.926  1.00  0.00    -0.354 N 
ATOM     51  C   UNL     1      11.276  14.573   8.889  1.00  0.00     0.074 A 
ATOM     52  C   UNL     1      10.993  13.160   8.775  1.00  0.00     0.031 C 
ATOM     53  C   UNL     1       6.161  16.871  12.016  1.00  0.00     0.029 A 
ATOM     54  C   UNL     1       7.309  17.620  11.512  1.00  0.00     0.049 A 
ATOM     55  H   UNL     1       8.964  16.872  10.493  1.00  0.00     0.167 HD
ATOM     56  C   UNL     1      12.394  15.168   8.412  1.00  0.00     0.034 A 
ATOM     57  C   UNL     1       7.480  18.950  11.636  1.00  0.00     0.034 A 
ATOM     58  C   UNL     1      12.642  16.583   8.457  1.00  0.00     0.049 A 
ATOM     59  C   UNL     1       8.710  19.589  11.065  1.00  0.00     0.074 A 
ATOM     60  C   UNL     1      13.719  17.282   7.937  1.00  0.00     0.029 A 
ATOM     61  N   UNL     1      11.804  17.516   9.045  1.00  0.00    -0.354 N 
ATOM     62  N   UNL     1       9.680  19.033  10.382  1.00  0.00    -0.248 NA
ATOM     63  C   UNL     1       8.867  21.036  11.271  1.00  0.00     0.031 C 
ATOM     64  C   UNL     1      13.530  18.640   8.211  1.00  0.00     0.029 A 
ATOM     65  C   UNL     1      12.339  18.784   8.905  1.00  0.00     0.049 A 
ATOM     66  H   UNL     1      10.955  17.307   9.497  1.00  0.00     0.167 HD
ATOM     67  C   UNL     1      10.564  20.059  10.075  1.00  0.00     0.074 A 
ATOM     68  C   UNL     1      10.001  21.277  10.623  1.00  0.00     0.031 C 
ATOM     69  C   UNL     1      11.748  19.991   9.420  1.00  0.00     0.034 A 
BRANCH  56  70
ATOM     70  C   UNL     1      13.425  14.303   7.742  1.00  0.00     0.023 A 
ATOM     71  C   UNL     1      13.244  13.936   6.395  1.00  0.00     0.012 A 
ATOM     72  C   UNL     1      14.610  13.938   8.411  1.00  0.00     0.148 A 
ATOM     73  C   UNL     1      14.226  13.211   5.722  1.00  0.00     0.002 A 
ATOM     74  C   UNL     1      15.595  13.236   7.726  1.00  0.00     0.091 A 
ATOM     75  F   UNL     1      14.748  14.283   9.699  1.00  0.00    -0.205 F 
ATOM     76  C   UNL     1      15.404  12.870   6.383  1.00  0.00     0.022 A 
BRANCH  74  77
ATOM     77  S   UNL     1      17.168  12.792   8.472  1.00  0.00     0.127 S 
ATOM     78  O   UNL     1      17.037  11.341   8.592  1.00  0.00    -0.237 OA
ATOM     79  O   UNL     1      18.126  13.236   7.459  1.00  0.00    -0.237 OA
ATOM     80  O   UNL     1      17.234  13.519   9.732  1.00  0.00    -0.744 OA
ENDBRANCH  74  77
ENDBRANCH  56  70
BRANCH  57  81
ATOM     81  C   UNL     1       6.413  19.751  12.291  1.00  0.00     0.023 A 
ATOM     82  C   UNL     1       5.549  20.525  11.495  1.00  0.00     0.012 A 
ATOM     83  C   UNL     1       6.181  19.655  13.677  1.00  0.00     0.148 A 
ATOM     84  C   UNL     1       4.465  21.188  12.068  1.00  0.00     0.002 A 
ATOM     85  C   UNL     1       5.072  20.280  14.233  1.00  0.00     0.091 A 
ATOM     86  F   UNL     1       7.024  18.916  14.411  1.00  0.00    -0.205 F 
ATOM     87  C   UNL     1       4.218  21.055  13.432  1.00  0.00     0.022 A 
BRANCH  85  88
ATOM     88  S   UNL     1       4.598  20.057  15.951  1.00  0.00     0.127 S 
ATOM     89  O   UNL     1       4.775  21.404  16.487  1.00  0.00    -0.237 OA
ATOM     90  O   UNL     1       3.207  19.622  15.823  1.00  0.00    -0.237 OA
ATOM     91  O   UNL     1       5.500  19.045  16.484  1.00  0.00    -0.744 OA
ENDBRANCH  85  88
ENDBRANCH  57  81
BRANCH  69  92
ATOM     92  C   UNL     1      12.536  21.260   9.264  1.00  0.00     0.023 A 
ATOM     93  C   UNL     1      13.327  21.706  10.340  1.00  0.00     0.012 A 
ATOM     94  C   UNL     1      12.589  21.936   8.031  1.00  0.00     0.148 A 
ATOM     95  C   UNL     1      14.157  22.816  10.193  1.00  0.00     0.002 A 
ATOM     96  C   UNL     1      13.441  23.024   7.882  1.00  0.00     0.091 A 
ATOM     97  F   UNL     1      11.816  21.495   7.027  1.00  0.00    -0.205 F 
ATOM     98  C   UNL     1      14.223  23.466   8.963  1.00  0.00     0.022 A 
BRANCH  96  99
ATOM     99  S   UNL     1      13.648  23.883   6.318  1.00  0.00     0.127 S 
ATOM    100  O   UNL     1      13.015  25.171   6.601  1.00  0.00    -0.237 OA
ATOM    101  O   UNL     1      15.103  23.934   6.183  1.00  0.00    -0.237 OA
ATOM    102  O   UNL     1      12.974  23.066   5.318  1.00  0.00    -0.744 OA
ENDBRANCH  96  99
ENDBRANCH  69  92
ENDBRANCH  43  44
ENDBRANCH  35  38
ENDBRANCH  33  34
ENDBRANCH   1  33
TORSDOF 17
