REMARK SMILES CC[NH2+][C@]1(C(=O)NCCCCNC(=O)c2ccc(-c3c4nc(c(-c5cccc(S(=O)(=O)[O-])c5F)c5ccc([nH]5)c(-c5cccc(S(=O)(=O)[O-])c5F)c5nc(c(-c6cccc(S(=O)(=O)[O-])c6F)c6ccc3[nH]6)C=C5)C=C4)cc2)CCC[C@@H]1CCSc1ccccc1F
REMARK SMILES IDX 9 1 8 2 7 3 5 4 6 5 4 7 78 8 81 9 79 10 80 11 3 12 2 15 1 16
REMARK SMILES IDX 82 17 83 18 84 19 85 20 86 21 90 22 87 23 89 24 91 25 88 26
REMARK SMILES IDX 10 27 11 28 12 29 13 30 14 32 15 33 16 34 77 35 17 36 76 37
REMARK SMILES IDX 18 38 19 39 20 40 70 41 21 42 75 43 69 44 71 45 22 46 74 47
REMARK SMILES IDX 68 48 67 49 23 51 55 52 35 53 54 54 36 55 39 56 53 57 72 58
REMARK SMILES IDX 37 59 38 60 52 62 73 63 40 64 24 65 25 66 33 67 26 68 28 69
REMARK SMILES IDX 34 70 27 71 29 72 30 73 31 74 32 75 56 76 57 77 65 78 58 79
REMARK SMILES IDX 60 80 66 81 59 82 61 83 62 84 63 85 64 86 41 87 42 88 50 89
REMARK SMILES IDX 43 90 45 91 51 92 44 93 46 94 47 95 48 96 49 97
REMARK H PARENT 7 6 3 13 3 14 12 31 71 50 39 61
REMARK Flexibility Score: inf
ROOT
ATOM      1  C   UNL     1       2.263   1.370  -3.219  1.00  0.00     0.023 C 
ENDROOT
BRANCH   1   2
ATOM      2  C   UNL     1       2.143  -0.153  -3.168  1.00  0.00     0.116 C 
BRANCH   2   3
ATOM      3  N   UNL     1       1.264  -0.614  -2.117  1.00  0.00    -0.351 N 
ATOM      4  C   UNL     1       0.470  -1.700  -1.957  1.00  0.00     0.281 C 
ATOM      5  O   UNL     1      -0.123  -1.726  -0.870  1.00  0.00    -0.268 OA
ATOM      6  H   UNL     1       1.237  -0.003  -1.345  1.00  0.00     0.163 HD
BRANCH   4   7
ATOM      7  C   UNL     1       0.159  -2.804  -3.045  1.00  0.00     0.178 C 
ATOM      8  C   UNL     1       1.072  -2.833  -4.281  1.00  0.00     0.079 C 
ATOM      9  C   UNL     1       0.537  -4.185  -2.416  1.00  0.00     0.061 C 
ATOM     10  C   UNL     1       1.095  -4.267  -4.798  1.00  0.00     0.008 C 
ATOM     11  C   UNL     1       0.773  -5.146  -3.596  1.00  0.00     0.011 C 
BRANCH   7  12
ATOM     12  N   UNL     1      -1.286  -2.657  -3.321  1.00  0.00    -0.334 N 
ATOM     13  H   UNL     1      -1.772  -2.992  -2.489  1.00  0.00     0.347 HD
ATOM     14  H   UNL     1      -1.359  -1.671  -3.571  1.00  0.00     0.347 HD
BRANCH  12  15
ATOM     15  C   UNL     1      -1.915  -3.306  -4.447  1.00  0.00     0.257 C 
ATOM     16  C   UNL     1      -3.415  -3.037  -4.375  1.00  0.00     0.071 C 
ENDBRANCH  12  15
ENDBRANCH   7  12
BRANCH   9  17
ATOM     17  C   UNL     1      -0.424  -4.768  -1.361  1.00  0.00     0.022 C 
BRANCH  17  18
ATOM     18  C   UNL     1       0.287  -5.542  -0.241  1.00  0.00     0.075 C 
BRANCH  18  19
ATOM     19  S   UNL     1       0.782  -4.531   1.212  1.00  0.00    -0.123 SA
BRANCH  19  20
ATOM     20  C   UNL     1       2.255  -3.677   0.671  1.00  0.00     0.043 A 
ATOM     21  C   UNL     1       3.285  -4.339  -0.009  1.00  0.00     0.018 A 
ATOM     22  C   UNL     1       2.434  -2.320   0.975  1.00  0.00     0.136 A 
ATOM     23  C   UNL     1       4.423  -3.645  -0.435  1.00  0.00     0.001 A 
ATOM     24  C   UNL     1       3.572  -1.627   0.562  1.00  0.00     0.040 A 
ATOM     25  F   UNL     1       1.508  -1.640   1.669  1.00  0.00    -0.206 F 
ATOM     26  C   UNL     1       4.564  -2.287  -0.157  1.00  0.00     0.003 A 
ENDBRANCH  19  20
ENDBRANCH  18  19
ENDBRANCH  17  18
ENDBRANCH   9  17
ENDBRANCH   4   7
ENDBRANCH   2   3
ENDBRANCH   1   2
BRANCH   1  27
ATOM     27  C   UNL     1       2.888   2.045  -1.997  1.00  0.00     0.023 C 
BRANCH  27  28
ATOM     28  C   UNL     1       4.303   1.600  -1.641  1.00  0.00     0.116 C 
BRANCH  28  29
ATOM     29  N   UNL     1       5.265   1.821  -2.710  1.00  0.00    -0.352 N 
ATOM     30  C   UNL     1       6.399   2.598  -2.739  1.00  0.00     0.251 C 
ATOM     31  H   UNL     1       5.073   1.338  -3.546  1.00  0.00     0.163 HD
ATOM     32  O   UNL     1       7.011   2.732  -3.797  1.00  0.00    -0.269 OA
BRANCH  30  33
ATOM     33  C   UNL     1       6.872   3.295  -1.522  1.00  0.00     0.039 A 
ATOM     34  C   UNL     1       7.247   4.638  -1.621  1.00  0.00     0.014 A 
ATOM     35  C   UNL     1       6.960   2.636  -0.293  1.00  0.00     0.014 A 
ATOM     36  C   UNL     1       7.632   5.341  -0.474  1.00  0.00     0.010 A 
ATOM     37  C   UNL     1       7.277   3.355   0.860  1.00  0.00     0.010 A 
ATOM     38  C   UNL     1       7.612   4.716   0.783  1.00  0.00    -0.014 A 
BRANCH  38  39
ATOM     39  C   UNL     1       7.905   5.478   2.027  1.00  0.00     0.031 A 
ATOM     40  C   UNL     1       9.091   5.120   2.884  1.00  0.00     0.074 A 
ATOM     41  C   UNL     1       7.047   6.436   2.437  1.00  0.00     0.049 A 
ATOM     42  N   UNL     1       9.472   5.641   4.021  1.00  0.00    -0.248 NA
ATOM     43  C   UNL     1       9.949   4.018   2.416  1.00  0.00     0.031 C 
ATOM     44  C   UNL     1       5.814   6.821   1.745  1.00  0.00     0.029 A 
ATOM     45  N   UNL     1       7.063   7.239   3.552  1.00  0.00    -0.354 N 
ATOM     46  C   UNL     1      10.579   4.907   4.428  1.00  0.00     0.074 A 
ATOM     47  C   UNL     1      10.803   3.890   3.423  1.00  0.00     0.031 C 
ATOM     48  C   UNL     1       5.194   7.781   2.450  1.00  0.00     0.029 A 
ATOM     49  C   UNL     1       5.966   8.065   3.655  1.00  0.00     0.049 A 
ATOM     50  H   UNL     1       7.790   7.225   4.215  1.00  0.00     0.167 HD
ATOM     51  C   UNL     1      11.355   5.078   5.524  1.00  0.00     0.034 A 
ATOM     52  C   UNL     1       5.619   8.947   4.614  1.00  0.00     0.034 A 
ATOM     53  C   UNL     1      11.173   6.130   6.487  1.00  0.00     0.049 A 
ATOM     54  C   UNL     1       6.538   9.154   5.788  1.00  0.00     0.074 A 
ATOM     55  C   UNL     1      11.982   6.459   7.562  1.00  0.00     0.029 A 
ATOM     56  N   UNL     1      10.110   7.017   6.502  1.00  0.00    -0.354 N 
ATOM     57  N   UNL     1       7.689   8.582   6.047  1.00  0.00    -0.248 NA
ATOM     58  C   UNL     1       6.130  10.157   6.785  1.00  0.00     0.031 C 
ATOM     59  C   UNL     1      11.396   7.533   8.238  1.00  0.00     0.029 A 
ATOM     60  C   UNL     1      10.234   7.885   7.573  1.00  0.00     0.049 A 
ATOM     61  H   UNL     1       9.375   7.029   5.847  1.00  0.00     0.167 HD
ATOM     62  C   UNL     1       8.160   9.184   7.208  1.00  0.00     0.074 A 
ATOM     63  C   UNL     1       7.183  10.180   7.591  1.00  0.00     0.031 C 
ATOM     64  C   UNL     1       9.293   8.921   7.905  1.00  0.00     0.034 A 
BRANCH  51  65
ATOM     65  C   UNL     1      12.522   4.148   5.723  1.00  0.00     0.023 A 
ATOM     66  C   UNL     1      13.673   4.298   4.925  1.00  0.00     0.012 A 
ATOM     67  C   UNL     1      12.521   3.201   6.767  1.00  0.00     0.148 A 
ATOM     68  C   UNL     1      14.800   3.509   5.149  1.00  0.00     0.002 A 
ATOM     69  C   UNL     1      13.663   2.447   7.011  1.00  0.00     0.091 A 
ATOM     70  F   UNL     1      11.409   3.064   7.503  1.00  0.00    -0.205 F 
ATOM     71  C   UNL     1      14.799   2.594   6.198  1.00  0.00     0.022 A 
BRANCH  69  72
ATOM     72  S   UNL     1      13.794   1.296   8.384  1.00  0.00     0.127 S 
ATOM     73  O   UNL     1      13.858   0.012   7.687  1.00  0.00    -0.237 OA
ATOM     74  O   UNL     1      15.048   1.712   9.013  1.00  0.00    -0.237 OA
ATOM     75  O   UNL     1      12.605   1.502   9.199  1.00  0.00    -0.744 OA
ENDBRANCH  69  72
ENDBRANCH  51  65
BRANCH  52  76
ATOM     76  C   UNL     1       4.373   9.756   4.479  1.00  0.00     0.023 A 
ATOM     77  C   UNL     1       4.473  11.143   4.256  1.00  0.00     0.012 A 
ATOM     78  C   UNL     1       3.097   9.169   4.577  1.00  0.00     0.148 A 
ATOM     79  C   UNL     1       3.328  11.937   4.177  1.00  0.00     0.002 A 
ATOM     80  C   UNL     1       1.960   9.957   4.442  1.00  0.00     0.091 A 
ATOM     81  F   UNL     1       3.018   7.850   4.809  1.00  0.00    -0.205 F 
ATOM     82  C   UNL     1       2.072  11.344   4.261  1.00  0.00     0.022 A 
BRANCH  80  83
ATOM     83  S   UNL     1       0.311   9.245   4.405  1.00  0.00     0.127 S 
ATOM     84  O   UNL     1      -0.158   9.503   5.763  1.00  0.00    -0.237 OA
ATOM     85  O   UNL     1      -0.346  10.040   3.365  1.00  0.00    -0.237 OA
ATOM     86  O   UNL     1       0.508   7.847   4.047  1.00  0.00    -0.744 OA
ENDBRANCH  80  83
ENDBRANCH  52  76
BRANCH  64  87
ATOM     87  C   UNL     1       9.571   9.749   9.131  1.00  0.00     0.023 A 
ATOM     88  C   UNL     1       8.819   9.539  10.303  1.00  0.00     0.012 A 
ATOM     89  C   UNL     1      10.632  10.677   9.147  1.00  0.00     0.148 A 
ATOM     90  C   UNL     1       9.097  10.261  11.463  1.00  0.00     0.002 A 
ATOM     91  C   UNL     1      10.934  11.358  10.320  1.00  0.00     0.091 A 
ATOM     92  F   UNL     1      11.324  10.877   8.016  1.00  0.00    -0.205 F 
ATOM     93  C   UNL     1      10.161  11.160  11.475  1.00  0.00     0.022 A 
BRANCH  91  94
ATOM     94  S   UNL     1      12.348  12.459  10.452  1.00  0.00     0.127 S 
ATOM     95  O   UNL     1      11.706  13.772  10.438  1.00  0.00    -0.237 OA
ATOM     96  O   UNL     1      12.924  12.075  11.742  1.00  0.00    -0.237 OA
ATOM     97  O   UNL     1      13.194  12.162   9.304  1.00  0.00    -0.744 OA
ENDBRANCH  91  94
ENDBRANCH  64  87
ENDBRANCH  38  39
ENDBRANCH  30  33
ENDBRANCH  28  29
ENDBRANCH  27  28
ENDBRANCH   1  27
TORSDOF 20
