REMARK SMILES CC(C)N1C(=O)C[C@@H]([N@@H+]2CC[C@H](C(=O)NCCCCNC(=O)c3ccc(-c4c5nc(c(-c6cccc(S(=O)(=O)[O-])c6F)c6ccc([nH]6)c(-c6cccc(S(=O)(=O)[O-])c6F)c6nc(c(-c7cccc(S(=O)(=O)[O-])c7F)c7ccc4[nH]7)C=C6)C=C5)cc3)[C@@H]2C)C1=O
REMARK SMILES IDX 18 1 17 2 16 3 15 4 13 5 14 6 12 8 9 9 10 10 86 11 11 13
REMARK SMILES IDX 87 14 8 15 4 16 5 17 88 18 6 19 7 20 89 21 2 22 1 23 3 24
REMARK SMILES IDX 19 25 20 26 21 27 22 29 23 30 24 31 85 32 25 33 84 34 26 35
REMARK SMILES IDX 27 36 28 37 78 38 29 39 83 40 77 41 79 42 30 43 82 44 76 45
REMARK SMILES IDX 75 46 31 48 63 49 43 50 62 51 44 52 47 53 61 54 80 55 45 56
REMARK SMILES IDX 46 57 60 59 81 60 48 61 32 62 33 63 41 64 34 65 36 66 42 67
REMARK SMILES IDX 35 68 37 69 38 70 39 71 40 72 64 73 65 74 73 75 66 76 68 77
REMARK SMILES IDX 74 78 67 79 69 80 70 81 71 82 72 83 49 84 50 85 58 86 51 87
REMARK SMILES IDX 53 88 59 89 52 90 54 91 55 92 56 93 57 94
REMARK H PARENT 15 7 9 12 20 28 79 47 47 58
REMARK Flexibility Score: inf
ROOT
ATOM      1  C   UNL     1      -9.739   4.084  -2.723  1.00  0.00     0.023 C 
ENDROOT
BRANCH   1   2
ATOM      2  C   UNL     1      -9.248   2.636  -2.753  1.00  0.00     0.023 C 
BRANCH   2   3
ATOM      3  C   UNL     1      -8.056   2.375  -3.669  1.00  0.00     0.116 C 
BRANCH   3   4
ATOM      4  N   UNL     1      -6.871   3.106  -3.260  1.00  0.00    -0.356 N 
ATOM      5  C   UNL     1      -5.632   2.657  -2.916  1.00  0.00     0.229 C 
ATOM      6  O   UNL     1      -4.752   3.492  -2.702  1.00  0.00    -0.275 OA
ATOM      7  H   UNL     1      -6.979   4.083  -3.227  1.00  0.00     0.163 HD
BRANCH   5   8
ATOM      8  C   UNL     1      -5.374   1.163  -2.775  1.00  0.00     0.142 C 
ATOM      9  N   UNL     1      -3.757   0.502  -1.121  1.00  0.00    -0.321 N 
ATOM     10  C   UNL     1      -3.036   0.916  -2.326  1.00  0.00     0.264 C 
ATOM     11  C   UNL     1      -5.201   0.709  -1.315  1.00  0.00     0.194 C 
ATOM     12  H   UNL     1      -3.660  -0.506  -0.993  1.00  0.00     0.349 HD
ATOM     13  C   UNL     1      -4.054   0.790  -3.439  1.00  0.00     0.081 C 
ATOM     14  C   UNL     1      -5.990   1.510  -0.280  1.00  0.00     0.076 C 
BRANCH   9  15
ATOM     15  C   UNL     1      -3.134   0.887   0.153  1.00  0.00     0.284 C 
ATOM     16  N   UNL     1      -0.848   1.454   0.294  1.00  0.00    -0.275 N 
ATOM     17  C   UNL     1      -1.532   2.608   0.571  1.00  0.00     0.236 C 
ATOM     18  C   UNL     1      -1.693   0.382   0.200  1.00  0.00     0.288 C 
ATOM     19  O   UNL     1      -1.038   3.678   0.897  1.00  0.00    -0.274 OA
ATOM     20  C   UNL     1      -3.004   2.377   0.444  1.00  0.00     0.176 C 
ATOM     21  O   UNL     1      -1.383  -0.802   0.153  1.00  0.00    -0.267 OA
BRANCH  16  22
ATOM     22  C   UNL     1       0.619   1.442   0.221  1.00  0.00     0.087 C 
ATOM     23  C   UNL     1       1.262   0.057   0.128  1.00  0.00     0.031 C 
ATOM     24  C   UNL     1       1.098   2.284  -0.972  1.00  0.00     0.031 C 
ENDBRANCH  16  22
ENDBRANCH   9  15
ENDBRANCH   5   8
ENDBRANCH   3   4
ENDBRANCH   2   3
ENDBRANCH   1   2
BRANCH   1  25
ATOM     25  C   UNL     1     -10.024   4.711  -4.084  1.00  0.00     0.116 C 
BRANCH  25  26
ATOM     26  N   UNL     1     -10.998   3.961  -4.865  1.00  0.00    -0.352 N 
ATOM     27  C   UNL     1     -12.122   4.408  -5.518  1.00  0.00     0.251 C 
ATOM     28  H   UNL     1     -10.826   2.994  -4.936  1.00  0.00     0.163 HD
ATOM     29  O   UNL     1     -12.896   3.600  -6.023  1.00  0.00    -0.269 OA
BRANCH  27  30
ATOM     30  C   UNL     1     -12.415   5.857  -5.578  1.00  0.00     0.039 A 
ATOM     31  C   UNL     1     -13.704   6.295  -5.264  1.00  0.00     0.014 A 
ATOM     32  C   UNL     1     -11.420   6.780  -5.911  1.00  0.00     0.014 A 
ATOM     33  C   UNL     1     -13.973   7.664  -5.203  1.00  0.00     0.010 A 
ATOM     34  C   UNL     1     -11.670   8.143  -5.778  1.00  0.00     0.010 A 
ATOM     35  C   UNL     1     -12.946   8.600  -5.412  1.00  0.00    -0.014 A 
BRANCH  35  36
ATOM     36  C   UNL     1     -13.173  10.052  -5.187  1.00  0.00     0.031 A 
ATOM     37  C   UNL     1     -13.016  11.040  -6.308  1.00  0.00     0.074 A 
ATOM     38  C   UNL     1     -13.418  10.491  -3.936  1.00  0.00     0.049 A 
ATOM     39  N   UNL     1     -13.126  12.344  -6.277  1.00  0.00    -0.248 NA
ATOM     40  C   UNL     1     -12.665  10.500  -7.630  1.00  0.00     0.031 C 
ATOM     41  C   UNL     1     -13.498   9.643  -2.744  1.00  0.00     0.029 A 
ATOM     42  N   UNL     1     -13.608  11.762  -3.451  1.00  0.00    -0.354 N 
ATOM     43  C   UNL     1     -12.820  12.783  -7.558  1.00  0.00     0.074 A 
ATOM     44  C   UNL     1     -12.495  11.607  -8.338  1.00  0.00     0.031 C 
ATOM     45  C   UNL     1     -13.716  10.415  -1.669  1.00  0.00     0.029 A 
ATOM     46  C   UNL     1     -13.757  11.813  -2.085  1.00  0.00     0.049 A 
ATOM     47  H   UNL     1     -13.635  12.560  -4.027  1.00  0.00     0.167 HD
ATOM     48  C   UNL     1     -12.829  14.046  -8.048  1.00  0.00     0.034 A 
ATOM     49  C   UNL     1     -13.893  12.865  -1.253  1.00  0.00     0.034 A 
ATOM     50  C   UNL     1     -13.184  15.209  -7.277  1.00  0.00     0.049 A 
ATOM     51  C   UNL     1     -13.940  14.253  -1.826  1.00  0.00     0.074 A 
ATOM     52  C   UNL     1     -13.339  16.513  -7.713  1.00  0.00     0.029 A 
ATOM     53  N   UNL     1     -13.412  15.215  -5.910  1.00  0.00    -0.354 N 
ATOM     54  N   UNL     1     -13.841  14.631  -3.077  1.00  0.00    -0.248 NA
ATOM     55  C   UNL     1     -14.152  15.357  -0.879  1.00  0.00     0.031 C 
ATOM     56  C   UNL     1     -13.622  17.315  -6.601  1.00  0.00     0.029 A 
ATOM     57  C   UNL     1     -13.679  16.505  -5.479  1.00  0.00     0.049 A 
ATOM     58  H   UNL     1     -13.389  14.420  -5.330  1.00  0.00     0.167 HD
ATOM     59  C   UNL     1     -13.997  16.012  -3.072  1.00  0.00     0.074 A 
ATOM     60  C   UNL     1     -14.229  16.400  -1.696  1.00  0.00     0.031 C 
ATOM     61  C   UNL     1     -13.938  16.881  -4.112  1.00  0.00     0.034 A 
BRANCH  48  62
ATOM     62  C   UNL     1     -12.476  14.236  -9.501  1.00  0.00     0.023 A 
ATOM     63  C   UNL     1     -13.367  13.794 -10.502  1.00  0.00     0.012 A 
ATOM     64  C   UNL     1     -11.291  14.898  -9.877  1.00  0.00     0.148 A 
ATOM     65  C   UNL     1     -13.065  13.972 -11.851  1.00  0.00     0.002 A 
ATOM     66  C   UNL     1     -11.020  15.113 -11.223  1.00  0.00     0.091 A 
ATOM     67  F   UNL     1     -10.445  15.292  -8.914  1.00  0.00    -0.205 F 
ATOM     68  C   UNL     1     -11.898  14.640 -12.211  1.00  0.00     0.022 A 
BRANCH  66  69
ATOM     69  S   UNL     1      -9.583  16.035 -11.784  1.00  0.00     0.127 S 
ATOM     70  O   UNL     1      -8.750  14.970 -12.341  1.00  0.00    -0.237 OA
ATOM     71  O   UNL     1     -10.165  16.936 -12.780  1.00  0.00    -0.237 OA
ATOM     72  O   UNL     1      -9.047  16.699 -10.605  1.00  0.00    -0.744 OA
ENDBRANCH  66  69
ENDBRANCH  48  62
BRANCH  49  73
ATOM     73  C   UNL     1     -14.036  12.629   0.211  1.00  0.00     0.023 A 
ATOM     74  C   UNL     1     -15.280  12.848   0.833  1.00  0.00     0.012 A 
ATOM     75  C   UNL     1     -12.962  12.133   0.976  1.00  0.00     0.148 A 
ATOM     76  C   UNL     1     -15.445  12.601   2.196  1.00  0.00     0.002 A 
ATOM     77  C   UNL     1     -13.150  11.833   2.319  1.00  0.00     0.091 A 
ATOM     78  F   UNL     1     -11.784  11.941   0.365  1.00  0.00    -0.205 F 
ATOM     79  C   UNL     1     -14.386  12.082   2.936  1.00  0.00     0.022 A 
BRANCH  77  80
ATOM     80  S   UNL     1     -11.889  11.028   3.313  1.00  0.00     0.127 S 
ATOM     81  O   UNL     1     -11.538  12.081   4.263  1.00  0.00    -0.237 OA
ATOM     82  O   UNL     1     -12.630   9.903   3.884  1.00  0.00    -0.237 OA
ATOM     83  O   UNL     1     -10.837  10.642   2.381  1.00  0.00    -0.744 OA
ENDBRANCH  77  80
ENDBRANCH  49  73
BRANCH  61  84
ATOM     84  C   UNL     1     -14.135  18.345  -3.811  1.00  0.00     0.023 A 
ATOM     85  C   UNL     1     -13.129  19.061  -3.132  1.00  0.00     0.012 A 
ATOM     86  C   UNL     1     -15.284  19.026  -4.259  1.00  0.00     0.148 A 
ATOM     87  C   UNL     1     -13.279  20.423  -2.874  1.00  0.00     0.002 A 
ATOM     88  C   UNL     1     -15.404  20.394  -4.043  1.00  0.00     0.091 A 
ATOM     89  F   UNL     1     -16.239  18.325  -4.888  1.00  0.00    -0.205 F 
ATOM     90  C   UNL     1     -14.409  21.091  -3.339  1.00  0.00     0.022 A 
BRANCH  88  91
ATOM     91  S   UNL     1     -16.777  21.357  -4.686  1.00  0.00     0.127 S 
ATOM     92  O   UNL     1     -17.509  21.685  -3.463  1.00  0.00    -0.237 OA
ATOM     93  O   UNL     1     -16.095  22.490  -5.311  1.00  0.00    -0.237 OA
ATOM     94  O   UNL     1     -17.480  20.484  -5.617  1.00  0.00    -0.744 OA
ENDBRANCH  88  91
ENDBRANCH  61  84
ENDBRANCH  35  36
ENDBRANCH  27  30
ENDBRANCH  25  26
ENDBRANCH   1  25
TORSDOF 16
