REMARK SMILES C[C@H](C(=O)NCCCCNC(=O)c1ccc(-c2c3nc(c(-c4cccc(S(=O)(=O)[O-])c4F)c4ccc([nH]4)c(-c4cccc(S(=O)(=O)[O-])c4F)c4nc(c(-c5cccc(S(=O)(=O)[O-])c5F)c5ccc2[nH]5)C=C4)C=C3)cc1)[C@@H](C)C(=O)[C@H]1CC[C@H](C)CC1
REMARK SMILES IDX 7 1 6 2 5 3 3 4 4 5 2 7 1 8 76 9 77 10 78 11 79 12 80 13
REMARK SMILES IDX 84 14 83 15 82 16 85 17 81 18 86 19 8 20 9 21 10 22 11 23
REMARK SMILES IDX 12 25 13 26 14 27 75 28 15 29 74 30 16 31 17 32 18 33 68 34
REMARK SMILES IDX 19 35 73 36 67 37 69 38 20 39 72 40 66 41 65 42 21 44 53 45
REMARK SMILES IDX 33 46 52 47 34 48 37 49 51 50 70 51 35 52 36 53 50 55 71 56
REMARK SMILES IDX 38 57 22 58 23 59 31 60 24 61 26 62 32 63 25 64 27 65 28 66
REMARK SMILES IDX 29 67 30 68 54 69 55 70 63 71 56 72 58 73 64 74 57 75 59 76
REMARK SMILES IDX 60 77 61 78 62 79 39 80 40 81 48 82 41 83 43 84 49 85 42 86
REMARK SMILES IDX 44 87 45 88 46 89 47 90
REMARK H PARENT 5 6 10 24 69 43 37 54
REMARK Flexibility Score: inf
ROOT
ATOM      1  C   UNL     1      -6.987  -0.679   3.566  1.00  0.00     0.023 C 
ENDROOT
BRANCH   1   2
ATOM      2  C   UNL     1      -5.940   0.345   3.159  1.00  0.00     0.116 C 
BRANCH   2   3
ATOM      3  N   UNL     1      -4.680   0.178   3.857  1.00  0.00    -0.356 N 
ATOM      4  C   UNL     1      -3.431   0.601   3.531  1.00  0.00     0.223 C 
ATOM      5  O   UNL     1      -2.558   0.535   4.401  1.00  0.00    -0.275 OA
ATOM      6  H   UNL     1      -4.740  -0.321   4.704  1.00  0.00     0.163 HD
BRANCH   4   7
ATOM      7  C   UNL     1      -3.072   1.111   2.145  1.00  0.00     0.085 C 
ATOM      8  C   UNL     1      -3.226  -0.048   1.147  1.00  0.00     0.019 C 
BRANCH   7   9
ATOM      9  C   UNL     1      -3.552   2.534   1.731  1.00  0.00     0.065 C 
ATOM     10  C   UNL     1      -3.617   2.687   0.200  1.00  0.00     0.017 C 
BRANCH   9  11
ATOM     11  C   UNL     1      -4.856   3.103   2.309  1.00  0.00     0.139 C 
ATOM     12  O   UNL     1      -5.918   2.945   1.691  1.00  0.00    -0.299 OA
BRANCH  11  13
ATOM     13  C   UNL     1      -4.866   3.965   3.586  1.00  0.00     0.056 C 
ATOM     14  C   UNL     1      -3.832   6.404   7.083  1.00  0.00     0.007 C 
ATOM     15  C   UNL     1      -3.709   5.559   5.817  1.00  0.00    -0.014 C 
ATOM     16  C   UNL     1      -4.382   6.234   4.613  1.00  0.00     0.004 C 
ATOM     17  C   UNL     1      -4.314   4.176   6.054  1.00  0.00     0.004 C 
ATOM     18  C   UNL     1      -4.293   5.367   3.349  1.00  0.00     0.012 C 
ATOM     19  C   UNL     1      -4.223   3.311   4.804  1.00  0.00     0.012 C 
ENDBRANCH  11  13
ENDBRANCH   9  11
ENDBRANCH   7   9
ENDBRANCH   4   7
ENDBRANCH   2   3
ENDBRANCH   1   2
BRANCH   1  20
ATOM     20  C   UNL     1      -7.548  -0.460   4.974  1.00  0.00     0.023 C 
BRANCH  20  21
ATOM     21  C   UNL     1      -8.163   0.916   5.231  1.00  0.00     0.116 C 
BRANCH  21  22
ATOM     22  N   UNL     1      -9.260   1.224   4.324  1.00  0.00    -0.352 N 
ATOM     23  C   UNL     1     -10.594   1.418   4.602  1.00  0.00     0.251 C 
ATOM     24  H   UNL     1      -9.011   1.306   3.374  1.00  0.00     0.163 HD
ATOM     25  O   UNL     1     -11.413   1.482   3.694  1.00  0.00    -0.269 OA
BRANCH  23  26
ATOM     26  C   UNL     1     -11.034   1.530   6.009  1.00  0.00     0.039 A 
ATOM     27  C   UNL     1     -12.131   0.782   6.441  1.00  0.00     0.014 A 
ATOM     28  C   UNL     1     -10.352   2.360   6.903  1.00  0.00     0.014 A 
ATOM     29  C   UNL     1     -12.495   0.807   7.789  1.00  0.00     0.010 A 
ATOM     30  C   UNL     1     -10.662   2.317   8.259  1.00  0.00     0.010 A 
ATOM     31  C   UNL     1     -11.738   1.542   8.718  1.00  0.00    -0.014 A 
BRANCH  31  32
ATOM     32  C   UNL     1     -12.044   1.495  10.172  1.00  0.00     0.031 A 
ATOM     33  C   UNL     1     -12.422   2.750  10.913  1.00  0.00     0.074 A 
ATOM     34  C   UNL     1     -11.895   0.337  10.847  1.00  0.00     0.049 A 
ATOM     35  N   UNL     1     -12.671   2.911  12.187  1.00  0.00    -0.248 NA
ATOM     36  C   UNL     1     -12.505   3.992  10.126  1.00  0.00     0.031 C 
ATOM     37  C   UNL     1     -11.453  -0.931  10.263  1.00  0.00     0.029 A 
ATOM     38  N   UNL     1     -12.072   0.044  12.177  1.00  0.00    -0.354 N 
ATOM     39  C   UNL     1     -12.900   4.271  12.361  1.00  0.00     0.074 A 
ATOM     40  C   UNL     1     -12.730   4.896  11.068  1.00  0.00     0.031 C 
ATOM     41  C   UNL     1     -11.398  -1.865  11.226  1.00  0.00     0.029 A 
ATOM     42  C   UNL     1     -11.765  -1.257  12.501  1.00  0.00     0.049 A 
ATOM     43  H   UNL     1     -12.388   0.704  12.836  1.00  0.00     0.167 HD
ATOM     44  C   UNL     1     -13.246   4.936  13.489  1.00  0.00     0.034 A 
ATOM     45  C   UNL     1     -11.765  -1.889  13.691  1.00  0.00     0.034 A 
ATOM     46  C   UNL     1     -13.453   4.306  14.765  1.00  0.00     0.049 A 
ATOM     47  C   UNL     1     -12.191  -1.136  14.922  1.00  0.00     0.074 A 
ATOM     48  C   UNL     1     -13.899   4.879  15.943  1.00  0.00     0.029 A 
ATOM     49  N   UNL     1     -13.212   2.969  15.038  1.00  0.00    -0.354 N 
ATOM     50  N   UNL     1     -12.563   0.116  15.035  1.00  0.00    -0.248 NA
ATOM     51  C   UNL     1     -12.232  -1.890  16.183  1.00  0.00     0.031 C 
ATOM     52  C   UNL     1     -13.892   3.897  16.937  1.00  0.00     0.029 A 
ATOM     53  C   UNL     1     -13.484   2.701  16.369  1.00  0.00     0.049 A 
ATOM     54  H   UNL     1     -12.895   2.307  14.382  1.00  0.00     0.167 HD
ATOM     55  C   UNL     1     -12.916   0.290  16.368  1.00  0.00     0.074 A 
ATOM     56  C   UNL     1     -12.733  -0.990  17.019  1.00  0.00     0.031 C 
ATOM     57  C   UNL     1     -13.343   1.413  16.998  1.00  0.00     0.034 A 
BRANCH  44  58
ATOM     58  C   UNL     1     -13.464   6.424  13.388  1.00  0.00     0.023 A 
ATOM     59  C   UNL     1     -14.589   6.922  12.698  1.00  0.00     0.012 A 
ATOM     60  C   UNL     1     -12.595   7.325  14.032  1.00  0.00     0.148 A 
ATOM     61  C   UNL     1     -14.825   8.294  12.620  1.00  0.00     0.002 A 
ATOM     62  C   UNL     1     -12.863   8.688  13.992  1.00  0.00     0.091 A 
ATOM     63  F   UNL     1     -11.521   6.835  14.667  1.00  0.00    -0.205 F 
ATOM     64  C   UNL     1     -13.969   9.175  13.276  1.00  0.00     0.022 A 
BRANCH  62  65
ATOM     65  S   UNL     1     -11.871   9.899  14.873  1.00  0.00     0.127 S 
ATOM     66  O   UNL     1     -11.227  10.611  13.770  1.00  0.00    -0.237 OA
ATOM     67  O   UNL     1     -12.890  10.671  15.584  1.00  0.00    -0.237 OA
ATOM     68  O   UNL     1     -10.974   9.138  15.731  1.00  0.00    -0.744 OA
ENDBRANCH  62  65
ENDBRANCH  44  58
BRANCH  45  69
ATOM     69  C   UNL     1     -11.395  -3.331  13.768  1.00  0.00     0.023 A 
ATOM     70  C   UNL     1     -12.384  -4.289  14.062  1.00  0.00     0.012 A 
ATOM     71  C   UNL     1     -10.075  -3.759  13.526  1.00  0.00     0.148 A 
ATOM     72  C   UNL     1     -12.060  -5.644  14.148  1.00  0.00     0.002 A 
ATOM     73  C   UNL     1      -9.771  -5.115  13.555  1.00  0.00     0.091 A 
ATOM     74  F   UNL     1      -9.147  -2.830  13.256  1.00  0.00    -0.205 F 
ATOM     75  C   UNL     1     -10.757  -6.057  13.884  1.00  0.00     0.022 A 
BRANCH  73  76
ATOM     76  S   UNL     1      -8.154  -5.750  13.099  1.00  0.00     0.127 S 
ATOM     77  O   UNL     1      -7.660  -6.256  14.377  1.00  0.00    -0.237 OA
ATOM     78  O   UNL     1      -8.502  -6.780  12.120  1.00  0.00    -0.237 OA
ATOM     79  O   UNL     1      -7.426  -4.616  12.545  1.00  0.00    -0.744 OA
ENDBRANCH  73  76
ENDBRANCH  45  69
BRANCH  57  80
ATOM     80  C   UNL     1     -13.688   1.308  18.461  1.00  0.00     0.023 A 
ATOM     81  C   UNL     1     -12.667   1.146  19.418  1.00  0.00     0.012 A 
ATOM     82  C   UNL     1     -15.023   1.448  18.892  1.00  0.00     0.148 A 
ATOM     83  C   UNL     1     -12.972   1.088  20.778  1.00  0.00     0.002 A 
ATOM     84  C   UNL     1     -15.313   1.444  20.250  1.00  0.00     0.091 A 
ATOM     85  F   UNL     1     -15.982   1.585  17.965  1.00  0.00    -0.205 F 
ATOM     86  C   UNL     1     -14.292   1.249  21.194  1.00  0.00     0.022 A 
BRANCH  84  87
ATOM     87  S   UNL     1     -16.967   1.744  20.883  1.00  0.00     0.127 S 
ATOM     88  O   UNL     1     -17.336   0.423  21.391  1.00  0.00    -0.237 OA
ATOM     89  O   UNL     1     -16.725   2.749  21.918  1.00  0.00    -0.237 OA
ATOM     90  O   UNL     1     -17.753   2.217  19.752  1.00  0.00    -0.744 OA
ENDBRANCH  84  87
ENDBRANCH  57  80
ENDBRANCH  31  32
ENDBRANCH  23  26
ENDBRANCH  21  22
ENDBRANCH  20  21
ENDBRANCH   1  20
TORSDOF 17
