REMARK SMILES C[C@@H]1CC[N@@H+]1[C@@H](CO)C(=O)NCCCCNC(=O)c1ccc(-c2c3nc(c(-c4cccc(S(=O)(=O)[O-])c4F)c4ccc([nH]4)c(-c4cccc(S(=O)(=O)[O-])c4F)c4nc(c(-c5cccc(S(=O)(=O)[O-])c5F)c5ccc2[nH]5)C=C4)C=C3)cc1
REMARK SMILES IDX 14 1 13 2 12 3 11 4 9 5 10 6 6 8 5 9 1 10 2 11 3 12 4 13
REMARK SMILES IDX 7 15 8 16 15 18 16 19 17 20 18 22 19 23 20 24 81 25 21 26
REMARK SMILES IDX 80 27 22 28 23 29 24 30 74 31 25 32 79 33 73 34 75 35 26 36
REMARK SMILES IDX 78 37 72 38 71 39 27 41 59 42 39 43 58 44 40 45 43 46 57 47
REMARK SMILES IDX 76 48 41 49 42 50 56 52 77 53 44 54 28 55 29 56 37 57 30 58
REMARK SMILES IDX 32 59 38 60 31 61 33 62 34 63 35 64 36 65 60 66 61 67 69 68
REMARK SMILES IDX 62 69 64 70 70 71 63 72 65 73 66 74 67 75 68 76 45 77 46 78
REMARK SMILES IDX 54 79 47 80 49 81 55 82 48 83 50 84 51 85 52 86 53 87
REMARK H PARENT 11 7 5 14 8 17 16 21 75 40 43 51
REMARK Flexibility Score: inf
ROOT
ATOM      1  C   UNL     1      -0.548  -6.859   2.476  1.00  0.00     0.023 C 
ENDROOT
BRANCH   1   2
ATOM      2  C   UNL     1      -0.500  -5.461   1.881  1.00  0.00     0.023 C 
BRANCH   2   3
ATOM      3  C   UNL     1       0.646  -4.579   2.386  1.00  0.00     0.116 C 
BRANCH   3   4
ATOM      4  N   UNL     1       1.850  -4.775   1.601  1.00  0.00    -0.351 N 
ATOM      5  C   UNL     1       2.559  -3.912   0.816  1.00  0.00     0.280 C 
ATOM      6  O   UNL     1       3.517  -4.397   0.198  1.00  0.00    -0.268 OA
ATOM      7  H   UNL     1       2.219  -5.687   1.641  1.00  0.00     0.163 HD
BRANCH   5   8
ATOM      8  C   UNL     1       2.256  -2.390   0.714  1.00  0.00     0.300 C 
BRANCH   8   9
ATOM      9  N   UNL     1       1.316  -2.080  -0.394  1.00  0.00    -0.320 N 
ATOM     10  C   UNL     1       1.384   0.481   0.042  1.00  0.00     0.075 C 
ATOM     11  C   UNL     1       0.691  -0.739  -0.509  1.00  0.00     0.187 C 
ATOM     12  C   UNL     1      -0.560  -1.307   0.198  1.00  0.00     0.126 C 
ATOM     13  C   UNL     1      -0.040  -2.654  -0.319  1.00  0.00     0.269 C 
ATOM     14  H   UNL     1       2.001  -2.376  -1.090  1.00  0.00     0.349 HD
ENDBRANCH   8   9
BRANCH   8  15
ATOM     15  C   UNL     1       2.403  -1.703   2.096  1.00  0.00     0.231 C 
BRANCH  15  16
ATOM     16  O   UNL     1       1.240  -1.638   2.905  1.00  0.00    -0.390 OA
ATOM     17  H   UNL     1       0.570  -1.092   2.465  1.00  0.00     0.210 HD
ENDBRANCH  15  16
ENDBRANCH   8  15
ENDBRANCH   5   8
ENDBRANCH   3   4
ENDBRANCH   2   3
ENDBRANCH   1   2
BRANCH   1  18
ATOM     18  C   UNL     1      -0.697  -6.908   3.989  1.00  0.00     0.116 C 
BRANCH  18  19
ATOM     19  N   UNL     1      -1.821  -6.130   4.498  1.00  0.00    -0.352 N 
ATOM     20  C   UNL     1      -2.748  -6.479   5.455  1.00  0.00     0.251 C 
ATOM     21  H   UNL     1      -1.931  -5.234   4.104  1.00  0.00     0.163 HD
ATOM     22  O   UNL     1      -3.691  -5.741   5.706  1.00  0.00    -0.269 OA
BRANCH  20  23
ATOM     23  C   UNL     1      -2.603  -7.778   6.145  1.00  0.00     0.039 A 
ATOM     24  C   UNL     1      -3.707  -8.628   6.230  1.00  0.00     0.014 A 
ATOM     25  C   UNL     1      -1.358  -8.181   6.631  1.00  0.00     0.014 A 
ATOM     26  C   UNL     1      -3.537  -9.920   6.731  1.00  0.00     0.010 A 
ATOM     27  C   UNL     1      -1.171  -9.499   7.025  1.00  0.00     0.010 A 
ATOM     28  C   UNL     1      -2.259 -10.380   7.090  1.00  0.00    -0.014 A 
BRANCH  28  29
ATOM     29  C   UNL     1      -2.040 -11.783   7.523  1.00  0.00     0.031 A 
ATOM     30  C   UNL     1      -1.484 -12.078   8.890  1.00  0.00     0.074 A 
ATOM     31  C   UNL     1      -2.251 -12.788   6.651  1.00  0.00     0.049 A 
ATOM     32  N   UNL     1      -1.226 -13.235   9.441  1.00  0.00    -0.248 NA
ATOM     33  C   UNL     1      -1.134 -10.923   9.735  1.00  0.00     0.031 C 
ATOM     34  C   UNL     1      -2.665 -12.624   5.254  1.00  0.00     0.029 A 
ATOM     35  N   UNL     1      -2.127 -14.146   6.801  1.00  0.00    -0.354 N 
ATOM     36  C   UNL     1      -0.648 -12.948  10.671  1.00  0.00     0.074 A 
ATOM     37  C   UNL     1      -0.545 -11.509  10.766  1.00  0.00     0.031 C 
ATOM     38  C   UNL     1      -2.780 -13.834   4.684  1.00  0.00     0.029 A 
ATOM     39  C   UNL     1      -2.434 -14.858   5.665  1.00  0.00     0.049 A 
ATOM     40  H   UNL     1      -1.845 -14.571   7.643  1.00  0.00     0.167 HD
ATOM     41  C   UNL     1      -0.276 -13.801  11.655  1.00  0.00     0.034 A 
ATOM     42  C   UNL     1      -2.451 -16.187   5.444  1.00  0.00     0.034 A 
ATOM     43  C   UNL     1      -0.440 -15.226  11.579  1.00  0.00     0.049 A 
ATOM     44  C   UNL     1      -2.138 -17.117   6.584  1.00  0.00     0.074 A 
ATOM     45  C   UNL     1      -0.209 -16.174  12.559  1.00  0.00     0.029 A 
ATOM     46  N   UNL     1      -0.875 -15.910  10.454  1.00  0.00    -0.354 N 
ATOM     47  N   UNL     1      -1.782 -16.824   7.812  1.00  0.00    -0.248 NA
ATOM     48  C   UNL     1      -2.275 -18.557   6.326  1.00  0.00     0.031 C 
ATOM     49  C   UNL     1      -0.491 -17.434  12.021  1.00  0.00     0.029 A 
ATOM     50  C   UNL     1      -0.917 -17.269  10.712  1.00  0.00     0.049 A 
ATOM     51  H   UNL     1      -1.118 -15.491   9.597  1.00  0.00     0.167 HD
ATOM     52  C   UNL     1      -1.686 -18.038   8.482  1.00  0.00     0.074 A 
ATOM     53  C   UNL     1      -2.041 -19.069   7.527  1.00  0.00     0.031 C 
ATOM     54  C   UNL     1      -1.323 -18.278   9.767  1.00  0.00     0.034 A 
BRANCH  41  55
ATOM     55  C   UNL     1       0.278 -13.200  12.921  1.00  0.00     0.023 A 
ATOM     56  C   UNL     1      -0.578 -12.475  13.777  1.00  0.00     0.012 A 
ATOM     57  C   UNL     1       1.629 -13.369  13.279  1.00  0.00     0.148 A 
ATOM     58  C   UNL     1      -0.089 -11.888  14.943  1.00  0.00     0.002 A 
ATOM     59  C   UNL     1       2.098 -12.820  14.468  1.00  0.00     0.091 A 
ATOM     60  F   UNL     1       2.436 -14.038  12.444  1.00  0.00    -0.205 F 
ATOM     61  C   UNL     1       1.246 -12.068  15.293  1.00  0.00     0.022 A 
BRANCH  59  62
ATOM     62  S   UNL     1       3.782 -13.070  15.043  1.00  0.00     0.127 S 
ATOM     63  O   UNL     1       4.394 -11.779  14.732  1.00  0.00    -0.237 OA
ATOM     64  O   UNL     1       3.589 -13.324  16.471  1.00  0.00    -0.237 OA
ATOM     65  O   UNL     1       4.292 -14.208  14.292  1.00  0.00    -0.744 OA
ENDBRANCH  59  62
ENDBRANCH  41  55
BRANCH  42  66
ATOM     66  C   UNL     1      -2.886 -16.705   4.116  1.00  0.00     0.023 A 
ATOM     67  C   UNL     1      -4.153 -17.307   3.993  1.00  0.00     0.012 A 
ATOM     68  C   UNL     1      -2.087 -16.543   2.967  1.00  0.00     0.148 A 
ATOM     69  C   UNL     1      -4.609 -17.759   2.754  1.00  0.00     0.002 A 
ATOM     70  C   UNL     1      -2.570 -16.947   1.728  1.00  0.00     0.091 A 
ATOM     71  F   UNL     1      -0.882 -15.973   3.108  1.00  0.00    -0.205 F 
ATOM     72  C   UNL     1      -3.824 -17.569   1.621  1.00  0.00     0.022 A 
BRANCH  70  73
ATOM     73  S   UNL     1      -1.690 -16.620   0.196  1.00  0.00     0.127 S 
ATOM     74  O   UNL     1      -1.284 -17.963  -0.209  1.00  0.00    -0.237 OA
ATOM     75  O   UNL     1      -2.737 -16.017  -0.630  1.00  0.00    -0.237 OA
ATOM     76  O   UNL     1      -0.608 -15.712   0.549  1.00  0.00    -0.744 OA
ENDBRANCH  70  73
ENDBRANCH  42  66
BRANCH  54  77
ATOM     77  C   UNL     1      -1.316 -19.708  10.235  1.00  0.00     0.023 A 
ATOM     78  C   UNL     1      -0.300 -20.581   9.800  1.00  0.00     0.012 A 
ATOM     79  C   UNL     1      -2.268 -20.163  11.168  1.00  0.00     0.148 A 
ATOM     80  C   UNL     1      -0.249 -21.895  10.264  1.00  0.00     0.002 A 
ATOM     81  C   UNL     1      -2.183 -21.459  11.663  1.00  0.00     0.091 A 
ATOM     82  F   UNL     1      -3.240 -19.324  11.554  1.00  0.00    -0.205 F 
ATOM     83  C   UNL     1      -1.181 -22.330  11.204  1.00  0.00     0.022 A 
BRANCH  81  84
ATOM     84  S   UNL     1      -3.283 -22.067  12.946  1.00  0.00     0.127 S 
ATOM     85  O   UNL     1      -4.198 -22.911  12.180  1.00  0.00    -0.237 OA
ATOM     86  O   UNL     1      -2.367 -22.799  13.823  1.00  0.00    -0.237 OA
ATOM     87  O   UNL     1      -3.877 -20.883  13.554  1.00  0.00    -0.744 OA
ENDBRANCH  81  84
ENDBRANCH  54  77
ENDBRANCH  28  29
ENDBRANCH  20  23
ENDBRANCH  18  19
ENDBRANCH   1  18
TORSDOF 17
