REMARK SMILES O=C(NCCCCNC(=O)[C@H](c1ccccc1)C(c1ccccc1)c1ccccc1)c1ccc(-c2c3nc(c(-c4cccc(S(=O)(=O)[O-])c4F)c4ccc([nH]4)c(-c4cccc(S(=O)(=O)[O-])c4F)c4nc(c(-c5cccc(S(=O)(=O)[O-])c5F)c5ccc2[nH]5)C=C4)C=C3)cc1
REMARK SMILES IDX 5 1 4 2 3 3 1 4 2 5 31 7 32 8 93 9 33 10 92 11 34 12 35 13
REMARK SMILES IDX 36 14 86 15 37 16 91 17 85 18 87 19 38 20 90 21 84 22 83 23
REMARK SMILES IDX 39 25 71 26 51 27 70 28 52 29 55 30 69 31 88 32 53 33 54 34
REMARK SMILES IDX 68 36 89 37 56 38 40 39 41 40 49 41 42 42 44 43 50 44 43 45
REMARK SMILES IDX 45 46 46 47 47 48 48 49 72 50 73 51 81 52 74 53 76 54 82 55
REMARK SMILES IDX 75 56 77 57 78 58 79 59 80 60 57 61 58 62 66 63 59 64 61 65
REMARK SMILES IDX 67 66 60 67 62 68 63 69 64 70 65 71 6 72 7 73 8 74 9 75
REMARK SMILES IDX 10 77 11 78 18 79 19 80 20 81 24 82 21 83 23 84 22 85 25 86
REMARK SMILES IDX 26 87 30 88 27 89 29 90 28 91 12 92 13 93 17 94 14 95 16 96
REMARK SMILES IDX 15 97
REMARK H PARENT 3 6 87 24 55 35 8 76
REMARK Flexibility Score: inf
ROOT
ATOM      1  C   UNL     1       4.930   5.792  -9.752  1.00  0.00     0.023 C 
ENDROOT
BRANCH   1   2
ATOM      2  C   UNL     1       3.543   6.259  -9.322  1.00  0.00     0.116 C 
BRANCH   2   3
ATOM      3  N   UNL     1       3.345   7.699  -9.390  1.00  0.00    -0.352 N 
ATOM      4  O   UNL     1       2.451   9.657 -10.069  1.00  0.00    -0.269 OA
ATOM      5  C   UNL     1       2.427   8.433 -10.115  1.00  0.00     0.251 C 
ATOM      6  H   UNL     1       3.959   8.231  -8.834  1.00  0.00     0.163 HD
BRANCH   5   7
ATOM      7  C   UNL     1       1.444   7.736 -10.980  1.00  0.00     0.039 A 
ATOM      8  C   UNL     1       0.721   6.646 -10.498  1.00  0.00     0.014 A 
ATOM      9  C   UNL     1       1.272   8.154 -12.304  1.00  0.00     0.014 A 
ATOM     10  C   UNL     1       0.001   5.853 -11.384  1.00  0.00     0.010 A 
ATOM     11  C   UNL     1       0.463   7.409 -13.172  1.00  0.00     0.010 A 
ATOM     12  C   UNL     1      -0.133   6.216 -12.736  1.00  0.00    -0.014 A 
BRANCH  12  13
ATOM     13  C   UNL     1      -0.926   5.338 -13.640  1.00  0.00     0.031 A 
ATOM     14  C   UNL     1      -0.299   4.636 -14.818  1.00  0.00     0.074 A 
ATOM     15  C   UNL     1      -2.226   5.124 -13.352  1.00  0.00     0.049 A 
ATOM     16  N   UNL     1      -0.832   3.751 -15.624  1.00  0.00    -0.248 NA
ATOM     17  C   UNL     1       1.097   4.967 -15.142  1.00  0.00     0.031 C 
ATOM     18  C   UNL     1      -2.966   5.791 -12.278  1.00  0.00     0.029 A 
ATOM     19  N   UNL     1      -3.148   4.278 -13.914  1.00  0.00    -0.354 N 
ATOM     20  C   UNL     1       0.146   3.442 -16.563  1.00  0.00     0.074 A 
ATOM     21  C   UNL     1       1.304   4.247 -16.238  1.00  0.00     0.031 C 
ATOM     22  C   UNL     1      -4.211   5.297 -12.228  1.00  0.00     0.029 A 
ATOM     23  C   UNL     1      -4.373   4.310 -13.290  1.00  0.00     0.049 A 
ATOM     24  H   UNL     1      -2.951   3.704 -14.689  1.00  0.00     0.167 HD
ATOM     25  C   UNL     1       0.094   2.554 -17.586  1.00  0.00     0.034 A 
ATOM     26  C   UNL     1      -5.505   3.623 -13.538  1.00  0.00     0.034 A 
ATOM     27  C   UNL     1      -1.044   1.724 -17.885  1.00  0.00     0.049 A 
ATOM     28  C   UNL     1      -5.510   2.597 -14.634  1.00  0.00     0.074 A 
ATOM     29  C   UNL     1      -1.175   0.767 -18.878  1.00  0.00     0.029 A 
ATOM     30  N   UNL     1      -2.246   1.745 -17.194  1.00  0.00    -0.354 N 
ATOM     31  N   UNL     1      -4.532   2.236 -15.428  1.00  0.00    -0.248 NA
ATOM     32  C   UNL     1      -6.764   1.862 -14.849  1.00  0.00     0.031 C 
ATOM     33  C   UNL     1      -2.457   0.212 -18.788  1.00  0.00     0.029 A 
ATOM     34  C   UNL     1      -3.121   0.817 -17.735  1.00  0.00     0.049 A 
ATOM     35  H   UNL     1      -2.447   2.333 -16.431  1.00  0.00     0.167 HD
ATOM     36  C   UNL     1      -5.049   1.231 -16.234  1.00  0.00     0.074 A 
ATOM     37  C   UNL     1      -6.412   1.006 -15.799  1.00  0.00     0.031 C 
ATOM     38  C   UNL     1      -4.461   0.576 -17.265  1.00  0.00     0.034 A 
BRANCH  25  39
ATOM     39  C   UNL     1       1.331   2.376 -18.430  1.00  0.00     0.023 A 
ATOM     40  C   UNL     1       2.416   1.641 -17.912  1.00  0.00     0.012 A 
ATOM     41  C   UNL     1       1.388   2.847 -19.758  1.00  0.00     0.148 A 
ATOM     42  C   UNL     1       3.545   1.392 -18.691  1.00  0.00     0.002 A 
ATOM     43  C   UNL     1       2.503   2.565 -20.541  1.00  0.00     0.091 A 
ATOM     44  F   UNL     1       0.355   3.559 -20.228  1.00  0.00    -0.205 F 
ATOM     45  C   UNL     1       3.584   1.844 -20.008  1.00  0.00     0.022 A 
BRANCH  43  46
ATOM     46  S   UNL     1       2.621   3.042 -22.270  1.00  0.00     0.127 S 
ATOM     47  O   UNL     1       3.611   4.116 -22.212  1.00  0.00    -0.237 OA
ATOM     48  O   UNL     1       3.097   1.809 -22.899  1.00  0.00    -0.237 OA
ATOM     49  O   UNL     1       1.280   3.446 -22.667  1.00  0.00    -0.744 OA
ENDBRANCH  43  46
ENDBRANCH  25  39
BRANCH  26  50
ATOM     50  C   UNL     1      -6.703   3.852 -12.684  1.00  0.00     0.023 A 
ATOM     51  C   UNL     1      -7.128   2.849 -11.792  1.00  0.00     0.012 A 
ATOM     52  C   UNL     1      -7.384   5.084 -12.705  1.00  0.00     0.148 A 
ATOM     53  C   UNL     1      -8.221   3.064 -10.951  1.00  0.00     0.002 A 
ATOM     54  C   UNL     1      -8.430   5.315 -11.819  1.00  0.00     0.091 A 
ATOM     55  F   UNL     1      -6.985   6.021 -13.578  1.00  0.00    -0.205 F 
ATOM     56  C   UNL     1      -8.862   4.301 -10.953  1.00  0.00     0.022 A 
BRANCH  54  57
ATOM     57  S   UNL     1      -9.175   6.942 -11.662  1.00  0.00     0.127 S 
ATOM     58  O   UNL     1     -10.331   6.832 -12.546  1.00  0.00    -0.237 OA
ATOM     59  O   UNL     1      -9.493   7.005 -10.235  1.00  0.00    -0.237 OA
ATOM     60  O   UNL     1      -8.130   7.871 -12.075  1.00  0.00    -0.744 OA
ENDBRANCH  54  57
ENDBRANCH  26  50
BRANCH  38  61
ATOM     61  C   UNL     1      -5.297  -0.438 -17.999  1.00  0.00     0.023 A 
ATOM     62  C   UNL     1      -6.315   0.009 -18.867  1.00  0.00     0.012 A 
ATOM     63  C   UNL     1      -5.059  -1.818 -17.865  1.00  0.00     0.148 A 
ATOM     64  C   UNL     1      -7.106  -0.904 -19.561  1.00  0.00     0.002 A 
ATOM     65  C   UNL     1      -5.827  -2.722 -18.592  1.00  0.00     0.091 A 
ATOM     66  F   UNL     1      -4.104  -2.227 -17.018  1.00  0.00    -0.205 F 
ATOM     67  C   UNL     1      -6.857  -2.268 -19.431  1.00  0.00     0.022 A 
BRANCH  65  68
ATOM     68  S   UNL     1      -5.516  -4.490 -18.538  1.00  0.00     0.127 S 
ATOM     69  O   UNL     1      -6.524  -4.943 -17.581  1.00  0.00    -0.237 OA
ATOM     70  O   UNL     1      -5.763  -4.899 -19.922  1.00  0.00    -0.237 OA
ATOM     71  O   UNL     1      -4.130  -4.630 -18.112  1.00  0.00    -0.744 OA
ENDBRANCH  65  68
ENDBRANCH  38  61
ENDBRANCH  12  13
ENDBRANCH   5   7
ENDBRANCH   2   3
ENDBRANCH   1   2
BRANCH   1  72
ATOM     72  C   UNL     1       6.110   6.214  -8.877  1.00  0.00     0.023 C 
BRANCH  72  73
ATOM     73  C   UNL     1       5.899   6.115  -7.372  1.00  0.00     0.116 C 
BRANCH  73  74
ATOM     74  N   UNL     1       5.502   4.815  -6.872  1.00  0.00    -0.356 N 
ATOM     75  C   UNL     1       5.408   4.439  -5.553  1.00  0.00     0.228 C 
ATOM     76  H   UNL     1       5.277   4.131  -7.544  1.00  0.00     0.163 HD
ATOM     77  O   UNL     1       4.599   3.550  -5.273  1.00  0.00    -0.274 OA
BRANCH  75  78
ATOM     78  C   UNL     1       6.334   5.070  -4.483  1.00  0.00     0.120 C 
BRANCH  78  79
ATOM     79  C   UNL     1       5.577   6.115  -3.570  1.00  0.00     0.066 C 
BRANCH  79  80
ATOM     80  C   UNL     1       6.428   6.900  -2.529  1.00  0.00    -0.039 A 
ATOM     81  C   UNL     1       7.741   6.559  -2.168  1.00  0.00     0.004 A 
ATOM     82  C   UNL     1       5.857   8.008  -1.863  1.00  0.00     0.004 A 
ATOM     83  C   UNL     1       8.450   7.288  -1.204  1.00  0.00     0.000 A 
ATOM     84  C   UNL     1       6.581   8.768  -0.939  1.00  0.00     0.000 A 
ATOM     85  C   UNL     1       7.877   8.402  -0.603  1.00  0.00     0.000 A 
ENDBRANCH  79  80
BRANCH  79  86
ATOM     86  C   UNL     1       4.718   7.079  -4.415  1.00  0.00    -0.039 A 
ATOM     87  C   UNL     1       5.248   8.259  -4.973  1.00  0.00     0.004 A 
ATOM     88  C   UNL     1       3.360   6.787  -4.631  1.00  0.00     0.004 A 
ATOM     89  C   UNL     1       4.438   9.123  -5.715  1.00  0.00     0.000 A 
ATOM     90  C   UNL     1       2.557   7.647  -5.383  1.00  0.00     0.000 A 
ATOM     91  C   UNL     1       3.094   8.814  -5.922  1.00  0.00     0.000 A 
ENDBRANCH  79  86
ENDBRANCH  78  79
BRANCH  78  92
ATOM     92  C   UNL     1       7.018   3.900  -3.741  1.00  0.00    -0.035 A 
ATOM     93  C   UNL     1       8.172   3.319  -4.299  1.00  0.00     0.004 A 
ATOM     94  C   UNL     1       6.531   3.373  -2.533  1.00  0.00     0.004 A 
ATOM     95  C   UNL     1       8.844   2.285  -3.641  1.00  0.00     0.000 A 
ATOM     96  C   UNL     1       7.212   2.348  -1.871  1.00  0.00     0.000 A 
ATOM     97  C   UNL     1       8.372   1.809  -2.421  1.00  0.00     0.000 A 
ENDBRANCH  78  92
ENDBRANCH  75  78
ENDBRANCH  73  74
ENDBRANCH  72  73
ENDBRANCH   1  72
TORSDOF 18
