REMARK SMILES O=C(NCCCCNC(=O)c1nccnc1C(=O)Nc1ccc2c(c1)OCO2)c1ccc(-c2c3nc(c(-c4cccc(S(=O)(=O)[O-])c4F)c4ccc([nH]4)c(-c4cccc(S(=O)(=O)[O-])c4F)c4nc(c(-c5cccc(S(=O)(=O)[O-])c5F)c5ccc2[nH]5)C=C4)C=C3)cc1
REMARK SMILES IDX 5 1 4 2 3 3 1 4 2 5 29 7 30 8 91 9 31 10 90 11 32 12 33 13
REMARK SMILES IDX 34 14 84 15 35 16 89 17 83 18 85 19 36 20 88 21 82 22 81 23
REMARK SMILES IDX 37 25 69 26 49 27 68 28 50 29 53 30 67 31 86 32 51 33 52 34
REMARK SMILES IDX 66 36 87 37 54 38 38 39 39 40 47 41 40 42 42 43 48 44 41 45
REMARK SMILES IDX 43 46 44 47 45 48 46 49 70 50 71 51 79 52 72 53 74 54 80 55
REMARK SMILES IDX 73 56 75 57 76 58 77 59 78 60 55 61 56 62 64 63 57 64 59 65
REMARK SMILES IDX 65 66 58 67 60 68 61 69 62 70 63 71 6 72 7 73 8 74 9 75
REMARK SMILES IDX 10 77 11 78 12 79 16 80 13 81 15 82 14 83 17 84 18 85 19 86
REMARK SMILES IDX 20 88 21 89 25 90 22 91 24 92 23 93 26 94 28 95 27 96
REMARK H PARENT 3 6 85 24 53 35 8 76 19 87
REMARK Flexibility Score: inf
ROOT
ATOM      1  C   UNL     1       4.052   1.230  -2.871  1.00  0.00     0.023 C 
ENDROOT
BRANCH   1   2
ATOM      2  C   UNL     1       4.062   1.052  -1.358  1.00  0.00     0.116 C 
BRANCH   2   3
ATOM      3  N   UNL     1       2.725   1.021  -0.793  1.00  0.00    -0.352 N 
ATOM      4  O   UNL     1       0.970   0.101   0.277  1.00  0.00    -0.269 OA
ATOM      5  C   UNL     1       2.180   0.093   0.070  1.00  0.00     0.251 C 
ATOM      6  H   UNL     1       2.130   1.758  -1.061  1.00  0.00     0.163 HD
BRANCH   5   7
ATOM      7  C   UNL     1       3.046  -0.917   0.732  1.00  0.00     0.039 A 
ATOM      8  C   UNL     1       4.286  -0.559   1.265  1.00  0.00     0.014 A 
ATOM      9  C   UNL     1       2.591  -2.235   0.866  1.00  0.00     0.014 A 
ATOM     10  C   UNL     1       5.110  -1.529   1.832  1.00  0.00     0.010 A 
ATOM     11  C   UNL     1       3.391  -3.195   1.502  1.00  0.00     0.010 A 
ATOM     12  C   UNL     1       4.665  -2.855   1.979  1.00  0.00    -0.014 A 
BRANCH  12  13
ATOM     13  C   UNL     1       5.510  -3.817   2.738  1.00  0.00     0.031 A 
ATOM     14  C   UNL     1       6.130  -5.024   2.088  1.00  0.00     0.074 A 
ATOM     15  C   UNL     1       5.735  -3.574   4.045  1.00  0.00     0.049 A 
ATOM     16  N   UNL     1       6.963  -5.895   2.603  1.00  0.00    -0.248 NA
ATOM     17  C   UNL     1       5.769  -5.299   0.689  1.00  0.00     0.031 C 
ATOM     18  C   UNL     1       5.131  -2.478   4.809  1.00  0.00     0.029 A 
ATOM     19  N   UNL     1       6.528  -4.217   4.962  1.00  0.00    -0.354 N 
ATOM     20  C   UNL     1       7.213  -6.828   1.604  1.00  0.00     0.074 A 
ATOM     21  C   UNL     1       6.427  -6.428   0.455  1.00  0.00     0.031 C 
ATOM     22  C   UNL     1       5.597  -2.507   6.066  1.00  0.00     0.029 A 
ATOM     23  C   UNL     1       6.503  -3.641   6.211  1.00  0.00     0.049 A 
ATOM     24  H   UNL     1       7.064  -5.014   4.746  1.00  0.00     0.167 HD
ATOM     25  C   UNL     1       8.037  -7.904   1.634  1.00  0.00     0.034 A 
ATOM     26  C   UNL     1       7.135  -3.984   7.350  1.00  0.00     0.034 A 
ATOM     27  C   UNL     1       8.835  -8.287   2.771  1.00  0.00     0.049 A 
ATOM     28  C   UNL     1       8.079  -5.151   7.337  1.00  0.00     0.074 A 
ATOM     29  C   UNL     1       9.734  -9.336   2.878  1.00  0.00     0.029 A 
ATOM     30  N   UNL     1       8.831  -7.643   3.999  1.00  0.00    -0.354 N 
ATOM     31  N   UNL     1       8.409  -5.933   6.337  1.00  0.00    -0.248 NA
ATOM     32  C   UNL     1       8.765  -5.463   8.598  1.00  0.00     0.031 C 
ATOM     33  C   UNL     1      10.265  -9.331   4.173  1.00  0.00     0.029 A 
ATOM     34  C   UNL     1       9.709  -8.270   4.869  1.00  0.00     0.049 A 
ATOM     35  H   UNL     1       8.284  -6.855   4.221  1.00  0.00     0.167 HD
ATOM     36  C   UNL     1       9.348  -6.821   6.844  1.00  0.00     0.074 A 
ATOM     37  C   UNL     1       9.569  -6.450   8.228  1.00  0.00     0.031 C 
ATOM     38  C   UNL     1       9.952  -7.868   6.230  1.00  0.00     0.034 A 
BRANCH  25  39
ATOM     39  C   UNL     1       8.177  -8.722   0.374  1.00  0.00     0.023 A 
ATOM     40  C   UNL     1       8.934  -8.206  -0.697  1.00  0.00     0.012 A 
ATOM     41  C   UNL     1       7.652 -10.027   0.283  1.00  0.00     0.148 A 
ATOM     42  C   UNL     1       9.151  -8.965  -1.847  1.00  0.00     0.002 A 
ATOM     43  C   UNL     1       7.902 -10.792  -0.852  1.00  0.00     0.091 A 
ATOM     44  F   UNL     1       6.923 -10.495   1.305  1.00  0.00    -0.205 F 
ATOM     45  C   UNL     1       8.644 -10.260  -1.920  1.00  0.00     0.022 A 
BRANCH  43  46
ATOM     46  S   UNL     1       7.357 -12.496  -1.018  1.00  0.00     0.127 S 
ATOM     47  O   UNL     1       6.324 -12.376  -2.046  1.00  0.00    -0.237 OA
ATOM     48  O   UNL     1       8.579 -13.169  -1.458  1.00  0.00    -0.237 OA
ATOM     49  O   UNL     1       6.883 -12.897   0.299  1.00  0.00    -0.744 OA
ENDBRANCH  43  46
ENDBRANCH  25  39
BRANCH  26  50
ATOM     50  C   UNL     1       6.927  -3.173   8.583  1.00  0.00     0.023 A 
ATOM     51  C   UNL     1       7.980  -2.387   9.088  1.00  0.00     0.012 A 
ATOM     52  C   UNL     1       5.678  -3.146   9.232  1.00  0.00     0.148 A 
ATOM     53  C   UNL     1       7.800  -1.611  10.233  1.00  0.00     0.002 A 
ATOM     54  C   UNL     1       5.487  -2.321  10.334  1.00  0.00     0.091 A 
ATOM     55  F   UNL     1       4.692  -3.917   8.752  1.00  0.00    -0.205 F 
ATOM     56  C   UNL     1       6.551  -1.566  10.848  1.00  0.00     0.022 A 
BRANCH  54  57
ATOM     57  S   UNL     1       3.865  -2.098  11.073  1.00  0.00     0.127 S 
ATOM     58  O   UNL     1       3.933  -2.994  12.223  1.00  0.00    -0.237 OA
ATOM     59  O   UNL     1       3.867  -0.671  11.401  1.00  0.00    -0.237 OA
ATOM     60  O   UNL     1       2.918  -2.463  10.027  1.00  0.00    -0.744 OA
ENDBRANCH  54  57
ENDBRANCH  26  50
BRANCH  38  61
ATOM     61  C   UNL     1      10.912  -8.686   7.053  1.00  0.00     0.023 A 
ATOM     62  C   UNL     1      10.410  -9.541   8.056  1.00  0.00     0.012 A 
ATOM     63  C   UNL     1      12.299  -8.637   6.817  1.00  0.00     0.148 A 
ATOM     64  C   UNL     1      11.277 -10.303   8.837  1.00  0.00     0.002 A 
ATOM     65  C   UNL     1      13.153  -9.434   7.571  1.00  0.00     0.091 A 
ATOM     66  F   UNL     1      12.761  -7.801   5.876  1.00  0.00    -0.205 F 
ATOM     67  C   UNL     1      12.646 -10.258   8.589  1.00  0.00     0.022 A 
BRANCH  65  68
ATOM     68  S   UNL     1      14.922  -9.497   7.261  1.00  0.00     0.127 S 
ATOM     69  O   UNL     1      15.444  -8.650   8.331  1.00  0.00    -0.237 OA
ATOM     70  O   UNL     1      15.218 -10.922   7.413  1.00  0.00    -0.237 OA
ATOM     71  O   UNL     1      15.103  -8.988   5.907  1.00  0.00    -0.744 OA
ENDBRANCH  65  68
ENDBRANCH  38  61
ENDBRANCH  12  13
ENDBRANCH   5   7
ENDBRANCH   2   3
ENDBRANCH   1   2
BRANCH   1  72
ATOM     72  C   UNL     1       3.836   2.638  -3.441  1.00  0.00     0.023 C 
BRANCH  72  73
ATOM     73  C   UNL     1       4.138   3.848  -2.559  1.00  0.00     0.116 C 
BRANCH  73  74
ATOM     74  N   UNL     1       5.550   4.118  -2.315  1.00  0.00    -0.351 N 
ATOM     75  C   UNL     1       6.392   5.016  -2.954  1.00  0.00     0.272 C 
ATOM     76  H   UNL     1       5.963   3.589  -1.595  1.00  0.00     0.163 HD
ATOM     77  O   UNL     1       7.441   5.375  -2.427  1.00  0.00    -0.267 OA
BRANCH  75  78
ATOM     78  C   UNL     1       5.978   5.641  -4.221  1.00  0.00     0.159 A 
ATOM     79  N   UNL     1       4.887   6.466  -4.022  1.00  0.00    -0.247 NA
ATOM     80  C   UNL     1       6.624   5.535  -5.448  1.00  0.00     0.159 A 
ATOM     81  C   UNL     1       4.454   7.180  -5.073  1.00  0.00     0.132 A 
ATOM     82  N   UNL     1       6.101   6.250  -6.511  1.00  0.00    -0.247 NA
ATOM     83  C   UNL     1       5.048   7.066  -6.302  1.00  0.00     0.132 A 
BRANCH  80  84
ATOM     84  C   UNL     1       7.927   4.878  -5.875  1.00  0.00     0.276 C 
ATOM     85  O   UNL     1       8.315   5.080  -7.037  1.00  0.00    -0.267 OA
ATOM     86  N   UNL     1       8.852   4.243  -5.085  1.00  0.00    -0.320 N 
ATOM     87  H   UNL     1       9.780   4.435  -5.351  1.00  0.00     0.170 HD
BRANCH  86  88
ATOM     88  C   UNL     1       8.768   3.389  -3.992  1.00  0.00     0.045 A 
ATOM     89  C   UNL     1       7.785   2.394  -3.880  1.00  0.00     0.030 A 
ATOM     90  C   UNL     1       9.737   3.557  -2.994  1.00  0.00     0.076 A 
ATOM     91  C   UNL     1       7.705   1.632  -2.708  1.00  0.00     0.053 A 
ATOM     92  C   UNL     1       9.557   2.871  -1.817  1.00  0.00     0.167 A 
ATOM     93  C   UNL     1       8.553   1.948  -1.671  1.00  0.00     0.165 A 
ATOM     94  O   UNL     1      10.260   3.058  -0.668  1.00  0.00    -0.454 OA
ATOM     95  O   UNL     1       8.485   1.452  -0.407  1.00  0.00    -0.454 OA
ATOM     96  C   UNL     1       9.447   2.304   0.256  1.00  0.00     0.468 C 
ENDBRANCH  86  88
ENDBRANCH  80  84
ENDBRANCH  75  78
ENDBRANCH  73  74
ENDBRANCH  72  73
ENDBRANCH   1  72
TORSDOF 16
