REMARK SMILES C[C@@H]1[C@@H](C(=O)NCCCCNC(=O)c2ccc(-c3c4nc(c(-c5cccc(S(=O)(=O)[O-])c5F)c5ccc([nH]5)c(-c5cccc(S(=O)(=O)[O-])c5F)c5nc(c(-c6cccc(S(=O)(=O)[O-])c6F)c6ccc3[nH]6)C=C5)C=C4)cc2)CCN1C(=O)[C@@H]1CCCN(C(N)=O)C1
REMARK SMILES IDX 8 1 7 2 6 3 4 4 5 5 3 7 1 8 2 9 79 10 77 11 78 12 80 13
REMARK SMILES IDX 81 14 82 15 83 16 90 17 84 18 86 19 85 20 87 21 88 22 89 23
REMARK SMILES IDX 9 26 10 27 11 28 12 29 13 31 14 32 15 33 76 34 16 35 75 36
REMARK SMILES IDX 17 37 18 38 19 39 69 40 20 41 74 42 68 43 70 44 21 45 73 46
REMARK SMILES IDX 67 47 66 48 22 50 54 51 34 52 53 53 35 54 38 55 52 56 71 57
REMARK SMILES IDX 36 58 37 59 51 61 72 62 39 63 23 64 24 65 32 66 25 67 27 68
REMARK SMILES IDX 33 69 26 70 28 71 29 72 30 73 31 74 55 75 56 76 64 77 57 78
REMARK SMILES IDX 59 79 65 80 58 81 60 82 61 83 62 84 63 85 40 86 41 87 49 88
REMARK SMILES IDX 42 89 44 90 50 91 43 92 45 93 46 94 47 95 48 96
REMARK H PARENT 6 6 88 24 88 25 11 30 70 49 38 60
REMARK Flexibility Score: inf
ROOT
ATOM      1  C   UNL     1      -2.990   4.556  -1.011  1.00  0.00     0.023 C 
ENDROOT
BRANCH   1   2
ATOM      2  C   UNL     1      -2.773   3.114  -0.569  1.00  0.00     0.116 C 
BRANCH   2   3
ATOM      3  N   UNL     1      -2.126   2.291  -1.576  1.00  0.00    -0.356 N 
ATOM      4  C   UNL     1      -1.254   1.254  -1.393  1.00  0.00     0.225 C 
ATOM      5  O   UNL     1      -0.989   0.532  -2.351  1.00  0.00    -0.275 OA
ATOM      6  H   UNL     1      -2.343   2.509  -2.511  1.00  0.00     0.163 HD
BRANCH   4   7
ATOM      7  C   UNL     1      -0.687   1.029  -0.001  1.00  0.00     0.102 C 
ATOM      8  C   UNL     1       1.333   0.307   1.282  1.00  0.00     0.032 C 
ATOM      9  C   UNL     1       0.473   0.011   0.041  1.00  0.00     0.094 C 
ATOM     10  N   UNL     1      -0.192  -1.291   0.160  1.00  0.00    -0.339 N 
ATOM     11  C   UNL     1      -1.734   0.367   0.898  1.00  0.00     0.037 C 
ATOM     12  C   UNL     1      -1.577  -1.111   0.578  1.00  0.00     0.120 C 
BRANCH  10  13
ATOM     13  C   UNL     1       0.204  -2.555  -0.208  1.00  0.00     0.227 C 
ATOM     14  O   UNL     1      -0.580  -3.501  -0.021  1.00  0.00    -0.275 OA
BRANCH  13  15
ATOM     15  C   UNL     1       1.542  -2.895  -0.881  1.00  0.00     0.098 C 
ATOM     16  C   UNL     1       2.835  -2.654  -0.105  1.00  0.00     0.017 C 
ATOM     17  C   UNL     1       1.608  -2.519  -2.357  1.00  0.00     0.134 C 
ATOM     18  C   UNL     1       3.653  -1.440  -0.533  1.00  0.00     0.022 C 
ATOM     19  N   UNL     1       2.320  -1.272  -2.615  1.00  0.00    -0.324 N 
ATOM     20  C   UNL     1       3.647  -1.165  -2.029  1.00  0.00     0.121 C 
BRANCH  19  21
ATOM     21  C   UNL     1       1.971  -0.366  -3.596  1.00  0.00     0.314 C 
ATOM     22  N   UNL     1       0.767  -0.544  -4.182  1.00  0.00    -0.351 N 
ATOM     23  O   UNL     1       2.689   0.560  -3.961  1.00  0.00    -0.249 OA
ATOM     24  H   UNL     1       0.185  -1.284  -3.895  1.00  0.00     0.161 HD
ATOM     25  H   UNL     1       0.473   0.067  -4.896  1.00  0.00     0.161 HD
ENDBRANCH  19  21
ENDBRANCH  13  15
ENDBRANCH  10  13
ENDBRANCH   4   7
ENDBRANCH   2   3
ENDBRANCH   1   2
BRANCH   1  26
ATOM     26  C   UNL     1      -3.790   4.738  -2.300  1.00  0.00     0.023 C 
BRANCH  26  27
ATOM     27  C   UNL     1      -5.068   3.915  -2.410  1.00  0.00     0.116 C 
BRANCH  27  28
ATOM     28  N   UNL     1      -5.989   4.136  -1.305  1.00  0.00    -0.352 N 
ATOM     29  C   UNL     1      -7.318   4.480  -1.339  1.00  0.00     0.251 C 
ATOM     30  H   UNL     1      -5.605   4.022  -0.406  1.00  0.00     0.163 HD
ATOM     31  O   UNL     1      -7.915   4.729  -0.294  1.00  0.00    -0.269 OA
BRANCH  29  32
ATOM     32  C   UNL     1      -8.013   4.582  -2.638  1.00  0.00     0.039 A 
ATOM     33  C   UNL     1      -8.761   5.728  -2.914  1.00  0.00     0.014 A 
ATOM     34  C   UNL     1      -7.894   3.567  -3.591  1.00  0.00     0.014 A 
ATOM     35  C   UNL     1      -9.339   5.886  -4.176  1.00  0.00     0.010 A 
ATOM     36  C   UNL     1      -8.400   3.764  -4.871  1.00  0.00     0.010 A 
ATOM     37  C   UNL     1      -9.135   4.920  -5.175  1.00  0.00    -0.014 A 
BRANCH  37  38
ATOM     38  C   UNL     1      -9.690   5.093  -6.540  1.00  0.00     0.031 A 
ATOM     39  C   UNL     1     -10.701   4.111  -7.069  1.00  0.00     0.074 A 
ATOM     40  C   UNL     1      -9.223   6.077  -7.334  1.00  0.00     0.049 A 
ATOM     41  N   UNL     1     -11.255   4.054  -8.251  1.00  0.00    -0.248 NA
ATOM     42  C   UNL     1     -11.121   3.032  -6.158  1.00  0.00     0.031 C 
ATOM     43  C   UNL     1      -8.183   7.041  -6.966  1.00  0.00     0.029 A 
ATOM     44  N   UNL     1      -9.543   6.413  -8.626  1.00  0.00    -0.354 N 
ATOM     45  C   UNL     1     -12.052   2.915  -8.242  1.00  0.00     0.074 A 
ATOM     46  C   UNL     1     -11.880   2.290  -6.949  1.00  0.00     0.031 C 
ATOM     47  C   UNL     1      -7.958   7.863  -8.004  1.00  0.00     0.029 A 
ATOM     48  C   UNL     1      -8.815   7.471  -9.118  1.00  0.00     0.049 A 
ATOM     49  H   UNL     1     -10.229   5.941  -9.150  1.00  0.00     0.167 HD
ATOM     50  C   UNL     1     -12.880   2.450  -9.206  1.00  0.00     0.034 A 
ATOM     51  C   UNL     1      -8.838   8.059 -10.331  1.00  0.00     0.034 A 
ATOM     52  C   UNL     1     -13.090   3.106 -10.468  1.00  0.00     0.049 A 
ATOM     53  C   UNL     1      -9.812   7.560 -11.364  1.00  0.00     0.074 A 
ATOM     54  C   UNL     1     -13.971   2.767 -11.478  1.00  0.00     0.029 A 
ATOM     55  N   UNL     1     -12.410   4.238 -10.891  1.00  0.00    -0.354 N 
ATOM     56  N   UNL     1     -10.673   6.575 -11.279  1.00  0.00    -0.248 NA
ATOM     57  C   UNL     1      -9.847   8.278 -12.647  1.00  0.00     0.031 C 
ATOM     58  C   UNL     1     -13.815   3.688 -12.520  1.00  0.00     0.029 A 
ATOM     59  C   UNL     1     -12.851   4.612 -12.148  1.00  0.00     0.049 A 
ATOM     60  H   UNL     1     -11.716   4.706 -10.373  1.00  0.00     0.167 HD
ATOM     61  C   UNL     1     -11.380   6.581 -12.475  1.00  0.00     0.074 A 
ATOM     62  C   UNL     1     -10.857   7.679 -13.263  1.00  0.00     0.031 C 
ATOM     63  C   UNL     1     -12.364   5.746 -12.891  1.00  0.00     0.034 A 
BRANCH  50  64
ATOM     64  C   UNL     1     -13.668   1.201  -8.905  1.00  0.00     0.023 A 
ATOM     65  C   UNL     1     -14.717   1.253  -7.964  1.00  0.00     0.012 A 
ATOM     66  C   UNL     1     -13.402  -0.008  -9.577  1.00  0.00     0.148 A 
ATOM     67  C   UNL     1     -15.462   0.113  -7.665  1.00  0.00     0.002 A 
ATOM     68  C   UNL     1     -14.180  -1.129  -9.307  1.00  0.00     0.091 A 
ATOM     69  F   UNL     1     -12.387  -0.046 -10.451  1.00  0.00    -0.205 F 
ATOM     70  C   UNL     1     -15.200  -1.073  -8.343  1.00  0.00     0.022 A 
BRANCH  68  71
ATOM     71  S   UNL     1     -13.975  -2.682 -10.186  1.00  0.00     0.127 S 
ATOM     72  O   UNL     1     -13.348  -3.518  -9.163  1.00  0.00    -0.237 OA
ATOM     73  O   UNL     1     -15.357  -3.042 -10.505  1.00  0.00    -0.237 OA
ATOM     74  O   UNL     1     -13.146  -2.379 -11.344  1.00  0.00    -0.744 OA
ENDBRANCH  68  71
ENDBRANCH  50  64
BRANCH  51  75
ATOM     75  C   UNL     1      -7.971   9.241 -10.602  1.00  0.00     0.023 A 
ATOM     76  C   UNL     1      -8.563  10.514 -10.725  1.00  0.00     0.012 A 
ATOM     77  C   UNL     1      -6.572   9.122 -10.706  1.00  0.00     0.148 A 
ATOM     78  C   UNL     1      -7.782  11.642 -10.978  1.00  0.00     0.002 A 
ATOM     79  C   UNL     1      -5.795  10.258 -10.905  1.00  0.00     0.091 A 
ATOM     80  F   UNL     1      -6.029   7.902 -10.596  1.00  0.00    -0.205 F 
ATOM     81  C   UNL     1      -6.398  11.515 -11.059  1.00  0.00     0.022 A 
BRANCH  79  82
ATOM     82  S   UNL     1      -3.999  10.210 -10.893  1.00  0.00     0.127 S 
ATOM     83  O   UNL     1      -3.683  10.447 -12.299  1.00  0.00    -0.237 OA
ATOM     84  O   UNL     1      -3.674  11.318  -9.993  1.00  0.00    -0.237 OA
ATOM     85  O   UNL     1      -3.645   8.895 -10.376  1.00  0.00    -0.744 OA
ENDBRANCH  79  82
ENDBRANCH  51  75
BRANCH  63  86
ATOM     86  C   UNL     1     -12.981   6.008 -14.239  1.00  0.00     0.023 A 
ATOM     87  C   UNL     1     -12.259   5.710 -15.411  1.00  0.00     0.012 A 
ATOM     88  C   UNL     1     -14.308   6.471 -14.342  1.00  0.00     0.148 A 
ATOM     89  C   UNL     1     -12.837   5.900 -16.666  1.00  0.00     0.002 A 
ATOM     90  C   UNL     1     -14.894   6.611 -15.594  1.00  0.00     0.091 A 
ATOM     91  F   UNL     1     -14.971   6.768 -13.215  1.00  0.00    -0.205 F 
ATOM     92  C   UNL     1     -14.157   6.337 -16.757  1.00  0.00     0.022 A 
BRANCH  90  93
ATOM     93  S   UNL     1     -16.618   7.073 -15.799  1.00  0.00     0.127 S 
ATOM     94  O   UNL     1     -16.503   8.463 -16.238  1.00  0.00    -0.237 OA
ATOM     95  O   UNL     1     -17.070   6.142 -16.833  1.00  0.00    -0.237 OA
ATOM     96  O   UNL     1     -17.241   6.876 -14.497  1.00  0.00    -0.744 OA
ENDBRANCH  90  93
ENDBRANCH  63  86
ENDBRANCH  37  38
ENDBRANCH  29  32
ENDBRANCH  27  28
ENDBRANCH  26  27
ENDBRANCH   1  26
TORSDOF 17
