REMARK SMILES Cc1nc2nc(CNC(=O)OC(C)(C)C)nn2c(C)c1CCC(=O)NCCCCNC(=O)c1ccc(-c2c3nc(c(-c4cccc(S(=O)(=O)[O-])c4F)c4ccc([nH]4)c(-c4cccc(S(=O)(=O)[O-])c4F)c4nc(c(-c5cccc(S(=O)(=O)[O-])c5F)c5ccc2[nH]5)C=C4)C=C3)cc1
REMARK SMILES IDX 26 1 25 2 23 3 24 4 22 6 21 7 20 8 1 9 2 10 3 11 4 12 18 13
REMARK SMILES IDX 5 14 17 15 19 16 6 17 16 18 7 19 8 20 9 21 10 23 11 24 12 25
REMARK SMILES IDX 13 26 14 27 15 28 27 29 28 30 29 31 30 32 31 33 32 35 33 36
REMARK SMILES IDX 34 37 95 38 35 39 94 40 36 41 37 42 38 43 88 44 39 45 93 46
REMARK SMILES IDX 87 47 89 48 40 49 92 50 86 51 85 52 41 54 73 55 53 56 72 57
REMARK SMILES IDX 54 58 57 59 71 60 90 61 55 62 56 63 70 65 91 66 58 67 42 68
REMARK SMILES IDX 43 69 51 70 44 71 46 72 52 73 45 74 47 75 48 76 49 77 50 78
REMARK SMILES IDX 74 79 75 80 83 81 76 82 78 83 84 84 77 85 79 86 80 87 81 88
REMARK SMILES IDX 82 89 59 90 60 91 68 92 61 93 63 94 69 95 62 96 64 97 65 98
REMARK SMILES IDX 66 99 67 100
REMARK H PARENT 25 5 8 22 30 34 89 53 57 64
REMARK Flexibility Score: inf
ROOT
ATOM      1  C   UNL     1      -2.887  -1.522  -3.100  1.00  0.00     0.116 C 
ENDROOT
BRANCH   1   2
ATOM      2  N   UNL     1      -2.449  -2.909  -3.034  1.00  0.00    -0.356 N 
ATOM      3  C   UNL     1      -1.368  -3.424  -2.370  1.00  0.00     0.220 C 
ATOM      4  O   UNL     1      -0.953  -4.544  -2.667  1.00  0.00    -0.275 OA
ATOM      5  H   UNL     1      -3.000  -3.558  -3.528  1.00  0.00     0.163 HD
BRANCH   3   6
ATOM      6  C   UNL     1      -0.697  -2.622  -1.261  1.00  0.00     0.105 C 
BRANCH   6   7
ATOM      7  C   UNL     1       0.808  -2.358  -1.495  1.00  0.00     0.049 C 
BRANCH   7   8
ATOM      8  C   UNL     1       1.106  -1.071  -2.246  1.00  0.00    -0.005 A 
ATOM      9  C   UNL     1       0.854   0.275  -0.021  1.00  0.00     0.067 C 
ATOM     10  C   UNL     1       0.901   0.261  -1.537  1.00  0.00     0.046 A 
ATOM     11  N   UNL     1       0.823   1.417  -2.126  1.00  0.00    -0.216 NA
ATOM     12  C   UNL     1       0.935   1.429  -3.481  1.00  0.00     0.252 A 
ATOM     13  C   UNL     1       1.451  -0.965  -3.558  1.00  0.00     0.048 A 
ATOM     14  N   UNL     1       0.606   2.379  -4.330  1.00  0.00    -0.192 NA
ATOM     15  N   UNL     1       1.346   0.297  -4.192  1.00  0.00    -0.201 N 
ATOM     16  C   UNL     1       1.711  -2.148  -4.452  1.00  0.00     0.067 C 
ATOM     17  C   UNL     1       0.889   1.850  -5.563  1.00  0.00     0.172 A 
ATOM     18  N   UNL     1       1.408   0.611  -5.522  1.00  0.00    -0.148 NA
BRANCH  17  19
ATOM     19  C   UNL     1       0.537   2.572  -6.849  1.00  0.00     0.199 C 
BRANCH  19  20
ATOM     20  N   UNL     1      -0.790   3.150  -6.757  1.00  0.00    -0.314 N 
ATOM     21  C   UNL     1      -1.356   4.193  -7.405  1.00  0.00     0.408 C 
ATOM     22  H   UNL     1      -1.383   2.704  -6.109  1.00  0.00     0.167 HD
ATOM     23  O   UNL     1      -2.531   4.476  -7.212  1.00  0.00    -0.225 OA
BRANCH  21  24
ATOM     24  O   UNL     1      -0.533   4.860  -8.243  1.00  0.00    -0.444 OA
BRANCH  24  25
ATOM     25  C   UNL     1      -1.045   6.075  -8.864  1.00  0.00     0.106 C 
ATOM     26  C   UNL     1      -2.234   5.806  -9.802  1.00  0.00     0.056 C 
ATOM     27  C   UNL     1      -1.399   7.137  -7.809  1.00  0.00     0.056 C 
ATOM     28  C   UNL     1       0.123   6.600  -9.708  1.00  0.00     0.056 C 
ENDBRANCH  24  25
ENDBRANCH  21  24
ENDBRANCH  19  20
ENDBRANCH  17  19
ENDBRANCH   7   8
ENDBRANCH   6   7
ENDBRANCH   3   6
ENDBRANCH   1   2
BRANCH   1  29
ATOM     29  C   UNL     1      -1.845  -0.711  -3.852  1.00  0.00     0.023 C 
BRANCH  29  30
ATOM     30  C   UNL     1      -2.019  -0.537  -5.355  1.00  0.00     0.023 C 
BRANCH  30  31
ATOM     31  C   UNL     1      -2.922   0.619  -5.723  1.00  0.00     0.116 C 
BRANCH  31  32
ATOM     32  N   UNL     1      -2.665   1.852  -4.957  1.00  0.00    -0.352 N 
ATOM     33  C   UNL     1      -3.546   2.911  -4.781  1.00  0.00     0.251 C 
ATOM     34  H   UNL     1      -1.783   1.932  -4.528  1.00  0.00     0.163 HD
ATOM     35  O   UNL     1      -3.238   3.938  -4.196  1.00  0.00    -0.269 OA
BRANCH  33  36
ATOM     36  C   UNL     1      -4.916   2.655  -5.227  1.00  0.00     0.039 A 
ATOM     37  C   UNL     1      -5.387   3.108  -6.461  1.00  0.00     0.014 A 
ATOM     38  C   UNL     1      -5.522   1.614  -4.533  1.00  0.00     0.014 A 
ATOM     39  C   UNL     1      -6.463   2.444  -7.042  1.00  0.00     0.010 A 
ATOM     40  C   UNL     1      -6.443   0.856  -5.209  1.00  0.00     0.010 A 
ATOM     41  C   UNL     1      -6.975   1.293  -6.425  1.00  0.00    -0.014 A 
BRANCH  41  42
ATOM     42  C   UNL     1      -8.044   0.512  -7.047  1.00  0.00     0.031 A 
ATOM     43  C   UNL     1      -7.939   0.229  -8.504  1.00  0.00     0.074 A 
ATOM     44  C   UNL     1      -9.050  -0.026  -6.320  1.00  0.00     0.049 A 
ATOM     45  N   UNL     1      -8.624   0.796  -9.443  1.00  0.00    -0.248 NA
ATOM     46  C   UNL     1      -6.920  -0.705  -9.001  1.00  0.00     0.031 C 
ATOM     47  C   UNL     1      -9.193  -0.040  -4.854  1.00  0.00     0.029 A 
ATOM     48  N   UNL     1     -10.099  -0.793  -6.726  1.00  0.00    -0.354 N 
ATOM     49  C   UNL     1      -8.329   0.092 -10.610  1.00  0.00     0.074 A 
ATOM     50  C   UNL     1      -7.137  -0.661 -10.321  1.00  0.00     0.031 C 
ATOM     51  C   UNL     1     -10.052  -1.010  -4.491  1.00  0.00     0.029 A 
ATOM     52  C   UNL     1     -10.704  -1.487  -5.689  1.00  0.00     0.049 A 
ATOM     53  H   UNL     1     -10.399  -0.849  -7.663  1.00  0.00     0.167 HD
ATOM     54  C   UNL     1      -9.266  -0.030 -11.594  1.00  0.00     0.034 A 
ATOM     55  C   UNL     1     -11.723  -2.363  -5.769  1.00  0.00     0.034 A 
ATOM     56  C   UNL     1     -10.391   0.836 -11.335  1.00  0.00     0.049 A 
ATOM     57  C   UNL     1     -12.528  -1.971  -6.942  1.00  0.00     0.074 A 
ATOM     58  C   UNL     1     -10.672   2.182 -11.376  1.00  0.00     0.029 A 
ATOM     59  N   UNL     1     -11.389   0.226 -10.621  1.00  0.00    -0.354 N 
ATOM     60  N   UNL     1     -13.159  -0.829  -7.025  1.00  0.00    -0.248 NA
ATOM     61  C   UNL     1     -12.403  -2.711  -8.189  1.00  0.00     0.031 C 
ATOM     62  C   UNL     1     -11.778   2.378 -10.496  1.00  0.00     0.029 A 
ATOM     63  C   UNL     1     -12.150   1.145  -9.959  1.00  0.00     0.049 A 
ATOM     64  H   UNL     1     -11.537  -0.747 -10.590  1.00  0.00     0.167 HD
ATOM     65  C   UNL     1     -13.091  -0.511  -8.369  1.00  0.00     0.074 A 
ATOM     66  C   UNL     1     -12.814  -1.772  -9.045  1.00  0.00     0.031 C 
ATOM     67  C   UNL     1     -12.920   0.776  -8.786  1.00  0.00     0.034 A 
BRANCH  54  68
ATOM     68  C   UNL     1      -9.478  -1.221 -12.523  1.00  0.00     0.023 A 
ATOM     69  C   UNL     1     -10.539  -1.108 -13.460  1.00  0.00     0.012 A 
ATOM     70  C   UNL     1      -8.954  -2.516 -12.323  1.00  0.00     0.148 A 
ATOM     71  C   UNL     1     -11.111  -2.224 -14.081  1.00  0.00     0.002 A 
ATOM     72  C   UNL     1      -9.486  -3.618 -12.991  1.00  0.00     0.091 A 
ATOM     73  F   UNL     1      -8.019  -2.725 -11.397  1.00  0.00    -0.205 F 
ATOM     74  C   UNL     1     -10.586  -3.484 -13.841  1.00  0.00     0.022 A 
BRANCH  72  75
ATOM     75  S   UNL     1      -8.832  -5.275 -12.745  1.00  0.00     0.127 S 
ATOM     76  O   UNL     1      -9.879  -5.881 -11.927  1.00  0.00    -0.237 OA
ATOM     77  O   UNL     1      -8.751  -5.772 -14.118  1.00  0.00    -0.237 OA
ATOM     78  O   UNL     1      -7.538  -5.092 -12.099  1.00  0.00    -0.744 OA
ENDBRANCH  72  75
ENDBRANCH  54  68
BRANCH  55  79
ATOM     79  C   UNL     1     -11.982  -3.557  -4.944  1.00  0.00     0.023 A 
ATOM     80  C   UNL     1     -13.280  -4.091  -4.885  1.00  0.00     0.012 A 
ATOM     81  C   UNL     1     -10.909  -4.330  -4.440  1.00  0.00     0.148 A 
ATOM     82  C   UNL     1     -13.499  -5.383  -4.401  1.00  0.00     0.002 A 
ATOM     83  C   UNL     1     -11.133  -5.615  -3.959  1.00  0.00     0.091 A 
ATOM     84  F   UNL     1      -9.663  -3.841  -4.518  1.00  0.00    -0.205 F 
ATOM     85  C   UNL     1     -12.426  -6.151  -3.954  1.00  0.00     0.022 A 
BRANCH  83  86
ATOM     86  S   UNL     1      -9.792  -6.670  -3.390  1.00  0.00     0.127 S 
ATOM     87  O   UNL     1     -10.357  -7.254  -2.172  1.00  0.00    -0.237 OA
ATOM     88  O   UNL     1      -9.648  -7.602  -4.505  1.00  0.00    -0.237 OA
ATOM     89  O   UNL     1      -8.662  -5.780  -3.154  1.00  0.00    -0.744 OA
ENDBRANCH  83  86
ENDBRANCH  55  79
BRANCH  67  90
ATOM     90  C   UNL     1     -13.337   1.892  -7.873  1.00  0.00     0.023 A 
ATOM     91  C   UNL     1     -12.671   2.179  -6.667  1.00  0.00     0.012 A 
ATOM     92  C   UNL     1     -14.325   2.779  -8.337  1.00  0.00     0.148 A 
ATOM     93  C   UNL     1     -12.989   3.328  -5.937  1.00  0.00     0.002 A 
ATOM     94  C   UNL     1     -14.601   3.946  -7.637  1.00  0.00     0.091 A 
ATOM     95  F   UNL     1     -14.956   2.482  -9.484  1.00  0.00    -0.205 F 
ATOM     96  C   UNL     1     -13.941   4.220  -6.430  1.00  0.00     0.022 A 
BRANCH  94  97
ATOM     97  S   UNL     1     -15.705   5.193  -8.305  1.00  0.00     0.127 S 
ATOM     98  O   UNL     1     -16.921   4.977  -7.524  1.00  0.00    -0.237 OA
ATOM     99  O   UNL     1     -14.997   6.438  -8.003  1.00  0.00    -0.237 OA
ATOM    100  O   UNL     1     -15.813   4.906  -9.730  1.00  0.00    -0.744 OA
ENDBRANCH  94  97
ENDBRANCH  67  90
ENDBRANCH  41  42
ENDBRANCH  33  36
ENDBRANCH  31  32
ENDBRANCH  30  31
ENDBRANCH  29  30
ENDBRANCH   1  29
TORSDOF 20
