REMARK SMILES CC(C)[C@H](NC(N)=O)C(=O)N[C@H](C)C(=O)NCCCCNC(=O)c1ccc(-c2c3nc(c(-c4cccc(S(=O)(=O)[O-])c4F)c4ccc([nH]4)c(-c4cccc(S(=O)(=O)[O-])c4F)c4nc(c(-c5cccc(S(=O)(=O)[O-])c5F)c5ccc2[nH]5)C=C4)C=C3)cc1
REMARK SMILES IDX 18 1 17 2 16 3 14 4 15 5 12 7 13 8 11 9 9 10 10 11 4 13 2 14
REMARK SMILES IDX 1 15 3 16 5 17 6 18 7 20 8 21 19 24 20 25 21 26 22 27 23 29
REMARK SMILES IDX 24 30 25 31 86 32 26 33 85 34 27 35 28 36 29 37 79 38 30 39
REMARK SMILES IDX 84 40 78 41 80 42 31 43 83 44 77 45 76 46 32 48 64 49 44 50
REMARK SMILES IDX 63 51 45 52 48 53 62 54 81 55 46 56 47 57 61 59 82 60 49 61
REMARK SMILES IDX 33 62 34 63 42 64 35 65 37 66 43 67 36 68 38 69 39 70 40 71
REMARK SMILES IDX 41 72 65 73 66 74 74 75 67 76 69 77 75 78 68 79 70 80 71 81
REMARK SMILES IDX 72 82 73 83 50 84 51 85 59 86 52 87 54 88 60 89 53 90 55 91
REMARK SMILES IDX 56 92 57 93 58 94
REMARK H PARENT 16 6 11 12 5 19 7 22 7 23 21 28 80 47 48 58
REMARK Flexibility Score: inf
ROOT
ATOM      1  C   UNL     1      -2.612  -1.952  -7.015  1.00  0.00     0.023 C 
ENDROOT
BRANCH   1   2
ATOM      2  C   UNL     1      -1.227  -1.307  -6.968  1.00  0.00     0.116 C 
BRANCH   2   3
ATOM      3  N   UNL     1      -1.238   0.033  -6.415  1.00  0.00    -0.354 N 
ATOM      4  C   UNL     1      -1.010   0.472  -5.141  1.00  0.00     0.242 C 
ATOM      5  O   UNL     1      -1.129   1.680  -4.912  1.00  0.00    -0.273 OA
ATOM      6  H   UNL     1      -1.444   0.744  -7.064  1.00  0.00     0.163 HD
BRANCH   4   7
ATOM      7  C   UNL     1      -0.671  -0.512  -4.000  1.00  0.00     0.168 C 
ATOM      8  C   UNL     1      -1.796  -1.535  -3.831  1.00  0.00     0.041 C 
BRANCH   7   9
ATOM      9  N   UNL     1       0.616  -1.171  -4.221  1.00  0.00    -0.343 N 
ATOM     10  C   UNL     1       1.729  -1.323  -3.464  1.00  0.00     0.243 C 
ATOM     11  O   UNL     1       2.566  -2.127  -3.900  1.00  0.00    -0.273 OA
ATOM     12  H   UNL     1       0.689  -1.592  -5.108  1.00  0.00     0.164 HD
BRANCH  10  13
ATOM     13  C   UNL     1       1.911  -0.721  -2.050  1.00  0.00     0.175 C 
BRANCH  13  14
ATOM     14  C   UNL     1       1.340  -1.691  -0.976  1.00  0.00     0.015 C 
ATOM     15  C   UNL     1       2.214  -1.701   0.281  1.00  0.00     0.010 C 
ATOM     16  C   UNL     1      -0.094  -1.402  -0.538  1.00  0.00     0.010 C 
ENDBRANCH  13  14
BRANCH  13  17
ATOM     17  N   UNL     1       1.446   0.651  -1.913  1.00  0.00    -0.326 N 
ATOM     18  C   UNL     1       1.949   1.634  -2.714  1.00  0.00     0.312 C 
ATOM     19  H   UNL     1       0.763   0.871  -1.238  1.00  0.00     0.166 HD
ATOM     20  N   UNL     1       1.431   2.850  -2.432  1.00  0.00    -0.352 N 
ATOM     21  O   UNL     1       2.764   1.468  -3.606  1.00  0.00    -0.249 OA
ATOM     22  H   UNL     1       0.775   2.949  -1.705  1.00  0.00     0.161 HD
ATOM     23  H   UNL     1       1.709   3.637  -2.954  1.00  0.00     0.161 HD
ENDBRANCH  13  17
ENDBRANCH  10  13
ENDBRANCH   7   9
ENDBRANCH   4   7
ENDBRANCH   2   3
ENDBRANCH   1   2
BRANCH   1  24
ATOM     24  C   UNL     1      -3.566  -1.350  -8.036  1.00  0.00     0.023 C 
BRANCH  24  25
ATOM     25  C   UNL     1      -3.011  -1.280  -9.447  1.00  0.00     0.116 C 
BRANCH  25  26
ATOM     26  N   UNL     1      -2.489  -2.558  -9.920  1.00  0.00    -0.352 N 
ATOM     27  C   UNL     1      -2.663  -3.143 -11.151  1.00  0.00     0.251 C 
ATOM     28  H   UNL     1      -1.943  -3.065  -9.276  1.00  0.00     0.163 HD
ATOM     29  O   UNL     1      -2.261  -4.279 -11.373  1.00  0.00    -0.269 OA
BRANCH  27  30
ATOM     30  C   UNL     1      -3.387  -2.379 -12.182  1.00  0.00     0.039 A 
ATOM     31  C   UNL     1      -4.520  -2.943 -12.768  1.00  0.00     0.014 A 
ATOM     32  C   UNL     1      -3.014  -1.060 -12.455  1.00  0.00     0.014 A 
ATOM     33  C   UNL     1      -5.338  -2.146 -13.566  1.00  0.00     0.010 A 
ATOM     34  C   UNL     1      -3.877  -0.247 -13.175  1.00  0.00     0.010 A 
ATOM     35  C   UNL     1      -5.051  -0.780 -13.729  1.00  0.00    -0.014 A 
BRANCH  35  36
ATOM     36  C   UNL     1      -5.991   0.124 -14.436  1.00  0.00     0.031 A 
ATOM     37  C   UNL     1      -5.552   0.846 -15.677  1.00  0.00     0.074 A 
ATOM     38  C   UNL     1      -7.202   0.371 -13.896  1.00  0.00     0.049 A 
ATOM     39  N   UNL     1      -6.207   1.721 -16.393  1.00  0.00    -0.248 NA
ATOM     40  C   UNL     1      -4.189   0.572 -16.163  1.00  0.00     0.031 C 
ATOM     41  C   UNL     1      -7.705  -0.203 -12.644  1.00  0.00     0.029 A 
ATOM     42  N   UNL     1      -8.218   1.192 -14.314  1.00  0.00    -0.354 N 
ATOM     43  C   UNL     1      -5.329   2.126 -17.391  1.00  0.00     0.074 A 
ATOM     44  C   UNL     1      -4.082   1.429 -17.168  1.00  0.00     0.031 C 
ATOM     45  C   UNL     1      -8.933   0.280 -12.400  1.00  0.00     0.029 A 
ATOM     46  C   UNL     1      -9.292   1.223 -13.454  1.00  0.00     0.049 A 
ATOM     47  H   UNL     1      -8.182   1.711 -15.150  1.00  0.00     0.167 HD
ATOM     48  C   UNL     1      -5.552   2.978 -18.418  1.00  0.00     0.034 A 
ATOM     49  C   UNL     1     -10.431   1.941 -13.502  1.00  0.00     0.034 A 
ATOM     50  C   UNL     1      -6.806   3.640 -18.654  1.00  0.00     0.049 A 
ATOM     51  C   UNL     1     -10.661   2.864 -14.668  1.00  0.00     0.074 A 
ATOM     52  C   UNL     1      -7.164   4.444 -19.721  1.00  0.00     0.029 A 
ATOM     53  N   UNL     1      -7.899   3.591 -17.804  1.00  0.00    -0.354 N 
ATOM     54  N   UNL     1      -9.887   3.096 -15.700  1.00  0.00    -0.248 NA
ATOM     55  C   UNL     1     -11.933   3.600 -14.692  1.00  0.00     0.031 C 
ATOM     56  C   UNL     1      -8.465   4.907 -19.499  1.00  0.00     0.029 A 
ATOM     57  C   UNL     1      -8.927   4.368 -18.309  1.00  0.00     0.049 A 
ATOM     58  H   UNL     1      -7.939   3.078 -16.964  1.00  0.00     0.167 HD
ATOM     59  C   UNL     1     -10.587   3.985 -16.509  1.00  0.00     0.074 A 
ATOM     60  C   UNL     1     -11.860   4.224 -15.860  1.00  0.00     0.031 C 
ATOM     61  C   UNL     1     -10.204   4.564 -17.673  1.00  0.00     0.034 A 
BRANCH  48  62
ATOM     62  C   UNL     1      -4.429   3.206 -19.394  1.00  0.00     0.023 A 
ATOM     63  C   UNL     1      -4.059   2.175 -20.282  1.00  0.00     0.012 A 
ATOM     64  C   UNL     1      -3.783   4.455 -19.477  1.00  0.00     0.148 A 
ATOM     65  C   UNL     1      -3.043   2.372 -21.216  1.00  0.00     0.002 A 
ATOM     66  C   UNL     1      -2.803   4.659 -20.441  1.00  0.00     0.091 A 
ATOM     67  F   UNL     1      -4.133   5.414 -18.609  1.00  0.00    -0.205 F 
ATOM     68  C   UNL     1      -2.424   3.616 -21.303  1.00  0.00     0.022 A 
BRANCH  66  69
ATOM     69  S   UNL     1      -2.002   6.247 -20.689  1.00  0.00     0.127 S 
ATOM     70  O   UNL     1      -0.642   5.965 -20.230  1.00  0.00    -0.237 OA
ATOM     71  O   UNL     1      -2.131   6.433 -22.134  1.00  0.00    -0.237 OA
ATOM     72  O   UNL     1      -2.747   7.204 -19.883  1.00  0.00    -0.744 OA
ENDBRANCH  66  69
ENDBRANCH  48  62
BRANCH  49  73
ATOM     73  C   UNL     1     -11.462   1.779 -12.437  1.00  0.00     0.023 A 
ATOM     74  C   UNL     1     -12.688   1.159 -12.748  1.00  0.00     0.012 A 
ATOM     75  C   UNL     1     -11.227   2.212 -11.118  1.00  0.00     0.148 A 
ATOM     76  C   UNL     1     -13.674   1.004 -11.773  1.00  0.00     0.002 A 
ATOM     77  C   UNL     1     -12.191   2.003 -10.138  1.00  0.00     0.091 A 
ATOM     78  F   UNL     1     -10.059   2.811 -10.844  1.00  0.00    -0.205 F 
ATOM     79  C   UNL     1     -13.422   1.416 -10.467  1.00  0.00     0.022 A 
BRANCH  77  80
ATOM     80  S   UNL     1     -11.899   2.378  -8.406  1.00  0.00     0.127 S 
ATOM     81  O   UNL     1     -12.776   3.527  -8.196  1.00  0.00    -0.237 OA
ATOM     82  O   UNL     1     -12.334   1.143  -7.752  1.00  0.00    -0.237 OA
ATOM     83  O   UNL     1     -10.471   2.642  -8.296  1.00  0.00    -0.744 OA
ENDBRANCH  77  80
ENDBRANCH  49  73
BRANCH  61  84
ATOM     84  C   UNL     1     -11.176   5.505 -18.336  1.00  0.00     0.023 A 
ATOM     85  C   UNL     1     -11.412   6.775 -17.773  1.00  0.00     0.012 A 
ATOM     86  C   UNL     1     -11.794   5.162 -19.555  1.00  0.00     0.148 A 
ATOM     87  C   UNL     1     -12.273   7.677 -18.397  1.00  0.00     0.002 A 
ATOM     88  C   UNL     1     -12.610   6.085 -20.196  1.00  0.00     0.091 A 
ATOM     89  F   UNL     1     -11.567   3.943 -20.065  1.00  0.00    -0.205 F 
ATOM     90  C   UNL     1     -12.862   7.337 -19.613  1.00  0.00     0.022 A 
BRANCH  88  91
ATOM     91  S   UNL     1     -13.336   5.776 -21.810  1.00  0.00     0.127 S 
ATOM     92  O   UNL     1     -14.755   5.651 -21.479  1.00  0.00    -0.237 OA
ATOM     93  O   UNL     1     -12.985   6.991 -22.545  1.00  0.00    -0.237 OA
ATOM     94  O   UNL     1     -12.706   4.561 -22.310  1.00  0.00    -0.744 OA
ENDBRANCH  88  91
ENDBRANCH  61  84
ENDBRANCH  35  36
ENDBRANCH  27  30
ENDBRANCH  25  26
ENDBRANCH  24  25
ENDBRANCH   1  24
TORSDOF 18
