REMARK SMILES C[C@H]([C@@H](C)O)[N@H+]1CC[C@@](C)(C(=O)NCCCCNC(=O)c2ccc(-c3c4nc(c(-c5cccc(S(=O)(=O)[O-])c5F)c5ccc([nH]5)c(-c5cccc(S(=O)(=O)[O-])c5F)c5nc(c(-c6cccc(S(=O)(=O)[O-])c6F)c6ccc3[nH]6)C=C5)C=C4)cc2)C1
REMARK SMILES IDX 15 1 14 2 13 3 11 4 12 5 9 7 6 8 7 9 84 10 8 12 10 13 2 14
REMARK SMILES IDX 1 15 3 16 4 17 5 18 16 20 17 21 18 22 19 23 20 25 21 26
REMARK SMILES IDX 22 27 83 28 23 29 82 30 24 31 25 32 26 33 76 34 27 35 81 36
REMARK SMILES IDX 75 37 77 38 28 39 80 40 74 41 73 42 29 44 61 45 41 46 60 47
REMARK SMILES IDX 42 48 45 49 59 50 78 51 43 52 44 53 58 55 79 56 46 57 30 58
REMARK SMILES IDX 31 59 39 60 32 61 34 62 40 63 33 64 35 65 36 66 37 67 38 68
REMARK SMILES IDX 62 69 63 70 71 71 64 72 66 73 72 74 65 75 67 76 68 77 69 78
REMARK SMILES IDX 70 79 47 80 48 81 56 82 49 83 51 84 57 85 50 86 52 87 53 88
REMARK SMILES IDX 54 89 55 90
REMARK H PARENT 13 6 6 11 5 19 18 24 77 43 45 54
REMARK Flexibility Score: inf
ROOT
ATOM      1  C   UNL     1      -3.964  -0.733   4.087  1.00  0.00     0.023 C 
ENDROOT
BRANCH   1   2
ATOM      2  C   UNL     1      -4.470   0.680   3.783  1.00  0.00     0.116 C 
BRANCH   2   3
ATOM      3  N   UNL     1      -3.423   1.658   3.988  1.00  0.00    -0.355 N 
ATOM      4  C   UNL     1      -2.571   2.264   3.116  1.00  0.00     0.231 C 
ATOM      5  O   UNL     1      -1.746   3.031   3.622  1.00  0.00    -0.274 OA
ATOM      6  H   UNL     1      -3.306   1.935   4.926  1.00  0.00     0.163 HD
BRANCH   4   7
ATOM      7  C   UNL     1      -2.703   2.109   1.583  1.00  0.00     0.100 C 
ATOM      8  N   UNL     1      -0.787   1.512   0.202  1.00  0.00    -0.330 N 
ATOM      9  C   UNL     1      -1.233   0.334   0.936  1.00  0.00     0.263 C 
ATOM     10  C   UNL     1      -1.414   2.665   0.896  1.00  0.00     0.279 C 
ATOM     11  H   UNL     1      -1.085   1.455  -0.772  1.00  0.00     0.348 HD
ATOM     12  C   UNL     1      -2.702   0.659   1.082  1.00  0.00     0.084 C 
ATOM     13  C   UNL     1      -3.973   2.858   1.136  1.00  0.00     0.028 C 
BRANCH   8  14
ATOM     14  C   UNL     1       0.680   1.633   0.023  1.00  0.00     0.209 C 
ATOM     15  C   UNL     1       0.922   2.659  -1.093  1.00  0.00     0.078 C 
BRANCH  14  16
ATOM     16  C   UNL     1       1.380   0.263  -0.291  1.00  0.00     0.169 C 
ATOM     17  C   UNL     1       2.756   0.362  -0.940  1.00  0.00     0.045 C 
BRANCH  16  18
ATOM     18  O   UNL     1       1.552  -0.497   0.916  1.00  0.00    -0.387 OA
ATOM     19  H   UNL     1       2.157  -0.026   1.511  1.00  0.00     0.211 HD
ENDBRANCH  16  18
ENDBRANCH  14  16
ENDBRANCH   8  14
ENDBRANCH   4   7
ENDBRANCH   2   3
ENDBRANCH   1   2
BRANCH   1  20
ATOM     20  C   UNL     1      -3.810  -1.053   5.574  1.00  0.00     0.023 C 
BRANCH  20  21
ATOM     21  C   UNL     1      -5.091  -0.955   6.391  1.00  0.00     0.116 C 
BRANCH  21  22
ATOM     22  N   UNL     1      -6.172  -1.779   5.868  1.00  0.00    -0.352 N 
ATOM     23  C   UNL     1      -7.144  -2.451   6.568  1.00  0.00     0.251 C 
ATOM     24  H   UNL     1      -6.210  -1.866   4.888  1.00  0.00     0.163 HD
ATOM     25  O   UNL     1      -7.929  -3.193   5.984  1.00  0.00    -0.269 OA
BRANCH  23  26
ATOM     26  C   UNL     1      -7.206  -2.300   8.036  1.00  0.00     0.039 A 
ATOM     27  C   UNL     1      -7.243  -3.447   8.831  1.00  0.00     0.014 A 
ATOM     28  C   UNL     1      -7.171  -1.031   8.620  1.00  0.00     0.014 A 
ATOM     29  C   UNL     1      -7.172  -3.323  10.219  1.00  0.00     0.010 A 
ATOM     30  C   UNL     1      -7.029  -0.913   9.998  1.00  0.00     0.010 A 
ATOM     31  C   UNL     1      -7.027  -2.057  10.810  1.00  0.00    -0.014 A 
BRANCH  31  32
ATOM     32  C   UNL     1      -6.843  -1.906  12.275  1.00  0.00     0.031 A 
ATOM     33  C   UNL     1      -7.868  -1.172  13.094  1.00  0.00     0.074 A 
ATOM     34  C   UNL     1      -5.703  -2.341  12.847  1.00  0.00     0.049 A 
ATOM     35  N   UNL     1      -7.851  -0.888  14.370  1.00  0.00    -0.248 NA
ATOM     36  C   UNL     1      -9.053  -0.665  12.382  1.00  0.00     0.031 C 
ATOM     37  C   UNL     1      -4.594  -2.986  12.139  1.00  0.00     0.029 A 
ATOM     38  N   UNL     1      -5.274  -2.279  14.148  1.00  0.00    -0.354 N 
ATOM     39  C   UNL     1      -8.998  -0.141  14.607  1.00  0.00     0.074 A 
ATOM     40  C   UNL     1      -9.672   0.013  13.337  1.00  0.00     0.031 C 
ATOM     41  C   UNL     1      -3.614  -3.261  13.015  1.00  0.00     0.029 A 
ATOM     42  C   UNL     1      -4.012  -2.792  14.338  1.00  0.00     0.049 A 
ATOM     43  H   UNL     1      -5.817  -1.902  14.877  1.00  0.00     0.167 HD
ATOM     44  C   UNL     1      -9.465   0.344  15.781  1.00  0.00     0.034 A 
ATOM     45  C   UNL     1      -3.259  -2.873  15.453  1.00  0.00     0.034 A 
ATOM     46  C   UNL     1      -8.818   0.143  17.049  1.00  0.00     0.049 A 
ATOM     47  C   UNL     1      -3.826  -2.374  16.754  1.00  0.00     0.074 A 
ATOM     48  C   UNL     1      -9.263   0.503  18.309  1.00  0.00     0.029 A 
ATOM     49  N   UNL     1      -7.586  -0.469  17.219  1.00  0.00    -0.354 N 
ATOM     50  N   UNL     1      -4.995  -1.829  16.988  1.00  0.00    -0.248 NA
ATOM     51  C   UNL     1      -2.987  -2.535  17.951  1.00  0.00     0.031 C 
ATOM     52  C   UNL     1      -8.290   0.122  19.240  1.00  0.00     0.029 A 
ATOM     53  C   UNL     1      -7.248  -0.489  18.561  1.00  0.00     0.049 A 
ATOM     54  H   UNL     1      -7.032  -0.835  16.492  1.00  0.00     0.167 HD
ATOM     55  C   UNL     1      -5.045  -1.608  18.360  1.00  0.00     0.074 A 
ATOM     56  C   UNL     1      -3.798  -2.102  18.907  1.00  0.00     0.031 C 
ATOM     57  C   UNL     1      -6.026  -1.032  19.097  1.00  0.00     0.034 A 
BRANCH  44  58
ATOM     58  C   UNL     1     -10.776   1.085  15.758  1.00  0.00     0.023 A 
ATOM     59  C   UNL     1     -11.972   0.366  15.553  1.00  0.00     0.012 A 
ATOM     60  C   UNL     1     -10.835   2.472  15.989  1.00  0.00     0.148 A 
ATOM     61  C   UNL     1     -13.203   1.020  15.545  1.00  0.00     0.002 A 
ATOM     62  C   UNL     1     -12.070   3.111  16.021  1.00  0.00     0.091 A 
ATOM     63  F   UNL     1      -9.687   3.144  16.157  1.00  0.00    -0.205 F 
ATOM     64  C   UNL     1     -13.253   2.389  15.789  1.00  0.00     0.022 A 
BRANCH  62  65
ATOM     65  S   UNL     1     -12.245   4.858  16.401  1.00  0.00     0.127 S 
ATOM     66  O   UNL     1     -12.569   5.414  15.088  1.00  0.00    -0.237 OA
ATOM     67  O   UNL     1     -13.356   4.858  17.354  1.00  0.00    -0.237 OA
ATOM     68  O   UNL     1     -10.967   5.275  16.961  1.00  0.00    -0.744 OA
ENDBRANCH  62  65
ENDBRANCH  44  58
BRANCH  45  69
ATOM     69  C   UNL     1      -1.920  -3.524  15.398  1.00  0.00     0.023 A 
ATOM     70  C   UNL     1      -1.743  -4.786  15.998  1.00  0.00     0.012 A 
ATOM     71  C   UNL     1      -0.836  -2.924  14.729  1.00  0.00     0.148 A 
ATOM     72  C   UNL     1      -0.505  -5.428  15.956  1.00  0.00     0.002 A 
ATOM     73  C   UNL     1       0.381  -3.592  14.645  1.00  0.00     0.091 A 
ATOM     74  F   UNL     1      -1.019  -1.717  14.176  1.00  0.00    -0.205 F 
ATOM     75  C   UNL     1       0.553  -4.837  15.271  1.00  0.00     0.022 A 
BRANCH  73  76
ATOM     76  S   UNL     1       1.755  -2.966  13.672  1.00  0.00     0.127 S 
ATOM     77  O   UNL     1       2.676  -2.513  14.711  1.00  0.00    -0.237 OA
ATOM     78  O   UNL     1       2.184  -4.163  12.946  1.00  0.00    -0.237 OA
ATOM     79  O   UNL     1       1.190  -1.925  12.825  1.00  0.00    -0.744 OA
ENDBRANCH  73  76
ENDBRANCH  45  69
BRANCH  57  80
ATOM     80  C   UNL     1      -5.807  -0.918  20.582  1.00  0.00     0.023 A 
ATOM     81  C   UNL     1      -4.899   0.036  21.080  1.00  0.00     0.012 A 
ATOM     82  C   UNL     1      -6.557  -1.698  21.485  1.00  0.00     0.148 A 
ATOM     83  C   UNL     1      -4.719   0.194  22.454  1.00  0.00     0.002 A 
ATOM     84  C   UNL     1      -6.405  -1.504  22.853  1.00  0.00     0.091 A 
ATOM     85  F   UNL     1      -7.401  -2.615  20.991  1.00  0.00    -0.205 F 
ATOM     86  C   UNL     1      -5.480  -0.566  23.339  1.00  0.00     0.022 A 
BRANCH  84  87
ATOM     87  S   UNL     1      -7.411  -2.371  24.063  1.00  0.00     0.127 S 
ATOM     88  O   UNL     1      -6.457  -3.339  24.604  1.00  0.00    -0.237 OA
ATOM     89  O   UNL     1      -7.781  -1.299  24.987  1.00  0.00    -0.237 OA
ATOM     90  O   UNL     1      -8.528  -2.939  23.321  1.00  0.00    -0.744 OA
ENDBRANCH  84  87
ENDBRANCH  57  80
ENDBRANCH  31  32
ENDBRANCH  23  26
ENDBRANCH  21  22
ENDBRANCH  20  21
ENDBRANCH   1  20
TORSDOF 17
