REMARK SMILES C/C(=N\[NH+]=C1\NC(=O)[C@H](CC(=O)NCCCCNC(=O)c2ccc(-c3c4nc(c(-c5cccc(S(=O)(=O)[O-])c5F)c5ccc([nH]5)c(-c5cccc(S(=O)(=O)[O-])c5F)c5nc(c(-c6cccc(S(=O)(=O)[O-])c6F)c6ccc3[nH]6)C=C5)C=C4)cc2)S1)c1ccc([N+](=O)[O-])cc1
REMARK SMILES IDX 15 1 14 2 13 3 11 4 12 5 10 7 9 8 4 9 5 10 6 12 84 13 7 14
REMARK SMILES IDX 8 16 3 17 1 18 2 19 85 20 86 21 93 22 87 23 92 24 88 25
REMARK SMILES IDX 89 26 90 27 91 28 16 29 17 30 18 31 19 32 20 34 21 35 22 36
REMARK SMILES IDX 83 37 23 38 82 39 24 40 25 41 26 42 76 43 27 44 81 45 75 46
REMARK SMILES IDX 77 47 28 48 80 49 74 50 73 51 29 53 61 54 41 55 60 56 42 57
REMARK SMILES IDX 45 58 59 59 78 60 43 61 44 62 58 64 79 65 46 66 30 67 31 68
REMARK SMILES IDX 39 69 32 70 34 71 40 72 33 73 35 74 36 75 37 76 38 77 62 78
REMARK SMILES IDX 63 79 71 80 64 81 66 82 72 83 65 84 67 85 68 86 69 87 70 88
REMARK SMILES IDX 47 89 48 90 56 91 49 92 51 93 57 94 50 95 52 96 53 97 54 98
REMARK SMILES IDX 55 99
REMARK H PARENT 13 6 4 11 6 15 18 33 77 52 45 63
REMARK Flexibility Score: inf
ROOT
ATOM      1  C   UNL     1      -2.720   1.758   5.238  1.00  0.00     0.023 C 
ENDROOT
BRANCH   1   2
ATOM      2  C   UNL     1      -3.710   2.059   4.114  1.00  0.00     0.116 C 
BRANCH   2   3
ATOM      3  N   UNL     1      -3.511   3.386   3.556  1.00  0.00    -0.356 N 
ATOM      4  C   UNL     1      -3.205   3.760   2.281  1.00  0.00     0.221 C 
ATOM      5  O   UNL     1      -3.010   4.946   2.021  1.00  0.00    -0.275 OA
ATOM      6  H   UNL     1      -3.614   4.128   4.196  1.00  0.00     0.163 HD
BRANCH   4   7
ATOM      7  C   UNL     1      -3.097   2.709   1.204  1.00  0.00     0.127 C 
BRANCH   7   8
ATOM      8  C   UNL     1      -1.663   2.248   1.014  1.00  0.00     0.183 C 
ATOM      9  N   UNL     1      -0.419  -1.384   1.353  1.00  0.00    -0.142 N 
ATOM     10  C   UNL     1      -0.961  -0.212   1.361  1.00  0.00     0.337 C 
ATOM     11  H   UNL     1      -0.149  -1.845   2.180  1.00  0.00     0.343 HD
ATOM     12  N   UNL     1      -0.882   0.533   2.481  1.00  0.00    -0.202 N 
ATOM     13  S   UNL     1      -1.636   0.700   0.039  1.00  0.00    -0.020 SA
ATOM     14  C   UNL     1      -0.954   1.879   2.299  1.00  0.00     0.322 C 
ATOM     15  H   UNL     1      -0.778   0.130   3.373  1.00  0.00     0.316 HD
ATOM     16  O   UNL     1      -0.417   2.679   3.052  1.00  0.00    -0.246 OA
BRANCH   9  17
ATOM     17  N   UNL     1      -0.243  -1.947   0.093  1.00  0.00    -0.090 NA
ATOM     18  C   UNL     1       1.844  -0.566   0.061  1.00  0.00     0.071 C 
ATOM     19  C   UNL     1       0.857  -1.580  -0.511  1.00  0.00     0.088 C 
BRANCH  19  20
ATOM     20  C   UNL     1       1.122  -2.100  -1.889  1.00  0.00    -0.000 A 
ATOM     21  C   UNL     1       0.062  -2.651  -2.627  1.00  0.00     0.017 A 
ATOM     22  C   UNL     1       2.397  -2.031  -2.467  1.00  0.00     0.017 A 
ATOM     23  C   UNL     1       0.270  -3.123  -3.926  1.00  0.00     0.086 A 
ATOM     24  C   UNL     1       2.615  -2.505  -3.763  1.00  0.00     0.086 A 
ATOM     25  C   UNL     1       1.549  -3.049  -4.489  1.00  0.00     0.269 A 
BRANCH  25  26
ATOM     26  N   UNL     1       1.781  -3.544  -5.851  1.00  0.00     0.062 N 
ATOM     27  O   UNL     1       0.817  -4.023  -6.464  1.00  0.00    -0.258 OA
ATOM     28  O   UNL     1       2.930  -3.453  -6.307  1.00  0.00    -0.258 OA
ENDBRANCH  25  26
ENDBRANCH  19  20
ENDBRANCH   9  17
ENDBRANCH   7   8
ENDBRANCH   4   7
ENDBRANCH   2   3
ENDBRANCH   1   2
BRANCH   1  29
ATOM     29  C   UNL     1      -2.987   2.503   6.541  1.00  0.00     0.023 C 
BRANCH  29  30
ATOM     30  C   UNL     1      -4.328   2.184   7.181  1.00  0.00     0.116 C 
BRANCH  30  31
ATOM     31  N   UNL     1      -4.507   0.761   7.432  1.00  0.00    -0.352 N 
ATOM     32  C   UNL     1      -4.991   0.132   8.556  1.00  0.00     0.251 C 
ATOM     33  H   UNL     1      -4.245   0.165   6.694  1.00  0.00     0.163 HD
ATOM     34  O   UNL     1      -4.925  -1.082   8.651  1.00  0.00    -0.269 OA
BRANCH  32  35
ATOM     35  C   UNL     1      -5.566   0.947   9.649  1.00  0.00     0.039 A 
ATOM     36  C   UNL     1      -5.229   0.635  10.967  1.00  0.00     0.014 A 
ATOM     37  C   UNL     1      -6.415   2.021   9.371  1.00  0.00     0.014 A 
ATOM     38  C   UNL     1      -5.708   1.436  12.004  1.00  0.00     0.010 A 
ATOM     39  C   UNL     1      -6.810   2.873  10.395  1.00  0.00     0.010 A 
ATOM     40  C   UNL     1      -6.479   2.578  11.723  1.00  0.00    -0.014 A 
BRANCH  40  41
ATOM     41  C   UNL     1      -6.944   3.467  12.816  1.00  0.00     0.031 A 
ATOM     42  C   UNL     1      -8.415   3.655  13.072  1.00  0.00     0.074 A 
ATOM     43  C   UNL     1      -6.037   4.150  13.541  1.00  0.00     0.049 A 
ATOM     44  N   UNL     1      -9.004   4.356  14.006  1.00  0.00    -0.248 NA
ATOM     45  C   UNL     1      -9.350   3.000  12.141  1.00  0.00     0.031 C 
ATOM     46  C   UNL     1      -4.590   4.142  13.311  1.00  0.00     0.029 A 
ATOM     47  N   UNL     1      -6.197   4.993  14.610  1.00  0.00    -0.354 N 
ATOM     48  C   UNL     1     -10.367   4.252  13.758  1.00  0.00     0.074 A 
ATOM     49  C   UNL     1     -10.520   3.462  12.557  1.00  0.00     0.031 C 
ATOM     50  C   UNL     1      -3.994   4.920  14.228  1.00  0.00     0.029 A 
ATOM     51  C   UNL     1      -5.013   5.491  15.102  1.00  0.00     0.049 A 
ATOM     52  H   UNL     1      -7.076   5.220  14.991  1.00  0.00     0.167 HD
ATOM     53  C   UNL     1     -11.402   4.735  14.486  1.00  0.00     0.034 A 
ATOM     54  C   UNL     1      -4.777   6.302  16.151  1.00  0.00     0.034 A 
ATOM     55  C   UNL     1     -11.242   5.473  15.710  1.00  0.00     0.049 A 
ATOM     56  C   UNL     1      -5.937   6.742  17.001  1.00  0.00     0.074 A 
ATOM     57  C   UNL     1     -12.220   5.925  16.577  1.00  0.00     0.029 A 
ATOM     58  N   UNL     1     -10.024   5.868  16.239  1.00  0.00    -0.354 N 
ATOM     59  N   UNL     1      -7.214   6.478  16.856  1.00  0.00    -0.248 NA
ATOM     60  C   UNL     1      -5.621   7.549  18.187  1.00  0.00     0.031 C 
ATOM     61  C   UNL     1     -11.591   6.605  17.627  1.00  0.00     0.029 A 
ATOM     62  C   UNL     1     -10.221   6.559  17.422  1.00  0.00     0.049 A 
ATOM     63  H   UNL     1      -9.146   5.684  15.833  1.00  0.00     0.167 HD
ATOM     64  C   UNL     1      -7.849   7.059  17.947  1.00  0.00     0.074 A 
ATOM     65  C   UNL     1      -6.812   7.661  18.760  1.00  0.00     0.031 C 
ATOM     66  C   UNL     1      -9.173   7.110  18.241  1.00  0.00     0.034 A 
BRANCH  53  67
ATOM     67  C   UNL     1     -12.797   4.415  14.014  1.00  0.00     0.023 A 
ATOM     68  C   UNL     1     -13.277   3.093  14.117  1.00  0.00     0.012 A 
ATOM     69  C   UNL     1     -13.647   5.421  13.515  1.00  0.00     0.148 A 
ATOM     70  C   UNL     1     -14.566   2.769  13.698  1.00  0.00     0.002 A 
ATOM     71  C   UNL     1     -14.947   5.098  13.141  1.00  0.00     0.091 A 
ATOM     72  F   UNL     1     -13.167   6.667  13.401  1.00  0.00    -0.205 F 
ATOM     73  C   UNL     1     -15.404   3.772  13.220  1.00  0.00     0.022 A 
BRANCH  71  74
ATOM     74  S   UNL     1     -16.131   6.331  12.586  1.00  0.00     0.127 S 
ATOM     75  O   UNL     1     -16.235   6.020  11.161  1.00  0.00    -0.237 OA
ATOM     76  O   UNL     1     -17.318   5.994  13.372  1.00  0.00    -0.237 OA
ATOM     77  O   UNL     1     -15.541   7.624  12.904  1.00  0.00    -0.744 OA
ENDBRANCH  71  74
ENDBRANCH  53  67
BRANCH  54  78
ATOM     78  C   UNL     1      -3.376   6.656  16.515  1.00  0.00     0.023 A 
ATOM     79  C   UNL     1      -2.803   6.103  17.678  1.00  0.00     0.012 A 
ATOM     80  C   UNL     1      -2.598   7.503  15.704  1.00  0.00     0.148 A 
ATOM     81  C   UNL     1      -1.493   6.413  18.044  1.00  0.00     0.002 A 
ATOM     82  C   UNL     1      -1.275   7.763  16.044  1.00  0.00     0.091 A 
ATOM     83  F   UNL     1      -3.163   8.028  14.607  1.00  0.00    -0.205 F 
ATOM     84  C   UNL     1      -0.726   7.234  17.222  1.00  0.00     0.022 A 
BRANCH  82  85
ATOM     85  S   UNL     1      -0.175   8.696  14.972  1.00  0.00     0.127 S 
ATOM     86  O   UNL     1      -0.065   9.964  15.687  1.00  0.00    -0.237 OA
ATOM     87  O   UNL     1       1.035   7.872  14.986  1.00  0.00    -0.237 OA
ATOM     88  O   UNL     1      -0.845   8.749  13.680  1.00  0.00    -0.744 OA
ENDBRANCH  82  85
ENDBRANCH  54  78
BRANCH  66  89
ATOM     89  C   UNL     1      -9.571   7.822  19.506  1.00  0.00     0.023 A 
ATOM     90  C   UNL     1      -9.475   9.227  19.576  1.00  0.00     0.012 A 
ATOM     91  C   UNL     1     -10.082   7.109  20.607  1.00  0.00     0.148 A 
ATOM     92  C   UNL     1      -9.840   9.905  20.738  1.00  0.00     0.002 A 
ATOM     93  C   UNL     1     -10.491   7.796  21.743  1.00  0.00     0.091 A 
ATOM     94  F   UNL     1     -10.147   5.771  20.531  1.00  0.00    -0.205 F 
ATOM     95  C   UNL     1     -10.357   9.192  21.817  1.00  0.00     0.022 A 
BRANCH  93  96
ATOM     96  S   UNL     1     -11.256   6.959  23.136  1.00  0.00     0.127 S 
ATOM     97  O   UNL     1     -10.138   6.851  24.072  1.00  0.00    -0.237 OA
ATOM     98  O   UNL     1     -12.298   7.904  23.539  1.00  0.00    -0.237 OA
ATOM     99  O   UNL     1     -11.763   5.700  22.608  1.00  0.00    -0.744 OA
ENDBRANCH  93  96
ENDBRANCH  66  89
ENDBRANCH  40  41
ENDBRANCH  32  35
ENDBRANCH  30  31
ENDBRANCH  29  30
ENDBRANCH   1  29
TORSDOF 18
