REMARK SMILES CC[C@](C)([NH3+])C(=O)Nc1ccc(C(F)(F)F)cc1C(=O)NCCCCNC(=O)c1ccc(-c2c3nc(c(-c4cccc(S(=O)(=O)[O-])c4F)c4ccc([nH]4)c(-c4cccc(S(=O)(=O)[O-])c4F)c4nc(c(-c5cccc(S(=O)(=O)[O-])c5F)c5ccc2[nH]5)C=C4)C=C3)cc1
REMARK SMILES IDX 23 1 22 2 21 3 19 4 20 5 18 7 9 8 10 9 11 10 17 11 12 12
REMARK SMILES IDX 8 13 6 14 7 15 3 17 4 18 2 19 1 20 5 21 13 25 14 26 15 27
REMARK SMILES IDX 16 28 24 29 25 30 26 31 27 32 28 34 29 35 30 36 91 37 31 38
REMARK SMILES IDX 90 39 32 40 33 41 34 42 84 43 35 44 89 45 83 46 85 47 36 48
REMARK SMILES IDX 88 49 82 50 81 51 37 53 69 54 49 55 68 56 50 57 53 58 67 59
REMARK SMILES IDX 86 60 51 61 52 62 66 64 87 65 54 66 38 67 39 68 47 69 40 70
REMARK SMILES IDX 42 71 48 72 41 73 43 74 44 75 45 76 46 77 70 78 71 79 79 80
REMARK SMILES IDX 72 81 74 82 80 83 73 84 75 85 76 86 77 87 78 88 55 89 56 90
REMARK SMILES IDX 64 91 57 92 59 93 65 94 58 95 60 96 61 97 62 98 63 99
REMARK H PARENT 21 6 8 16 5 22 5 23 5 24 26 33 85 52 53 63
REMARK Flexibility Score: inf
ROOT
ATOM      1  C   UNL     1       4.527   4.245   1.442  1.00  0.00     0.023 C 
ENDROOT
BRANCH   1   2
ATOM      2  C   UNL     1       3.619   4.143   0.221  1.00  0.00     0.116 C 
BRANCH   2   3
ATOM      3  N   UNL     1       2.432   4.963   0.247  1.00  0.00    -0.352 N 
ATOM      4  C   UNL     1       1.541   5.293  -0.751  1.00  0.00     0.253 C 
ATOM      5  O   UNL     1       0.590   6.014  -0.432  1.00  0.00    -0.269 OA
ATOM      6  H   UNL     1       2.223   5.353   1.127  1.00  0.00     0.163 HD
BRANCH   4   7
ATOM      7  C   UNL     1       1.694   4.942  -2.212  1.00  0.00     0.063 A 
ATOM      8  C   UNL     1       2.349   3.847  -2.799  1.00  0.00     0.054 A 
ATOM      9  C   UNL     1       2.645   3.879  -4.176  1.00  0.00     0.027 A 
ATOM     10  C   UNL     1       2.103   4.850  -5.013  1.00  0.00     0.015 A 
ATOM     11  C   UNL     1       1.113   5.895  -3.091  1.00  0.00     0.029 A 
ATOM     12  C   UNL     1       1.262   5.828  -4.487  1.00  0.00     0.056 A 
BRANCH   8  13
ATOM     13  N   UNL     1       2.775   2.665  -2.184  1.00  0.00    -0.320 N 
ATOM     14  C   UNL     1       2.153   1.744  -1.389  1.00  0.00     0.285 C 
ATOM     15  O   UNL     1       2.915   0.885  -0.916  1.00  0.00    -0.267 OA
ATOM     16  H   UNL     1       3.720   2.452  -2.361  1.00  0.00     0.170 HD
BRANCH  14  17
ATOM     17  C   UNL     1       0.607   1.602  -1.237  1.00  0.00     0.171 C 
ATOM     18  C   UNL     1       0.309   0.688  -0.033  1.00  0.00     0.090 C 
BRANCH  17  19
ATOM     19  C   UNL     1       0.017   1.034  -2.548  1.00  0.00     0.075 C 
ATOM     20  C   UNL     1       0.504  -0.364  -2.911  1.00  0.00     0.011 C 
ENDBRANCH  17  19
BRANCH  17  21
ATOM     21  N   UNL     1      -0.050   2.884  -0.950  1.00  0.00    -0.345 N 
ATOM     22  H   UNL     1       0.328   3.274  -0.086  1.00  0.00     0.345 HD
ATOM     23  H   UNL     1      -1.054   2.736  -0.846  1.00  0.00     0.345 HD
ATOM     24  H   UNL     1       0.120   3.533  -1.719  1.00  0.00     0.345 HD
ENDBRANCH  17  21
ENDBRANCH  14  17
ENDBRANCH   8  13
BRANCH  12  25
ATOM     25  C   UNL     1       0.547   6.781  -5.414  1.00  0.00     0.416 C 
ATOM     26  F   UNL     1       1.375   7.724  -5.939  1.00  0.00    -0.166 F 
ATOM     27  F   UNL     1      -0.002   6.136  -6.485  1.00  0.00    -0.166 F 
ATOM     28  F   UNL     1      -0.479   7.455  -4.829  1.00  0.00    -0.166 F 
ENDBRANCH  12  25
ENDBRANCH   4   7
ENDBRANCH   2   3
ENDBRANCH   1   2
BRANCH   1  29
ATOM     29  C   UNL     1       3.990   3.608   2.730  1.00  0.00     0.023 C 
BRANCH  29  30
ATOM     30  C   UNL     1       3.481   2.166   2.647  1.00  0.00     0.116 C 
BRANCH  30  31
ATOM     31  N   UNL     1       4.474   1.200   2.193  1.00  0.00    -0.352 N 
ATOM     32  C   UNL     1       5.062   0.142   2.857  1.00  0.00     0.251 C 
ATOM     33  H   UNL     1       4.775   1.323   1.264  1.00  0.00     0.163 HD
ATOM     34  O   UNL     1       5.963  -0.494   2.330  1.00  0.00    -0.269 OA
BRANCH  32  35
ATOM     35  C   UNL     1       4.619  -0.211   4.227  1.00  0.00     0.039 A 
ATOM     36  C   UNL     1       5.579  -0.397   5.226  1.00  0.00     0.014 A 
ATOM     37  C   UNL     1       3.263  -0.350   4.529  1.00  0.00     0.014 A 
ATOM     38  C   UNL     1       5.174  -0.611   6.548  1.00  0.00     0.010 A 
ATOM     39  C   UNL     1       2.860  -0.486   5.856  1.00  0.00     0.010 A 
ATOM     40  C   UNL     1       3.809  -0.602   6.884  1.00  0.00    -0.014 A 
BRANCH  40  41
ATOM     41  C   UNL     1       3.357  -0.654   8.302  1.00  0.00     0.031 A 
ATOM     42  C   UNL     1       2.478  -1.776   8.789  1.00  0.00     0.074 A 
ATOM     43  C   UNL     1       3.641   0.376   9.127  1.00  0.00     0.049 A 
ATOM     44  N   UNL     1       1.929  -1.942   9.965  1.00  0.00    -0.248 NA
ATOM     45  C   UNL     1       2.149  -2.834   7.820  1.00  0.00     0.031 C 
ATOM     46  C   UNL     1       4.400   1.573   8.756  1.00  0.00     0.029 A 
ATOM     47  N   UNL     1       3.297   0.598  10.438  1.00  0.00    -0.354 N 
ATOM     48  C   UNL     1       1.157  -3.093   9.867  1.00  0.00     0.074 A 
ATOM     49  C   UNL     1       1.287  -3.571   8.507  1.00  0.00     0.031 C 
ATOM     50  C   UNL     1       4.464   2.400   9.811  1.00  0.00     0.029 A 
ATOM     51  C   UNL     1       3.731   1.810  10.926  1.00  0.00     0.049 A 
ATOM     52  H   UNL     1       2.789  -0.049  10.979  1.00  0.00     0.167 HD
ATOM     53  C   UNL     1       0.431  -3.715  10.827  1.00  0.00     0.034 A 
ATOM     54  C   UNL     1       3.554   2.387  12.132  1.00  0.00     0.034 A 
ATOM     55  C   UNL     1       0.348  -3.272  12.193  1.00  0.00     0.049 A 
ATOM     56  C   UNL     1       2.798   1.642  13.199  1.00  0.00     0.074 A 
ATOM     57  C   UNL     1      -0.272  -3.895  13.262  1.00  0.00     0.029 A 
ATOM     58  N   UNL     1       0.895  -2.095  12.679  1.00  0.00    -0.354 N 
ATOM     59  N   UNL     1       2.229   0.463  13.136  1.00  0.00    -0.248 NA
ATOM     60  C   UNL     1       2.693   2.289  14.515  1.00  0.00     0.031 C 
ATOM     61  C   UNL     1      -0.115  -3.085  14.392  1.00  0.00     0.029 A 
ATOM     62  C   UNL     1       0.621  -1.969  14.030  1.00  0.00     0.049 A 
ATOM     63  H   UNL     1       1.403  -1.445  12.142  1.00  0.00     0.167 HD
ATOM     64  C   UNL     1       1.730   0.212  14.409  1.00  0.00     0.074 A 
ATOM     65  C   UNL     1       2.084   1.352  15.229  1.00  0.00     0.031 C 
ATOM     66  C   UNL     1       1.028  -0.859  14.853  1.00  0.00     0.034 A 
BRANCH  53  67
ATOM     67  C   UNL     1      -0.285  -4.987  10.450  1.00  0.00     0.023 A 
ATOM     68  C   UNL     1       0.463  -6.161  10.224  1.00  0.00     0.012 A 
ATOM     69  C   UNL     1      -1.691  -5.040  10.386  1.00  0.00     0.148 A 
ATOM     70  C   UNL     1      -0.174  -7.359   9.905  1.00  0.00     0.002 A 
ATOM     71  C   UNL     1      -2.321  -6.249  10.109  1.00  0.00     0.091 A 
ATOM     72  F   UNL     1      -2.385  -3.910  10.585  1.00  0.00    -0.205 F 
ATOM     73  C   UNL     1      -1.565  -7.405   9.858  1.00  0.00     0.022 A 
BRANCH  71  74
ATOM     74  S   UNL     1      -4.109  -6.430  10.104  1.00  0.00     0.127 S 
ATOM     75  O   UNL     1      -4.386  -6.577   8.676  1.00  0.00    -0.237 OA
ATOM     76  O   UNL     1      -4.298  -7.651  10.889  1.00  0.00    -0.237 OA
ATOM     77  O   UNL     1      -4.636  -5.223  10.723  1.00  0.00    -0.744 OA
ENDBRANCH  71  74
ENDBRANCH  53  67
BRANCH  54  78
ATOM     78  C   UNL     1       4.170   3.714  12.419  1.00  0.00     0.023 A 
ATOM     79  C   UNL     1       5.263   3.788  13.305  1.00  0.00     0.012 A 
ATOM     80  C   UNL     1       3.703   4.892  11.806  1.00  0.00     0.148 A 
ATOM     81  C   UNL     1       5.859   5.015  13.600  1.00  0.00     0.002 A 
ATOM     82  C   UNL     1       4.336   6.104  12.062  1.00  0.00     0.091 A 
ATOM     83  F   UNL     1       2.653   4.804  10.977  1.00  0.00    -0.205 F 
ATOM     84  C   UNL     1       5.403   6.170  12.972  1.00  0.00     0.022 A 
BRANCH  82  85
ATOM     85  S   UNL     1       3.900   7.617  11.198  1.00  0.00     0.127 S 
ATOM     86  O   UNL     1       3.207   8.369  12.241  1.00  0.00    -0.237 OA
ATOM     87  O   UNL     1       5.215   8.145  10.828  1.00  0.00    -0.237 OA
ATOM     88  O   UNL     1       3.085   7.199  10.066  1.00  0.00    -0.744 OA
ENDBRANCH  82  85
ENDBRANCH  54  78
BRANCH  66  89
ATOM     89  C   UNL     1       0.617  -0.877  16.303  1.00  0.00     0.023 A 
ATOM     90  C   UNL     1      -0.418  -0.031  16.746  1.00  0.00     0.012 A 
ATOM     91  C   UNL     1       1.202  -1.787  17.206  1.00  0.00     0.148 A 
ATOM     92  C   UNL     1      -0.846  -0.069  18.073  1.00  0.00     0.002 A 
ATOM     93  C   UNL     1       0.739  -1.852  18.515  1.00  0.00     0.091 A 
ATOM     94  F   UNL     1       2.200  -2.569  16.770  1.00  0.00    -0.205 F 
ATOM     95  C   UNL     1      -0.277  -0.987  18.953  1.00  0.00     0.022 A 
BRANCH  93  96
ATOM     96  S   UNL     1       1.347  -3.068  19.689  1.00  0.00     0.127 S 
ATOM     97  O   UNL     1       2.188  -2.248  20.559  1.00  0.00    -0.237 OA
ATOM     98  O   UNL     1       0.112  -3.547  20.311  1.00  0.00    -0.237 OA
ATOM     99  O   UNL     1       2.051  -4.070  18.899  1.00  0.00    -0.744 OA
ENDBRANCH  93  96
ENDBRANCH  66  89
ENDBRANCH  40  41
ENDBRANCH  32  35
ENDBRANCH  30  31
ENDBRANCH  29  30
ENDBRANCH   1  29
TORSDOF 19
