REMARK SMILES Cc1ccc(Cl)c(Nc2ccccc2C(=O)NCCCCNC(=O)c2ccc(-c3c4nc(c(-c5cccc(S(=O)(=O)[O-])c5F)c5ccc([nH]5)c(-c5cccc(S(=O)(=O)[O-])c5F)c5nc(c(-c6cccc(S(=O)(=O)[O-])c6F)c6ccc3[nH]6)C=C5)C=C4)cc2)c1Cl
REMARK SMILES IDX 20 1 19 2 18 3 17 4 15 5 16 6 14 8 9 9 10 10 11 11 13 12
REMARK SMILES IDX 12 13 8 14 7 16 1 17 2 18 3 19 88 20 4 21 89 22 5 23 6 24
REMARK SMILES IDX 21 25 22 26 23 27 24 29 25 30 26 31 87 32 27 33 86 34 28 35
REMARK SMILES IDX 29 36 30 37 80 38 31 39 85 40 79 41 81 42 32 43 84 44 78 45
REMARK SMILES IDX 77 46 33 48 65 49 45 50 64 51 46 52 49 53 63 54 82 55 47 56
REMARK SMILES IDX 48 57 62 59 83 60 50 61 34 62 35 63 43 64 36 65 38 66 44 67
REMARK SMILES IDX 37 68 39 69 40 70 41 71 42 72 66 73 67 74 75 75 68 76 70 77
REMARK SMILES IDX 76 78 69 79 71 80 72 81 73 82 74 83 51 84 52 85 60 86 53 87
REMARK SMILES IDX 55 88 61 89 54 90 56 91 57 92 58 93 59 94
REMARK H PARENT 17 7 8 15 22 28 81 47 49 58
REMARK Flexibility Score: inf
ROOT
ATOM      1  C   UNL     1      -2.773  -0.251   3.129  1.00  0.00     0.023 C 
ENDROOT
BRANCH   1   2
ATOM      2  C   UNL     1      -2.469  -1.569   2.410  1.00  0.00     0.023 C 
BRANCH   2   3
ATOM      3  C   UNL     1      -1.247  -1.595   1.503  1.00  0.00     0.116 C 
BRANCH   3   4
ATOM      4  N   UNL     1       0.031  -1.533   2.169  1.00  0.00    -0.352 N 
ATOM      5  C   UNL     1       1.243  -2.075   1.802  1.00  0.00     0.253 C 
ATOM      6  O   UNL     1       2.228  -1.773   2.481  1.00  0.00    -0.269 OA
ATOM      7  H   UNL     1       0.038  -1.027   3.014  1.00  0.00     0.163 HD
BRANCH   5   8
ATOM      8  C   UNL     1       1.406  -3.104   0.728  1.00  0.00     0.063 A 
ATOM      9  C   UNL     1       0.883  -3.089  -0.582  1.00  0.00     0.051 A 
ATOM     10  C   UNL     1       1.104  -4.228  -1.395  1.00  0.00     0.027 A 
ATOM     11  C   UNL     1       1.876  -5.310  -0.972  1.00  0.00     0.002 A 
ATOM     12  C   UNL     1       2.211  -4.198   1.129  1.00  0.00     0.016 A 
ATOM     13  C   UNL     1       2.453  -5.283   0.287  1.00  0.00     0.001 A 
BRANCH   9  14
ATOM     14  N   UNL     1       0.247  -2.017  -1.240  1.00  0.00    -0.352 N 
ATOM     15  H   UNL     1      -0.460  -2.312  -1.858  1.00  0.00     0.167 HD
BRANCH  14  16
ATOM     16  C   UNL     1       0.401  -0.610  -1.207  1.00  0.00     0.077 A 
ATOM     17  C   UNL     1       2.804   2.183  -0.121  1.00  0.00     0.046 C 
ATOM     18  C   UNL     1       1.574   1.459  -0.600  1.00  0.00    -0.030 A 
ATOM     19  C   UNL     1       0.397   2.192  -0.815  1.00  0.00     0.006 A 
ATOM     20  C   UNL     1       1.581   0.066  -0.835  1.00  0.00     0.069 A 
ATOM     21  C   UNL     1      -0.751   1.560  -1.279  1.00  0.00     0.023 A 
ATOM     22  Cl  UNL     1       3.111  -0.764  -0.820  1.00  0.00    -0.082 Cl
ATOM     23  C   UNL     1      -0.744   0.181  -1.477  1.00  0.00     0.066 A 
ATOM     24  Cl  UNL     1      -2.223  -0.564  -2.003  1.00  0.00    -0.082 Cl
ENDBRANCH  14  16
ENDBRANCH   9  14
ENDBRANCH   5   8
ENDBRANCH   3   4
ENDBRANCH   2   3
ENDBRANCH   1   2
BRANCH   1  25
ATOM     25  C   UNL     1      -2.732   1.043   2.315  1.00  0.00     0.116 C 
BRANCH  25  26
ATOM     26  N   UNL     1      -3.533   1.042   1.100  1.00  0.00    -0.352 N 
ATOM     27  C   UNL     1      -4.271   2.068   0.542  1.00  0.00     0.251 C 
ATOM     28  H   UNL     1      -3.553   0.190   0.607  1.00  0.00     0.163 HD
ATOM     29  O   UNL     1      -4.865   1.897  -0.511  1.00  0.00    -0.269 OA
BRANCH  27  30
ATOM     30  C   UNL     1      -4.377   3.370   1.245  1.00  0.00     0.039 A 
ATOM     31  C   UNL     1      -5.649   3.904   1.473  1.00  0.00     0.014 A 
ATOM     32  C   UNL     1      -3.244   4.037   1.715  1.00  0.00     0.014 A 
ATOM     33  C   UNL     1      -5.791   5.050   2.263  1.00  0.00     0.010 A 
ATOM     34  C   UNL     1      -3.391   5.142   2.553  1.00  0.00     0.010 A 
ATOM     35  C   UNL     1      -4.666   5.647   2.855  1.00  0.00    -0.014 A 
BRANCH  35  36
ATOM     36  C   UNL     1      -4.810   6.750   3.845  1.00  0.00     0.031 A 
ATOM     37  C   UNL     1      -4.230   8.111   3.571  1.00  0.00     0.074 A 
ATOM     38  C   UNL     1      -5.364   6.487   5.047  1.00  0.00     0.049 A 
ATOM     39  N   UNL     1      -4.213   9.168   4.343  1.00  0.00    -0.248 NA
ATOM     40  C   UNL     1      -3.558   8.306   2.276  1.00  0.00     0.031 C 
ATOM     41  C   UNL     1      -5.868   5.181   5.480  1.00  0.00     0.029 A 
ATOM     42  N   UNL     1      -5.565   7.295   6.141  1.00  0.00    -0.354 N 
ATOM     43  C   UNL     1      -3.493  10.135   3.651  1.00  0.00     0.074 A 
ATOM     44  C   UNL     1      -3.075   9.535   2.402  1.00  0.00     0.031 C 
ATOM     45  C   UNL     1      -6.309   5.274   6.745  1.00  0.00     0.029 A 
ATOM     46  C   UNL     1      -6.105   6.637   7.223  1.00  0.00     0.049 A 
ATOM     47  H   UNL     1      -5.343   8.254   6.150  1.00  0.00     0.167 HD
ATOM     48  C   UNL     1      -3.225  11.412   4.012  1.00  0.00     0.034 A 
ATOM     49  C   UNL     1      -6.399   7.078   8.463  1.00  0.00     0.034 A 
ATOM     50  C   UNL     1      -3.694  12.025   5.226  1.00  0.00     0.049 A 
ATOM     51  C   UNL     1      -6.178   8.529   8.795  1.00  0.00     0.074 A 
ATOM     52  C   UNL     1      -3.573  13.346   5.623  1.00  0.00     0.029 A 
ATOM     53  N   UNL     1      -4.366  11.364   6.240  1.00  0.00    -0.354 N 
ATOM     54  N   UNL     1      -5.675   9.479   8.045  1.00  0.00    -0.248 NA
ATOM     55  C   UNL     1      -6.609   8.983  10.126  1.00  0.00     0.031 C 
ATOM     56  C   UNL     1      -4.160  13.479   6.885  1.00  0.00     0.029 A 
ATOM     57  C   UNL     1      -4.665  12.246   7.263  1.00  0.00     0.049 A 
ATOM     58  H   UNL     1      -4.598  10.407   6.234  1.00  0.00     0.167 HD
ATOM     59  C   UNL     1      -5.768  10.646   8.794  1.00  0.00     0.074 A 
ATOM     60  C   UNL     1      -6.395  10.290  10.049  1.00  0.00     0.031 C 
ATOM     61  C   UNL     1      -5.356  11.898   8.476  1.00  0.00     0.034 A 
BRANCH  48  62
ATOM     62  C   UNL     1      -2.437  12.269   3.057  1.00  0.00     0.023 A 
ATOM     63  C   UNL     1      -3.054  12.748   1.885  1.00  0.00     0.012 A 
ATOM     64  C   UNL     1      -1.125  12.681   3.368  1.00  0.00     0.148 A 
ATOM     65  C   UNL     1      -2.373  13.607   1.024  1.00  0.00     0.002 A 
ATOM     66  C   UNL     1      -0.467  13.569   2.525  1.00  0.00     0.091 A 
ATOM     67  F   UNL     1      -0.551  12.199   4.479  1.00  0.00    -0.205 F 
ATOM     68  C   UNL     1      -1.086  14.026   1.350  1.00  0.00     0.022 A 
BRANCH  66  69
ATOM     69  S   UNL     1       1.161  14.233   2.893  1.00  0.00     0.127 S 
ATOM     70  O   UNL     1       1.976  13.606   1.853  1.00  0.00    -0.237 OA
ATOM     71  O   UNL     1       0.953  15.671   2.721  1.00  0.00    -0.237 OA
ATOM     72  O   UNL     1       1.467  13.820   4.256  1.00  0.00    -0.744 OA
ENDBRANCH  66  69
ENDBRANCH  48  62
BRANCH  49  73
ATOM     73  C   UNL     1      -7.007   6.154   9.463  1.00  0.00     0.023 A 
ATOM     74  C   UNL     1      -8.353   6.330   9.842  1.00  0.00     0.012 A 
ATOM     75  C   UNL     1      -6.268   5.100  10.034  1.00  0.00     0.148 A 
ATOM     76  C   UNL     1      -8.938   5.502  10.801  1.00  0.00     0.002 A 
ATOM     77  C   UNL     1      -6.875   4.244  10.947  1.00  0.00     0.091 A 
ATOM     78  F   UNL     1      -4.984   4.954   9.677  1.00  0.00    -0.205 F 
ATOM     79  C   UNL     1      -8.203   4.454  11.347  1.00  0.00     0.022 A 
BRANCH  77  80
ATOM     80  S   UNL     1      -6.035   2.790  11.588  1.00  0.00     0.127 S 
ATOM     81  O   UNL     1      -5.613   3.244  12.909  1.00  0.00    -0.237 OA
ATOM     82  O   UNL     1      -7.104   1.791  11.591  1.00  0.00    -0.237 OA
ATOM     83  O   UNL     1      -4.969   2.514  10.633  1.00  0.00    -0.744 OA
ENDBRANCH  77  80
ENDBRANCH  49  73
BRANCH  61  84
ATOM     84  C   UNL     1      -5.613  12.997   9.473  1.00  0.00     0.023 A 
ATOM     85  C   UNL     1      -4.852  13.065  10.655  1.00  0.00     0.012 A 
ATOM     86  C   UNL     1      -6.556  14.007   9.197  1.00  0.00     0.148 A 
ATOM     87  C   UNL     1      -5.047  14.105  11.564  1.00  0.00     0.002 A 
ATOM     88  C   UNL     1      -6.711  15.066  10.084  1.00  0.00     0.091 A 
ATOM     89  F   UNL     1      -7.288  13.913   8.077  1.00  0.00    -0.205 F 
ATOM     90  C   UNL     1      -5.966  15.111  11.273  1.00  0.00     0.022 A 
BRANCH  88  91
ATOM     91  S   UNL     1      -7.802  16.450   9.735  1.00  0.00     0.127 S 
ATOM     92  O   UNL     1      -8.952  16.145  10.583  1.00  0.00    -0.237 OA
ATOM     93  O   UNL     1      -7.006  17.596  10.177  1.00  0.00    -0.237 OA
ATOM     94  O   UNL     1      -8.049  16.409   8.300  1.00  0.00    -0.744 OA
ENDBRANCH  88  91
ENDBRANCH  61  84
ENDBRANCH  35  36
ENDBRANCH  27  30
ENDBRANCH  25  26
ENDBRANCH   1  25
TORSDOF 16
