REMARK SMILES CC(C)[C@H](/N=C1\C(=O)C(=O)[C@H]1[NH+]1CCCC1)C(=O)NCCCCNC(=O)c1ccc(-c2c3nc(c(-c4cccc(S(=O)(=O)[O-])c4F)c4ccc([nH]4)c(-c4cccc(S(=O)(=O)[O-])c4F)c4nc(c(-c5cccc(S(=O)(=O)[O-])c5F)c5ccc2[nH]5)C=C4)C=C3)cc1
REMARK SMILES IDX 22 1 21 2 20 3 19 4 17 5 18 6 4 8 2 9 1 10 3 11 5 12 6 13
REMARK SMILES IDX 7 14 11 15 8 16 9 17 10 18 12 19 13 20 16 21 14 23 15 24
REMARK SMILES IDX 23 25 24 26 25 27 26 29 27 30 28 31 89 32 29 33 88 34 30 35
REMARK SMILES IDX 31 36 32 37 82 38 33 39 87 40 81 41 83 42 34 43 86 44 80 45
REMARK SMILES IDX 79 46 35 48 67 49 47 50 66 51 48 52 51 53 65 54 84 55 49 56
REMARK SMILES IDX 50 57 64 59 85 60 52 61 36 62 37 63 45 64 38 65 40 66 46 67
REMARK SMILES IDX 39 68 41 69 42 70 43 71 44 72 68 73 69 74 77 75 70 76 72 77
REMARK SMILES IDX 78 78 71 79 73 80 74 81 75 82 76 83 53 84 54 85 62 86 55 87
REMARK SMILES IDX 57 88 63 89 56 90 58 91 59 92 60 93 61 94
REMARK H PARENT 19 7 12 22 24 28 83 47 51 58
REMARK Flexibility Score: inf
ROOT
ATOM      1  C   UNL     1       1.298  -2.048   5.708  1.00  0.00     0.023 C 
ENDROOT
BRANCH   1   2
ATOM      2  C   UNL     1       1.559  -1.947   4.199  1.00  0.00     0.023 C 
BRANCH   2   3
ATOM      3  C   UNL     1       0.322  -2.022   3.308  1.00  0.00     0.116 C 
BRANCH   3   4
ATOM      4  N   UNL     1      -0.519  -0.845   3.410  1.00  0.00    -0.354 N 
ATOM      5  C   UNL     1      -1.050  -0.063   2.423  1.00  0.00     0.245 C 
ATOM      6  O   UNL     1      -1.814   0.846   2.762  1.00  0.00    -0.273 OA
ATOM      7  H   UNL     1      -0.741  -0.568   4.328  1.00  0.00     0.163 HD
BRANCH   5   8
ATOM      8  C   UNL     1      -0.728  -0.291   0.924  1.00  0.00     0.197 C 
BRANCH   8   9
ATOM      9  C   UNL     1      -1.443  -1.498   0.248  1.00  0.00     0.017 C 
ATOM     10  C   UNL     1      -0.559  -2.375  -0.646  1.00  0.00     0.010 C 
ATOM     11  C   UNL     1      -2.258  -2.408   1.175  1.00  0.00     0.010 C 
ENDBRANCH   8   9
BRANCH   8  12
ATOM     12  N   UNL     1       0.747  -0.269   0.783  1.00  0.00    -0.266 NA
ATOM     13  C   UNL     1       1.255   0.277  -0.257  1.00  0.00     0.153 C 
ATOM     14  C   UNL     1       0.720   0.740  -1.558  1.00  0.00     0.255 C 
ATOM     15  C   UNL     1       2.713   0.502  -0.682  1.00  0.00     0.314 C 
ATOM     16  O   UNL     1      -0.368   0.958  -1.987  1.00  0.00    -0.283 OA
ATOM     17  C   UNL     1       2.114   0.711  -2.134  1.00  0.00     0.268 C 
ATOM     18  O   UNL     1       2.447   0.867  -3.278  1.00  0.00    -0.283 OA
BRANCH  15  19
ATOM     19  N   UNL     1       3.435   1.678  -0.137  1.00  0.00    -0.321 N 
ATOM     20  C   UNL     1       3.397   1.781   1.326  1.00  0.00     0.263 C 
ATOM     21  C   UNL     1       3.064   2.980  -0.687  1.00  0.00     0.263 C 
ATOM     22  H   UNL     1       4.383   1.470  -0.451  1.00  0.00     0.349 HD
ATOM     23  C   UNL     1       3.494   3.278   1.624  1.00  0.00     0.067 C 
ATOM     24  C   UNL     1       3.747   3.929   0.276  1.00  0.00     0.067 C 
ENDBRANCH  15  19
ENDBRANCH   8  12
ENDBRANCH   5   8
ENDBRANCH   3   4
ENDBRANCH   2   3
ENDBRANCH   1   2
BRANCH   1  25
ATOM     25  C   UNL     1       0.447  -3.231   6.182  1.00  0.00     0.116 C 
BRANCH  25  26
ATOM     26  N   UNL     1       0.908  -4.517   5.684  1.00  0.00    -0.352 N 
ATOM     27  C   UNL     1       0.885  -5.753   6.285  1.00  0.00     0.251 C 
ATOM     28  H   UNL     1       1.294  -4.500   4.779  1.00  0.00     0.163 HD
ATOM     29  O   UNL     1       1.388  -6.711   5.701  1.00  0.00    -0.269 OA
BRANCH  27  30
ATOM     30  C   UNL     1       0.308  -5.935   7.636  1.00  0.00     0.039 A 
ATOM     31  C   UNL     1       1.038  -6.683   8.568  1.00  0.00     0.014 A 
ATOM     32  C   UNL     1      -0.934  -5.402   7.991  1.00  0.00     0.014 A 
ATOM     33  C   UNL     1       0.564  -6.827   9.875  1.00  0.00     0.010 A 
ATOM     34  C   UNL     1      -1.394  -5.522   9.305  1.00  0.00     0.010 A 
ATOM     35  C   UNL     1      -0.639  -6.218  10.260  1.00  0.00    -0.014 A 
BRANCH  35  36
ATOM     36  C   UNL     1      -1.070  -6.225  11.679  1.00  0.00     0.031 A 
ATOM     37  C   UNL     1      -2.218  -7.074  12.137  1.00  0.00     0.074 A 
ATOM     38  C   UNL     1      -0.455  -5.399  12.547  1.00  0.00     0.049 A 
ATOM     39  N   UNL     1      -2.739  -7.169  13.333  1.00  0.00    -0.248 NA
ATOM     40  C   UNL     1      -2.867  -7.921  11.125  1.00  0.00     0.031 C 
ATOM     41  C   UNL     1       0.640  -4.488  12.211  1.00  0.00     0.029 A 
ATOM     42  N   UNL     1      -0.675  -5.178  13.883  1.00  0.00    -0.354 N 
ATOM     43  C   UNL     1      -3.796  -8.061  13.216  1.00  0.00     0.074 A 
ATOM     44  C   UNL     1      -3.840  -8.484  11.831  1.00  0.00     0.031 C 
ATOM     45  C   UNL     1       0.999  -3.808  13.311  1.00  0.00     0.029 A 
ATOM     46  C   UNL     1       0.151  -4.222  14.425  1.00  0.00     0.049 A 
ATOM     47  H   UNL     1      -1.359  -5.658  14.404  1.00  0.00     0.167 HD
ATOM     48  C   UNL     1      -4.638  -8.505  14.178  1.00  0.00     0.034 A 
ATOM     49  C   UNL     1       0.221  -3.735  15.678  1.00  0.00     0.034 A 
ATOM     50  C   UNL     1      -4.563  -8.134  15.566  1.00  0.00     0.049 A 
ATOM     51  C   UNL     1      -0.705  -4.268  16.733  1.00  0.00     0.074 A 
ATOM     52  C   UNL     1      -5.325  -8.599  16.625  1.00  0.00     0.029 A 
ATOM     53  N   UNL     1      -3.676  -7.208  16.088  1.00  0.00    -0.354 N 
ATOM     54  N   UNL     1      -1.606  -5.214  16.630  1.00  0.00    -0.248 NA
ATOM     55  C   UNL     1      -0.594  -3.683  18.077  1.00  0.00     0.031 C 
ATOM     56  C   UNL     1      -4.884  -7.965  17.793  1.00  0.00     0.029 A 
ATOM     57  C   UNL     1      -3.869  -7.085  17.454  1.00  0.00     0.049 A 
ATOM     58  H   UNL     1      -3.006  -6.709  15.566  1.00  0.00     0.167 HD
ATOM     59  C   UNL     1      -2.155  -5.352  17.898  1.00  0.00     0.074 A 
ATOM     60  C   UNL     1      -1.478  -4.401  18.757  1.00  0.00     0.031 C 
ATOM     61  C   UNL     1      -3.147  -6.179  18.307  1.00  0.00     0.034 A 
BRANCH  48  62
ATOM     62  C   UNL     1      -5.670  -9.515  13.772  1.00  0.00     0.023 A 
ATOM     63  C   UNL     1      -5.352 -10.883  13.868  1.00  0.00     0.012 A 
ATOM     64  C   UNL     1      -6.948  -9.130  13.335  1.00  0.00     0.148 A 
ATOM     65  C   UNL     1      -6.294 -11.854  13.531  1.00  0.00     0.002 A 
ATOM     66  C   UNL     1      -7.884 -10.105  13.004  1.00  0.00     0.091 A 
ATOM     67  F   UNL     1      -7.233  -7.823  13.226  1.00  0.00    -0.205 F 
ATOM     68  C   UNL     1      -7.562 -11.467  13.102  1.00  0.00     0.022 A 
BRANCH  66  69
ATOM     69  S   UNL     1      -9.519  -9.617  12.447  1.00  0.00     0.127 S 
ATOM     70  O   UNL     1      -9.241  -9.028  11.140  1.00  0.00    -0.237 OA
ATOM     71  O   UNL     1     -10.248 -10.886  12.392  1.00  0.00    -0.237 OA
ATOM     72  O   UNL     1      -9.981  -8.708  13.488  1.00  0.00    -0.744 OA
ENDBRANCH  66  69
ENDBRANCH  48  62
BRANCH  49  73
ATOM     73  C   UNL     1       1.271  -2.738  16.013  1.00  0.00     0.023 A 
ATOM     74  C   UNL     1       2.415  -3.163  16.713  1.00  0.00     0.012 A 
ATOM     75  C   UNL     1       1.184  -1.403  15.584  1.00  0.00     0.148 A 
ATOM     76  C   UNL     1       3.453  -2.270  16.985  1.00  0.00     0.002 A 
ATOM     77  C   UNL     1       2.238  -0.528  15.828  1.00  0.00     0.091 A 
ATOM     78  F   UNL     1       0.090  -1.006  14.916  1.00  0.00    -0.205 F 
ATOM     79  C   UNL     1       3.370  -0.954  16.536  1.00  0.00     0.022 A 
BRANCH  77  80
ATOM     80  S   UNL     1       2.178   1.133  15.153  1.00  0.00     0.127 S 
ATOM     81  O   UNL     1       1.095   1.748  15.912  1.00  0.00    -0.237 OA
ATOM     82  O   UNL     1       3.509   1.666  15.450  1.00  0.00    -0.237 OA
ATOM     83  O   UNL     1       1.935   0.901  13.732  1.00  0.00    -0.744 OA
ENDBRANCH  77  80
ENDBRANCH  49  73
BRANCH  61  84
ATOM     84  C   UNL     1      -3.566  -6.094  19.745  1.00  0.00     0.023 A 
ATOM     85  C   UNL     1      -4.542  -5.149  20.115  1.00  0.00     0.012 A 
ATOM     86  C   UNL     1      -3.056  -6.977  20.712  1.00  0.00     0.148 A 
ATOM     87  C   UNL     1      -4.998  -5.081  21.431  1.00  0.00     0.002 A 
ATOM     88  C   UNL     1      -3.526  -6.911  22.021  1.00  0.00     0.091 A 
ATOM     89  F   UNL     1      -2.119  -7.868  20.352  1.00  0.00    -0.205 F 
ATOM     90  C   UNL     1      -4.495  -5.965  22.385  1.00  0.00     0.022 A 
BRANCH  88  91
ATOM     91  S   UNL     1      -2.908  -8.069  23.245  1.00  0.00     0.127 S 
ATOM     92  O   UNL     1      -1.521  -7.645  23.413  1.00  0.00    -0.237 OA
ATOM     93  O   UNL     1      -3.759  -7.816  24.410  1.00  0.00    -0.237 OA
ATOM     94  O   UNL     1      -3.120  -9.372  22.625  1.00  0.00    -0.744 OA
ENDBRANCH  88  91
ENDBRANCH  61  84
ENDBRANCH  35  36
ENDBRANCH  27  30
ENDBRANCH  25  26
ENDBRANCH   1  25
TORSDOF 17
