REMARK SMILES CC1(C)[C@H](C(=O)Nc2ccccc2C(N)=O)[C@@H]1C(=O)NCCCCNC(=O)c1ccc(-c2c3nc(c(-c4cccc(S(=O)(=O)[O-])c4F)c4ccc([nH]4)c(-c4cccc(S(=O)(=O)[O-])c4F)c4nc(c(-c5cccc(S(=O)(=O)[O-])c5F)c5ccc2[nH]5)C=C4)C=C3)cc1
REMARK SMILES IDX 22 1 21 2 20 3 18 4 19 5 17 7 1 8 2 9 3 10 4 11 5 12 6 13
REMARK SMILES IDX 7 14 8 16 9 17 13 18 10 19 12 20 11 21 14 22 15 23 16 24
REMARK SMILES IDX 23 27 24 28 25 29 26 30 27 32 28 33 29 34 90 35 30 36 89 37
REMARK SMILES IDX 31 38 32 39 33 40 83 41 34 42 88 43 82 44 84 45 35 46 87 47
REMARK SMILES IDX 81 48 80 49 36 51 68 52 48 53 67 54 49 55 52 56 66 57 85 58
REMARK SMILES IDX 50 59 51 60 65 62 86 63 53 64 37 65 38 66 46 67 39 68 41 69
REMARK SMILES IDX 47 70 40 71 42 72 43 73 44 74 45 75 69 76 70 77 78 78 71 79
REMARK SMILES IDX 73 80 79 81 72 82 74 83 75 84 76 85 77 86 54 87 55 88 63 89
REMARK SMILES IDX 56 90 58 91 64 92 57 93 59 94 60 95 61 96 62 97
REMARK H PARENT 20 6 7 15 15 25 15 26 25 31 84 50 52 61
REMARK Flexibility Score: inf
ROOT
ATOM      1  C   UNL     1      -5.531   0.792   0.583  1.00  0.00     0.023 C 
ENDROOT
BRANCH   1   2
ATOM      2  C   UNL     1      -4.072   0.864   0.155  1.00  0.00     0.116 C 
BRANCH   2   3
ATOM      3  N   UNL     1      -3.200   1.165   1.264  1.00  0.00    -0.356 N 
ATOM      4  C   UNL     1      -2.030   0.557   1.611  1.00  0.00     0.224 C 
ATOM      5  O   UNL     1      -1.551   0.788   2.716  1.00  0.00    -0.275 OA
ATOM      6  H   UNL     1      -3.486   1.906   1.845  1.00  0.00     0.163 HD
BRANCH   4   7
ATOM      7  C   UNL     1      -1.383  -0.429   0.692  1.00  0.00     0.098 C 
ATOM      8  C   UNL     1       0.940  -1.607   0.330  1.00  0.00     0.013 C 
ATOM      9  C   UNL     1       0.133  -0.321   0.456  1.00  0.00    -0.011 C 
ATOM     10  C   UNL     1       0.866   0.690   1.295  1.00  0.00     0.013 C 
ATOM     11  C   UNL     1      -0.831  -0.124  -0.696  1.00  0.00     0.098 C 
BRANCH  11  12
ATOM     12  C   UNL     1      -1.478   0.912  -1.539  1.00  0.00     0.228 C 
ATOM     13  O   UNL     1      -2.302   0.495  -2.360  1.00  0.00    -0.274 OA
ATOM     14  N   UNL     1      -1.400   2.267  -1.414  1.00  0.00    -0.325 N 
ATOM     15  H   UNL     1      -2.089   2.754  -1.921  1.00  0.00     0.169 HD
BRANCH  14  16
ATOM     16  C   UNL     1      -0.534   3.090  -0.709  1.00  0.00     0.053 A 
ATOM     17  C   UNL     1      -1.164   4.074   0.069  1.00  0.00     0.027 A 
ATOM     18  C   UNL     1       0.865   3.009  -0.750  1.00  0.00     0.063 A 
ATOM     19  C   UNL     1      -0.420   4.871   0.930  1.00  0.00     0.002 A 
ATOM     20  C   UNL     1       1.608   3.835   0.111  1.00  0.00     0.016 A 
ATOM     21  C   UNL     1       0.963   4.732   0.972  1.00  0.00     0.001 A 
BRANCH  18  22
ATOM     22  C   UNL     1       1.559   2.136  -1.744  1.00  0.00     0.250 C 
ATOM     23  N   UNL     1       2.792   1.644  -1.414  1.00  0.00    -0.366 N 
ATOM     24  O   UNL     1       1.070   1.846  -2.829  1.00  0.00    -0.269 OA
ATOM     25  H   UNL     1       3.195   1.870  -0.545  1.00  0.00     0.159 HD
ATOM     26  H   UNL     1       3.275   1.063  -2.045  1.00  0.00     0.159 HD
ENDBRANCH  18  22
ENDBRANCH  14  16
ENDBRANCH  11  12
ENDBRANCH   4   7
ENDBRANCH   2   3
ENDBRANCH   1   2
BRANCH   1  27
ATOM     27  C   UNL     1      -6.098   2.093   1.152  1.00  0.00     0.023 C 
BRANCH  27  28
ATOM     28  C   UNL     1      -5.865   3.338   0.304  1.00  0.00     0.116 C 
BRANCH  28  29
ATOM     29  N   UNL     1      -6.394   3.211  -1.045  1.00  0.00    -0.352 N 
ATOM     30  C   UNL     1      -7.335   3.978  -1.687  1.00  0.00     0.251 C 
ATOM     31  H   UNL     1      -6.024   2.467  -1.574  1.00  0.00     0.163 HD
ATOM     32  O   UNL     1      -7.787   3.614  -2.769  1.00  0.00    -0.269 OA
BRANCH  30  33
ATOM     33  C   UNL     1      -7.814   5.232  -1.067  1.00  0.00     0.039 A 
ATOM     34  C   UNL     1      -9.181   5.517  -1.084  1.00  0.00     0.014 A 
ATOM     35  C   UNL     1      -6.918   6.129  -0.479  1.00  0.00     0.014 A 
ATOM     36  C   UNL     1      -9.651   6.682  -0.476  1.00  0.00     0.010 A 
ATOM     37  C   UNL     1      -7.398   7.237   0.211  1.00  0.00     0.010 A 
ATOM     38  C   UNL     1      -8.767   7.544   0.194  1.00  0.00    -0.014 A 
BRANCH  38  39
ATOM     39  C   UNL     1      -9.249   8.795   0.833  1.00  0.00     0.031 A 
ATOM     40  C   UNL     1      -8.745  10.130   0.348  1.00  0.00     0.074 A 
ATOM     41  C   UNL     1     -10.098   8.735   1.879  1.00  0.00     0.049 A 
ATOM     42  N   UNL     1      -9.032  11.329   0.784  1.00  0.00    -0.248 NA
ATOM     43  C   UNL     1      -7.764  10.116  -0.752  1.00  0.00     0.031 C 
ATOM     44  C   UNL     1     -10.600   7.505   2.494  1.00  0.00     0.029 A 
ATOM     45  N   UNL     1     -10.676   9.735   2.620  1.00  0.00    -0.354 N 
ATOM     46  C   UNL     1      -8.245  12.202   0.042  1.00  0.00     0.074 A 
ATOM     47  C   UNL     1      -7.432  11.395  -0.838  1.00  0.00     0.031 C 
ATOM     48  C   UNL     1     -11.422   7.823   3.508  1.00  0.00     0.029 A 
ATOM     49  C   UNL     1     -11.484   9.276   3.634  1.00  0.00     0.049 A 
ATOM     50  H   UNL     1     -10.526  10.692   2.443  1.00  0.00     0.167 HD
ATOM     51  C   UNL     1      -8.225  13.556   0.061  1.00  0.00     0.034 A 
ATOM     52  C   UNL     1     -12.195   9.950   4.559  1.00  0.00     0.034 A 
ATOM     53  C   UNL     1      -9.067  14.358   0.905  1.00  0.00     0.049 A 
ATOM     54  C   UNL     1     -12.193  11.455   4.528  1.00  0.00     0.074 A 
ATOM     55  C   UNL     1      -9.181  15.736   0.947  1.00  0.00     0.029 A 
ATOM     56  N   UNL     1      -9.936  13.855   1.860  1.00  0.00    -0.354 N 
ATOM     57  N   UNL     1     -11.550  12.264   3.721  1.00  0.00    -0.248 NA
ATOM     58  C   UNL     1     -13.049  12.140   5.507  1.00  0.00     0.031 C 
ATOM     59  C   UNL     1     -10.097  16.068   1.949  1.00  0.00     0.029 A 
ATOM     60  C   UNL     1     -10.589  14.895   2.499  1.00  0.00     0.049 A 
ATOM     61  H   UNL     1     -10.070  12.900   2.054  1.00  0.00     0.167 HD
ATOM     62  C   UNL     1     -11.964  13.548   4.059  1.00  0.00     0.074 A 
ATOM     63  C   UNL     1     -12.921  13.406   5.137  1.00  0.00     0.031 C 
ATOM     64  C   UNL     1     -11.582  14.736   3.530  1.00  0.00     0.034 A 
BRANCH  51  65
ATOM     65  C   UNL     1      -7.289  14.255  -0.893  1.00  0.00     0.023 A 
ATOM     66  C   UNL     1      -7.541  14.213  -2.280  1.00  0.00     0.012 A 
ATOM     67  C   UNL     1      -6.189  14.993  -0.415  1.00  0.00     0.148 A 
ATOM     68  C   UNL     1      -6.690  14.855  -3.178  1.00  0.00     0.002 A 
ATOM     69  C   UNL     1      -5.375  15.675  -1.312  1.00  0.00     0.091 A 
ATOM     70  F   UNL     1      -5.952  15.006   0.905  1.00  0.00    -0.205 F 
ATOM     71  C   UNL     1      -5.615  15.595  -2.694  1.00  0.00     0.022 A 
BRANCH  69  72
ATOM     72  S   UNL     1      -4.016  16.723  -0.784  1.00  0.00     0.127 S 
ATOM     73  O   UNL     1      -2.857  15.960  -1.246  1.00  0.00    -0.237 OA
ATOM     74  O   UNL     1      -4.272  17.955  -1.531  1.00  0.00    -0.237 OA
ATOM     75  O   UNL     1      -4.142  16.850   0.661  1.00  0.00    -0.744 OA
ENDBRANCH  69  72
ENDBRANCH  51  65
BRANCH  52  76
ATOM     76  C   UNL     1     -13.028   9.209   5.549  1.00  0.00     0.023 A 
ATOM     77  C   UNL     1     -14.433   9.273   5.464  1.00  0.00     0.012 A 
ATOM     78  C   UNL     1     -12.437   8.436   6.567  1.00  0.00     0.148 A 
ATOM     79  C   UNL     1     -15.234   8.615   6.398  1.00  0.00     0.002 A 
ATOM     80  C   UNL     1     -13.240   7.737   7.460  1.00  0.00     0.091 A 
ATOM     81  F   UNL     1     -11.099   8.393   6.635  1.00  0.00    -0.205 F 
ATOM     82  C   UNL     1     -14.638   7.841   7.390  1.00  0.00     0.022 A 
BRANCH  80  83
ATOM     83  S   UNL     1     -12.565   6.615   8.689  1.00  0.00     0.127 S 
ATOM     84  O   UNL     1     -12.865   7.320   9.933  1.00  0.00    -0.237 OA
ATOM     85  O   UNL     1     -13.356   5.406   8.459  1.00  0.00    -0.237 OA
ATOM     86  O   UNL     1     -11.152   6.480   8.366  1.00  0.00    -0.744 OA
ENDBRANCH  80  83
ENDBRANCH  52  76
BRANCH  64  87
ATOM     87  C   UNL     1     -12.249  15.982   4.052  1.00  0.00     0.023 A 
ATOM     88  C   UNL     1     -11.972  16.449   5.352  1.00  0.00     0.012 A 
ATOM     89  C   UNL     1     -13.109  16.727   3.219  1.00  0.00     0.148 A 
ATOM     90  C   UNL     1     -12.575  17.612   5.830  1.00  0.00     0.002 A 
ATOM     91  C   UNL     1     -13.661  17.914   3.682  1.00  0.00     0.091 A 
ATOM     92  F   UNL     1     -13.375  16.257   1.992  1.00  0.00    -0.205 F 
ATOM     93  C   UNL     1     -13.409  18.350   4.992  1.00  0.00     0.022 A 
BRANCH  91  94
ATOM     94  S   UNL     1     -14.659  18.979   2.636  1.00  0.00     0.127 S 
ATOM     95  O   UNL     1     -16.000  18.751   3.173  1.00  0.00    -0.237 OA
ATOM     96  O   UNL     1     -14.104  20.302   2.921  1.00  0.00    -0.237 OA
ATOM     97  O   UNL     1     -14.444  18.517   1.272  1.00  0.00    -0.744 OA
ENDBRANCH  91  94
ENDBRANCH  64  87
ENDBRANCH  38  39
ENDBRANCH  30  33
ENDBRANCH  28  29
ENDBRANCH  27  28
ENDBRANCH   1  27
TORSDOF 17
