REMARK SMILES C[C@@H]1CC(C)(C)C[C@@](CC(=O)Nc2cccc(C(F)(F)F)c2)(C(=O)NCCCCNC(=O)c2ccc(-c3c4nc(c(-c5cccc(S(=O)(=O)[O-])c5F)c5ccc([nH]5)c(-c5cccc(S(=O)(=O)[O-])c5F)c5nc(c(-c6cccc(S(=O)(=O)[O-])c6F)c6ccc3[nH]6)C=C5)C=C4)cc2)C1
REMARK SMILES IDX 27 1 26 2 25 3 23 4 24 5 8 7 1 8 2 9 3 10 96 11 4 12 5 13
REMARK SMILES IDX 6 14 7 15 9 16 10 17 11 18 12 19 13 21 14 22 22 23 15 24
REMARK SMILES IDX 17 25 16 26 18 27 19 28 20 29 21 30 28 31 29 32 30 33 31 34
REMARK SMILES IDX 32 36 33 37 34 38 95 39 35 40 94 41 36 42 37 43 38 44 88 45
REMARK SMILES IDX 39 46 93 47 87 48 89 49 40 50 92 51 86 52 85 53 41 55 73 56
REMARK SMILES IDX 53 57 72 58 54 59 57 60 71 61 90 62 55 63 56 64 70 66 91 67
REMARK SMILES IDX 58 68 42 69 43 70 51 71 44 72 46 73 52 74 45 75 47 76 48 77
REMARK SMILES IDX 49 78 50 79 74 80 75 81 83 82 76 83 78 84 84 85 77 86 79 87
REMARK SMILES IDX 80 88 81 89 82 90 59 91 60 92 68 93 61 94 63 95 69 96 62 97
REMARK SMILES IDX 64 98 65 99 66 100 67 101
REMARK H PARENT 25 6 12 20 30 35 89 54 57 65
REMARK Flexibility Score: inf
ROOT
ATOM      1  C   UNL     1       0.325  -5.090   3.437  1.00  0.00     0.023 C 
ENDROOT
BRANCH   1   2
ATOM      2  C   UNL     1       0.215  -3.716   2.756  1.00  0.00     0.116 C 
BRANCH   2   3
ATOM      3  N   UNL     1       0.647  -3.704   1.355  1.00  0.00    -0.356 N 
ATOM      4  C   UNL     1       0.744  -2.723   0.393  1.00  0.00     0.226 C 
ATOM      5  O   UNL     1       1.156  -3.101  -0.708  1.00  0.00    -0.274 OA
ATOM      6  H   UNL     1       0.929  -4.590   1.031  1.00  0.00     0.163 HD
BRANCH   4   7
ATOM      7  C   UNL     1       0.356  -1.207   0.637  1.00  0.00     0.059 C 
ATOM      8  C   UNL     1       0.616   2.169   0.159  1.00  0.00     0.008 C 
ATOM      9  C   UNL     1       0.177   1.049  -0.776  1.00  0.00    -0.013 C 
ATOM     10  C   UNL     1      -1.328   0.930  -0.862  1.00  0.00     0.009 C 
ATOM     11  C   UNL     1       0.777  -0.346  -0.580  1.00  0.00     0.020 C 
ATOM     12  C   UNL     1      -1.993   0.104   0.260  1.00  0.00    -0.034 C 
ATOM     13  C   UNL     1      -2.226   0.942   1.528  1.00  0.00     0.011 C 
ATOM     14  C   UNL     1      -3.394  -0.256  -0.304  1.00  0.00     0.011 C 
ATOM     15  C   UNL     1      -1.219  -1.202   0.643  1.00  0.00     0.024 C 
BRANCH   7  16
ATOM     16  C   UNL     1       1.115  -0.877   1.946  1.00  0.00     0.117 C 
BRANCH  16  17
ATOM     17  C   UNL     1       1.883   0.366   2.315  1.00  0.00     0.225 C 
ATOM     18  O   UNL     1       1.414   1.071   3.227  1.00  0.00    -0.275 OA
ATOM     19  N   UNL     1       3.084   0.780   1.850  1.00  0.00    -0.326 N 
ATOM     20  H   UNL     1       3.445   1.484   2.436  1.00  0.00     0.169 HD
BRANCH  19  21
ATOM     21  C   UNL     1       3.983   0.527   0.796  1.00  0.00     0.041 A 
ATOM     22  C   UNL     1       4.880   1.583   0.554  1.00  0.00     0.026 A 
ATOM     23  C   UNL     1       3.983  -0.547  -0.092  1.00  0.00     0.039 A 
ATOM     24  C   UNL     1       5.647   1.645  -0.607  1.00  0.00     0.003 A 
ATOM     25  C   UNL     1       4.668  -0.443  -1.330  1.00  0.00     0.058 A 
ATOM     26  C   UNL     1       5.514   0.652  -1.565  1.00  0.00     0.013 A 
BRANCH  25  27
ATOM     27  C   UNL     1       4.441  -1.436  -2.451  1.00  0.00     0.416 C 
ATOM     28  F   UNL     1       4.668  -0.889  -3.685  1.00  0.00    -0.166 F 
ATOM     29  F   UNL     1       5.249  -2.524  -2.377  1.00  0.00    -0.166 F 
ATOM     30  F   UNL     1       3.164  -1.899  -2.504  1.00  0.00    -0.166 F 
ENDBRANCH  25  27
ENDBRANCH  19  21
ENDBRANCH  16  17
ENDBRANCH   7  16
ENDBRANCH   4   7
ENDBRANCH   2   3
ENDBRANCH   1   2
BRANCH   1  31
ATOM     31  C   UNL     1       1.744  -5.603   3.733  1.00  0.00     0.023 C 
BRANCH  31  32
ATOM     32  C   UNL     1       2.623  -4.756   4.659  1.00  0.00     0.116 C 
BRANCH  32  33
ATOM     33  N   UNL     1       2.066  -4.573   5.991  1.00  0.00    -0.352 N 
ATOM     34  C   UNL     1       2.600  -4.811   7.240  1.00  0.00     0.251 C 
ATOM     35  H   UNL     1       1.148  -4.218   6.003  1.00  0.00     0.163 HD
ATOM     36  O   UNL     1       1.881  -4.667   8.223  1.00  0.00    -0.269 OA
BRANCH  34  37
ATOM     37  C   UNL     1       4.007  -5.256   7.426  1.00  0.00     0.039 A 
ATOM     38  C   UNL     1       4.278  -6.203   8.423  1.00  0.00     0.014 A 
ATOM     39  C   UNL     1       5.065  -4.724   6.687  1.00  0.00     0.014 A 
ATOM     40  C   UNL     1       5.587  -6.654   8.634  1.00  0.00     0.010 A 
ATOM     41  C   UNL     1       6.360  -5.229   6.848  1.00  0.00     0.010 A 
ATOM     42  C   UNL     1       6.640  -6.195   7.826  1.00  0.00    -0.014 A 
BRANCH  42  43
ATOM     43  C   UNL     1       8.023  -6.729   7.992  1.00  0.00     0.031 A 
ATOM     44  C   UNL     1       9.164  -5.825   8.381  1.00  0.00     0.074 A 
ATOM     45  C   UNL     1       8.273  -8.027   7.723  1.00  0.00     0.049 A 
ATOM     46  N   UNL     1      10.428  -6.120   8.559  1.00  0.00    -0.248 NA
ATOM     47  C   UNL     1       8.852  -4.400   8.568  1.00  0.00     0.031 C 
ATOM     48  C   UNL     1       7.284  -8.995   7.244  1.00  0.00     0.029 A 
ATOM     49  N   UNL     1       9.440  -8.751   7.786  1.00  0.00    -0.354 N 
ATOM     50  C   UNL     1      11.066  -4.918   8.845  1.00  0.00     0.074 A 
ATOM     51  C   UNL     1      10.055  -3.884   8.777  1.00  0.00     0.031 C 
ATOM     52  C   UNL     1       7.883 -10.181   7.056  1.00  0.00     0.029 A 
ATOM     53  C   UNL     1       9.302 -10.057   7.377  1.00  0.00     0.049 A 
ATOM     54  H   UNL     1      10.293  -8.370   8.095  1.00  0.00     0.167 HD
ATOM     55  C   UNL     1      12.364  -4.692   9.166  1.00  0.00     0.034 A 
ATOM     56  C   UNL     1      10.212 -11.045   7.264  1.00  0.00     0.034 A 
ATOM     57  C   UNL     1      13.364  -5.723   9.264  1.00  0.00     0.049 A 
ATOM     58  C   UNL     1      11.634 -10.789   7.681  1.00  0.00     0.074 A 
ATOM     59  C   UNL     1      14.683  -5.609   9.669  1.00  0.00     0.029 A 
ATOM     60  N   UNL     1      13.164  -7.056   8.939  1.00  0.00    -0.354 N 
ATOM     61  N   UNL     1      12.179  -9.680   8.117  1.00  0.00    -0.248 NA
ATOM     62  C   UNL     1      12.558 -11.932   7.634  1.00  0.00     0.031 C 
ATOM     63  C   UNL     1      15.287  -6.867   9.561  1.00  0.00     0.029 A 
ATOM     64  C   UNL     1      14.335  -7.773   9.124  1.00  0.00     0.049 A 
ATOM     65  H   UNL     1      12.313  -7.438   8.622  1.00  0.00     0.167 HD
ATOM     66  C   UNL     1      13.497  -9.996   8.427  1.00  0.00     0.074 A 
ATOM     67  C   UNL     1      13.661 -11.409   8.152  1.00  0.00     0.031 C 
ATOM     68  C   UNL     1      14.483  -9.187   8.887  1.00  0.00     0.034 A 
BRANCH  55  69
ATOM     69  C   UNL     1      12.766  -3.272   9.481  1.00  0.00     0.023 A 
ATOM     70  C   UNL     1      12.289  -2.658  10.659  1.00  0.00     0.012 A 
ATOM     71  C   UNL     1      13.640  -2.557   8.639  1.00  0.00     0.148 A 
ATOM     72  C   UNL     1      12.632  -1.341  10.966  1.00  0.00     0.002 A 
ATOM     73  C   UNL     1      14.017  -1.261   8.978  1.00  0.00     0.091 A 
ATOM     74  F   UNL     1      14.072  -3.145   7.515  1.00  0.00    -0.205 F 
ATOM     75  C   UNL     1      13.502  -0.647  10.131  1.00  0.00     0.022 A 
BRANCH  73  76
ATOM     76  S   UNL     1      15.198  -0.313   8.011  1.00  0.00     0.127 S 
ATOM     77  O   UNL     1      14.329   0.667   7.362  1.00  0.00    -0.237 OA
ATOM     78  O   UNL     1      16.072   0.240   9.047  1.00  0.00    -0.237 OA
ATOM     79  O   UNL     1      15.844  -1.267   7.121  1.00  0.00    -0.744 OA
ENDBRANCH  73  76
ENDBRANCH  55  69
BRANCH  56  80
ATOM     80  C   UNL     1       9.782 -12.390   6.786  1.00  0.00     0.023 A 
ATOM     81  C   UNL     1       9.730 -13.470   7.690  1.00  0.00     0.012 A 
ATOM     82  C   UNL     1       9.381 -12.591   5.451  1.00  0.00     0.148 A 
ATOM     83  C   UNL     1       9.313 -14.732   7.265  1.00  0.00     0.002 A 
ATOM     84  C   UNL     1       8.911 -13.835   5.050  1.00  0.00     0.091 A 
ATOM     85  F   UNL     1       9.448 -11.553   4.606  1.00  0.00    -0.205 F 
ATOM     86  C   UNL     1       8.892 -14.912   5.950  1.00  0.00     0.022 A 
BRANCH  84  87
ATOM     87  S   UNL     1       8.219 -14.124   3.418  1.00  0.00     0.127 S 
ATOM     88  O   UNL     1       9.213 -15.015   2.825  1.00  0.00    -0.237 OA
ATOM     89  O   UNL     1       6.939 -14.756   3.742  1.00  0.00    -0.237 OA
ATOM     90  O   UNL     1       8.100 -12.810   2.801  1.00  0.00    -0.744 OA
ENDBRANCH  84  87
ENDBRANCH  56  80
BRANCH  68  91
ATOM     91  C   UNL     1      15.829  -9.812   9.159  1.00  0.00     0.023 A 
ATOM     92  C   UNL     1      16.639 -10.239   8.088  1.00  0.00     0.012 A 
ATOM     93  C   UNL     1      16.314  -9.926  10.478  1.00  0.00     0.148 A 
ATOM     94  C   UNL     1      17.890 -10.809   8.327  1.00  0.00     0.002 A 
ATOM     95  C   UNL     1      17.583 -10.446  10.705  1.00  0.00     0.091 A 
ATOM     96  F   UNL     1      15.523  -9.533  11.487  1.00  0.00    -0.205 F 
ATOM     97  C   UNL     1      18.366 -10.902   9.632  1.00  0.00     0.022 A 
BRANCH  95  98
ATOM     98  S   UNL     1      18.314 -10.513  12.344  1.00  0.00     0.127 S 
ATOM     99  O   UNL     1      18.227 -11.939  12.652  1.00  0.00    -0.237 OA
ATOM    100  O   UNL     1      19.672 -10.023  12.100  1.00  0.00    -0.237 OA
ATOM    101  O   UNL     1      17.501  -9.640  13.181  1.00  0.00    -0.744 OA
ENDBRANCH  95  98
ENDBRANCH  68  91
ENDBRANCH  42  43
ENDBRANCH  34  37
ENDBRANCH  32  33
ENDBRANCH  31  32
ENDBRANCH   1  31
TORSDOF 18
