REMARK SMILES CCc1cc(OC(F)(F)F)cc2c1O[C@@H](C(F)(F)F)C(C(=O)NCCCCNC(=O)c1ccc(-c3c4nc(c(-c5cccc(S(=O)(=O)[O-])c5F)c5ccc([nH]5)c(-c5cccc(S(=O)(=O)[O-])c5F)c5nc(c(-c6cccc(S(=O)(=O)[O-])c6F)c6ccc3[nH]6)C=C5)C=C4)cc1)=C2
REMARK SMILES IDX 26 1 25 2 24 3 23 4 21 5 22 6 20 8 3 9 4 10 13 11 5 12 12 13
REMARK SMILES IDX 14 14 11 15 94 16 15 17 2 18 1 19 6 20 7 21 8 22 9 23 10 24
REMARK SMILES IDX 16 25 17 26 18 27 19 28 27 29 28 30 29 31 30 33 31 34 32 35
REMARK SMILES IDX 93 36 33 37 92 38 34 39 35 40 36 41 86 42 37 43 91 44 85 45
REMARK SMILES IDX 87 46 38 47 90 48 84 49 83 50 39 52 71 53 51 54 70 55 52 56
REMARK SMILES IDX 55 57 69 58 88 59 53 60 54 61 68 63 89 64 56 65 40 66 41 67
REMARK SMILES IDX 49 68 42 69 44 70 50 71 43 72 45 73 46 74 47 75 48 76 72 77
REMARK SMILES IDX 73 78 81 79 74 80 76 81 82 82 75 83 77 84 78 85 79 86 80 87
REMARK SMILES IDX 57 88 58 89 66 90 59 91 61 92 67 93 60 94 62 95 63 96 64 97
REMARK SMILES IDX 65 98
REMARK H PARENT 23 7 28 32 87 51 55 62
REMARK Flexibility Score: inf
ROOT
ATOM      1  C   UNL     1       4.111   1.789   9.008  1.00  0.00     0.023 C 
ENDROOT
BRANCH   1   2
ATOM      2  C   UNL     1       3.416   0.936   7.942  1.00  0.00     0.023 C 
BRANCH   2   3
ATOM      3  C   UNL     1       2.111   1.543   7.412  1.00  0.00     0.116 C 
BRANCH   3   4
ATOM      4  N   UNL     1       2.413   2.586   6.450  1.00  0.00    -0.352 N 
ATOM      5  C   UNL     1       2.637   2.557   5.111  1.00  0.00     0.251 C 
ATOM      6  O   UNL     1       3.088   3.568   4.580  1.00  0.00    -0.270 OA
ATOM      7  H   UNL     1       2.467   3.487   6.843  1.00  0.00     0.163 HD
BRANCH   5   8
ATOM      8  C   UNL     1       2.293   1.389   4.256  1.00  0.00     0.067 C 
ATOM      9  C   UNL     1       0.966  -1.690   1.699  1.00  0.00    -0.002 A 
ATOM     10  C   UNL     1       1.050  -3.023   2.161  1.00  0.00     0.054 A 
ATOM     11  C   UNL     1       1.405  -0.662   2.547  1.00  0.00     0.131 A 
ATOM     12  C   UNL     1       1.586  -3.326   3.414  1.00  0.00     0.130 A 
ATOM     13  C   UNL     1       1.981  -0.961   3.782  1.00  0.00     0.021 A 
ATOM     14  O   UNL     1       1.158   0.628   2.183  1.00  0.00    -0.475 OA
ATOM     15  C   UNL     1       2.070  -2.289   4.210  1.00  0.00     0.058 A 
ATOM     16  C   UNL     1       2.399   0.117   4.666  1.00  0.00     0.025 C 
ATOM     17  C   UNL     1       1.952   1.683   2.800  1.00  0.00     0.314 C 
BRANCH   9  18
ATOM     18  C   UNL     1       0.343  -1.460   0.336  1.00  0.00     0.036 C 
ATOM     19  C   UNL     1       0.841  -0.266  -0.470  1.00  0.00     0.009 C 
ENDBRANCH   9  18
BRANCH  12  20
ATOM     20  O   UNL     1       1.684  -4.562   3.985  1.00  0.00    -0.406 OA
BRANCH  20  21
ATOM     21  C   UNL     1       1.189  -5.673   3.259  1.00  0.00     0.573 C 
ATOM     22  F   UNL     1      -0.127  -5.536   2.985  1.00  0.00    -0.132 F 
ATOM     23  F   UNL     1       1.873  -5.841   2.107  1.00  0.00    -0.132 F 
ATOM     24  F   UNL     1       1.347  -6.787   4.008  1.00  0.00    -0.132 F 
ENDBRANCH  20  21
ENDBRANCH  12  20
BRANCH  17  25
ATOM     25  C   UNL     1       1.234   3.017   2.482  1.00  0.00     0.429 C 
ATOM     26  F   UNL     1       2.084   4.060   2.364  1.00  0.00    -0.167 F 
ATOM     27  F   UNL     1       0.600   2.940   1.278  1.00  0.00    -0.167 F 
ATOM     28  F   UNL     1       0.288   3.328   3.396  1.00  0.00    -0.167 F 
ENDBRANCH  17  25
ENDBRANCH   5   8
ENDBRANCH   3   4
ENDBRANCH   2   3
ENDBRANCH   1   2
BRANCH   1  29
ATOM     29  C   UNL     1       3.299   1.998  10.281  1.00  0.00     0.116 C 
BRANCH  29  30
ATOM     30  N   UNL     1       2.876   0.748  10.892  1.00  0.00    -0.352 N 
ATOM     31  C   UNL     1       2.679   0.466  12.222  1.00  0.00     0.251 C 
ATOM     32  H   UNL     1       2.708   0.004  10.269  1.00  0.00     0.163 HD
ATOM     33  O   UNL     1       2.445  -0.679  12.576  1.00  0.00    -0.269 OA
BRANCH  31  34
ATOM     34  C   UNL     1       2.787   1.555  13.216  1.00  0.00     0.039 A 
ATOM     35  C   UNL     1       3.532   1.330  14.375  1.00  0.00     0.014 A 
ATOM     36  C   UNL     1       2.169   2.790  13.001  1.00  0.00     0.014 A 
ATOM     37  C   UNL     1       3.689   2.361  15.301  1.00  0.00     0.010 A 
ATOM     38  C   UNL     1       2.393   3.838  13.886  1.00  0.00     0.010 A 
ATOM     39  C   UNL     1       3.139   3.630  15.054  1.00  0.00    -0.014 A 
BRANCH  39  40
ATOM     40  C   UNL     1       3.331   4.740  16.018  1.00  0.00     0.031 A 
ATOM     41  C   UNL     1       2.148   5.345  16.726  1.00  0.00     0.074 A 
ATOM     42  C   UNL     1       4.566   5.242  16.214  1.00  0.00     0.049 A 
ATOM     43  N   UNL     1       2.123   6.306  17.612  1.00  0.00    -0.248 NA
ATOM     44  C   UNL     1       0.817   4.821  16.375  1.00  0.00     0.031 C 
ATOM     45  C   UNL     1       5.777   4.803  15.517  1.00  0.00     0.029 A 
ATOM     46  N   UNL     1       5.005   6.240  17.046  1.00  0.00    -0.354 N 
ATOM     47  C   UNL     1       0.781   6.522  17.900  1.00  0.00     0.074 A 
ATOM     48  C   UNL     1       0.018   5.623  17.063  1.00  0.00     0.031 C 
ATOM     49  C   UNL     1       6.823   5.518  15.962  1.00  0.00     0.029 A 
ATOM     50  C   UNL     1       6.356   6.477  16.958  1.00  0.00     0.049 A 
ATOM     51  H   UNL     1       4.408   6.739  17.650  1.00  0.00     0.167 HD
ATOM     52  C   UNL     1       0.232   7.367  18.805  1.00  0.00     0.034 A 
ATOM     53  C   UNL     1       7.131   7.364  17.610  1.00  0.00     0.034 A 
ATOM     54  C   UNL     1       0.996   8.229  19.665  1.00  0.00     0.049 A 
ATOM     55  C   UNL     1       6.504   8.252  18.651  1.00  0.00     0.074 A 
ATOM     56  C   UNL     1       0.545   9.055  20.679  1.00  0.00     0.029 A 
ATOM     57  N   UNL     1       2.373   8.384  19.607  1.00  0.00    -0.354 N 
ATOM     58  N   UNL     1       5.252   8.317  19.035  1.00  0.00    -0.248 NA
ATOM     59  C   UNL     1       7.403   9.158  19.378  1.00  0.00     0.031 C 
ATOM     60  C   UNL     1       1.647   9.728  21.218  1.00  0.00     0.029 A 
ATOM     61  C   UNL     1       2.788   9.299  20.559  1.00  0.00     0.049 A 
ATOM     62  H   UNL     1       2.968   7.912  18.980  1.00  0.00     0.167 HD
ATOM     63  C   UNL     1       5.218   9.246  20.069  1.00  0.00     0.074 A 
ATOM     64  C   UNL     1       6.581   9.694  20.270  1.00  0.00     0.031 C 
ATOM     65  C   UNL     1       4.154   9.702  20.776  1.00  0.00     0.034 A 
BRANCH  52  66
ATOM     66  C   UNL     1      -1.269   7.357  18.949  1.00  0.00     0.023 A 
ATOM     67  C   UNL     1      -1.905   6.240  19.529  1.00  0.00     0.012 A 
ATOM     68  C   UNL     1      -2.044   8.466  18.559  1.00  0.00     0.148 A 
ATOM     69  C   UNL     1      -3.290   6.209  19.683  1.00  0.00     0.002 A 
ATOM     70  C   UNL     1      -3.420   8.448  18.760  1.00  0.00     0.091 A 
ATOM     71  F   UNL     1      -1.426   9.511  17.990  1.00  0.00    -0.205 F 
ATOM     72  C   UNL     1      -4.045   7.316  19.309  1.00  0.00     0.022 A 
BRANCH  70  73
ATOM     73  S   UNL     1      -4.474   9.854  18.386  1.00  0.00     0.127 S 
ATOM     74  O   UNL     1      -5.223   9.361  17.231  1.00  0.00    -0.237 OA
ATOM     75  O   UNL     1      -5.261   9.982  19.613  1.00  0.00    -0.237 OA
ATOM     76  O   UNL     1      -3.577  10.969  18.119  1.00  0.00    -0.744 OA
ENDBRANCH  70  73
ENDBRANCH  52  66
BRANCH  53  77
ATOM     77  C   UNL     1       8.599   7.403  17.354  1.00  0.00     0.023 A 
ATOM     78  C   UNL     1       9.489   6.959  18.351  1.00  0.00     0.012 A 
ATOM     79  C   UNL     1       9.116   7.853  16.124  1.00  0.00     0.148 A 
ATOM     80  C   UNL     1      10.868   6.996  18.143  1.00  0.00     0.002 A 
ATOM     81  C   UNL     1      10.488   7.835  15.902  1.00  0.00     0.091 A 
ATOM     82  F   UNL     1       8.253   8.281  15.191  1.00  0.00    -0.205 F 
ATOM     83  C   UNL     1      11.367   7.425  16.916  1.00  0.00     0.022 A 
BRANCH  81  84
ATOM     84  S   UNL     1      11.210   8.242  14.308  1.00  0.00     0.127 S 
ATOM     85  O   UNL     1      11.860   9.519  14.592  1.00  0.00    -0.237 OA
ATOM     86  O   UNL     1      12.123   7.119  14.095  1.00  0.00    -0.237 OA
ATOM     87  O   UNL     1      10.094   8.293  13.373  1.00  0.00    -0.744 OA
ENDBRANCH  81  84
ENDBRANCH  53  77
BRANCH  65  88
ATOM     88  C   UNL     1       4.423  10.723  21.852  1.00  0.00     0.023 A 
ATOM     89  C   UNL     1       4.794  12.035  21.496  1.00  0.00     0.012 A 
ATOM     90  C   UNL     1       4.261  10.395  23.212  1.00  0.00     0.148 A 
ATOM     91  C   UNL     1       5.042  12.993  22.478  1.00  0.00     0.002 A 
ATOM     92  C   UNL     1       4.458  11.370  24.183  1.00  0.00     0.091 A 
ATOM     93  F   UNL     1       3.926   9.137  23.533  1.00  0.00    -0.205 F 
ATOM     94  C   UNL     1       4.863  12.664  23.820  1.00  0.00     0.022 A 
BRANCH  92  95
ATOM     95  S   UNL     1       4.154  11.061  25.927  1.00  0.00     0.127 S 
ATOM     96  O   UNL     1       5.514  10.954  26.451  1.00  0.00    -0.237 OA
ATOM     97  O   UNL     1       3.436  12.268  26.337  1.00  0.00    -0.237 OA
ATOM     98  O   UNL     1       3.361   9.840  25.983  1.00  0.00    -0.744 OA
ENDBRANCH  92  95
ENDBRANCH  65  88
ENDBRANCH  39  40
ENDBRANCH  31  34
ENDBRANCH  29  30
ENDBRANCH   1  29
TORSDOF 18
