REMARK SMILES Cc1cccc(-n2ncc(C(=O)Nc3cccc(C(=O)NCCCCNC(=O)c4ccc(-c5c6nc(c(-c7cccc(S(=O)(=O)[O-])c7F)c7ccc([nH]7)c(-c7cccc(S(=O)(=O)[O-])c7F)c7nc(c(-c8cccc(S(=O)(=O)[O-])c8F)c8ccc5[nH]8)C=C7)C=C6)cc4)c3C)c2C)c1
REMARK SMILES IDX 23 1 22 2 21 3 19 4 20 5 18 7 14 8 15 9 92 10 16 11 93 12
REMARK SMILES IDX 17 13 13 14 11 15 12 16 10 18 7 19 8 20 94 21 9 22 95 23
REMARK SMILES IDX 6 24 1 25 2 26 3 27 96 28 4 29 5 30 24 31 25 32 26 33 27 34
REMARK SMILES IDX 28 36 29 37 30 38 91 39 31 40 90 41 32 42 33 43 34 44 84 45
REMARK SMILES IDX 35 46 89 47 83 48 85 49 36 50 88 51 82 52 81 53 37 55 69 56
REMARK SMILES IDX 49 57 68 58 50 59 53 60 67 61 86 62 51 63 52 64 66 66 87 67
REMARK SMILES IDX 54 68 38 69 39 70 47 71 40 72 42 73 48 74 41 75 43 76 44 77
REMARK SMILES IDX 45 78 46 79 70 80 71 81 79 82 72 83 74 84 80 85 73 86 75 87
REMARK SMILES IDX 76 88 77 89 78 90 55 91 56 92 64 93 57 94 59 95 65 96 58 97
REMARK SMILES IDX 60 98 61 99 62 100 63 101
REMARK H PARENT 21 6 13 17 26 35 85 54 53 65
REMARK Flexibility Score: inf
ROOT
ATOM      1  C   UNL     1      -2.948  10.214  -5.152  1.00  0.00     0.023 C 
ENDROOT
BRANCH   1   2
ATOM      2  C   UNL     1      -1.838   9.510  -4.375  1.00  0.00     0.116 C 
BRANCH   2   3
ATOM      3  N   UNL     1      -1.754   9.890  -2.969  1.00  0.00    -0.352 N 
ATOM      4  C   UNL     1      -2.153   9.365  -1.761  1.00  0.00     0.251 C 
ATOM      5  O   UNL     1      -1.794   9.992  -0.763  1.00  0.00    -0.269 OA
ATOM      6  H   UNL     1      -1.287  10.749  -2.853  1.00  0.00     0.163 HD
BRANCH   4   7
ATOM      7  C   UNL     1      -2.972   8.116  -1.586  1.00  0.00     0.044 A 
ATOM      8  C   UNL     1      -4.238   6.557  -0.213  1.00  0.00     0.045 A 
ATOM      9  C   UNL     1      -4.353   5.675  -1.291  1.00  0.00     0.026 A 
ATOM     10  C   UNL     1      -3.689   7.851  -0.383  1.00  0.00    -0.015 A 
ATOM     11  C   UNL     1      -3.678   5.941  -2.463  1.00  0.00     0.003 A 
ATOM     12  C   UNL     1      -3.725   8.822   0.776  1.00  0.00     0.047 C 
ATOM     13  C   UNL     1      -2.913   7.099  -2.550  1.00  0.00     0.014 A 
BRANCH   8  14
ATOM     14  N   UNL     1      -4.543   6.072   1.072  1.00  0.00    -0.322 N 
ATOM     15  C   UNL     1      -4.201   4.838   1.607  1.00  0.00     0.259 C 
ATOM     16  O   UNL     1      -4.792   4.462   2.621  1.00  0.00    -0.269 OA
ATOM     17  H   UNL     1      -5.057   6.675   1.656  1.00  0.00     0.170 HD
BRANCH  15  18
ATOM     18  C   UNL     1      -3.093   4.062   1.030  1.00  0.00     0.081 A 
ATOM     19  N   UNL     1      -1.685   2.406   0.490  1.00  0.00    -0.237 N 
ATOM     20  N   UNL     1      -1.141   3.521  -0.047  1.00  0.00    -0.175 NA
ATOM     21  C   UNL     1      -2.800   2.717   1.263  1.00  0.00     0.054 A 
ATOM     22  C   UNL     1      -1.983   4.497   0.272  1.00  0.00     0.149 A 
ATOM     23  C   UNL     1      -3.417   1.801   2.260  1.00  0.00     0.068 C 
BRANCH  19  24
ATOM     24  C   UNL     1      -1.049   1.154   0.264  1.00  0.00     0.065 A 
ATOM     25  C   UNL     1       2.521  -0.102  -0.193  1.00  0.00     0.044 C 
ATOM     26  C   UNL     1       1.025  -0.078  -0.078  1.00  0.00    -0.049 A 
ATOM     27  C   UNL     1       0.299  -1.274  -0.053  1.00  0.00     0.003 A 
ATOM     28  C   UNL     1       0.339   1.136   0.048  1.00  0.00     0.031 A 
ATOM     29  C   UNL     1      -1.089  -1.257   0.095  1.00  0.00     0.002 A 
ATOM     30  C   UNL     1      -1.766  -0.046   0.258  1.00  0.00     0.028 A 
ENDBRANCH  19  24
ENDBRANCH  15  18
ENDBRANCH   8  14
ENDBRANCH   4   7
ENDBRANCH   2   3
ENDBRANCH   1   2
BRANCH   1  31
ATOM     31  C   UNL     1      -2.756  11.716  -5.344  1.00  0.00     0.023 C 
BRANCH  31  32
ATOM     32  C   UNL     1      -1.457  12.119  -6.033  1.00  0.00     0.116 C 
BRANCH  32  33
ATOM     33  N   UNL     1      -1.435  11.912  -7.471  1.00  0.00    -0.352 N 
ATOM     34  C   UNL     1      -0.407  12.123  -8.376  1.00  0.00     0.251 C 
ATOM     35  H   UNL     1      -2.273  11.573  -7.860  1.00  0.00     0.163 HD
ATOM     36  O   UNL     1      -0.674  12.089  -9.578  1.00  0.00    -0.269 OA
BRANCH  34  37
ATOM     37  C   UNL     1       1.003  12.248  -7.915  1.00  0.00     0.039 A 
ATOM     38  C   UNL     1       1.999  11.585  -8.648  1.00  0.00     0.014 A 
ATOM     39  C   UNL     1       1.322  12.813  -6.684  1.00  0.00     0.014 A 
ATOM     40  C   UNL     1       3.206  11.248  -8.035  1.00  0.00     0.010 A 
ATOM     41  C   UNL     1       2.472  12.409  -6.042  1.00  0.00     0.010 A 
ATOM     42  C   UNL     1       3.371  11.558  -6.692  1.00  0.00    -0.014 A 
BRANCH  42  43
ATOM     43  C   UNL     1       4.372  10.974  -5.819  1.00  0.00     0.031 A 
ATOM     44  C   UNL     1       5.588  11.717  -5.459  1.00  0.00     0.074 A 
ATOM     45  C   UNL     1       4.022   9.871  -5.115  1.00  0.00     0.049 A 
ATOM     46  N   UNL     1       6.548  11.191  -4.780  1.00  0.00    -0.248 NA
ATOM     47  C   UNL     1       5.843  13.102  -5.847  1.00  0.00     0.031 C 
ATOM     48  C   UNL     1       4.585   9.400  -3.854  1.00  0.00     0.029 A 
ATOM     49  N   UNL     1       3.207   8.815  -5.534  1.00  0.00    -0.354 N 
ATOM     50  C   UNL     1       7.311  12.231  -4.319  1.00  0.00     0.074 A 
ATOM     51  C   UNL     1       6.956  13.356  -5.147  1.00  0.00     0.031 C 
ATOM     52  C   UNL     1       4.349   8.085  -3.741  1.00  0.00     0.029 A 
ATOM     53  C   UNL     1       3.794   7.647  -5.008  1.00  0.00     0.049 A 
ATOM     54  H   UNL     1       2.391   8.875  -6.082  1.00  0.00     0.167 HD
ATOM     55  C   UNL     1       8.023  12.053  -3.175  1.00  0.00     0.034 A 
ATOM     56  C   UNL     1       4.294   6.644  -5.789  1.00  0.00     0.034 A 
ATOM     57  C   UNL     1       8.097  10.637  -2.784  1.00  0.00     0.049 A 
ATOM     58  C   UNL     1       5.782   6.385  -5.567  1.00  0.00     0.074 A 
ATOM     59  C   UNL     1       7.667   9.869  -1.718  1.00  0.00     0.029 A 
ATOM     60  N   UNL     1       8.564   9.737  -3.727  1.00  0.00    -0.354 N 
ATOM     61  N   UNL     1       6.508   6.914  -4.619  1.00  0.00    -0.248 NA
ATOM     62  C   UNL     1       6.590   5.575  -6.482  1.00  0.00     0.031 C 
ATOM     63  C   UNL     1       7.843   8.489  -2.066  1.00  0.00     0.029 A 
ATOM     64  C   UNL     1       8.428   8.425  -3.318  1.00  0.00     0.049 A 
ATOM     65  H   UNL     1       8.951  10.002  -4.593  1.00  0.00     0.167 HD
ATOM     66  C   UNL     1       7.840   6.723  -4.901  1.00  0.00     0.074 A 
ATOM     67  C   UNL     1       7.835   5.827  -6.045  1.00  0.00     0.031 C 
ATOM     68  C   UNL     1       8.850   7.385  -4.250  1.00  0.00     0.034 A 
BRANCH  55  69
ATOM     69  C   UNL     1       8.584  13.177  -2.336  1.00  0.00     0.023 A 
ATOM     70  C   UNL     1       9.537  12.842  -1.351  1.00  0.00     0.012 A 
ATOM     71  C   UNL     1       8.179  14.534  -2.385  1.00  0.00     0.148 A 
ATOM     72  C   UNL     1      10.067  13.796  -0.474  1.00  0.00     0.002 A 
ATOM     73  C   UNL     1       8.774  15.500  -1.570  1.00  0.00     0.091 A 
ATOM     74  F   UNL     1       7.135  14.898  -3.138  1.00  0.00    -0.205 F 
ATOM     75  C   UNL     1       9.708  15.131  -0.601  1.00  0.00     0.022 A 
BRANCH  73  76
ATOM     76  S   UNL     1       8.409  17.253  -1.765  1.00  0.00     0.127 S 
ATOM     77  O   UNL     1       7.457  17.495  -0.682  1.00  0.00    -0.237 OA
ATOM     78  O   UNL     1       9.718  17.879  -1.573  1.00  0.00    -0.237 OA
ATOM     79  O   UNL     1       7.877  17.396  -3.116  1.00  0.00    -0.744 OA
ENDBRANCH  73  76
ENDBRANCH  55  69
BRANCH  56  80
ATOM     80  C   UNL     1       3.569   6.513  -7.091  1.00  0.00     0.023 A 
ATOM     81  C   UNL     1       2.199   6.161  -7.023  1.00  0.00     0.012 A 
ATOM     82  C   UNL     1       4.058   7.101  -8.271  1.00  0.00     0.148 A 
ATOM     83  C   UNL     1       1.315   6.513  -8.045  1.00  0.00     0.002 A 
ATOM     84  C   UNL     1       3.171   7.438  -9.292  1.00  0.00     0.091 A 
ATOM     85  F   UNL     1       5.359   7.407  -8.346  1.00  0.00    -0.205 F 
ATOM     86  C   UNL     1       1.797   7.183  -9.164  1.00  0.00     0.022 A 
BRANCH  84  87
ATOM     87  S   UNL     1       3.725   8.329 -10.752  1.00  0.00     0.127 S 
ATOM     88  O   UNL     1       3.939   7.236 -11.695  1.00  0.00    -0.237 OA
ATOM     89  O   UNL     1       2.579   9.187 -11.050  1.00  0.00    -0.237 OA
ATOM     90  O   UNL     1       4.911   9.052 -10.318  1.00  0.00    -0.744 OA
ENDBRANCH  84  87
ENDBRANCH  56  80
BRANCH  68  91
ATOM     91  C   UNL     1      10.336   7.165  -4.520  1.00  0.00     0.023 A 
ATOM     92  C   UNL     1      10.824   5.896  -4.892  1.00  0.00     0.012 A 
ATOM     93  C   UNL     1      11.315   8.174  -4.300  1.00  0.00     0.148 A 
ATOM     94  C   UNL     1      12.185   5.663  -5.130  1.00  0.00     0.002 A 
ATOM     95  C   UNL     1      12.674   7.925  -4.478  1.00  0.00     0.091 A 
ATOM     96  F   UNL     1      10.942   9.395  -3.908  1.00  0.00    -0.205 F 
ATOM     97  C   UNL     1      13.111   6.677  -4.924  1.00  0.00     0.022 A 
BRANCH  95  98
ATOM     98  S   UNL     1      13.944   9.144  -4.094  1.00  0.00     0.127 S 
ATOM     99  O   UNL     1      14.648   8.494  -2.988  1.00  0.00    -0.237 OA
ATOM    100  O   UNL     1      14.697   9.199  -5.347  1.00  0.00    -0.237 OA
ATOM    101  O   UNL     1      13.246  10.372  -3.743  1.00  0.00    -0.744 OA
ENDBRANCH  95  98
ENDBRANCH  68  91
ENDBRANCH  42  43
ENDBRANCH  34  37
ENDBRANCH  32  33
ENDBRANCH  31  32
ENDBRANCH   1  31
TORSDOF 17
