REMARK SMILES O=C(NCCCCNC(=O)c1cncc(Oc2cc(F)ccc2F)n1)c1ccc(-c2c3nc(c(-c4cccc(S(=O)(=O)[O-])c4F)c4ccc([nH]4)c(-c4cccc(S(=O)(=O)[O-])c4F)c4nc(c(-c5cccc(S(=O)(=O)[O-])c5F)c5ccc2[nH]5)C=C4)C=C3)cc1
REMARK SMILES IDX 5 1 4 2 3 3 1 4 2 5 26 7 27 8 88 9 28 10 87 11 29 12 30 13
REMARK SMILES IDX 31 14 81 15 32 16 86 17 80 18 82 19 33 20 85 21 79 22 78 23
REMARK SMILES IDX 34 25 66 26 46 27 65 28 47 29 50 30 64 31 83 32 48 33 49 34
REMARK SMILES IDX 63 36 84 37 51 38 35 39 36 40 44 41 37 42 39 43 45 44 38 45
REMARK SMILES IDX 40 46 41 47 42 48 43 49 67 50 68 51 76 52 69 53 71 54 77 55
REMARK SMILES IDX 70 56 72 57 73 58 74 59 75 60 52 61 53 62 61 63 54 64 56 65
REMARK SMILES IDX 62 66 55 67 57 68 58 69 59 70 60 71 6 72 7 73 8 74 9 75
REMARK SMILES IDX 10 77 11 78 12 79 25 80 13 81 15 82 14 83 16 84 17 85 18 86
REMARK SMILES IDX 23 87 19 88 22 89 24 90 20 91 21 92
REMARK H PARENT 3 6 82 24 50 35 8 76
REMARK Flexibility Score: inf
ROOT
ATOM      1  C   UNL     1       4.946   2.803  -0.243  1.00  0.00     0.023 C 
ENDROOT
BRANCH   1   2
ATOM      2  C   UNL     1       4.592   1.434   0.324  1.00  0.00     0.116 C 
BRANCH   2   3
ATOM      3  N   UNL     1       3.159   1.207   0.402  1.00  0.00    -0.352 N 
ATOM      4  O   UNL     1       1.202   0.183  -0.038  1.00  0.00    -0.269 OA
ATOM      5  C   UNL     1       2.429   0.137  -0.060  1.00  0.00     0.251 C 
ATOM      6  H   UNL     1       2.639   1.916   0.846  1.00  0.00     0.163 HD
BRANCH   5   7
ATOM      7  C   UNL     1       3.127  -1.048  -0.607  1.00  0.00     0.039 A 
ATOM      8  C   UNL     1       4.221  -1.602   0.064  1.00  0.00     0.014 A 
ATOM      9  C   UNL     1       2.677  -1.616  -1.802  1.00  0.00     0.014 A 
ATOM     10  C   UNL     1       4.939  -2.639  -0.521  1.00  0.00     0.010 A 
ATOM     11  C   UNL     1       3.354  -2.711  -2.349  1.00  0.00     0.010 A 
ATOM     12  C   UNL     1       4.503  -3.217  -1.725  1.00  0.00    -0.014 A 
BRANCH  12  13
ATOM     13  C   UNL     1       5.197  -4.423  -2.243  1.00  0.00     0.031 A 
ATOM     14  C   UNL     1       5.939  -4.408  -3.551  1.00  0.00     0.074 A 
ATOM     15  C   UNL     1       5.133  -5.554  -1.513  1.00  0.00     0.049 A 
ATOM     16  N   UNL     1       6.613  -5.375  -4.118  1.00  0.00    -0.248 NA
ATOM     17  C   UNL     1       5.919  -3.158  -4.327  1.00  0.00     0.031 C 
ATOM     18  C   UNL     1       4.389  -5.701  -0.258  1.00  0.00     0.029 A 
ATOM     19  N   UNL     1       5.685  -6.792  -1.716  1.00  0.00    -0.354 N 
ATOM     20  C   UNL     1       7.064  -4.870  -5.331  1.00  0.00     0.074 A 
ATOM     21  C   UNL     1       6.590  -3.505  -5.420  1.00  0.00     0.031 C 
ATOM     22  C   UNL     1       4.542  -6.950   0.202  1.00  0.00     0.029 A 
ATOM     23  C   UNL     1       5.353  -7.707  -0.744  1.00  0.00     0.049 A 
ATOM     24  H   UNL     1       6.263  -7.006  -2.484  1.00  0.00     0.167 HD
ATOM     25  C   UNL     1       7.817  -5.486  -6.274  1.00  0.00     0.034 A 
ATOM     26  C   UNL     1       5.649  -9.015  -0.632  1.00  0.00     0.034 A 
ATOM     27  C   UNL     1       8.324  -6.829  -6.156  1.00  0.00     0.049 A 
ATOM     28  C   UNL     1       6.511  -9.655  -1.680  1.00  0.00     0.074 A 
ATOM     29  C   UNL     1       9.182  -7.501  -7.011  1.00  0.00     0.029 A 
ATOM     30  N   UNL     1       8.010  -7.709  -5.133  1.00  0.00    -0.354 N 
ATOM     31  N   UNL     1       7.071  -9.108  -2.732  1.00  0.00    -0.248 NA
ATOM     32  C   UNL     1       6.803 -11.085  -1.516  1.00  0.00     0.031 C 
ATOM     33  C   UNL     1       9.369  -8.795  -6.515  1.00  0.00     0.029 A 
ATOM     34  C   UNL     1       8.638  -8.925  -5.346  1.00  0.00     0.049 A 
ATOM     35  H   UNL     1       7.427  -7.501  -4.368  1.00  0.00     0.167 HD
ATOM     36  C   UNL     1       7.791 -10.122  -3.348  1.00  0.00     0.074 A 
ATOM     37  C   UNL     1       7.629 -11.307  -2.530  1.00  0.00     0.031 C 
ATOM     38  C   UNL     1       8.500 -10.084  -4.502  1.00  0.00     0.034 A 
BRANCH  25  39
ATOM     39  C   UNL     1       8.193  -4.711  -7.510  1.00  0.00     0.023 A 
ATOM     40  C   UNL     1       9.225  -3.756  -7.440  1.00  0.00     0.012 A 
ATOM     41  C   UNL     1       7.614  -5.017  -8.758  1.00  0.00     0.148 A 
ATOM     42  C   UNL     1       9.670  -3.107  -8.592  1.00  0.00     0.002 A 
ATOM     43  C   UNL     1       8.085  -4.391  -9.907  1.00  0.00     0.091 A 
ATOM     44  F   UNL     1       6.622  -5.918  -8.799  1.00  0.00    -0.205 F 
ATOM     45  C   UNL     1       9.110  -3.433  -9.825  1.00  0.00     0.022 A 
BRANCH  43  46
ATOM     46  S   UNL     1       7.480  -4.789 -11.551  1.00  0.00     0.127 S 
ATOM     47  O   UNL     1       6.773  -3.560 -11.910  1.00  0.00    -0.237 OA
ATOM     48  O   UNL     1       8.722  -5.015 -12.290  1.00  0.00    -0.237 OA
ATOM     49  O   UNL     1       6.639  -5.968 -11.397  1.00  0.00    -0.744 OA
ENDBRANCH  43  46
ENDBRANCH  25  39
BRANCH  26  50
ATOM     50  C   UNL     1       5.146  -9.790   0.536  1.00  0.00     0.023 A 
ATOM     51  C   UNL     1       6.053 -10.242   1.513  1.00  0.00     0.012 A 
ATOM     52  C   UNL     1       3.771 -10.040   0.708  1.00  0.00     0.148 A 
ATOM     53  C   UNL     1       5.601 -10.951   2.626  1.00  0.00     0.002 A 
ATOM     54  C   UNL     1       3.322 -10.693   1.849  1.00  0.00     0.091 A 
ATOM     55  F   UNL     1       2.921  -9.624  -0.243  1.00  0.00    -0.205 F 
ATOM     56  C   UNL     1       4.236 -11.165   2.802  1.00  0.00     0.022 A 
BRANCH  54  57
ATOM     57  S   UNL     1       1.569 -10.856   2.204  1.00  0.00     0.127 S 
ATOM     58  O   UNL     1       1.282 -12.195   1.699  1.00  0.00    -0.237 OA
ATOM     59  O   UNL     1       1.530 -10.726   3.662  1.00  0.00    -0.237 OA
ATOM     60  O   UNL     1       0.938  -9.749   1.497  1.00  0.00    -0.744 OA
ENDBRANCH  54  57
ENDBRANCH  26  50
BRANCH  38  61
ATOM     61  C   UNL     1       9.152 -11.363  -4.952  1.00  0.00     0.023 A 
ATOM     62  C   UNL     1       8.354 -12.391  -5.491  1.00  0.00     0.012 A 
ATOM     63  C   UNL     1      10.549 -11.527  -4.895  1.00  0.00     0.148 A 
ATOM     64  C   UNL     1       8.933 -13.577  -5.939  1.00  0.00     0.002 A 
ATOM     65  C   UNL     1      11.124 -12.695  -5.384  1.00  0.00     0.091 A 
ATOM     66  F   UNL     1      11.289 -10.546  -4.359  1.00  0.00    -0.205 F 
ATOM     67  C   UNL     1      10.317 -13.724  -5.896  1.00  0.00     0.022 A 
BRANCH  65  68
ATOM     68  S   UNL     1      12.903 -12.934  -5.445  1.00  0.00     0.127 S 
ATOM     69  O   UNL     1      13.119 -13.855  -4.331  1.00  0.00    -0.237 OA
ATOM     70  O   UNL     1      13.094 -13.524  -6.771  1.00  0.00    -0.237 OA
ATOM     71  O   UNL     1      13.488 -11.609  -5.288  1.00  0.00    -0.744 OA
ENDBRANCH  65  68
ENDBRANCH  38  61
ENDBRANCH  12  13
ENDBRANCH   5   7
ENDBRANCH   2   3
ENDBRANCH   1   2
BRANCH   1  72
ATOM     72  C   UNL     1       4.447   3.999   0.568  1.00  0.00     0.023 C 
BRANCH  72  73
ATOM     73  C   UNL     1       4.823   3.986   2.047  1.00  0.00     0.116 C 
BRANCH  73  74
ATOM     74  N   UNL     1       6.261   3.981   2.259  1.00  0.00    -0.351 N 
ATOM     75  C   UNL     1       7.034   4.891   2.944  1.00  0.00     0.271 C 
ATOM     76  H   UNL     1       6.748   3.224   1.859  1.00  0.00     0.163 HD
ATOM     77  O   UNL     1       8.254   4.764   2.986  1.00  0.00    -0.267 OA
BRANCH  75  78
ATOM     78  C   UNL     1       6.379   6.011   3.650  1.00  0.00     0.150 A 
ATOM     79  C   UNL     1       5.559   5.749   4.740  1.00  0.00     0.145 A 
ATOM     80  N   UNL     1       6.581   7.260   3.158  1.00  0.00    -0.205 NA
ATOM     81  N   UNL     1       4.865   6.727   5.373  1.00  0.00    -0.257 NA
ATOM     82  C   UNL     1       5.912   8.239   3.808  1.00  0.00     0.238 A 
ATOM     83  C   UNL     1       5.061   7.975   4.877  1.00  0.00     0.179 A 
BRANCH  82  84
ATOM     84  O   UNL     1       6.009   9.560   3.391  1.00  0.00    -0.434 OA
BRANCH  84  85
ATOM     85  C   UNL     1       7.109   9.881   2.636  1.00  0.00     0.168 A 
ATOM     86  C   UNL     1       7.184   9.544   1.285  1.00  0.00     0.089 A 
ATOM     87  C   UNL     1       8.119  10.648   3.220  1.00  0.00     0.166 A 
ATOM     88  C   UNL     1       8.292   9.950   0.549  1.00  0.00     0.127 A 
ATOM     89  C   UNL     1       9.224  11.056   2.477  1.00  0.00     0.046 A 
ATOM     90  F   UNL     1       8.029  11.011   4.508  1.00  0.00    -0.203 F 
ATOM     91  F   UNL     1       8.377   9.625  -0.748  1.00  0.00    -0.207 F 
ATOM     92  C   UNL     1       9.312  10.701   1.131  1.00  0.00     0.042 A 
ENDBRANCH  84  85
ENDBRANCH  82  84
ENDBRANCH  75  78
ENDBRANCH  73  74
ENDBRANCH  72  73
ENDBRANCH   1  72
TORSDOF 16
