REMARK SMILES Cc1nc(C)n(CC[C@H]2CCC[C@@]2([NH2+]C(C)C)C(=O)NCCCCNC(=O)c2ccc(-c3c4nc(c(-c5cccc(S(=O)(=O)[O-])c5F)c5ccc([nH]5)c(-c5cccc(S(=O)(=O)[O-])c5F)c5nc(c(-c6cccc(S(=O)(=O)[O-])c6F)c6ccc3[nH]6)C=C5)C=C4)cc2)n1
REMARK SMILES IDX 22 1 21 2 20 3 18 4 19 5 13 7 9 8 10 9 11 10 12 11 8 12 7 13
REMARK SMILES IDX 6 14 1 15 2 16 3 17 91 18 4 19 5 20 14 21 15 24 16 25 17 26
REMARK SMILES IDX 23 27 24 28 25 29 26 30 27 32 28 33 29 34 90 35 30 36 89 37
REMARK SMILES IDX 31 38 32 39 33 40 83 41 34 42 88 43 82 44 84 45 35 46 87 47
REMARK SMILES IDX 81 48 80 49 36 51 68 52 48 53 67 54 49 55 52 56 66 57 85 58
REMARK SMILES IDX 50 59 51 60 65 62 86 63 53 64 37 65 38 66 46 67 39 68 41 69
REMARK SMILES IDX 47 70 40 71 42 72 43 73 44 74 45 75 69 76 70 77 78 78 71 79
REMARK SMILES IDX 73 80 79 81 72 82 74 83 75 84 76 85 77 86 54 87 55 88 63 89
REMARK SMILES IDX 56 90 58 91 64 92 57 93 59 94 60 95 61 96 62 97
REMARK H PARENT 20 6 14 22 14 23 25 31 84 50 52 61
REMARK Flexibility Score: inf
ROOT
ATOM      1  C   UNL     1       4.033   9.445  -2.306  1.00  0.00     0.023 C 
ENDROOT
BRANCH   1   2
ATOM      2  C   UNL     1       3.004   8.325  -2.587  1.00  0.00     0.116 C 
BRANCH   2   3
ATOM      3  N   UNL     1       1.806   8.711  -3.322  1.00  0.00    -0.351 N 
ATOM      4  C   UNL     1       0.897   8.021  -4.091  1.00  0.00     0.281 C 
ATOM      5  O   UNL     1      -0.042   8.706  -4.519  1.00  0.00    -0.268 OA
ATOM      6  H   UNL     1       1.604   9.672  -3.253  1.00  0.00     0.163 HD
BRANCH   4   7
ATOM      7  C   UNL     1       0.990   6.481  -4.480  1.00  0.00     0.178 C 
ATOM      8  C   UNL     1       0.336   5.448  -3.473  1.00  0.00     0.062 C 
ATOM      9  C   UNL     1       0.295   4.166  -4.340  1.00  0.00     0.011 C 
ATOM     10  C   UNL     1      -0.247   4.664  -5.674  1.00  0.00     0.008 C 
ATOM     11  C   UNL     1       0.102   6.160  -5.728  1.00  0.00     0.079 C 
BRANCH   8  12
ATOM     12  C   UNL     1      -1.139   5.719  -3.030  1.00  0.00     0.034 C 
BRANCH  12  13
ATOM     13  C   UNL     1      -1.354   5.728  -1.517  1.00  0.00     0.147 C 
BRANCH  13  14
ATOM     14  N   UNL     1      -0.909   6.977  -0.957  1.00  0.00    -0.250 N 
ATOM     15  C   UNL     1      -1.254  10.461  -0.764  1.00  0.00     0.092 C 
ATOM     16  C   UNL     1      -0.846   9.043  -0.777  1.00  0.00     0.147 A 
ATOM     17  N   UNL     1       0.401   8.610  -0.405  1.00  0.00    -0.217 NA
ATOM     18  N   UNL     1      -1.677   8.059  -1.100  1.00  0.00    -0.156 NA
ATOM     19  C   UNL     1       0.318   7.294  -0.458  1.00  0.00     0.124 A 
ATOM     20  C   UNL     1       1.368   6.306  -0.103  1.00  0.00     0.089 C 
ENDBRANCH  13  14
ENDBRANCH  12  13
ENDBRANCH   8  12
BRANCH   7  21
ATOM     21  N   UNL     1       2.427   6.125  -4.650  1.00  0.00    -0.331 N 
ATOM     22  H   UNL     1       2.521   5.142  -4.394  1.00  0.00     0.347 HD
ATOM     23  H   UNL     1       2.911   6.806  -4.066  1.00  0.00     0.347 HD
BRANCH  21  24
ATOM     24  C   UNL     1       3.060   6.284  -5.953  1.00  0.00     0.176 C 
ATOM     25  C   UNL     1       4.486   6.795  -5.733  1.00  0.00     0.075 C 
ATOM     26  C   UNL     1       3.134   4.941  -6.686  1.00  0.00     0.075 C 
ENDBRANCH  21  24
ENDBRANCH   7  21
ENDBRANCH   4   7
ENDBRANCH   2   3
ENDBRANCH   1   2
BRANCH   1  27
ATOM     27  C   UNL     1       3.656  10.600  -1.356  1.00  0.00     0.023 C 
BRANCH  27  28
ATOM     28  C   UNL     1       3.152  10.213   0.033  1.00  0.00     0.116 C 
BRANCH  28  29
ATOM     29  N   UNL     1       4.152   9.882   1.047  1.00  0.00    -0.352 N 
ATOM     30  C   UNL     1       3.963   9.787   2.429  1.00  0.00     0.251 C 
ATOM     31  H   UNL     1       5.064   9.707   0.719  1.00  0.00     0.163 HD
ATOM     32  O   UNL     1       4.916   9.619   3.171  1.00  0.00    -0.269 OA
BRANCH  30  33
ATOM     33  C   UNL     1       2.588   9.882   2.997  1.00  0.00     0.039 A 
ATOM     34  C   UNL     1       2.296  10.606   4.153  1.00  0.00     0.014 A 
ATOM     35  C   UNL     1       1.556   9.227   2.349  1.00  0.00     0.014 A 
ATOM     36  C   UNL     1       0.955  10.767   4.543  1.00  0.00     0.010 A 
ATOM     37  C   UNL     1       0.234   9.467   2.661  1.00  0.00     0.010 A 
ATOM     38  C   UNL     1      -0.088  10.233   3.763  1.00  0.00    -0.014 A 
BRANCH  38  39
ATOM     39  C   UNL     1      -1.490  10.612   3.986  1.00  0.00     0.031 A 
ATOM     40  C   UNL     1      -1.705  12.078   4.142  1.00  0.00     0.074 A 
ATOM     41  C   UNL     1      -2.570   9.803   3.864  1.00  0.00     0.049 A 
ATOM     42  N   UNL     1      -1.984  12.706   5.235  1.00  0.00    -0.248 NA
ATOM     43  C   UNL     1      -1.443  12.963   2.997  1.00  0.00     0.031 C 
ATOM     44  C   UNL     1      -2.626   8.415   3.392  1.00  0.00     0.029 A 
ATOM     45  N   UNL     1      -3.893  10.108   4.035  1.00  0.00    -0.354 N 
ATOM     46  C   UNL     1      -2.179  14.036   4.872  1.00  0.00     0.074 A 
ATOM     47  C   UNL     1      -1.643  14.166   3.542  1.00  0.00     0.031 C 
ATOM     48  C   UNL     1      -3.902   8.090   3.082  1.00  0.00     0.029 A 
ATOM     49  C   UNL     1      -4.774   9.170   3.499  1.00  0.00     0.049 A 
ATOM     50  H   UNL     1      -4.197  10.922   4.497  1.00  0.00     0.167 HD
ATOM     51  C   UNL     1      -2.985  14.851   5.609  1.00  0.00     0.034 A 
ATOM     52  C   UNL     1      -6.122   9.278   3.387  1.00  0.00     0.034 A 
ATOM     53  C   UNL     1      -3.301  14.255   6.888  1.00  0.00     0.049 A 
ATOM     54  C   UNL     1      -6.563  10.278   4.383  1.00  0.00     0.074 A 
ATOM     55  C   UNL     1      -2.569  13.763   7.951  1.00  0.00     0.029 A 
ATOM     56  N   UNL     1      -4.564  13.734   7.035  1.00  0.00    -0.354 N 
ATOM     57  N   UNL     1      -6.502  10.085   5.670  1.00  0.00    -0.248 NA
ATOM     58  C   UNL     1      -6.697  11.660   3.960  1.00  0.00     0.031 C 
ATOM     59  C   UNL     1      -3.280  12.599   8.376  1.00  0.00     0.029 A 
ATOM     60  C   UNL     1      -4.434  12.494   7.599  1.00  0.00     0.049 A 
ATOM     61  H   UNL     1      -5.409  14.173   6.781  1.00  0.00     0.167 HD
ATOM     62  C   UNL     1      -6.091  11.311   6.174  1.00  0.00     0.074 A 
ATOM     63  C   UNL     1      -6.354  12.267   5.099  1.00  0.00     0.031 C 
ATOM     64  C   UNL     1      -5.309  11.384   7.293  1.00  0.00     0.034 A 
BRANCH  51  65
ATOM     65  C   UNL     1      -3.815  15.997   5.068  1.00  0.00     0.023 A 
ATOM     66  C   UNL     1      -4.507  16.789   6.017  1.00  0.00     0.012 A 
ATOM     67  C   UNL     1      -4.187  16.157   3.715  1.00  0.00     0.148 A 
ATOM     68  C   UNL     1      -5.568  17.622   5.651  1.00  0.00     0.002 A 
ATOM     69  C   UNL     1      -5.193  17.046   3.346  1.00  0.00     0.091 A 
ATOM     70  F   UNL     1      -3.668  15.363   2.776  1.00  0.00    -0.205 F 
ATOM     71  C   UNL     1      -5.912  17.752   4.313  1.00  0.00     0.022 A 
BRANCH  69  72
ATOM     72  S   UNL     1      -5.652  17.292   1.625  1.00  0.00     0.127 S 
ATOM     73  O   UNL     1      -6.936  16.601   1.566  1.00  0.00    -0.237 OA
ATOM     74  O   UNL     1      -5.728  18.751   1.544  1.00  0.00    -0.237 OA
ATOM     75  O   UNL     1      -4.570  16.706   0.845  1.00  0.00    -0.744 OA
ENDBRANCH  69  72
ENDBRANCH  51  65
BRANCH  52  76
ATOM     76  C   UNL     1      -7.058   8.731   2.376  1.00  0.00     0.023 A 
ATOM     77  C   UNL     1      -8.438   8.661   2.666  1.00  0.00     0.012 A 
ATOM     78  C   UNL     1      -6.652   8.568   1.034  1.00  0.00     0.148 A 
ATOM     79  C   UNL     1      -9.383   8.486   1.648  1.00  0.00     0.002 A 
ATOM     80  C   UNL     1      -7.597   8.388   0.026  1.00  0.00     0.091 A 
ATOM     81  F   UNL     1      -5.352   8.686   0.736  1.00  0.00    -0.205 F 
ATOM     82  C   UNL     1      -8.964   8.363   0.327  1.00  0.00     0.022 A 
BRANCH  80  83
ATOM     83  S   UNL     1      -7.136   8.242  -1.706  1.00  0.00     0.127 S 
ATOM     84  O   UNL     1      -7.964   7.119  -2.148  1.00  0.00    -0.237 OA
ATOM     85  O   UNL     1      -7.538   9.542  -2.235  1.00  0.00    -0.237 OA
ATOM     86  O   UNL     1      -5.708   7.961  -1.709  1.00  0.00    -0.744 OA
ENDBRANCH  80  83
ENDBRANCH  52  76
BRANCH  64  87
ATOM     87  C   UNL     1      -5.139  10.135   8.126  1.00  0.00     0.023 A 
ATOM     88  C   UNL     1      -4.601   8.939   7.604  1.00  0.00     0.012 A 
ATOM     89  C   UNL     1      -5.407  10.206   9.503  1.00  0.00     0.148 A 
ATOM     90  C   UNL     1      -4.377   7.831   8.425  1.00  0.00     0.002 A 
ATOM     91  C   UNL     1      -5.139   9.118  10.326  1.00  0.00     0.091 A 
ATOM     92  F   UNL     1      -5.913  11.348   9.994  1.00  0.00    -0.205 F 
ATOM     93  C   UNL     1      -4.636   7.924   9.789  1.00  0.00     0.022 A 
BRANCH  91  94
ATOM     94  S   UNL     1      -5.345   9.221  12.105  1.00  0.00     0.127 S 
ATOM     95  O   UNL     1      -6.616   8.530  12.307  1.00  0.00    -0.237 OA
ATOM     96  O   UNL     1      -4.172   8.501  12.604  1.00  0.00    -0.237 OA
ATOM     97  O   UNL     1      -5.343  10.645  12.423  1.00  0.00    -0.744 OA
ENDBRANCH  91  94
ENDBRANCH  64  87
ENDBRANCH  38  39
ENDBRANCH  30  33
ENDBRANCH  28  29
ENDBRANCH  27  28
ENDBRANCH   1  27
TORSDOF 19
