REMARK SMILES O=C(C[C@H]1C[N@@H+]([C@@H]2CC(=O)NC2=O)CCO1)NCCCCNC(=O)c1ccc(-c2c3nc(c(-c4cccc(S(=O)(=O)[O-])c4F)c4ccc([nH]4)c(-c4cccc(S(=O)(=O)[O-])c4F)c4nc(c(-c5cccc(S(=O)(=O)[O-])c5F)c5ccc2[nH]5)C=C4)C=C3)cc1
REMARK SMILES IDX 20 1 19 2 18 3 17 4 1 5 2 6 3 8 4 9 5 10 16 11 6 12 15 13
REMARK SMILES IDX 14 14 7 16 8 17 12 18 9 19 11 20 13 21 10 22 21 24 22 25
REMARK SMILES IDX 23 26 24 28 25 29 26 30 87 31 27 32 86 33 28 34 29 35 30 36
REMARK SMILES IDX 80 37 31 38 85 39 79 40 81 41 32 42 84 43 78 44 77 45 33 47
REMARK SMILES IDX 65 48 45 49 64 50 46 51 49 52 63 53 82 54 47 55 48 56 62 58
REMARK SMILES IDX 83 59 50 60 34 61 35 62 43 63 36 64 38 65 44 66 37 67 39 68
REMARK SMILES IDX 40 69 41 70 42 71 66 72 67 73 75 74 68 75 70 76 76 77 69 78
REMARK SMILES IDX 71 79 72 80 73 81 74 82 51 83 52 84 60 85 53 86 55 87 61 88
REMARK SMILES IDX 54 89 56 90 57 91 58 92 59 93
REMARK H PARENT 17 7 6 15 11 23 22 27 81 46 49 57
REMARK Flexibility Score: inf
ROOT
ATOM      1  C   UNL     1       8.412   4.826   2.106  1.00  0.00     0.023 C 
ENDROOT
BRANCH   1   2
ATOM      2  C   UNL     1       9.309   3.658   1.686  1.00  0.00     0.023 C 
BRANCH   2   3
ATOM      3  C   UNL     1       8.612   2.293   1.573  1.00  0.00     0.116 C 
BRANCH   3   4
ATOM      4  N   UNL     1       7.491   2.289   0.320  1.00  0.00    -0.356 N 
ATOM      5  O   UNL     1       5.762  -0.065  -0.169  1.00  0.00    -0.275 OA
ATOM      6  C   UNL     1       6.036   1.157  -0.434  1.00  0.00     0.222 C 
ATOM      7  H   UNL     1       7.583   3.112  -0.212  1.00  0.00     0.163 HD
BRANCH   6   8
ATOM      8  C   UNL     1       4.851   1.516  -1.535  1.00  0.00     0.138 C 
BRANCH   8   9
ATOM      9  C   UNL     1       3.494   1.804  -0.853  1.00  0.00     0.182 C 
ATOM     10  C   UNL     1       3.501   1.562   0.662  1.00  0.00     0.295 C 
ATOM     11  O   UNL     1       2.961   3.100  -1.178  1.00  0.00    -0.366 OA
ATOM     12  N   UNL     1       4.332   2.558   1.336  1.00  0.00    -0.320 N 
ATOM     13  C   UNL     1       3.414   4.199  -0.376  1.00  0.00     0.222 C 
ATOM     14  C   UNL     1       3.694   3.872   1.101  1.00  0.00     0.291 C 
ATOM     15  H   UNL     1       4.376   2.313   2.325  1.00  0.00     0.348 HD
BRANCH  12  16
ATOM     16  C   UNL     1       5.751   2.581   0.927  1.00  0.00     0.284 C 
ATOM     17  C   UNL     1       6.406   3.114  -0.939  1.00  0.00     0.176 C 
ATOM     18  C   UNL     1       6.760   0.860   1.411  1.00  0.00     0.285 C 
ATOM     19  C   UNL     1       7.697   1.618  -1.487  1.00  0.00     0.233 C 
ATOM     20  N   UNL     1       7.827   0.497  -0.062  1.00  0.00    -0.291 N 
ATOM     21  O   UNL     1       6.736   0.189   2.433  1.00  0.00    -0.268 OA
ATOM     22  O   UNL     1       8.346   1.520  -2.513  1.00  0.00    -0.274 OA
ATOM     23  H   UNL     1       8.439  -0.274  -0.072  1.00  0.00     0.173 HD
ENDBRANCH  12  16
ENDBRANCH   8   9
ENDBRANCH   6   8
ENDBRANCH   3   4
ENDBRANCH   2   3
ENDBRANCH   1   2
BRANCH   1  24
ATOM     24  C   UNL     1       7.635   4.643   3.411  1.00  0.00     0.116 C 
BRANCH  24  25
ATOM     25  N   UNL     1       8.499   4.492   4.565  1.00  0.00    -0.352 N 
ATOM     26  C   UNL     1       8.621   5.283   5.679  1.00  0.00     0.251 C 
ATOM     27  H   UNL     1       9.087   3.702   4.546  1.00  0.00     0.163 HD
ATOM     28  O   UNL     1       9.527   5.062   6.478  1.00  0.00    -0.269 OA
BRANCH  26  29
ATOM     29  C   UNL     1       7.692   6.414   5.908  1.00  0.00     0.039 A 
ATOM     30  C   UNL     1       8.226   7.634   6.330  1.00  0.00     0.014 A 
ATOM     31  C   UNL     1       6.311   6.279   5.741  1.00  0.00     0.014 A 
ATOM     32  C   UNL     1       7.384   8.730   6.531  1.00  0.00     0.010 A 
ATOM     33  C   UNL     1       5.482   7.395   5.866  1.00  0.00     0.010 A 
ATOM     34  C   UNL     1       6.008   8.632   6.269  1.00  0.00    -0.014 A 
BRANCH  34  35
ATOM     35  C   UNL     1       5.121   9.820   6.399  1.00  0.00     0.031 A 
ATOM     36  C   UNL     1       3.990   9.831   7.392  1.00  0.00     0.074 A 
ATOM     37  C   UNL     1       5.299  10.875   5.578  1.00  0.00     0.049 A 
ATOM     38  N   UNL     1       3.103  10.766   7.619  1.00  0.00    -0.248 NA
ATOM     39  C   UNL     1       3.819   8.630   8.225  1.00  0.00     0.031 C 
ATOM     40  C   UNL     1       6.316  10.966   4.528  1.00  0.00     0.029 A 
ATOM     41  N   UNL     1       4.618  12.064   5.482  1.00  0.00    -0.354 N 
ATOM     42  C   UNL     1       2.255  10.259   8.597  1.00  0.00     0.074 A 
ATOM     43  C   UNL     1       2.712   8.918   8.894  1.00  0.00     0.031 C 
ATOM     44  C   UNL     1       6.196  12.145   3.899  1.00  0.00     0.029 A 
ATOM     45  C   UNL     1       5.070  12.878   4.470  1.00  0.00     0.049 A 
ATOM     46  H   UNL     1       3.877  12.310   6.082  1.00  0.00     0.167 HD
ATOM     47  C   UNL     1       1.207  10.860   9.211  1.00  0.00     0.034 A 
ATOM     48  C   UNL     1       4.620  14.071   4.033  1.00  0.00     0.034 A 
ATOM     49  C   UNL     1       0.763  12.199   8.928  1.00  0.00     0.049 A 
ATOM     50  C   UNL     1       3.457  14.719   4.733  1.00  0.00     0.074 A 
ATOM     51  C   UNL     1      -0.244  12.919   9.546  1.00  0.00     0.029 A 
ATOM     52  N   UNL     1       1.282  13.014   7.934  1.00  0.00    -0.354 N 
ATOM     53  N   UNL     1       2.758  14.279   5.750  1.00  0.00    -0.248 NA
ATOM     54  C   UNL     1       3.043  16.044   4.247  1.00  0.00     0.031 C 
ATOM     55  C   UNL     1      -0.364  14.152   8.896  1.00  0.00     0.029 A 
ATOM     56  C   UNL     1       0.605  14.222   7.909  1.00  0.00     0.049 A 
ATOM     57  H   UNL     1       2.023  12.770   7.334  1.00  0.00     0.167 HD
ATOM     58  C   UNL     1       1.848  15.286   6.051  1.00  0.00     0.074 A 
ATOM     59  C   UNL     1       2.099  16.367   5.120  1.00  0.00     0.031 C 
ATOM     60  C   UNL     1       0.886  15.309   7.006  1.00  0.00     0.034 A 
BRANCH  47  61
ATOM     61  C   UNL     1       0.479  10.080  10.279  1.00  0.00     0.023 A 
ATOM     62  C   UNL     1       1.120   9.803  11.504  1.00  0.00     0.012 A 
ATOM     63  C   UNL     1      -0.857   9.673  10.092  1.00  0.00     0.148 A 
ATOM     64  C   UNL     1       0.459   9.097  12.509  1.00  0.00     0.002 A 
ATOM     65  C   UNL     1      -1.526   9.014  11.117  1.00  0.00     0.091 A 
ATOM     66  F   UNL     1      -1.446   9.931   8.916  1.00  0.00    -0.205 F 
ATOM     67  C   UNL     1      -0.865   8.712  12.320  1.00  0.00     0.022 A 
BRANCH  65  68
ATOM     68  S   UNL     1      -3.258   8.552  11.007  1.00  0.00     0.127 S 
ATOM     69  O   UNL     1      -3.171   7.093  10.964  1.00  0.00    -0.237 OA
ATOM     70  O   UNL     1      -3.799   9.095  12.253  1.00  0.00    -0.237 OA
ATOM     71  O   UNL     1      -3.767   9.180   9.796  1.00  0.00    -0.744 OA
ENDBRANCH  65  68
ENDBRANCH  47  61
BRANCH  48  72
ATOM     72  C   UNL     1       5.293  14.745   2.886  1.00  0.00     0.023 A 
ATOM     73  C   UNL     1       6.023  15.931   3.100  1.00  0.00     0.012 A 
ATOM     74  C   UNL     1       5.227  14.204   1.588  1.00  0.00     0.148 A 
ATOM     75  C   UNL     1       6.642  16.585   2.034  1.00  0.00     0.002 A 
ATOM     76  C   UNL     1       5.897  14.827   0.542  1.00  0.00     0.091 A 
ATOM     77  F   UNL     1       4.521  13.079   1.405  1.00  0.00    -0.205 F 
ATOM     78  C   UNL     1       6.588  16.029   0.758  1.00  0.00     0.022 A 
BRANCH  76  79
ATOM     79  S   UNL     1       5.994  14.109  -1.101  1.00  0.00     0.127 S 
ATOM     80  O   UNL     1       5.216  15.061  -1.890  1.00  0.00    -0.237 OA
ATOM     81  O   UNL     1       7.435  14.130  -1.351  1.00  0.00    -0.237 OA
ATOM     82  O   UNL     1       5.424  12.773  -0.985  1.00  0.00    -0.744 OA
ENDBRANCH  76  79
ENDBRANCH  48  72
BRANCH  60  83
ATOM     83  C   UNL     1       0.057  16.562   7.137  1.00  0.00     0.023 A 
ATOM     84  C   UNL     1      -0.886  16.897   6.145  1.00  0.00     0.012 A 
ATOM     85  C   UNL     1       0.170  17.373   8.284  1.00  0.00     0.148 A 
ATOM     86  C   UNL     1      -1.674  18.040   6.274  1.00  0.00     0.002 A 
ATOM     87  C   UNL     1      -0.657  18.479   8.432  1.00  0.00     0.091 A 
ATOM     88  F   UNL     1       1.085  17.048   9.209  1.00  0.00    -0.205 F 
ATOM     89  C   UNL     1      -1.569  18.823   7.421  1.00  0.00     0.022 A 
BRANCH  87  90
ATOM     90  S   UNL     1      -0.663  19.489   9.917  1.00  0.00     0.127 S 
ATOM     91  O   UNL     1      -0.098  20.745   9.424  1.00  0.00    -0.237 OA
ATOM     92  O   UNL     1      -2.087  19.547  10.244  1.00  0.00    -0.237 OA
ATOM     93  O   UNL     1       0.155  18.780  10.891  1.00  0.00    -0.744 OA
ENDBRANCH  87  90
ENDBRANCH  60  83
ENDBRANCH  34  35
ENDBRANCH  26  29
ENDBRANCH  24  25
ENDBRANCH   1  24
TORSDOF 16
