REMARK SMILES O=C(NCCCCNC(=O)c1cc2c(cc1NS(=O)(=O)c1cc(Cl)ccc1Cl)OCCCO2)c1ccc(-c2c3nc(c(-c4cccc(S(=O)(=O)[O-])c4F)c4ccc([nH]4)c(-c4cccc(S(=O)(=O)[O-])c4F)c4nc(c(-c5cccc(S(=O)(=O)[O-])c5F)c5ccc2[nH]5)C=C4)C=C3)cc1
REMARK SMILES IDX 5 1 4 2 3 3 1 4 2 5 34 7 35 8 96 9 36 10 95 11 37 12 38 13
REMARK SMILES IDX 39 14 89 15 40 16 94 17 88 18 90 19 41 20 93 21 87 22 86 23
REMARK SMILES IDX 42 25 74 26 54 27 73 28 55 29 58 30 72 31 91 32 56 33 57 34
REMARK SMILES IDX 71 36 92 37 59 38 43 39 44 40 52 41 45 42 47 43 53 44 46 45
REMARK SMILES IDX 48 46 49 47 50 48 51 49 75 50 76 51 84 52 77 53 79 54 85 55
REMARK SMILES IDX 78 56 80 57 81 58 82 59 83 60 60 61 61 62 69 63 62 64 64 65
REMARK SMILES IDX 70 66 63 67 65 68 66 69 67 70 68 71 6 72 7 73 8 74 9 75
REMARK SMILES IDX 10 77 11 78 12 79 16 80 13 81 15 82 14 83 17 84 18 86 19 87
REMARK SMILES IDX 20 88 21 89 22 90 27 91 23 92 26 93 28 94 24 95 25 96 33 97
REMARK SMILES IDX 32 98 31 99 29 101 30 102
REMARK H PARENT 3 6 90 24 58 35 8 76 17 85
REMARK Flexibility Score: 100.00
ROOT
ATOM      1  C   UNL     1       3.830  -0.996  -2.534  1.00  0.00     0.023 C 
ENDROOT
BRANCH   1   2
ATOM      2  C   UNL     1       3.871   0.088  -1.459  1.00  0.00     0.116 C 
BRANCH   2   3
ATOM      3  N   UNL     1       2.536   0.403  -0.983  1.00  0.00    -0.352 N 
ATOM      4  O   UNL     1       0.716   0.154   0.305  1.00  0.00    -0.269 OA
ATOM      5  C   UNL     1       1.937   0.056   0.202  1.00  0.00     0.251 C 
ATOM      6  H   UNL     1       1.983   0.940  -1.595  1.00  0.00     0.163 HD
BRANCH   5   7
ATOM      7  C   UNL     1       2.738  -0.428   1.352  1.00  0.00     0.039 A 
ATOM      8  C   UNL     1       2.217  -1.454   2.145  1.00  0.00     0.014 A 
ATOM      9  C   UNL     1       3.942   0.184   1.714  1.00  0.00     0.014 A 
ATOM     10  C   UNL     1       2.894  -1.857   3.299  1.00  0.00     0.010 A 
ATOM     11  C   UNL     1       4.654  -0.269   2.826  1.00  0.00     0.010 A 
ATOM     12  C   UNL     1       4.115  -1.262   3.656  1.00  0.00    -0.014 A 
BRANCH  12  13
ATOM     13  C   UNL     1       4.776  -1.605   4.944  1.00  0.00     0.031 A 
ATOM     14  C   UNL     1       4.908  -0.558   6.023  1.00  0.00     0.074 A 
ATOM     15  C   UNL     1       5.257  -2.845   5.156  1.00  0.00     0.049 A 
ATOM     16  N   UNL     1       5.449  -0.663   7.210  1.00  0.00    -0.248 NA
ATOM     17  C   UNL     1       4.379   0.787   5.730  1.00  0.00     0.031 C 
ATOM     18  C   UNL     1       5.244  -3.935   4.179  1.00  0.00     0.029 A 
ATOM     19  N   UNL     1       5.858  -3.397   6.261  1.00  0.00    -0.354 N 
ATOM     20  C   UNL     1       5.355   0.598   7.785  1.00  0.00     0.074 A 
ATOM     21  C   UNL     1       4.733   1.466   6.812  1.00  0.00     0.031 C 
ATOM     22  C   UNL     1       5.795  -5.028   4.733  1.00  0.00     0.029 A 
ATOM     23  C   UNL     1       6.221  -4.713   6.095  1.00  0.00     0.049 A 
ATOM     24  H   UNL     1       6.014  -2.897   7.095  1.00  0.00     0.167 HD
ATOM     25  C   UNL     1       5.715   0.993   9.027  1.00  0.00     0.034 A 
ATOM     26  C   UNL     1       6.825  -5.572   6.940  1.00  0.00     0.034 A 
ATOM     27  C   UNL     1       6.260   0.120  10.027  1.00  0.00     0.049 A 
ATOM     28  C   UNL     1       7.171  -5.123   8.333  1.00  0.00     0.074 A 
ATOM     29  C   UNL     1       6.581   0.420  11.340  1.00  0.00     0.029 A 
ATOM     30  N   UNL     1       6.553  -1.218   9.834  1.00  0.00    -0.354 N 
ATOM     31  N   UNL     1       6.971  -3.954   8.890  1.00  0.00    -0.248 NA
ATOM     32  C   UNL     1       7.798  -6.112   9.223  1.00  0.00     0.031 C 
ATOM     33  C   UNL     1       7.072  -0.740  11.942  1.00  0.00     0.029 A 
ATOM     34  C   UNL     1       7.048  -1.761  11.005  1.00  0.00     0.049 A 
ATOM     35  H   UNL     1       6.428  -1.710   8.991  1.00  0.00     0.167 HD
ATOM     36  C   UNL     1       7.429  -4.071  10.197  1.00  0.00     0.074 A 
ATOM     37  C   UNL     1       7.904  -5.429  10.357  1.00  0.00     0.031 C 
ATOM     38  C   UNL     1       7.466  -3.128  11.169  1.00  0.00     0.034 A 
BRANCH  25  39
ATOM     39  C   UNL     1       5.455   2.420   9.425  1.00  0.00     0.023 A 
ATOM     40  C   UNL     1       4.148   2.798   9.790  1.00  0.00     0.012 A 
ATOM     41  C   UNL     1       6.511   3.341   9.558  1.00  0.00     0.148 A 
ATOM     42  C   UNL     1       3.893   4.077  10.280  1.00  0.00     0.002 A 
ATOM     43  C   UNL     1       6.254   4.605  10.076  1.00  0.00     0.091 A 
ATOM     44  F   UNL     1       7.743   2.956   9.197  1.00  0.00    -0.205 F 
ATOM     45  C   UNL     1       4.946   4.975  10.433  1.00  0.00     0.022 A 
BRANCH  43  46
ATOM     46  S   UNL     1       7.544   5.819  10.372  1.00  0.00     0.127 S 
ATOM     47  O   UNL     1       7.126   6.913   9.495  1.00  0.00    -0.237 OA
ATOM     48  O   UNL     1       7.387   6.089  11.800  1.00  0.00    -0.237 OA
ATOM     49  O   UNL     1       8.798   5.179   9.999  1.00  0.00    -0.744 OA
ENDBRANCH  43  46
ENDBRANCH  25  39
BRANCH  26  50
ATOM     50  C   UNL     1       7.081  -6.970   6.498  1.00  0.00     0.023 A 
ATOM     51  C   UNL     1       6.260  -8.009   6.976  1.00  0.00     0.012 A 
ATOM     52  C   UNL     1       8.085  -7.261   5.554  1.00  0.00     0.148 A 
ATOM     53  C   UNL     1       6.440  -9.318   6.527  1.00  0.00     0.002 A 
ATOM     54  C   UNL     1       8.233  -8.559   5.081  1.00  0.00     0.091 A 
ATOM     55  F   UNL     1       8.856  -6.253   5.120  1.00  0.00    -0.205 F 
ATOM     56  C   UNL     1       7.418  -9.591   5.573  1.00  0.00     0.022 A 
BRANCH  54  57
ATOM     57  S   UNL     1       9.392  -8.990   3.778  1.00  0.00     0.127 S 
ATOM     58  O   UNL     1      10.307  -9.889   4.478  1.00  0.00    -0.237 OA
ATOM     59  O   UNL     1       8.515  -9.639   2.803  1.00  0.00    -0.237 OA
ATOM     60  O   UNL     1       9.971  -7.732   3.329  1.00  0.00    -0.744 OA
ENDBRANCH  54  57
ENDBRANCH  26  50
BRANCH  38  61
ATOM     61  C   UNL     1       8.025  -3.502  12.513  1.00  0.00     0.023 A 
ATOM     62  C   UNL     1       9.421  -3.522  12.694  1.00  0.00     0.012 A 
ATOM     63  C   UNL     1       7.173  -3.660  13.624  1.00  0.00     0.148 A 
ATOM     64  C   UNL     1       9.963  -3.693  13.967  1.00  0.00     0.002 A 
ATOM     65  C   UNL     1       7.721  -3.796  14.894  1.00  0.00     0.091 A 
ATOM     66  F   UNL     1       5.848  -3.636  13.421  1.00  0.00    -0.205 F 
ATOM     67  C   UNL     1       9.116  -3.815  15.066  1.00  0.00     0.022 A 
BRANCH  65  68
ATOM     68  S   UNL     1       6.717  -3.881  16.381  1.00  0.00     0.127 S 
ATOM     69  O   UNL     1       7.020  -5.226  16.868  1.00  0.00    -0.237 OA
ATOM     70  O   UNL     1       7.276  -2.799  17.192  1.00  0.00    -0.237 OA
ATOM     71  O   UNL     1       5.340  -3.676  15.954  1.00  0.00    -0.744 OA
ENDBRANCH  65  68
ENDBRANCH  38  61
ENDBRANCH  12  13
ENDBRANCH   5   7
ENDBRANCH   2   3
ENDBRANCH   1   2
BRANCH   1  72
ATOM     72  C   UNL     1       3.282  -0.543  -3.895  1.00  0.00     0.023 C 
BRANCH  72  73
ATOM     73  C   UNL     1       4.091   0.566  -4.567  1.00  0.00     0.116 C 
BRANCH  73  74
ATOM     74  N   UNL     1       5.455   0.151  -4.839  1.00  0.00    -0.352 N 
ATOM     75  C   UNL     1       6.335   0.534  -5.810  1.00  0.00     0.253 C 
ATOM     76  H   UNL     1       5.806  -0.525  -4.215  1.00  0.00     0.163 HD
ATOM     77  O   UNL     1       7.337  -0.148  -6.014  1.00  0.00    -0.269 OA
BRANCH  75  78
ATOM     78  C   UNL     1       6.122   1.728  -6.644  1.00  0.00     0.067 A 
ATOM     79  C   UNL     1       6.332   1.523  -8.014  1.00  0.00     0.066 A 
ATOM     80  C   UNL     1       5.769   3.002  -6.171  1.00  0.00     0.066 A 
ATOM     81  C   UNL     1       6.058   2.531  -8.928  1.00  0.00     0.162 A 
ATOM     82  C   UNL     1       5.384   3.973  -7.108  1.00  0.00     0.078 A 
ATOM     83  C   UNL     1       5.502   3.730  -8.486  1.00  0.00     0.163 A 
BRANCH  80  84
ATOM     84  N   UNL     1       5.596   3.300  -4.793  1.00  0.00    -0.279 N 
ATOM     85  H   UNL     1       4.669   3.375  -4.470  1.00  0.00     0.180 HD
BRANCH  84  86
ATOM     86  S   UNL     1       6.812   3.539  -3.658  1.00  0.00     0.263 S 
ATOM     87  O   UNL     1       7.314   4.888  -3.862  1.00  0.00    -0.201 OA
ATOM     88  O   UNL     1       6.199   3.191  -2.400  1.00  0.00    -0.201 OA
BRANCH  86  89
ATOM     89  C   UNL     1       8.149   2.434  -4.026  1.00  0.00     0.107 A 
ATOM     90  C   UNL     1       9.065   2.900  -4.988  1.00  0.00     0.044 A 
ATOM     91  C   UNL     1       8.381   1.210  -3.394  1.00  0.00     0.061 A 
ATOM     92  C   UNL     1      10.150   2.117  -5.373  1.00  0.00     0.042 A 
ATOM     93  C   UNL     1       9.472   0.422  -3.805  1.00  0.00     0.023 A 
ATOM     94  Cl  UNL     1       7.399   0.526  -2.154  1.00  0.00    -0.083 Cl
ATOM     95  Cl  UNL     1      11.240   2.703  -6.565  1.00  0.00    -0.084 Cl
ATOM     96  C   UNL     1      10.347   0.867  -4.800  1.00  0.00     0.022 A 
ENDBRANCH  86  89
ENDBRANCH  84  86
ENDBRANCH  80  84
BRANCH  81  97
ATOM     97  O   UNL     1       6.274   2.213 -10.238  1.00  0.00    -0.490 OA
BRANCH  97  98
ATOM     98  C   UNL     1       7.060   3.207 -10.894  1.00  0.00     0.233 C 
BRANCH  98  99
ATOM     99  C   UNL     1       6.160   4.301 -11.431  1.00  0.00     0.083 CG0
ATOM    100  G   UNL     1       5.685   5.219 -10.312  1.00  0.00     0.000 G0
ENDBRANCH  98  99
ENDBRANCH  97  98
ENDBRANCH  81  97
BRANCH  83 101
ATOM    101  O   UNL     1       4.861   4.596  -9.329  1.00  0.00    -0.489 OA
BRANCH 101 102
ATOM    102  C   UNL     1       5.685   5.219 -10.312  1.00  0.00     0.233 CG0
ATOM    103  G   UNL     1       6.160   4.301 -11.431  1.00  0.00     0.000 G0
ENDBRANCH 101 102
ENDBRANCH  83 101
ENDBRANCH  75  78
ENDBRANCH  73  74
ENDBRANCH  72  73
ENDBRANCH   1  72
TORSDOF 17
