REMARK SMILES O=C(NCCCCNC(=O)c1cccc(NC(=S)N/N=C\c2c[nH]c3ccccc23)c1)c1ccc(-c2c3nc(c(-c4cccc(S(=O)(=O)[O-])c4F)c4ccc([nH]4)c(-c4cccc(S(=O)(=O)[O-])c4F)c4nc(c(-c5cccc(S(=O)(=O)[O-])c5F)c5ccc2[nH]5)C=C4)C=C3)cc1
REMARK SMILES IDX 6 1 5 2 4 3 3 4 1 5 2 6 32 8 33 9 94 10 34 11 93 12 35 13
REMARK SMILES IDX 36 14 37 15 87 16 38 17 92 18 86 19 88 20 39 21 91 22 85 23
REMARK SMILES IDX 84 24 40 26 72 27 52 28 71 29 53 30 56 31 70 32 89 33 54 34
REMARK SMILES IDX 55 35 69 37 90 38 57 39 41 40 42 41 50 42 43 43 45 44 51 45
REMARK SMILES IDX 44 46 46 47 47 48 48 49 49 50 73 51 74 52 82 53 75 54 77 55
REMARK SMILES IDX 83 56 76 57 78 58 79 59 80 60 81 61 58 62 59 63 67 64 60 65
REMARK SMILES IDX 62 66 68 67 61 68 63 69 64 70 65 71 66 72 7 73 8 74 9 75
REMARK SMILES IDX 10 77 11 78 12 79 31 80 13 81 15 82 14 83 16 84 17 86 18 87
REMARK SMILES IDX 19 88 20 90 21 91 22 92 23 93 30 94 24 95 25 96 29 97 26 99
REMARK SMILES IDX 28 100 27 101
REMARK H PARENT 3 7 88 25 56 36 8 76 16 85 19 89 24 98
REMARK Flexibility Score: inf
ROOT
ATOM      1  C   UNL     1       4.725  -0.190  -3.833  1.00  0.00     0.023 C 
ENDROOT
BRANCH   1   2
ATOM      2  C   UNL     1       5.126  -0.824  -2.511  1.00  0.00     0.023 C 
BRANCH   2   3
ATOM      3  C   UNL     1       4.725  -0.041  -1.271  1.00  0.00     0.116 C 
BRANCH   3   4
ATOM      4  N   UNL     1       3.287   0.152  -1.135  1.00  0.00    -0.352 N 
ATOM      5  O   UNL     1       1.283   0.065  -0.092  1.00  0.00    -0.269 OA
ATOM      6  C   UNL     1       2.501  -0.058  -0.022  1.00  0.00     0.251 C 
ATOM      7  H   UNL     1       2.818   0.472  -1.939  1.00  0.00     0.163 HD
BRANCH   6   8
ATOM      8  C   UNL     1       3.151  -0.478   1.237  1.00  0.00     0.039 A 
ATOM      9  C   UNL     1       4.286   0.195   1.691  1.00  0.00     0.014 A 
ATOM     10  C   UNL     1       2.681  -1.607   1.913  1.00  0.00     0.014 A 
ATOM     11  C   UNL     1       5.057  -0.369   2.697  1.00  0.00     0.010 A 
ATOM     12  C   UNL     1       3.403  -2.110   3.000  1.00  0.00     0.010 A 
ATOM     13  C   UNL     1       4.622  -1.524   3.372  1.00  0.00    -0.014 A 
BRANCH  13  14
ATOM     14  C   UNL     1       5.441  -2.041   4.499  1.00  0.00     0.031 A 
ATOM     15  C   UNL     1       6.068  -3.409   4.465  1.00  0.00     0.074 A 
ATOM     16  C   UNL     1       5.650  -1.229   5.554  1.00  0.00     0.049 A 
ATOM     17  N   UNL     1       6.861  -3.968   5.344  1.00  0.00    -0.248 NA
ATOM     18  C   UNL     1       5.767  -4.266   3.307  1.00  0.00     0.031 C 
ATOM     19  C   UNL     1       5.049   0.098   5.722  1.00  0.00     0.029 A 
ATOM     20  N   UNL     1       6.427  -1.383   6.672  1.00  0.00    -0.354 N 
ATOM     21  C   UNL     1       7.127  -5.247   4.868  1.00  0.00     0.074 A 
ATOM     22  C   UNL     1       6.400  -5.389   3.624  1.00  0.00     0.031 C 
ATOM     23  C   UNL     1       5.512   0.653   6.849  1.00  0.00     0.029 A 
ATOM     24  C   UNL     1       6.396  -0.296   7.514  1.00  0.00     0.049 A 
ATOM     25  H   UNL     1       6.956  -2.193   6.855  1.00  0.00     0.167 HD
ATOM     26  C   UNL     1       7.921  -6.205   5.406  1.00  0.00     0.034 A 
ATOM     27  C   UNL     1       7.002  -0.085   8.697  1.00  0.00     0.034 A 
ATOM     28  C   UNL     1       8.669  -6.044   6.627  1.00  0.00     0.049 A 
ATOM     29  C   UNL     1       7.913  -1.145   9.241  1.00  0.00     0.074 A 
ATOM     30  C   UNL     1       9.525  -6.945   7.237  1.00  0.00     0.029 A 
ATOM     31  N   UNL     1       8.657  -4.907   7.421  1.00  0.00    -0.354 N 
ATOM     32  N   UNL     1       8.235  -2.302   8.716  1.00  0.00    -0.248 NA
ATOM     33  C   UNL     1       8.568  -0.860  10.524  1.00  0.00     0.031 C 
ATOM     34  C   UNL     1      10.026  -6.354   8.403  1.00  0.00     0.029 A 
ATOM     35  C   UNL     1       9.493  -5.081   8.512  1.00  0.00     0.049 A 
ATOM     36  H   UNL     1       8.132  -4.095   7.236  1.00  0.00     0.167 HD
ATOM     37  C   UNL     1       9.138  -2.880   9.598  1.00  0.00     0.074 A 
ATOM     38  C   UNL     1       9.345  -1.925  10.669  1.00  0.00     0.031 C 
ATOM     39  C   UNL     1       9.721  -4.102   9.544  1.00  0.00     0.034 A 
BRANCH  26  40
ATOM     40  C   UNL     1       8.073  -7.502   4.653  1.00  0.00     0.023 A 
ATOM     41  C   UNL     1       8.876  -7.534   3.494  1.00  0.00     0.012 A 
ATOM     42  C   UNL     1       7.502  -8.699   5.129  1.00  0.00     0.148 A 
ATOM     43  C   UNL     1       9.090  -8.730   2.809  1.00  0.00     0.002 A 
ATOM     44  C   UNL     1       7.750  -9.894   4.461  1.00  0.00     0.091 A 
ATOM     45  F   UNL     1       6.727  -8.647   6.221  1.00  0.00    -0.205 F 
ATOM     46  C   UNL     1       8.537  -9.910   3.298  1.00  0.00     0.022 A 
BRANCH  44  47
ATOM     47  S   UNL     1       7.142 -11.480   5.050  1.00  0.00     0.127 S 
ATOM     48  O   UNL     1       6.100 -11.779   4.069  1.00  0.00    -0.237 OA
ATOM     49  O   UNL     1       8.332 -12.325   4.950  1.00  0.00    -0.237 OA
ATOM     50  O   UNL     1       6.674 -11.250   6.410  1.00  0.00    -0.744 OA
ENDBRANCH  44  47
ENDBRANCH  26  40
BRANCH  27  51
ATOM     51  C   UNL     1       6.792   1.206   9.409  1.00  0.00     0.023 A 
ATOM     52  C   UNL     1       7.852   2.126   9.514  1.00  0.00     0.012 A 
ATOM     53  C   UNL     1       5.529   1.552   9.927  1.00  0.00     0.148 A 
ATOM     54  C   UNL     1       7.663   3.357  10.143  1.00  0.00     0.002 A 
ATOM     55  C   UNL     1       5.331   2.805  10.493  1.00  0.00     0.091 A 
ATOM     56  F   UNL     1       4.535   0.656   9.838  1.00  0.00    -0.205 F 
ATOM     57  C   UNL     1       6.400   3.703  10.618  1.00  0.00     0.022 A 
BRANCH  55  58
ATOM     58  S   UNL     1       3.693   3.370  10.969  1.00  0.00     0.127 S 
ATOM     59  O   UNL     1       3.688   3.104  12.404  1.00  0.00    -0.237 OA
ATOM     60  O   UNL     1       3.734   4.788  10.604  1.00  0.00    -0.237 OA
ATOM     61  O   UNL     1       2.772   2.580  10.163  1.00  0.00    -0.744 OA
ENDBRANCH  55  58
ENDBRANCH  27  51
BRANCH  39  62
ATOM     62  C   UNL     1      10.643  -4.470  10.675  1.00  0.00     0.023 A 
ATOM     63  C   UNL     1      10.099  -4.787  11.936  1.00  0.00     0.012 A 
ATOM     64  C   UNL     1      12.036  -4.542  10.482  1.00  0.00     0.148 A 
ATOM     65  C   UNL     1      10.931  -5.135  12.999  1.00  0.00     0.002 A 
ATOM     66  C   UNL     1      12.855  -4.931  11.536  1.00  0.00     0.091 A 
ATOM     67  F   UNL     1      12.536  -4.214   9.282  1.00  0.00    -0.205 F 
ATOM     68  C   UNL     1      12.306  -5.216  12.797  1.00  0.00     0.022 A 
BRANCH  66  69
ATOM     69  S   UNL     1      14.628  -5.141  11.337  1.00  0.00     0.127 S 
ATOM     70  O   UNL     1      15.143  -3.912  11.937  1.00  0.00    -0.237 OA
ATOM     71  O   UNL     1      14.890  -6.355  12.112  1.00  0.00    -0.237 OA
ATOM     72  O   UNL     1      14.850  -5.285   9.905  1.00  0.00    -0.744 OA
ENDBRANCH  66  69
ENDBRANCH  39  62
ENDBRANCH  13  14
ENDBRANCH   6   8
ENDBRANCH   3   4
ENDBRANCH   2   3
ENDBRANCH   1   2
BRANCH   1  73
ATOM     73  C   UNL     1       5.059   1.289  -3.966  1.00  0.00     0.116 C 
BRANCH  73  74
ATOM     74  N   UNL     1       6.485   1.584  -3.903  1.00  0.00    -0.352 N 
ATOM     75  C   UNL     1       7.377   1.986  -4.876  1.00  0.00     0.251 C 
ATOM     76  H   UNL     1       6.881   1.479  -3.008  1.00  0.00     0.163 HD
ATOM     77  O   UNL     1       8.562   2.101  -4.612  1.00  0.00    -0.269 OA
BRANCH  75  78
ATOM     78  C   UNL     1       6.907   2.239  -6.257  1.00  0.00     0.041 A 
ATOM     79  C   UNL     1       7.639   1.728  -7.332  1.00  0.00     0.014 A 
ATOM     80  C   UNL     1       5.717   2.918  -6.489  1.00  0.00     0.040 A 
ATOM     81  C   UNL     1       7.132   1.842  -8.629  1.00  0.00     0.003 A 
ATOM     82  C   UNL     1       5.154   2.911  -7.760  1.00  0.00     0.041 A 
ATOM     83  C   UNL     1       5.878   2.418  -8.843  1.00  0.00     0.026 A 
BRANCH  82  84
ATOM     84  N   UNL     1       3.782   3.175  -7.843  1.00  0.00    -0.331 N 
ATOM     85  H   UNL     1       3.281   3.089  -7.000  1.00  0.00     0.169 HD
BRANCH  84  86
ATOM     86  C   UNL     1       3.049   3.533  -8.926  1.00  0.00     0.191 C 
ATOM     87  S   UNL     1       1.494   2.930  -9.090  1.00  0.00    -0.039 S 
BRANCH  86  88
ATOM     88  N   UNL     1       3.511   4.491  -9.785  1.00  0.00    -0.254 N 
ATOM     89  H   UNL     1       3.029   4.599 -10.636  1.00  0.00     0.193 HD
BRANCH  88  90
ATOM     90  N   UNL     1       4.595   5.322  -9.569  1.00  0.00    -0.181 NA
ATOM     91  C   UNL     1       4.457   6.348  -8.766  1.00  0.00     0.143 C 
BRANCH  91  92
ATOM     92  C   UNL     1       3.241   6.625  -8.032  1.00  0.00     0.020 A 
ATOM     93  C   UNL     1       2.788   5.888  -6.955  1.00  0.00     0.093 A 
ATOM     94  C   UNL     1       2.221   7.580  -8.295  1.00  0.00     0.008 A 
ATOM     95  N   UNL     1       1.423   5.959  -7.000  1.00  0.00    -0.361 N 
ATOM     96  C   UNL     1       1.047   6.973  -7.846  1.00  0.00     0.046 A 
ATOM     97  C   UNL     1       2.123   8.806  -8.977  1.00  0.00     0.011 A 
ATOM     98  H   UNL     1       0.806   5.374  -6.503  1.00  0.00     0.166 HD
ATOM     99  C   UNL     1      -0.221   7.388  -8.250  1.00  0.00     0.027 A 
ATOM    100  C   UNL     1       0.851   9.330  -9.241  1.00  0.00     0.001 A 
ATOM    101  C   UNL     1      -0.297   8.593  -8.950  1.00  0.00     0.002 A 
ENDBRANCH  91  92
ENDBRANCH  88  90
ENDBRANCH  86  88
ENDBRANCH  84  86
ENDBRANCH  82  84
ENDBRANCH  75  78
ENDBRANCH  73  74
ENDBRANCH   1  73
TORSDOF 19
