REMARK SMILES CCC[NH+]1CCC([NH2+]CC(C)(C)C(=O)NCCCCNC(=O)c2ccc(-c3c4nc(c(-c5cccc(S(=O)(=O)[O-])c5F)c5ccc([nH]5)c(-c5cccc(S(=O)(=O)[O-])c5F)c5nc(c(-c6cccc(S(=O)(=O)[O-])c6F)c6ccc3[nH]6)C=C5)C=C4)cc2)CC1
REMARK SMILES IDX 16 1 15 2 13 3 14 4 10 6 11 7 12 8 9 9 8 10 7 13 4 14 5 15
REMARK SMILES IDX 87 16 6 18 86 19 3 20 2 21 1 22 17 23 18 24 19 25 20 26
REMARK SMILES IDX 21 27 22 29 23 30 24 31 85 32 25 33 84 34 26 35 27 36 28 37
REMARK SMILES IDX 78 38 29 39 83 40 77 41 79 42 30 43 82 44 76 45 75 46 31 48
REMARK SMILES IDX 63 49 43 50 62 51 44 52 47 53 61 54 80 55 45 56 46 57 60 59
REMARK SMILES IDX 81 60 48 61 32 62 33 63 41 64 34 65 36 66 42 67 35 68 37 69
REMARK SMILES IDX 38 70 39 71 40 72 64 73 65 74 73 75 66 76 68 77 74 78 67 79
REMARK SMILES IDX 69 80 70 81 71 82 72 83 49 84 50 85 58 86 51 87 53 88 59 89
REMARK SMILES IDX 52 90 54 91 55 92 56 93 57 94
REMARK H PARENT 15 5 8 11 8 12 4 17 20 28 79 47 47 58
REMARK Flexibility Score: inf
ROOT
ATOM      1  C   UNL     1       2.241  -5.274   1.048  1.00  0.00     0.116 C 
ENDROOT
BRANCH   1   2
ATOM      2  N   UNL     1       2.580  -4.942  -0.316  1.00  0.00    -0.355 N 
ATOM      3  C   UNL     1       2.140  -5.397  -1.512  1.00  0.00     0.231 C 
ATOM      4  O   UNL     1       2.840  -5.058  -2.474  1.00  0.00    -0.274 OA
ATOM      5  H   UNL     1       3.270  -4.243  -0.392  1.00  0.00     0.163 HD
BRANCH   3   6
ATOM      6  C   UNL     1       0.910  -6.321  -1.702  1.00  0.00     0.092 C 
ATOM      7  C   UNL     1      -0.318  -6.148  -0.782  1.00  0.00     0.027 C 
ATOM      8  C   UNL     1       1.480  -7.737  -1.464  1.00  0.00     0.027 C 
BRANCH   6   9
ATOM      9  C   UNL     1       0.422  -6.199  -3.200  1.00  0.00     0.277 C 
BRANCH   9  10
ATOM     10  N   UNL     1      -0.416  -5.049  -3.641  1.00  0.00    -0.343 N 
ATOM     11  H   UNL     1      -0.697  -5.214  -4.607  1.00  0.00     0.346 HD
ATOM     12  H   UNL     1      -1.204  -5.005  -2.994  1.00  0.00     0.346 HD
BRANCH  10  13
ATOM     13  C   UNL     1       0.249  -3.737  -3.574  1.00  0.00     0.193 C 
ATOM     14  N   UNL     1       0.361  -0.881  -2.876  1.00  0.00    -0.335 N 
ATOM     15  C   UNL     1       0.260  -1.273  -4.301  1.00  0.00     0.268 C 
ATOM     16  C   UNL     1       1.097  -1.919  -2.163  1.00  0.00     0.268 C 
ATOM     17  H   UNL     1      -0.588  -0.791  -2.512  1.00  0.00     0.348 HD
ATOM     18  C   UNL     1      -0.397  -2.673  -4.494  1.00  0.00     0.126 C 
ATOM     19  C   UNL     1       0.199  -3.132  -2.174  1.00  0.00     0.126 C 
BRANCH  14  20
ATOM     20  C   UNL     1       0.980   0.433  -2.666  1.00  0.00     0.261 C 
BRANCH  20  21
ATOM     21  C   UNL     1       0.526   1.117  -1.356  1.00  0.00     0.058 C 
ATOM     22  C   UNL     1       0.943   0.464  -0.042  1.00  0.00     0.010 C 
ENDBRANCH  20  21
ENDBRANCH  14  20
ENDBRANCH  10  13
ENDBRANCH   9  10
ENDBRANCH   6   9
ENDBRANCH   3   6
ENDBRANCH   1   2
BRANCH   1  23
ATOM     23  C   UNL     1       3.503  -5.426   1.893  1.00  0.00     0.023 C 
BRANCH  23  24
ATOM     24  C   UNL     1       4.289  -4.133   2.120  1.00  0.00     0.023 C 
BRANCH  24  25
ATOM     25  C   UNL     1       3.514  -3.030   2.831  1.00  0.00     0.116 C 
BRANCH  25  26
ATOM     26  N   UNL     1       3.020  -3.457   4.133  1.00  0.00    -0.352 N 
ATOM     27  C   UNL     1       3.322  -2.970   5.383  1.00  0.00     0.251 C 
ATOM     28  H   UNL     1       2.376  -4.201   4.116  1.00  0.00     0.163 HD
ATOM     29  O   UNL     1       2.982  -3.592   6.382  1.00  0.00    -0.269 OA
BRANCH  27  30
ATOM     30  C   UNL     1       4.068  -1.701   5.509  1.00  0.00     0.039 A 
ATOM     31  C   UNL     1       5.138  -1.626   6.403  1.00  0.00     0.014 A 
ATOM     32  C   UNL     1       3.715  -0.593   4.735  1.00  0.00     0.014 A 
ATOM     33  C   UNL     1       5.896  -0.455   6.471  1.00  0.00     0.010 A 
ATOM     34  C   UNL     1       4.523   0.539   4.742  1.00  0.00     0.010 A 
ATOM     35  C   UNL     1       5.617   0.624   5.615  1.00  0.00    -0.014 A 
BRANCH  35  36
ATOM     36  C   UNL     1       6.462   1.845   5.613  1.00  0.00     0.031 A 
ATOM     37  C   UNL     1       5.865   3.180   5.969  1.00  0.00     0.074 A 
ATOM     38  C   UNL     1       7.746   1.766   5.211  1.00  0.00     0.049 A 
ATOM     39  N   UNL     1       6.429   4.360   5.975  1.00  0.00    -0.248 NA
ATOM     40  C   UNL     1       4.440   3.197   6.339  1.00  0.00     0.031 C 
ATOM     41  C   UNL     1       8.420   0.543   4.767  1.00  0.00     0.029 A 
ATOM     42  N   UNL     1       8.708   2.737   5.087  1.00  0.00    -0.354 N 
ATOM     43  C   UNL     1       5.427   5.260   6.317  1.00  0.00     0.074 A 
ATOM     44  C   UNL     1       4.208   4.495   6.468  1.00  0.00     0.031 C 
ATOM     45  C   UNL     1       9.687   0.835   4.433  1.00  0.00     0.029 A 
ATOM     46  C   UNL     1       9.907   2.268   4.601  1.00  0.00     0.049 A 
ATOM     47  H   UNL     1       8.555   3.680   5.324  1.00  0.00     0.167 HD
ATOM     48  C   UNL     1       5.516   6.596   6.517  1.00  0.00     0.034 A 
ATOM     49  C   UNL     1      11.051   2.919   4.316  1.00  0.00     0.034 A 
ATOM     50  C   UNL     1       6.736   7.347   6.395  1.00  0.00     0.049 A 
ATOM     51  C   UNL     1      11.129   4.401   4.564  1.00  0.00     0.074 A 
ATOM     52  C   UNL     1       6.949   8.689   6.655  1.00  0.00     0.029 A 
ATOM     53  N   UNL     1       7.947   6.826   5.967  1.00  0.00    -0.354 N 
ATOM     54  N   UNL     1      10.210   5.209   5.036  1.00  0.00    -0.248 NA
ATOM     55  C   UNL     1      12.412   5.056   4.273  1.00  0.00     0.031 C 
ATOM     56  C   UNL     1       8.281   8.987   6.350  1.00  0.00     0.029 A 
ATOM     57  C   UNL     1       8.908   7.821   5.940  1.00  0.00     0.049 A 
ATOM     58  H   UNL     1       8.101   5.886   5.718  1.00  0.00     0.167 HD
ATOM     59  C   UNL     1      10.814   6.457   5.135  1.00  0.00     0.074 A 
ATOM     60  C   UNL     1      12.184   6.293   4.694  1.00  0.00     0.031 C 
ATOM     61  C   UNL     1      10.281   7.635   5.543  1.00  0.00     0.034 A 
BRANCH  48  62
ATOM     62  C   UNL     1       4.263   7.325   6.932  1.00  0.00     0.023 A 
ATOM     63  C   UNL     1       3.719   7.105   8.215  1.00  0.00     0.012 A 
ATOM     64  C   UNL     1       3.651   8.261   6.076  1.00  0.00     0.148 A 
ATOM     65  C   UNL     1       2.565   7.771   8.623  1.00  0.00     0.002 A 
ATOM     66  C   UNL     1       2.529   8.958   6.508  1.00  0.00     0.091 A 
ATOM     67  F   UNL     1       4.169   8.444   4.853  1.00  0.00    -0.205 F 
ATOM     68  C   UNL     1       1.976   8.704   7.774  1.00  0.00     0.022 A 
BRANCH  66  69
ATOM     69  S   UNL     1       1.745  10.241   5.525  1.00  0.00     0.127 S 
ATOM     70  O   UNL     1       0.479   9.602   5.164  1.00  0.00    -0.237 OA
ATOM     71  O   UNL     1       1.622  11.335   6.489  1.00  0.00    -0.237 OA
ATOM     72  O   UNL     1       2.648  10.506   4.415  1.00  0.00    -0.744 OA
ENDBRANCH  66  69
ENDBRANCH  48  62
BRANCH  49  73
ATOM     73  C   UNL     1      12.236   2.165   3.818  1.00  0.00     0.023 A 
ATOM     74  C   UNL     1      13.366   2.024   4.649  1.00  0.00     0.012 A 
ATOM     75  C   UNL     1      12.245   1.571   2.542  1.00  0.00     0.148 A 
ATOM     76  C   UNL     1      14.496   1.338   4.203  1.00  0.00     0.002 A 
ATOM     77  C   UNL     1      13.351   0.840   2.126  1.00  0.00     0.091 A 
ATOM     78  F   UNL     1      11.164   1.723   1.764  1.00  0.00    -0.205 F 
ATOM     79  C   UNL     1      14.485   0.738   2.947  1.00  0.00     0.022 A 
BRANCH  77  80
ATOM     80  S   UNL     1      13.379  -0.073   0.580  1.00  0.00     0.127 S 
ATOM     81  O   UNL     1      14.370   0.674  -0.191  1.00  0.00    -0.237 OA
ATOM     82  O   UNL     1      13.812  -1.399   1.022  1.00  0.00    -0.237 OA
ATOM     83  O   UNL     1      12.016  -0.025   0.069  1.00  0.00    -0.744 OA
ENDBRANCH  77  80
ENDBRANCH  49  73
BRANCH  61  84
ATOM     84  C   UNL     1      11.187   8.839   5.576  1.00  0.00     0.023 A 
ATOM     85  C   UNL     1      11.616   9.432   4.373  1.00  0.00     0.012 A 
ATOM     86  C   UNL     1      11.554   9.424   6.805  1.00  0.00     0.148 A 
ATOM     87  C   UNL     1      12.427  10.567   4.392  1.00  0.00     0.002 A 
ATOM     88  C   UNL     1      12.317  10.584   6.815  1.00  0.00     0.091 A 
ATOM     89  F   UNL     1      11.149   8.834   7.939  1.00  0.00    -0.205 F 
ATOM     90  C   UNL     1      12.767  11.149   5.611  1.00  0.00     0.022 A 
BRANCH  88  91
ATOM     91  S   UNL     1      12.719  11.461   8.331  1.00  0.00     0.127 S 
ATOM     92  O   UNL     1      14.156  11.214   8.445  1.00  0.00    -0.237 OA
ATOM     93  O   UNL     1      12.362  12.839   7.994  1.00  0.00    -0.237 OA
ATOM     94  O   UNL     1      11.899  10.860   9.374  1.00  0.00    -0.744 OA
ENDBRANCH  88  91
ENDBRANCH  61  84
ENDBRANCH  35  36
ENDBRANCH  27  30
ENDBRANCH  25  26
ENDBRANCH  24  25
ENDBRANCH  23  24
ENDBRANCH   1  23
TORSDOF 19
