REMARK SMILES C[C@H]1CC[C@H](CNC(=O)NCc2ccc(C(=O)NCCCCNC(=O)c3ccc(-c4c5nc(c(-c6cccc(S(=O)(=O)[O-])c6F)c6ccc([nH]6)c(-c6cccc(S(=O)(=O)[O-])c6F)c6nc(c(-c7cccc(S(=O)(=O)[O-])c7F)c7ccc4[nH]7)C=C6)C=C5)cc3)o2)CC1
REMARK SMILES IDX 20 1 19 2 18 3 16 4 17 5 15 7 12 8 13 9 89 10 14 11 11 12
REMARK SMILES IDX 10 13 7 14 8 15 9 17 6 19 5 20 1 21 2 22 91 23 3 24 90 25
REMARK SMILES IDX 4 26 21 27 22 28 23 29 24 30 25 32 26 33 27 34 88 35 28 36
REMARK SMILES IDX 87 37 29 38 30 39 31 40 81 41 32 42 86 43 80 44 82 45 33 46
REMARK SMILES IDX 85 47 79 48 78 49 34 51 66 52 46 53 65 54 47 55 50 56 64 57
REMARK SMILES IDX 83 58 48 59 49 60 63 62 84 63 51 64 35 65 36 66 44 67 37 68
REMARK SMILES IDX 39 69 45 70 38 71 40 72 41 73 42 74 43 75 67 76 68 77 76 78
REMARK SMILES IDX 69 79 71 80 77 81 70 82 72 83 73 84 74 85 75 86 52 87 53 88
REMARK SMILES IDX 61 89 54 90 56 91 62 92 55 93 57 94 58 95 59 96 60 97
REMARK H PARENT 18 6 7 16 10 18 23 31 82 50 50 61
REMARK Flexibility Score: inf
ROOT
ATOM      1  C   UNL     1      -8.130  -5.916   3.368  1.00  0.00     0.023 C 
ENDROOT
BRANCH   1   2
ATOM      2  C   UNL     1      -8.881  -5.285   2.195  1.00  0.00     0.116 C 
BRANCH   2   3
ATOM      3  N   UNL     1      -9.030  -3.855   2.365  1.00  0.00    -0.349 N 
ATOM      4  C   UNL     1      -8.358  -2.806   1.780  1.00  0.00     0.286 C 
ATOM      5  O   UNL     1      -8.813  -1.680   2.012  1.00  0.00    -0.266 OA
ATOM      6  H   UNL     1      -9.729  -3.588   3.005  1.00  0.00     0.163 HD
BRANCH   4   7
ATOM      7  C   UNL     1      -7.196  -3.022   0.936  1.00  0.00     0.191 A 
ATOM      8  C   UNL     1      -5.739  -2.372  -0.613  1.00  0.00     0.124 A 
ATOM      9  C   UNL     1      -5.346  -3.630  -0.212  1.00  0.00     0.048 A 
ATOM     10  O   UNL     1      -6.862  -2.007   0.070  1.00  0.00    -0.454 OA
ATOM     11  C   UNL     1      -6.260  -4.034   0.794  1.00  0.00     0.056 A 
BRANCH   8  12
ATOM     12  C   UNL     1      -5.185  -1.419  -1.614  1.00  0.00     0.193 C 
BRANCH  12  13
ATOM     13  N   UNL     1      -5.737  -0.095  -1.456  1.00  0.00    -0.331 N 
ATOM     14  N   UNL     1      -4.095   1.162  -0.322  1.00  0.00    -0.338 N 
ATOM     15  C   UNL     1      -5.232   1.062  -1.022  1.00  0.00     0.315 C 
ATOM     16  H   UNL     1      -3.725   2.074  -0.303  1.00  0.00     0.165 HD
ATOM     17  O   UNL     1      -5.836   2.104  -1.288  1.00  0.00    -0.249 OA
ATOM     18  H   UNL     1      -6.682  -0.033  -1.724  1.00  0.00     0.165 HD
BRANCH  14  19
ATOM     19  C   UNL     1      -3.296   0.200   0.413  1.00  0.00     0.121 C 
BRANCH  19  20
ATOM     20  C   UNL     1      -1.865   0.121  -0.144  1.00  0.00     0.008 C 
ATOM     21  C   UNL     1       2.524  -0.072  -0.171  1.00  0.00     0.007 C 
ATOM     22  C   UNL     1       1.078   0.005   0.314  1.00  0.00    -0.014 C 
ATOM     23  C   UNL     1       0.285  -1.230  -0.125  1.00  0.00     0.003 C 
ATOM     24  C   UNL     1       0.402   1.283  -0.196  1.00  0.00     0.003 C 
ATOM     25  C   UNL     1      -1.168  -1.158   0.343  1.00  0.00     0.006 C 
ATOM     26  C   UNL     1      -1.054   1.367   0.256  1.00  0.00     0.006 C 
ENDBRANCH  19  20
ENDBRANCH  14  19
ENDBRANCH  12  13
ENDBRANCH   8  12
ENDBRANCH   4   7
ENDBRANCH   2   3
ENDBRANCH   1   2
BRANCH   1  27
ATOM     27  C   UNL     1      -9.001  -6.196   4.599  1.00  0.00     0.023 C 
BRANCH  27  28
ATOM     28  C   UNL     1     -10.154  -7.175   4.380  1.00  0.00     0.116 C 
BRANCH  28  29
ATOM     29  N   UNL     1      -9.729  -8.467   3.859  1.00  0.00    -0.352 N 
ATOM     30  C   UNL     1     -10.261  -9.710   4.110  1.00  0.00     0.251 C 
ATOM     31  H   UNL     1      -8.959  -8.448   3.246  1.00  0.00     0.163 HD
ATOM     32  O   UNL     1      -9.715 -10.714   3.662  1.00  0.00    -0.269 OA
BRANCH  30  33
ATOM     33  C   UNL     1     -11.469  -9.830   4.954  1.00  0.00     0.039 A 
ATOM     34  C   UNL     1     -11.466 -10.745   6.010  1.00  0.00     0.014 A 
ATOM     35  C   UNL     1     -12.585  -9.021   4.725  1.00  0.00     0.014 A 
ATOM     36  C   UNL     1     -12.557 -10.798   6.881  1.00  0.00     0.010 A 
ATOM     37  C   UNL     1     -13.640  -9.028   5.633  1.00  0.00     0.010 A 
ATOM     38  C   UNL     1     -13.637  -9.914   6.721  1.00  0.00    -0.014 A 
BRANCH  38  39
ATOM     39  C   UNL     1     -14.758  -9.880   7.696  1.00  0.00     0.031 A 
ATOM     40  C   UNL     1     -16.157 -10.216   7.256  1.00  0.00     0.074 A 
ATOM     41  C   UNL     1     -14.532  -9.450   8.954  1.00  0.00     0.049 A 
ATOM     42  N   UNL     1     -17.268 -10.178   7.945  1.00  0.00    -0.248 NA
ATOM     43  C   UNL     1     -16.338 -10.620   5.852  1.00  0.00     0.031 C 
ATOM     44  C   UNL     1     -13.236  -9.011   9.478  1.00  0.00     0.029 A 
ATOM     45  N   UNL     1     -15.391  -9.280  10.012  1.00  0.00    -0.354 N 
ATOM     46  C   UNL     1     -18.281 -10.512   7.054  1.00  0.00     0.074 A 
ATOM     47  C   UNL     1     -17.657 -10.723   5.766  1.00  0.00     0.031 C 
ATOM     48  C   UNL     1     -13.386  -8.621  10.754  1.00  0.00     0.029 A 
ATOM     49  C   UNL     1     -14.789  -8.756  11.133  1.00  0.00     0.049 A 
ATOM     50  H   UNL     1     -16.347  -9.512   9.972  1.00  0.00     0.167 HD
ATOM     51  C   UNL     1     -19.606 -10.659   7.291  1.00  0.00     0.034 A 
ATOM     52  C   UNL     1     -15.310  -8.414  12.329  1.00  0.00     0.034 A 
ATOM     53  C   UNL     1     -20.215 -10.501   8.584  1.00  0.00     0.049 A 
ATOM     54  C   UNL     1     -16.776  -8.643  12.580  1.00  0.00     0.074 A 
ATOM     55  C   UNL     1     -21.531 -10.729   8.946  1.00  0.00     0.029 A 
ATOM     56  N   UNL     1     -19.555 -10.070   9.723  1.00  0.00    -0.354 N 
ATOM     57  N   UNL     1     -17.686  -9.130  11.771  1.00  0.00    -0.248 NA
ATOM     58  C   UNL     1     -17.281  -8.314  13.921  1.00  0.00     0.031 C 
ATOM     59  C   UNL     1     -21.671 -10.415  10.302  1.00  0.00     0.029 A 
ATOM     60  C   UNL     1     -20.437 -10.017  10.789  1.00  0.00     0.049 A 
ATOM     61  H   UNL     1     -18.600  -9.836   9.768  1.00  0.00     0.167 HD
ATOM     62  C   UNL     1     -18.859  -9.199  12.514  1.00  0.00     0.074 A 
ATOM     63  C   UNL     1     -18.539  -8.726  13.845  1.00  0.00     0.031 C 
ATOM     64  C   UNL     1     -20.093  -9.602  12.124  1.00  0.00     0.034 A 
BRANCH  51  65
ATOM     65  C   UNL     1     -20.486 -11.070   6.140  1.00  0.00     0.023 A 
ATOM     66  C   UNL     1     -20.412 -12.389   5.647  1.00  0.00     0.012 A 
ATOM     67  C   UNL     1     -21.435 -10.182   5.598  1.00  0.00     0.148 A 
ATOM     68  C   UNL     1     -21.248 -12.810   4.614  1.00  0.00     0.002 A 
ATOM     69  C   UNL     1     -22.295 -10.621   4.598  1.00  0.00     0.091 A 
ATOM     70  F   UNL     1     -21.477  -8.927   6.067  1.00  0.00    -0.205 F 
ATOM     71  C   UNL     1     -22.195 -11.930   4.098  1.00  0.00     0.022 A 
BRANCH  69  72
ATOM     72  S   UNL     1     -23.604  -9.593   3.922  1.00  0.00     0.127 S 
ATOM     73  O   UNL     1     -23.112  -9.345   2.567  1.00  0.00    -0.237 OA
ATOM     74  O   UNL     1     -24.763 -10.483   3.996  1.00  0.00    -0.237 OA
ATOM     75  O   UNL     1     -23.680  -8.421   4.782  1.00  0.00    -0.744 OA
ENDBRANCH  69  72
ENDBRANCH  51  65
BRANCH  52  76
ATOM     76  C   UNL     1     -14.426  -7.880  13.404  1.00  0.00     0.023 A 
ATOM     77  C   UNL     1     -14.162  -8.673  14.539  1.00  0.00     0.012 A 
ATOM     78  C   UNL     1     -13.834  -6.607  13.304  1.00  0.00     0.148 A 
ATOM     79  C   UNL     1     -13.356  -8.192  15.571  1.00  0.00     0.002 A 
ATOM     80  C   UNL     1     -12.986  -6.157  14.310  1.00  0.00     0.091 A 
ATOM     81  F   UNL     1     -14.107  -5.862  12.224  1.00  0.00    -0.205 F 
ATOM     82  C   UNL     1     -12.761  -6.939  15.453  1.00  0.00     0.022 A 
BRANCH  80  83
ATOM     83  S   UNL     1     -12.073  -4.615  14.175  1.00  0.00     0.127 S 
ATOM     84  O   UNL     1     -12.794  -3.757  15.111  1.00  0.00    -0.237 OA
ATOM     85  O   UNL     1     -10.735  -5.016  14.611  1.00  0.00    -0.237 OA
ATOM     86  O   UNL     1     -12.154  -4.237  12.771  1.00  0.00    -0.744 OA
ENDBRANCH  80  83
ENDBRANCH  52  76
BRANCH  64  87
ATOM     87  C   UNL     1     -21.192  -9.592  13.155  1.00  0.00     0.023 A 
ATOM     88  C   UNL     1     -21.738  -8.367  13.585  1.00  0.00     0.012 A 
ATOM     89  C   UNL     1     -21.736 -10.799  13.635  1.00  0.00     0.148 A 
ATOM     90  C   UNL     1     -22.788  -8.342  14.501  1.00  0.00     0.002 A 
ATOM     91  C   UNL     1     -22.814 -10.768  14.511  1.00  0.00     0.091 A 
ATOM     92  F   UNL     1     -21.189 -11.954  13.228  1.00  0.00    -0.205 F 
ATOM     93  C   UNL     1     -23.334  -9.541  14.954  1.00  0.00     0.022 A 
BRANCH  91  94
ATOM     94  S   UNL     1     -23.643 -12.262  15.068  1.00  0.00     0.127 S 
ATOM     95  O   UNL     1     -23.192 -12.352  16.456  1.00  0.00    -0.237 OA
ATOM     96  O   UNL     1     -25.055 -11.913  14.908  1.00  0.00    -0.237 OA
ATOM     97  O   UNL     1     -23.182 -13.328  14.189  1.00  0.00    -0.744 OA
ENDBRANCH  91  94
ENDBRANCH  64  87
ENDBRANCH  38  39
ENDBRANCH  30  33
ENDBRANCH  28  29
ENDBRANCH  27  28
ENDBRANCH   1  27
TORSDOF 18
