REMARK SMILES O=C(Cc1ccn[nH]1)NC[C@H]1CCCC[C@H]1C(=O)NCCCCNC(=O)c1ccc(-c2c3nc(c(-c4cccc(S(=O)(=O)[O-])c4F)c4ccc([nH]4)c(-c4cccc(S(=O)(=O)[O-])c4F)c4nc(c(-c5cccc(S(=O)(=O)[O-])c5F)c5ccc2[nH]5)C=C4)C=C3)cc1
REMARK SMILES IDX 21 1 20 2 19 3 17 4 18 5 16 7 11 8 12 9 13 10 15 11 14 12
REMARK SMILES IDX 10 13 9 14 1 15 2 16 3 18 4 19 5 20 8 21 6 22 7 23 22 25
REMARK SMILES IDX 23 26 24 27 25 28 26 30 27 31 28 32 89 33 29 34 88 35 30 36
REMARK SMILES IDX 31 37 32 38 82 39 33 40 87 41 81 42 83 43 34 44 86 45 80 46
REMARK SMILES IDX 79 47 35 49 67 50 47 51 66 52 48 53 51 54 65 55 84 56 49 57
REMARK SMILES IDX 50 58 64 60 85 61 52 62 36 63 37 64 45 65 38 66 40 67 46 68
REMARK SMILES IDX 39 69 41 70 42 71 43 72 44 73 68 74 69 75 77 76 70 77 72 78
REMARK SMILES IDX 78 79 71 80 73 81 74 82 75 83 76 84 53 85 54 86 62 87 55 88
REMARK SMILES IDX 57 89 63 90 56 91 58 92 59 93 60 94 61 95
REMARK H PARENT 19 6 9 17 8 24 24 29 83 48 51 59
REMARK Flexibility Score: inf
ROOT
ATOM      1  C   UNL     1       5.455   2.874   4.874  1.00  0.00     0.023 C 
ENDROOT
BRANCH   1   2
ATOM      2  C   UNL     1       4.181   2.599   5.674  1.00  0.00     0.116 C 
BRANCH   2   3
ATOM      3  N   UNL     1       2.990   3.105   5.007  1.00  0.00    -0.356 N 
ATOM      4  C   UNL     1       1.927   2.517   4.396  1.00  0.00     0.223 C 
ATOM      5  O   UNL     1       1.109   3.274   3.861  1.00  0.00    -0.275 OA
ATOM      6  H   UNL     1       2.945   4.089   4.995  1.00  0.00     0.163 HD
BRANCH   4   7
ATOM      7  C   UNL     1       1.692   0.998   4.317  1.00  0.00     0.083 C 
ATOM      8  C   UNL     1       2.439   0.260   3.157  1.00  0.00     0.021 C 
ATOM      9  C   UNL     1       2.183  -1.254   3.216  1.00  0.00     0.006 C 
ATOM     10  C   UNL     1       2.398  -1.841   4.605  1.00  0.00     0.000 C 
ATOM     11  C   UNL     1       1.692   0.309   5.691  1.00  0.00     0.014 C 
ATOM     12  C   UNL     1       1.450  -1.192   5.604  1.00  0.00     0.001 C 
BRANCH   8  13
ATOM     13  C   UNL     1       3.921   0.622   3.087  1.00  0.00     0.120 C 
BRANCH  13  14
ATOM     14  N   UNL     1       4.737  -0.016   2.073  1.00  0.00    -0.355 N 
ATOM     15  O   UNL     1       6.103   1.823   1.810  1.00  0.00    -0.275 OA
ATOM     16  C   UNL     1       5.846   0.646   1.570  1.00  0.00     0.226 C 
ATOM     17  H   UNL     1       4.505  -0.914   1.743  1.00  0.00     0.163 HD
BRANCH  16  18
ATOM     18  C   UNL     1       6.833  -0.224   0.817  1.00  0.00     0.155 C 
BRANCH  18  19
ATOM     19  C   UNL     1       7.716  -0.951   1.778  1.00  0.00     0.044 A 
ATOM     20  C   UNL     1       8.418  -2.131   1.655  1.00  0.00     0.045 A 
ATOM     21  N   UNL     1       8.019  -0.474   3.032  1.00  0.00    -0.282 N 
ATOM     22  C   UNL     1       9.038  -2.315   2.903  1.00  0.00     0.135 A 
ATOM     23  N   UNL     1       8.759  -1.330   3.757  1.00  0.00    -0.184 NA
ATOM     24  H   UNL     1       7.724   0.404   3.365  1.00  0.00     0.190 HD
ENDBRANCH  18  19
ENDBRANCH  16  18
ENDBRANCH  13  14
ENDBRANCH   8  13
ENDBRANCH   4   7
ENDBRANCH   2   3
ENDBRANCH   1   2
BRANCH   1  25
ATOM     25  C   UNL     1       6.112   4.220   5.108  1.00  0.00     0.023 C 
BRANCH  25  26
ATOM     26  C   UNL     1       6.627   4.435   6.516  1.00  0.00     0.116 C 
BRANCH  26  27
ATOM     27  N   UNL     1       7.571   3.416   6.962  1.00  0.00    -0.352 N 
ATOM     28  C   UNL     1       8.778   3.593   7.603  1.00  0.00     0.251 C 
ATOM     29  H   UNL     1       7.314   2.483   6.781  1.00  0.00     0.163 HD
ATOM     30  O   UNL     1       9.508   2.642   7.841  1.00  0.00    -0.269 OA
BRANCH  28  31
ATOM     31  C   UNL     1       9.183   4.966   7.966  1.00  0.00     0.039 A 
ATOM     32  C   UNL     1      10.445   5.429   7.590  1.00  0.00     0.014 A 
ATOM     33  C   UNL     1       8.266   5.817   8.585  1.00  0.00     0.014 A 
ATOM     34  C   UNL     1      10.758   6.777   7.770  1.00  0.00     0.010 A 
ATOM     35  C   UNL     1       8.535   7.174   8.653  1.00  0.00     0.010 A 
ATOM     36  C   UNL     1       9.790   7.667   8.266  1.00  0.00    -0.014 A 
BRANCH  36  37
ATOM     37  C   UNL     1      10.064   9.115   8.427  1.00  0.00     0.031 A 
ATOM     38  C   UNL     1       9.957   9.738   9.794  1.00  0.00     0.074 A 
ATOM     39  C   UNL     1      10.292   9.884   7.345  1.00  0.00     0.049 A 
ATOM     40  N   UNL     1      10.050  10.995  10.139  1.00  0.00    -0.248 NA
ATOM     41  C   UNL     1       9.653   8.832  10.917  1.00  0.00     0.031 C 
ATOM     42  C   UNL     1      10.313   9.415   5.957  1.00  0.00     0.029 A 
ATOM     43  N   UNL     1      10.521  11.233   7.241  1.00  0.00    -0.354 N 
ATOM     44  C   UNL     1       9.760  11.035  11.497  1.00  0.00     0.074 A 
ATOM     45  C   UNL     1       9.439   9.686  11.905  1.00  0.00     0.031 C 
ATOM     46  C   UNL     1      10.557  10.456   5.144  1.00  0.00     0.029 A 
ATOM     47  C   UNL     1      10.687  11.668   5.946  1.00  0.00     0.049 A 
ATOM     48  H   UNL     1      10.563  11.833   8.020  1.00  0.00     0.167 HD
ATOM     49  C   UNL     1       9.802  12.090  12.343  1.00  0.00     0.034 A 
ATOM     50  C   UNL     1      10.925  12.904   5.466  1.00  0.00     0.034 A 
ATOM     51  C   UNL     1      10.212  13.408  11.949  1.00  0.00     0.049 A 
ATOM     52  C   UNL     1      11.077  14.042   6.440  1.00  0.00     0.074 A 
ATOM     53  C   UNL     1      10.404  14.524  12.742  1.00  0.00     0.029 A 
ATOM     54  N   UNL     1      10.508  13.783  10.647  1.00  0.00    -0.354 N 
ATOM     55  N   UNL     1      10.966  14.030   7.747  1.00  0.00    -0.248 NA
ATOM     56  C   UNL     1      11.428  15.355   5.880  1.00  0.00     0.031 C 
ATOM     57  C   UNL     1      10.816  15.576  11.917  1.00  0.00     0.029 A 
ATOM     58  C   UNL     1      10.888  15.111  10.613  1.00  0.00     0.049 A 
ATOM     59  H   UNL     1      10.454  13.190   9.863  1.00  0.00     0.167 HD
ATOM     60  C   UNL     1      11.268  15.319   8.169  1.00  0.00     0.074 A 
ATOM     61  C   UNL     1      11.587  16.082   6.979  1.00  0.00     0.031 C 
ATOM     62  C   UNL     1      11.265  15.832   9.424  1.00  0.00     0.034 A 
BRANCH  49  63
ATOM     63  C   UNL     1       9.473  11.834  13.790  1.00  0.00     0.023 A 
ATOM     64  C   UNL     1      10.374  11.093  14.584  1.00  0.00     0.012 A 
ATOM     65  C   UNL     1       8.295  12.338  14.372  1.00  0.00     0.148 A 
ATOM     66  C   UNL     1      10.088  10.819  15.920  1.00  0.00     0.002 A 
ATOM     67  C   UNL     1       8.039  12.100  15.718  1.00  0.00     0.091 A 
ATOM     68  F   UNL     1       7.436  13.017  13.598  1.00  0.00    -0.205 F 
ATOM     69  C   UNL     1       8.926  11.331  16.489  1.00  0.00     0.022 A 
BRANCH  67  70
ATOM     70  S   UNL     1       6.607  12.783  16.562  1.00  0.00     0.127 S 
ATOM     71  O   UNL     1       5.746  11.608  16.683  1.00  0.00    -0.237 OA
ATOM     72  O   UNL     1       7.183  13.249  17.824  1.00  0.00    -0.237 OA
ATOM     73  O   UNL     1       6.106  13.845  15.699  1.00  0.00    -0.744 OA
ENDBRANCH  67  70
ENDBRANCH  49  63
BRANCH  50  74
ATOM     74  C   UNL     1      11.143  13.106   4.006  1.00  0.00     0.023 A 
ATOM     75  C   UNL     1      12.445  13.373   3.539  1.00  0.00     0.012 A 
ATOM     76  C   UNL     1      10.091  12.995   3.077  1.00  0.00     0.148 A 
ATOM     77  C   UNL     1      12.692  13.555   2.178  1.00  0.00     0.002 A 
ATOM     78  C   UNL     1      10.352  13.129   1.717  1.00  0.00     0.091 A 
ATOM     79  F   UNL     1       8.857  12.750   3.540  1.00  0.00    -0.205 F 
ATOM     80  C   UNL     1      11.649  13.423   1.267  1.00  0.00     0.022 A 
BRANCH  78  81
ATOM     81  S   UNL     1       9.095  12.852   0.463  1.00  0.00     0.127 S 
ATOM     82  O   UNL     1       8.833  14.211  -0.003  1.00  0.00    -0.237 OA
ATOM     83  O   UNL     1       9.803  11.999  -0.494  1.00  0.00    -0.237 OA
ATOM     84  O   UNL     1       7.995  12.193   1.152  1.00  0.00    -0.744 OA
ENDBRANCH  78  81
ENDBRANCH  50  74
BRANCH  62  85
ATOM     85  C   UNL     1      11.647  17.278   9.588  1.00  0.00     0.023 A 
ATOM     86  C   UNL     1      10.738  18.285   9.212  1.00  0.00     0.012 A 
ATOM     87  C   UNL     1      12.866  17.634  10.197  1.00  0.00     0.148 A 
ATOM     88  C   UNL     1      11.048  19.629   9.415  1.00  0.00     0.002 A 
ATOM     89  C   UNL     1      13.149  18.974  10.437  1.00  0.00     0.091 A 
ATOM     90  F   UNL     1      13.727  16.661  10.528  1.00  0.00    -0.205 F 
ATOM     91  C   UNL     1      12.245  19.972  10.039  1.00  0.00     0.022 A 
BRANCH  89  92
ATOM     92  S   UNL     1      14.623  19.494  11.322  1.00  0.00     0.127 S 
ATOM     93  O   UNL     1      15.476  19.963  10.232  1.00  0.00    -0.237 OA
ATOM     94  O   UNL     1      14.109  20.552  12.194  1.00  0.00    -0.237 OA
ATOM     95  O   UNL     1      15.098  18.312  12.030  1.00  0.00    -0.744 OA
ENDBRANCH  89  92
ENDBRANCH  62  85
ENDBRANCH  36  37
ENDBRANCH  28  31
ENDBRANCH  26  27
ENDBRANCH  25  26
ENDBRANCH   1  25
TORSDOF 18
