REMARK SMILES Cc1ccc(Nc2c(Cl)cccc2Cl)c(CC(=O)NCCCCNC(=O)c2ccc(-c3c4nc(c(-c5cccc(S(=O)(=O)[O-])c5F)c5ccc([nH]5)c(-c5cccc(S(=O)(=O)[O-])c5F)c5nc(c(-c6cccc(S(=O)(=O)[O-])c6F)c6ccc3[nH]6)C=C5)C=C4)cc2)c1
REMARK SMILES IDX 21 1 20 2 19 3 17 4 18 5 16 7 15 8 1 9 2 10 3 11 90 12 4 13
REMARK SMILES IDX 5 14 6 15 7 17 8 18 13 19 9 20 10 21 12 22 14 23 11 24 22 25
REMARK SMILES IDX 23 26 24 27 25 28 26 30 27 31 28 32 89 33 29 34 88 35 30 36
REMARK SMILES IDX 31 37 32 38 82 39 33 40 87 41 81 42 83 43 34 44 86 45 80 46
REMARK SMILES IDX 79 47 35 49 67 50 47 51 66 52 48 53 51 54 65 55 84 56 49 57
REMARK SMILES IDX 50 58 64 60 85 61 52 62 36 63 37 64 45 65 38 66 40 67 46 68
REMARK SMILES IDX 39 69 41 70 42 71 43 72 44 73 68 74 69 75 77 76 70 77 72 78
REMARK SMILES IDX 78 79 71 80 73 81 74 82 75 83 76 84 53 85 54 86 62 87 55 88
REMARK SMILES IDX 57 89 63 90 56 91 58 92 59 93 60 94 61 95
REMARK H PARENT 19 6 6 16 24 29 83 48 51 59
REMARK Flexibility Score: inf
ROOT
ATOM      1  C   UNL     1      -0.228   1.099  -3.075  1.00  0.00     0.023 C 
ENDROOT
BRANCH   1   2
ATOM      2  C   UNL     1      -0.605   2.531  -2.656  1.00  0.00     0.116 C 
BRANCH   2   3
ATOM      3  N   UNL     1      -2.008   2.672  -2.298  1.00  0.00    -0.356 N 
ATOM      4  C   UNL     1      -2.614   2.574  -1.081  1.00  0.00     0.224 C 
ATOM      5  O   UNL     1      -3.847   2.589  -1.027  1.00  0.00    -0.275 OA
ATOM      6  H   UNL     1      -2.613   2.869  -3.050  1.00  0.00     0.163 HD
BRANCH   4   7
ATOM      7  C   UNL     1      -1.801   2.412   0.191  1.00  0.00     0.137 C 
BRANCH   7   8
ATOM      8  C   UNL     1      -1.095   1.077   0.284  1.00  0.00    -0.015 A 
ATOM      9  C   UNL     1       2.563  -0.026   0.229  1.00  0.00     0.044 C 
ATOM     10  C   UNL     1       1.066  -0.073   0.280  1.00  0.00    -0.051 A 
ATOM     11  C   UNL     1       0.396  -1.288   0.158  1.00  0.00     0.005 A 
ATOM     12  C   UNL     1       0.314   1.098   0.384  1.00  0.00     0.009 A 
ATOM     13  C   UNL     1      -1.001  -1.326   0.124  1.00  0.00     0.026 A 
ATOM     14  C   UNL     1      -1.777  -0.155   0.174  1.00  0.00     0.042 A 
BRANCH  14  15
ATOM     15  N   UNL     1      -3.190  -0.212   0.138  1.00  0.00    -0.353 N 
ATOM     16  H   UNL     1      -3.650   0.658   0.115  1.00  0.00     0.167 HD
BRANCH  15  17
ATOM     17  C   UNL     1      -4.035  -1.351   0.132  1.00  0.00     0.076 A 
ATOM     18  C   UNL     1      -4.040  -2.307   1.168  1.00  0.00     0.066 A 
ATOM     19  C   UNL     1      -4.846  -1.611  -0.993  1.00  0.00     0.066 A 
ATOM     20  Cl  UNL     1      -3.183  -2.062   2.655  1.00  0.00    -0.082 Cl
ATOM     21  C   UNL     1      -4.796  -3.483   1.063  1.00  0.00     0.023 A 
ATOM     22  C   UNL     1      -5.606  -2.782  -1.091  1.00  0.00     0.023 A 
ATOM     23  Cl  UNL     1      -4.912  -0.505  -2.323  1.00  0.00    -0.082 Cl
ATOM     24  C   UNL     1      -5.571  -3.724  -0.068  1.00  0.00     0.003 A 
ENDBRANCH  15  17
ENDBRANCH  14  15
ENDBRANCH   7   8
ENDBRANCH   4   7
ENDBRANCH   2   3
ENDBRANCH   1   2
BRANCH   1  25
ATOM     25  C   UNL     1      -1.068   0.488  -4.193  1.00  0.00     0.023 C 
BRANCH  25  26
ATOM     26  C   UNL     1      -0.891   1.179  -5.531  1.00  0.00     0.116 C 
BRANCH  26  27
ATOM     27  N   UNL     1       0.219   0.669  -6.317  1.00  0.00    -0.352 N 
ATOM     28  C   UNL     1       0.660   1.057  -7.570  1.00  0.00     0.251 C 
ATOM     29  H   UNL     1       0.733  -0.058  -5.897  1.00  0.00     0.163 HD
ATOM     30  O   UNL     1       1.455   0.327  -8.159  1.00  0.00    -0.269 OA
BRANCH  28  31
ATOM     31  C   UNL     1       0.314   2.401  -8.106  1.00  0.00     0.039 A 
ATOM     32  C   UNL     1       1.347   3.132  -8.710  1.00  0.00     0.014 A 
ATOM     33  C   UNL     1      -0.871   3.040  -7.761  1.00  0.00     0.014 A 
ATOM     34  C   UNL     1       1.321   4.522  -8.667  1.00  0.00     0.010 A 
ATOM     35  C   UNL     1      -0.861   4.408  -7.620  1.00  0.00     0.010 A 
ATOM     36  C   UNL     1       0.276   5.132  -7.989  1.00  0.00    -0.014 A 
BRANCH  36  37
ATOM     37  C   UNL     1       0.267   6.510  -7.544  1.00  0.00     0.031 A 
ATOM     38  C   UNL     1      -0.424   7.527  -8.346  1.00  0.00     0.074 A 
ATOM     39  C   UNL     1       0.641   6.758  -6.267  1.00  0.00     0.049 A 
ATOM     40  N   UNL     1      -0.416   8.778  -8.050  1.00  0.00    -0.248 NA
ATOM     41  C   UNL     1      -1.167   7.221  -9.566  1.00  0.00     0.031 C 
ATOM     42  C   UNL     1       0.277   7.896  -5.430  1.00  0.00     0.029 A 
ATOM     43  N   UNL     1       1.631   6.103  -5.524  1.00  0.00    -0.354 N 
ATOM     44  C   UNL     1      -1.413   9.361  -8.790  1.00  0.00     0.074 A 
ATOM     45  C   UNL     1      -1.728   8.408  -9.822  1.00  0.00     0.031 C 
ATOM     46  C   UNL     1       1.196   8.030  -4.461  1.00  0.00     0.029 A 
ATOM     47  C   UNL     1       2.274   7.114  -4.783  1.00  0.00     0.049 A 
ATOM     48  H   UNL     1       1.834   5.139  -5.521  1.00  0.00     0.167 HD
ATOM     49  C   UNL     1      -1.961  10.514  -8.324  1.00  0.00     0.034 A 
ATOM     50  C   UNL     1       3.575   7.476  -5.003  1.00  0.00     0.034 A 
ATOM     51  C   UNL     1      -1.133  11.103  -7.259  1.00  0.00     0.049 A 
ATOM     52  C   UNL     1       3.735   8.936  -5.431  1.00  0.00     0.074 A 
ATOM     53  C   UNL     1      -1.262  11.290  -5.895  1.00  0.00     0.029 A 
ATOM     54  N   UNL     1       0.197  11.378  -7.552  1.00  0.00    -0.354 N 
ATOM     55  N   UNL     1       2.769   9.815  -5.500  1.00  0.00    -0.248 NA
ATOM     56  C   UNL     1       5.003   9.483  -5.909  1.00  0.00     0.031 C 
ATOM     57  C   UNL     1       0.033  11.612  -5.367  1.00  0.00     0.029 A 
ATOM     58  C   UNL     1       0.932  11.676  -6.418  1.00  0.00     0.049 A 
ATOM     59  H   UNL     1       0.573  11.362  -8.462  1.00  0.00     0.167 HD
ATOM     60  C   UNL     1       3.204  10.935  -6.170  1.00  0.00     0.074 A 
ATOM     61  C   UNL     1       4.624  10.687  -6.370  1.00  0.00     0.031 C 
ATOM     62  C   UNL     1       2.361  11.940  -6.580  1.00  0.00     0.034 A 
BRANCH  49  63
ATOM     63  C   UNL     1      -3.311  11.059  -8.743  1.00  0.00     0.023 A 
ATOM     64  C   UNL     1      -3.644  12.361  -8.313  1.00  0.00     0.012 A 
ATOM     65  C   UNL     1      -4.324  10.353  -9.442  1.00  0.00     0.148 A 
ATOM     66  C   UNL     1      -4.899  12.932  -8.566  1.00  0.00     0.002 A 
ATOM     67  C   UNL     1      -5.545  10.952  -9.764  1.00  0.00     0.091 A 
ATOM     68  F   UNL     1      -4.173   9.052  -9.714  1.00  0.00    -0.205 F 
ATOM     69  C   UNL     1      -5.843  12.238  -9.311  1.00  0.00     0.022 A 
BRANCH  67  70
ATOM     70  S   UNL     1      -6.777  10.126 -10.790  1.00  0.00     0.127 S 
ATOM     71  O   UNL     1      -7.780   9.724  -9.806  1.00  0.00    -0.237 OA
ATOM     72  O   UNL     1      -7.206  11.193 -11.694  1.00  0.00    -0.237 OA
ATOM     73  O   UNL     1      -6.076   9.031 -11.453  1.00  0.00    -0.744 OA
ENDBRANCH  67  70
ENDBRANCH  49  63
BRANCH  50  74
ATOM     74  C   UNL     1       4.421   6.332  -5.473  1.00  0.00     0.023 A 
ATOM     75  C   UNL     1       4.534   5.221  -4.599  1.00  0.00     0.012 A 
ATOM     76  C   UNL     1       4.733   6.153  -6.832  1.00  0.00     0.148 A 
ATOM     77  C   UNL     1       4.783   3.940  -5.096  1.00  0.00     0.002 A 
ATOM     78  C   UNL     1       5.003   4.873  -7.316  1.00  0.00     0.091 A 
ATOM     79  F   UNL     1       4.684   7.211  -7.649  1.00  0.00    -0.205 F 
ATOM     80  C   UNL     1       4.977   3.761  -6.461  1.00  0.00     0.022 A 
BRANCH  78  81
ATOM     81  S   UNL     1       5.272   4.581  -9.070  1.00  0.00     0.127 S 
ATOM     82  O   UNL     1       6.728   4.640  -9.153  1.00  0.00    -0.237 OA
ATOM     83  O   UNL     1       4.697   3.251  -9.262  1.00  0.00    -0.237 OA
ATOM     84  O   UNL     1       4.541   5.647  -9.739  1.00  0.00    -0.744 OA
ENDBRANCH  78  81
ENDBRANCH  50  74
BRANCH  62  85
ATOM     85  C   UNL     1       2.810  13.226  -7.280  1.00  0.00     0.023 A 
ATOM     86  C   UNL     1       4.114  13.737  -7.124  1.00  0.00     0.012 A 
ATOM     87  C   UNL     1       1.921  14.030  -8.048  1.00  0.00     0.148 A 
ATOM     88  C   UNL     1       4.558  14.878  -7.806  1.00  0.00     0.002 A 
ATOM     89  C   UNL     1       2.353  15.181  -8.704  1.00  0.00     0.091 A 
ATOM     90  F   UNL     1       0.623  13.720  -8.116  1.00  0.00    -0.205 F 
ATOM     91  C   UNL     1       3.683  15.590  -8.613  1.00  0.00     0.022 A 
BRANCH  89  92
ATOM     92  S   UNL     1       1.241  16.221  -9.666  1.00  0.00     0.127 S 
ATOM     93  O   UNL     1       1.174  17.424  -8.837  1.00  0.00    -0.237 OA
ATOM     94  O   UNL     1       1.984  16.382 -10.916  1.00  0.00    -0.237 OA
ATOM     95  O   UNL     1      -0.006  15.480  -9.792  1.00  0.00    -0.744 OA
ENDBRANCH  89  92
ENDBRANCH  62  85
ENDBRANCH  36  37
ENDBRANCH  28  31
ENDBRANCH  26  27
ENDBRANCH  25  26
ENDBRANCH   1  25
TORSDOF 17
