REMARK SMILES CCSc1nc(CC(=O)N[C@@H](C(=O)NCCCCNC(=O)c2ccc(-c3c4nc(c(-c5cccc(S(=O)(=O)[O-])c5F)c5ccc([nH]5)c(-c5cccc(S(=O)(=O)[O-])c5F)c5nc(c(-c6cccc(S(=O)(=O)[O-])c6F)c6ccc3[nH]6)C=C5)C=C4)cc2)C2=C(C)N=N[C@@H]2C)cs1
REMARK SMILES IDX 15 1 14 2 12 3 13 4 11 6 10 7 8 8 9 9 7 11 6 12 4 13 5 14
REMARK SMILES IDX 93 15 92 16 3 17 2 18 1 19 85 20 86 21 90 22 87 23 88 24
REMARK SMILES IDX 89 25 91 26 16 27 17 28 18 29 19 30 20 31 21 33 22 34 23 35
REMARK SMILES IDX 84 36 24 37 83 38 25 39 26 40 27 41 77 42 28 43 82 44 76 45
REMARK SMILES IDX 78 46 29 47 81 48 75 49 74 50 30 52 62 53 42 54 61 55 43 56
REMARK SMILES IDX 46 57 60 58 79 59 44 60 45 61 59 63 80 64 47 65 31 66 32 67
REMARK SMILES IDX 40 68 33 69 35 70 41 71 34 72 36 73 37 74 38 75 39 76 63 77
REMARK SMILES IDX 64 78 72 79 65 80 67 81 73 82 66 83 68 84 69 85 70 86 71 87
REMARK SMILES IDX 48 88 49 89 57 90 50 91 52 92 58 93 51 94 53 95 54 96 55 97
REMARK SMILES IDX 56 98
REMARK H PARENT 14 5 10 10 19 32 78 51 46 62
REMARK Flexibility Score: inf
ROOT
ATOM      1  C   UNL     1       5.170  -1.666  -1.663  1.00  0.00     0.116 C 
ENDROOT
BRANCH   1   2
ATOM      2  N   UNL     1       4.543  -2.285  -2.807  1.00  0.00    -0.354 N 
ATOM      3  C   UNL     1       4.040  -3.555  -2.908  1.00  0.00     0.247 C 
ATOM      4  O   UNL     1       3.018  -3.665  -3.596  1.00  0.00    -0.272 OA
ATOM      5  H   UNL     1       4.468  -1.726  -3.613  1.00  0.00     0.163 HD
BRANCH   3   6
ATOM      6  C   UNL     1       4.661  -4.806  -2.159  1.00  0.00     0.202 C 
BRANCH   6   7
ATOM      7  N   UNL     1       6.048  -4.626  -1.731  1.00  0.00    -0.340 N 
ATOM      8  C   UNL     1       6.566  -4.504  -0.472  1.00  0.00     0.226 C 
ATOM      9  O   UNL     1       7.755  -4.190  -0.366  1.00  0.00    -0.275 OA
ATOM     10  H   UNL     1       6.709  -4.586  -2.461  1.00  0.00     0.164 HD
BRANCH   8  11
ATOM     11  C   UNL     1       5.721  -4.750   0.767  1.00  0.00     0.157 C 
BRANCH  11  12
ATOM     12  C   UNL     1       4.857  -3.598   1.158  1.00  0.00     0.062 A 
ATOM     13  C   UNL     1       2.875  -2.609   1.320  1.00  0.00     0.150 A 
ATOM     14  N   UNL     1       3.508  -3.650   0.827  1.00  0.00    -0.234 NA
ATOM     15  S   UNL     1       3.854  -1.478   2.152  1.00  0.00    -0.116 S 
ATOM     16  C   UNL     1       5.228  -2.465   1.861  1.00  0.00     0.092 A 
BRANCH  13  17
ATOM     17  S   UNL     1       1.137  -2.487   1.203  1.00  0.00    -0.096 SA
BRANCH  17  18
ATOM     18  C   UNL     1       0.939  -1.480  -0.295  1.00  0.00     0.074 C 
ATOM     19  C   UNL     1       1.064   0.003   0.009  1.00  0.00     0.016 C 
ENDBRANCH  17  18
ENDBRANCH  13  17
ENDBRANCH  11  12
ENDBRANCH   8  11
ENDBRANCH   6   7
BRANCH   6  20
ATOM     20  C   UNL     1       4.630  -6.060  -3.005  1.00  0.00     0.011 C 
ATOM     21  C   UNL     1       4.847  -7.344  -2.677  1.00  0.00     0.064 C 
ATOM     22  C   UNL     1       4.232  -6.117  -4.453  1.00  0.00     0.156 C 
ATOM     23  C   UNL     1       5.250  -7.952  -1.381  1.00  0.00     0.069 C 
ATOM     24  N   UNL     1       4.646  -8.207  -3.725  1.00  0.00    -0.160 NA
ATOM     25  N   UNL     1       4.286  -7.577  -4.751  1.00  0.00    -0.181 NA
ATOM     26  C   UNL     1       5.183  -5.420  -5.416  1.00  0.00     0.040 C 
ENDBRANCH   6  20
ENDBRANCH   3   6
ENDBRANCH   1   2
BRANCH   1  27
ATOM     27  C   UNL     1       6.341  -0.754  -1.993  1.00  0.00     0.023 C 
BRANCH  27  28
ATOM     28  C   UNL     1       5.957   0.659  -2.425  1.00  0.00     0.023 C 
BRANCH  28  29
ATOM     29  C   UNL     1       5.026   1.421  -1.483  1.00  0.00     0.116 C 
BRANCH  29  30
ATOM     30  N   UNL     1       5.490   1.486  -0.102  1.00  0.00    -0.352 N 
ATOM     31  C   UNL     1       5.449   2.556   0.771  1.00  0.00     0.251 C 
ATOM     32  H   UNL     1       5.885   0.658   0.255  1.00  0.00     0.163 HD
ATOM     33  O   UNL     1       5.929   2.472   1.886  1.00  0.00    -0.269 OA
BRANCH  31  34
ATOM     34  C   UNL     1       4.853   3.826   0.298  1.00  0.00     0.039 A 
ATOM     35  C   UNL     1       5.640   4.980   0.300  1.00  0.00     0.014 A 
ATOM     36  C   UNL     1       3.567   3.840  -0.247  1.00  0.00     0.014 A 
ATOM     37  C   UNL     1       5.179   6.125  -0.355  1.00  0.00     0.010 A 
ATOM     38  C   UNL     1       3.138   4.960  -0.952  1.00  0.00     0.010 A 
ATOM     39  C   UNL     1       3.953   6.100  -1.041  1.00  0.00    -0.014 A 
BRANCH  39  40
ATOM     40  C   UNL     1       3.545   7.209  -1.942  1.00  0.00     0.031 A 
ATOM     41  C   UNL     1       2.302   8.003  -1.663  1.00  0.00     0.074 A 
ATOM     42  C   UNL     1       4.227   7.405  -3.089  1.00  0.00     0.049 A 
ATOM     43  N   UNL     1       1.736   8.927  -2.394  1.00  0.00    -0.248 NA
ATOM     44  C   UNL     1       1.587   7.702  -0.412  1.00  0.00     0.031 C 
ATOM     45  C   UNL     1       5.402   6.641  -3.517  1.00  0.00     0.029 A 
ATOM     46  N   UNL     1       4.007   8.278  -4.126  1.00  0.00    -0.354 N 
ATOM     47  C   UNL     1       0.584   9.296  -1.714  1.00  0.00     0.074 A 
ATOM     48  C   UNL     1       0.517   8.477  -0.522  1.00  0.00     0.031 C 
ATOM     49  C   UNL     1       5.794   7.073  -4.725  1.00  0.00     0.029 A 
ATOM     50  C   UNL     1       4.883   8.121  -5.176  1.00  0.00     0.049 A 
ATOM     51  H   UNL     1       3.290   8.953  -4.119  1.00  0.00     0.167 HD
ATOM     52  C   UNL     1      -0.321  10.250  -2.036  1.00  0.00     0.034 A 
ATOM     53  C   UNL     1       4.940   8.736  -6.373  1.00  0.00     0.034 A 
ATOM     54  C   UNL     1      -0.227  11.096  -3.195  1.00  0.00     0.049 A 
ATOM     55  C   UNL     1       3.931   9.803  -6.699  1.00  0.00     0.074 A 
ATOM     56  C   UNL     1      -1.026  12.171  -3.542  1.00  0.00     0.029 A 
ATOM     57  N   UNL     1       0.714  10.956  -4.203  1.00  0.00    -0.354 N 
ATOM     58  N   UNL     1       2.955  10.265  -5.957  1.00  0.00    -0.248 NA
ATOM     59  C   UNL     1       4.045  10.449  -8.015  1.00  0.00     0.031 C 
ATOM     60  C   UNL     1      -0.579  12.670  -4.770  1.00  0.00     0.029 A 
ATOM     61  C   UNL     1       0.503  11.910  -5.184  1.00  0.00     0.049 A 
ATOM     62  H   UNL     1       1.428  10.278  -4.219  1.00  0.00     0.167 HD
ATOM     63  C   UNL     1       2.349  11.268  -6.706  1.00  0.00     0.074 A 
ATOM     64  C   UNL     1       3.086  11.364  -7.949  1.00  0.00     0.031 C 
ATOM     65  C   UNL     1       1.267  12.024  -6.399  1.00  0.00     0.034 A 
BRANCH  52  66
ATOM     66  C   UNL     1      -1.460  10.480  -1.081  1.00  0.00     0.023 A 
ATOM     67  C   UNL     1      -1.212  11.144   0.138  1.00  0.00     0.012 A 
ATOM     68  C   UNL     1      -2.775  10.096  -1.405  1.00  0.00     0.148 A 
ATOM     69  C   UNL     1      -2.250  11.398   1.032  1.00  0.00     0.002 A 
ATOM     70  C   UNL     1      -3.811  10.385  -0.524  1.00  0.00     0.091 A 
ATOM     71  F   UNL     1      -2.986   9.441  -2.556  1.00  0.00    -0.205 F 
ATOM     72  C   UNL     1      -3.550  11.028   0.697  1.00  0.00     0.022 A 
BRANCH  70  73
ATOM     73  S   UNL     1      -5.527  10.005  -0.899  1.00  0.00     0.127 S 
ATOM     74  O   UNL     1      -5.758   8.829  -0.062  1.00  0.00    -0.237 OA
ATOM     75  O   UNL     1      -6.218  11.216  -0.453  1.00  0.00    -0.237 OA
ATOM     76  O   UNL     1      -5.578   9.776  -2.336  1.00  0.00    -0.744 OA
ENDBRANCH  70  73
ENDBRANCH  52  66
BRANCH  53  77
ATOM     77  C   UNL     1       6.029   8.394  -7.330  1.00  0.00     0.023 A 
ATOM     78  C   UNL     1       7.063   9.323  -7.554  1.00  0.00     0.012 A 
ATOM     79  C   UNL     1       6.075   7.145  -7.980  1.00  0.00     0.148 A 
ATOM     80  C   UNL     1       8.113   9.023  -8.422  1.00  0.00     0.002 A 
ATOM     81  C   UNL     1       7.151   6.832  -8.803  1.00  0.00     0.091 A 
ATOM     82  F   UNL     1       5.072   6.281  -7.770  1.00  0.00    -0.205 F 
ATOM     83  C   UNL     1       8.164   7.775  -9.037  1.00  0.00     0.022 A 
BRANCH  81  84
ATOM     84  S   UNL     1       7.362   5.198  -9.520  1.00  0.00     0.127 S 
ATOM     85  O   UNL     1       6.994   5.432 -10.913  1.00  0.00    -0.237 OA
ATOM     86  O   UNL     1       8.786   4.945  -9.292  1.00  0.00    -0.237 OA
ATOM     87  O   UNL     1       6.475   4.325  -8.762  1.00  0.00    -0.744 OA
ENDBRANCH  81  84
ENDBRANCH  53  77
BRANCH  65  88
ATOM     88  C   UNL     1       0.801  13.024  -7.424  1.00  0.00     0.023 A 
ATOM     89  C   UNL     1       0.107  12.569  -8.563  1.00  0.00     0.012 A 
ATOM     90  C   UNL     1       0.972  14.407  -7.223  1.00  0.00     0.148 A 
ATOM     91  C   UNL     1      -0.393  13.475  -9.496  1.00  0.00     0.002 A 
ATOM     92  C   UNL     1       0.435  15.306  -8.137  1.00  0.00     0.091 A 
ATOM     93  F   UNL     1       1.651  14.817  -6.141  1.00  0.00    -0.205 F 
ATOM     94  C   UNL     1      -0.240  14.842  -9.278  1.00  0.00     0.022 A 
BRANCH  92  95
ATOM     95  S   UNL     1       0.507  17.086  -7.898  1.00  0.00     0.127 S 
ATOM     96  O   UNL     1       1.473  17.485  -8.920  1.00  0.00    -0.237 OA
ATOM     97  O   UNL     1      -0.872  17.492  -8.169  1.00  0.00    -0.237 OA
ATOM     98  O   UNL     1       0.937  17.288  -6.521  1.00  0.00    -0.744 OA
ENDBRANCH  92  95
ENDBRANCH  65  88
ENDBRANCH  39  40
ENDBRANCH  31  34
ENDBRANCH  29  30
ENDBRANCH  28  29
ENDBRANCH  27  28
ENDBRANCH   1  27
TORSDOF 20
