REMARK SMILES CN(C)C(=O)C[NH+]1CCN(c2cc(C(=O)NCCCCNC(=O)c3ccc(-c4c5nc(c(-c6cccc(S(=O)(=O)[O-])c6F)c6ccc([nH]6)c(-c6cccc(S(=O)(=O)[O-])c6F)c6nc(c(-c7cccc(S(=O)(=O)[O-])c7F)c7ccc4[nH]7)C=C6)C=C5)cc3)c3cc(NC(=O)c4cccc(Cl)c4)ccc3n2)CC1
REMARK SMILES IDX 18 1 17 2 16 3 14 4 15 5 13 7 11 8 12 9 103 10 102 11 87 12
REMARK SMILES IDX 101 13 88 14 100 15 89 16 10 17 7 18 8 19 105 20 9 22 104 23
REMARK SMILES IDX 6 24 4 25 1 26 2 27 3 28 5 29 90 30 91 31 92 33 93 34 94 35
REMARK SMILES IDX 99 36 95 37 97 38 96 39 98 40 19 41 20 42 21 43 22 44 23 46
REMARK SMILES IDX 24 47 25 48 86 49 26 50 85 51 27 52 28 53 29 54 79 55 30 56
REMARK SMILES IDX 84 57 78 58 80 59 31 60 83 61 77 62 76 63 32 65 64 66 44 67
REMARK SMILES IDX 63 68 45 69 48 70 62 71 81 72 46 73 47 74 61 76 82 77 49 78
REMARK SMILES IDX 33 79 34 80 42 81 35 82 37 83 43 84 36 85 38 86 39 87 40 88
REMARK SMILES IDX 41 89 65 90 66 91 74 92 67 93 69 94 75 95 68 96 70 97 71 98
REMARK SMILES IDX 72 99 73 100 50 101 51 102 59 103 52 104 54 105 60 106
REMARK SMILES IDX 53 107 55 108 56 109 57 110 58 111
REMARK H PARENT 16 6 7 21 90 32 21 45 80 64 48 75
REMARK Flexibility Score: inf
ROOT
ATOM      1  C   UNL     1      -3.944 -13.829   0.770  1.00  0.00     0.023 C 
ENDROOT
BRANCH   1   2
ATOM      2  C   UNL     1      -3.055 -13.081  -0.227  1.00  0.00     0.116 C 
BRANCH   2   3
ATOM      3  N   UNL     1      -3.682 -11.996  -0.974  1.00  0.00    -0.352 N 
ATOM      4  C   UNL     1      -3.224 -10.811  -1.530  1.00  0.00     0.252 C 
ATOM      5  O   UNL     1      -4.064 -10.150  -2.150  1.00  0.00    -0.269 OA
ATOM      6  H   UNL     1      -4.646 -12.136  -1.116  1.00  0.00     0.163 HD
BRANCH   4   7
ATOM      7  C   UNL     1      -1.839 -10.218  -1.414  1.00  0.00     0.052 A 
ATOM      8  C   UNL     1      -0.538  -8.154  -1.465  1.00  0.00     0.130 A 
ATOM      9  C   UNL     1      -1.767  -8.815  -1.492  1.00  0.00     0.061 A 
ATOM     10  N   UNL     1       0.597  -8.834  -1.229  1.00  0.00    -0.231 NA
ATOM     11  C   UNL     1       0.565 -10.171  -1.194  1.00  0.00     0.074 A 
ATOM     12  C   UNL     1      -0.616 -10.907  -1.388  1.00  0.00     0.015 A 
ATOM     13  C   UNL     1       1.764 -10.857  -1.031  1.00  0.00     0.031 A 
ATOM     14  C   UNL     1      -0.481 -12.271  -1.665  1.00  0.00     0.037 A 
ATOM     15  C   UNL     1       1.855 -12.241  -1.219  1.00  0.00     0.028 A 
ATOM     16  C   UNL     1       0.736 -12.939  -1.647  1.00  0.00     0.042 A 
BRANCH   8  17
ATOM     17  N   UNL     1      -0.450  -6.806  -1.743  1.00  0.00    -0.345 N 
ATOM     18  N   UNL     1       0.647  -4.259  -0.729  1.00  0.00    -0.324 N 
ATOM     19  C   UNL     1      -0.467  -5.001  -0.089  1.00  0.00     0.284 C 
ATOM     20  C   UNL     1       1.503  -5.255  -1.434  1.00  0.00     0.284 C 
ATOM     21  H   UNL     1       1.189  -3.767  -0.019  1.00  0.00     0.348 HD
ATOM     22  C   UNL     1      -1.316  -5.860  -1.051  1.00  0.00     0.179 C 
ATOM     23  C   UNL     1       0.758  -6.247  -2.371  1.00  0.00     0.179 C 
BRANCH  18  24
ATOM     24  C   UNL     1       0.153  -3.215  -1.656  1.00  0.00     0.363 C 
BRANCH  24  25
ATOM     25  C   UNL     1       0.872  -1.876  -1.410  1.00  0.00     0.277 C 
ATOM     26  C   UNL     1       1.173   0.150  -0.090  1.00  0.00     0.146 C 
ATOM     27  N   UNL     1       0.501  -1.118  -0.297  1.00  0.00    -0.344 N 
ATOM     28  C   UNL     1      -0.383  -1.591   0.752  1.00  0.00     0.146 C 
ATOM     29  O   UNL     1       1.716  -1.468  -2.214  1.00  0.00    -0.268 OA
ENDBRANCH  24  25
ENDBRANCH  18  24
ENDBRANCH   8  17
BRANCH  16  30
ATOM     30  N   UNL     1       0.875 -14.274  -2.059  1.00  0.00    -0.322 N 
ATOM     31  C   UNL     1       0.064 -15.070  -2.850  1.00  0.00     0.255 C 
ATOM     32  H   UNL     1       1.688 -14.720  -1.729  1.00  0.00     0.170 HD
ATOM     33  O   UNL     1       0.277 -16.278  -2.918  1.00  0.00    -0.269 OA
BRANCH  31  34
ATOM     34  C   UNL     1      -1.043 -14.498  -3.656  1.00  0.00     0.041 A 
ATOM     35  C   UNL     1      -2.316 -15.057  -3.517  1.00  0.00     0.014 A 
ATOM     36  C   UNL     1      -0.863 -13.370  -4.464  1.00  0.00     0.034 A 
ATOM     37  C   UNL     1      -3.425 -14.436  -4.097  1.00  0.00     0.002 A 
ATOM     38  C   UNL     1      -1.978 -12.742  -5.019  1.00  0.00     0.041 A 
ATOM     39  C   UNL     1      -3.258 -13.261  -4.827  1.00  0.00     0.020 A 
ATOM     40  Cl  UNL     1      -1.777 -11.271  -5.888  1.00  0.00    -0.084 Cl
ENDBRANCH  31  34
ENDBRANCH  16  30
ENDBRANCH   4   7
ENDBRANCH   2   3
ENDBRANCH   1   2
BRANCH   1  41
ATOM     41  C   UNL     1      -5.030 -14.776   0.234  1.00  0.00     0.023 C 
BRANCH  41  42
ATOM     42  C   UNL     1      -4.675 -15.931  -0.716  1.00  0.00     0.116 C 
BRANCH  42  43
ATOM     43  N   UNL     1      -3.468 -16.687  -0.429  1.00  0.00    -0.352 N 
ATOM     44  C   UNL     1      -3.137 -17.962  -0.865  1.00  0.00     0.251 C 
ATOM     45  H   UNL     1      -2.804 -16.240   0.143  1.00  0.00     0.163 HD
ATOM     46  O   UNL     1      -2.087 -18.476  -0.510  1.00  0.00    -0.269 OA
BRANCH  44  47
ATOM     47  C   UNL     1      -4.093 -18.735  -1.703  1.00  0.00     0.039 A 
ATOM     48  C   UNL     1      -4.518 -19.983  -1.240  1.00  0.00     0.014 A 
ATOM     49  C   UNL     1      -4.608 -18.230  -2.900  1.00  0.00     0.014 A 
ATOM     50  C   UNL     1      -5.551 -20.658  -1.903  1.00  0.00     0.010 A 
ATOM     51  C   UNL     1      -5.662 -18.885  -3.542  1.00  0.00     0.010 A 
ATOM     52  C   UNL     1      -6.177 -20.080  -3.020  1.00  0.00    -0.014 A 
BRANCH  52  53
ATOM     53  C   UNL     1      -7.462 -20.626  -3.538  1.00  0.00     0.031 A 
ATOM     54  C   UNL     1      -7.574 -21.232  -4.908  1.00  0.00     0.074 A 
ATOM     55  C   UNL     1      -8.568 -20.476  -2.780  1.00  0.00     0.049 A 
ATOM     56  N   UNL     1      -8.626 -21.745  -5.493  1.00  0.00    -0.248 NA
ATOM     57  C   UNL     1      -6.358 -21.250  -5.735  1.00  0.00     0.031 C 
ATOM     58  C   UNL     1      -8.610 -19.813  -1.473  1.00  0.00     0.029 A 
ATOM     59  N   UNL     1      -9.872 -20.845  -3.001  1.00  0.00    -0.354 N 
ATOM     60  C   UNL     1      -8.209 -22.135  -6.760  1.00  0.00     0.074 A 
ATOM     61  C   UNL     1      -6.811 -21.772  -6.869  1.00  0.00     0.031 C 
ATOM     62  C   UNL     1      -9.868 -19.830  -1.008  1.00  0.00     0.029 A 
ATOM     63  C   UNL     1     -10.729 -20.484  -1.986  1.00  0.00     0.049 A 
ATOM     64  H   UNL     1     -10.167 -21.323  -3.810  1.00  0.00     0.167 HD
ATOM     65  C   UNL     1      -8.917 -22.763  -7.731  1.00  0.00     0.034 A 
ATOM     66  C   UNL     1     -12.059 -20.662  -1.852  1.00  0.00     0.034 A 
ATOM     67  C   UNL     1     -10.301 -23.143  -7.609  1.00  0.00     0.049 A 
ATOM     68  C   UNL     1     -12.807 -21.404  -2.925  1.00  0.00     0.074 A 
ATOM     69  C   UNL     1     -11.084 -23.845  -8.511  1.00  0.00     0.029 A 
ATOM     70  N   UNL     1     -11.113 -22.849  -6.524  1.00  0.00    -0.354 N 
ATOM     71  N   UNL     1     -12.350 -21.924  -4.038  1.00  0.00    -0.248 NA
ATOM     72  C   UNL     1     -14.245 -21.623  -2.706  1.00  0.00     0.031 C 
ATOM     73  C   UNL     1     -12.371 -23.964  -7.976  1.00  0.00     0.029 A 
ATOM     74  C   UNL     1     -12.386 -23.351  -6.734  1.00  0.00     0.049 A 
ATOM     75  H   UNL     1     -10.826 -22.355  -5.723  1.00  0.00     0.167 HD
ATOM     76  C   UNL     1     -13.432 -22.563  -4.632  1.00  0.00     0.074 A 
ATOM     77  C   UNL     1     -14.563 -22.383  -3.745  1.00  0.00     0.031 C 
ATOM     78  C   UNL     1     -13.488 -23.223  -5.815  1.00  0.00     0.034 A 
BRANCH  65  79
ATOM     79  C   UNL     1      -8.191 -23.147  -8.995  1.00  0.00     0.023 A 
ATOM     80  C   UNL     1      -7.278 -24.221  -8.961  1.00  0.00     0.012 A 
ATOM     81  C   UNL     1      -8.465 -22.512 -10.222  1.00  0.00     0.148 A 
ATOM     82  C   UNL     1      -6.627 -24.639 -10.121  1.00  0.00     0.002 A 
ATOM     83  C   UNL     1      -7.841 -22.960 -11.382  1.00  0.00     0.091 A 
ATOM     84  F   UNL     1      -9.327 -21.485 -10.233  1.00  0.00    -0.205 F 
ATOM     85  C   UNL     1      -6.915 -24.015 -11.331  1.00  0.00     0.022 A 
BRANCH  83  86
ATOM     86  S   UNL     1      -8.194 -22.273 -13.005  1.00  0.00     0.127 S 
ATOM     87  O   UNL     1      -6.949 -21.567 -13.304  1.00  0.00    -0.237 OA
ATOM     88  O   UNL     1      -8.419 -23.476 -13.806  1.00  0.00    -0.237 OA
ATOM     89  O   UNL     1      -9.367 -21.427 -12.836  1.00  0.00    -0.744 OA
ENDBRANCH  83  86
ENDBRANCH  65  79
BRANCH  66  90
ATOM     90  C   UNL     1     -12.753 -20.202  -0.616  1.00  0.00     0.023 A 
ATOM     91  C   UNL     1     -13.240 -21.158   0.298  1.00  0.00     0.012 A 
ATOM     92  C   UNL     1     -12.914 -18.834  -0.326  1.00  0.00     0.148 A 
ATOM     93  C   UNL     1     -13.907 -20.761   1.457  1.00  0.00     0.002 A 
ATOM     94  C   UNL     1     -13.530 -18.444   0.859  1.00  0.00     0.091 A 
ATOM     95  F   UNL     1     -12.458 -17.937  -1.212  1.00  0.00    -0.205 F 
ATOM     96  C   UNL     1     -14.043 -19.405   1.743  1.00  0.00     0.022 A 
BRANCH  94  97
ATOM     97  S   UNL     1     -13.618 -16.722   1.363  1.00  0.00     0.127 S 
ATOM     98  O   UNL     1     -15.003 -16.386   1.044  1.00  0.00    -0.237 OA
ATOM     99  O   UNL     1     -13.317 -16.803   2.793  1.00  0.00    -0.237 OA
ATOM    100  O   UNL     1     -12.596 -16.040   0.580  1.00  0.00    -0.744 OA
ENDBRANCH  94  97
ENDBRANCH  66  90
BRANCH  78 101
ATOM    101  C   UNL     1     -14.804 -23.837  -6.211  1.00  0.00     0.023 A 
ATOM    102  C   UNL     1     -15.858 -23.011  -6.649  1.00  0.00     0.012 A 
ATOM    103  C   UNL     1     -14.970 -25.236  -6.225  1.00  0.00     0.148 A 
ATOM    104  C   UNL     1     -17.067 -23.566  -7.069  1.00  0.00     0.002 A 
ATOM    105  C   UNL     1     -16.161 -25.784  -6.688  1.00  0.00     0.091 A 
ATOM    106  F   UNL     1     -13.964 -26.005  -5.784  1.00  0.00    -0.205 F 
ATOM    107  C   UNL     1     -17.214 -24.950  -7.100  1.00  0.00     0.022 A 
BRANCH 105 108
ATOM    108  S   UNL     1     -16.405 -27.557  -6.851  1.00  0.00     0.127 S 
ATOM    109  O   UNL     1     -17.302 -27.838  -5.732  1.00  0.00    -0.237 OA
ATOM    110  O   UNL     1     -17.025 -27.666  -8.172  1.00  0.00    -0.237 OA
ATOM    111  O   UNL     1     -15.079 -28.153  -6.756  1.00  0.00    -0.744 OA
ENDBRANCH 105 108
ENDBRANCH  78 101
ENDBRANCH  52  53
ENDBRANCH  44  47
ENDBRANCH  42  43
ENDBRANCH  41  42
ENDBRANCH   1  41
TORSDOF 19
