REMARK SMILES O=C(NCCCCNC(=O)[C@@H]1CCCN(c2ccc3cc(S(=O)(=O)N4CCCCC4)ccc3n2)C1)c1ccc(-c2c3nc(c(-c4cccc(S(=O)(=O)[O-])c4F)c4ccc([nH]4)c(-c4cccc(S(=O)(=O)[O-])c4F)c4nc(c(-c5cccc(S(=O)(=O)[O-])c5F)c5ccc2[nH]5)C=C4)C=C3)cc1
REMARK SMILES IDX 5 1 4 2 3 3 1 4 2 5 36 7 37 8 98 9 38 10 97 11 39 12 40 13
REMARK SMILES IDX 41 14 91 15 42 16 96 17 90 18 92 19 43 20 95 21 89 22 88 23
REMARK SMILES IDX 44 25 76 26 56 27 75 28 57 29 60 30 74 31 93 32 58 33 59 34
REMARK SMILES IDX 73 36 94 37 61 38 45 39 46 40 54 41 47 42 49 43 55 44 48 45
REMARK SMILES IDX 50 46 51 47 52 48 53 49 77 50 78 51 86 52 79 53 81 54 87 55
REMARK SMILES IDX 80 56 82 57 83 58 84 59 85 60 62 61 63 62 71 63 64 64 66 65
REMARK SMILES IDX 72 66 65 67 67 68 68 69 69 70 70 71 6 72 7 73 8 74 9 75
REMARK SMILES IDX 10 77 11 78 12 79 35 80 13 81 15 82 14 83 16 84 17 85 34 86
REMARK SMILES IDX 18 87 33 88 19 89 32 90 20 91 31 92 21 93 22 94 23 95 24 96
REMARK SMILES IDX 25 97 26 98 30 99 27 100 29 101 28 102
REMARK H PARENT 3 6 92 24 60 35 8 76
REMARK Flexibility Score: inf
ROOT
ATOM      1  C   UNL     1       3.879   1.303  -1.579  1.00  0.00     0.023 C 
ENDROOT
BRANCH   1   2
ATOM      2  C   UNL     1       3.716   2.200  -0.151  1.00  0.00     0.116 C 
BRANCH   2   3
ATOM      3  N   UNL     1       2.531   1.725   0.589  1.00  0.00    -0.352 N 
ATOM      4  O   UNL     1       0.991   0.265   1.265  1.00  0.00    -0.269 OA
ATOM      5  C   UNL     1       2.190   0.493   1.090  1.00  0.00     0.251 C 
ATOM      6  H   UNL     1       1.858   2.424   0.755  1.00  0.00     0.163 HD
BRANCH   5   7
ATOM      7  C   UNL     1       3.184  -0.578   1.379  1.00  0.00     0.039 A 
ATOM      8  C   UNL     1       4.520  -0.328   1.682  1.00  0.00     0.014 A 
ATOM      9  C   UNL     1       2.719  -1.900   1.444  1.00  0.00     0.014 A 
ATOM     10  C   UNL     1       5.385  -1.381   1.986  1.00  0.00     0.010 A 
ATOM     11  C   UNL     1       3.562  -2.954   1.809  1.00  0.00     0.010 A 
ATOM     12  C   UNL     1       4.901  -2.696   2.109  1.00  0.00    -0.014 A 
BRANCH  12  13
ATOM     13  C   UNL     1       5.728  -3.693   2.835  1.00  0.00     0.031 A 
ATOM     14  C   UNL     1       6.290  -4.920   2.185  1.00  0.00     0.074 A 
ATOM     15  C   UNL     1       5.941  -3.454   4.146  1.00  0.00     0.049 A 
ATOM     16  N   UNL     1       7.132  -5.790   2.684  1.00  0.00    -0.248 NA
ATOM     17  C   UNL     1       5.852  -5.225   0.815  1.00  0.00     0.031 C 
ATOM     18  C   UNL     1       5.334  -2.352   4.902  1.00  0.00     0.029 A 
ATOM     19  N   UNL     1       6.714  -4.101   5.073  1.00  0.00    -0.354 N 
ATOM     20  C   UNL     1       7.325  -6.750   1.698  1.00  0.00     0.074 A 
ATOM     21  C   UNL     1       6.496  -6.364   0.574  1.00  0.00     0.031 C 
ATOM     22  C   UNL     1       5.787  -2.376   6.161  1.00  0.00     0.029 A 
ATOM     23  C   UNL     1       6.678  -3.517   6.318  1.00  0.00     0.049 A 
ATOM     24  H   UNL     1       7.244  -4.905   4.869  1.00  0.00     0.167 HD
ATOM     25  C   UNL     1       8.129  -7.842   1.733  1.00  0.00     0.034 A 
ATOM     26  C   UNL     1       7.287  -3.862   7.467  1.00  0.00     0.034 A 
ATOM     27  C   UNL     1       8.931  -8.216   2.874  1.00  0.00     0.049 A 
ATOM     28  C   UNL     1       8.214  -5.039   7.453  1.00  0.00     0.074 A 
ATOM     29  C   UNL     1       9.823  -9.269   2.993  1.00  0.00     0.029 A 
ATOM     30  N   UNL     1       8.923  -7.566   4.101  1.00  0.00    -0.354 N 
ATOM     31  N   UNL     1       8.520  -5.832   6.455  1.00  0.00    -0.248 NA
ATOM     32  C   UNL     1       8.911  -5.346   8.707  1.00  0.00     0.031 C 
ATOM     33  C   UNL     1      10.334  -9.269   4.296  1.00  0.00     0.029 A 
ATOM     34  C   UNL     1       9.788  -8.196   4.982  1.00  0.00     0.049 A 
ATOM     35  H   UNL     1       8.382  -6.771   4.314  1.00  0.00     0.167 HD
ATOM     36  C   UNL     1       9.453  -6.727   6.955  1.00  0.00     0.074 A 
ATOM     37  C   UNL     1       9.698  -6.345   8.332  1.00  0.00     0.031 C 
ATOM     38  C   UNL     1      10.036  -7.786   6.341  1.00  0.00     0.034 A 
BRANCH  25  39
ATOM     39  C   UNL     1       8.239  -8.688   0.487  1.00  0.00     0.023 A 
ATOM     40  C   UNL     1       8.938  -8.180  -0.628  1.00  0.00     0.012 A 
ATOM     41  C   UNL     1       7.759 -10.014   0.450  1.00  0.00     0.148 A 
ATOM     42  C   UNL     1       9.140  -8.966  -1.763  1.00  0.00     0.002 A 
ATOM     43  C   UNL     1       7.999 -10.805  -0.670  1.00  0.00     0.091 A 
ATOM     44  F   UNL     1       7.090 -10.480   1.514  1.00  0.00    -0.205 F 
ATOM     45  C   UNL     1       8.681 -10.279  -1.780  1.00  0.00     0.022 A 
BRANCH  43  46
ATOM     46  S   UNL     1       7.525 -12.537  -0.765  1.00  0.00     0.127 S 
ATOM     47  O   UNL     1       6.514 -12.510  -1.822  1.00  0.00    -0.237 OA
ATOM     48  O   UNL     1       8.784 -13.178  -1.146  1.00  0.00    -0.237 OA
ATOM     49  O   UNL     1       7.032 -12.895   0.557  1.00  0.00    -0.744 OA
ENDBRANCH  43  46
ENDBRANCH  25  39
BRANCH  26  50
ATOM     50  C   UNL     1       7.063  -3.052   8.696  1.00  0.00     0.023 A 
ATOM     51  C   UNL     1       8.112  -2.281   9.232  1.00  0.00     0.012 A 
ATOM     52  C   UNL     1       5.794  -3.001   9.305  1.00  0.00     0.148 A 
ATOM     53  C   UNL     1       7.909  -1.500  10.371  1.00  0.00     0.002 A 
ATOM     54  C   UNL     1       5.581  -2.170  10.397  1.00  0.00     0.091 A 
ATOM     55  F   UNL     1       4.810  -3.752   8.790  1.00  0.00    -0.205 F 
ATOM     56  C   UNL     1       6.642  -1.434  10.945  1.00  0.00     0.022 A 
BRANCH  54  57
ATOM     57  S   UNL     1       3.943  -1.907  11.085  1.00  0.00     0.127 S 
ATOM     58  O   UNL     1       3.994  -2.716  12.299  1.00  0.00    -0.237 OA
ATOM     59  O   UNL     1       3.932  -0.461  11.307  1.00  0.00    -0.237 OA
ATOM     60  O   UNL     1       3.015  -2.357  10.055  1.00  0.00    -0.744 OA
ENDBRANCH  54  57
ENDBRANCH  26  50
BRANCH  38  61
ATOM     61  C   UNL     1      11.004  -8.595   7.165  1.00  0.00     0.023 A 
ATOM     62  C   UNL     1      10.523  -9.397   8.221  1.00  0.00     0.012 A 
ATOM     63  C   UNL     1      12.384  -8.569   6.890  1.00  0.00     0.148 A 
ATOM     64  C   UNL     1      11.406 -10.118   9.023  1.00  0.00     0.002 A 
ATOM     65  C   UNL     1      13.253  -9.332   7.660  1.00  0.00     0.091 A 
ATOM     66  F   UNL     1      12.825  -7.784   5.896  1.00  0.00    -0.205 F 
ATOM     67  C   UNL     1      12.768 -10.093   8.737  1.00  0.00     0.022 A 
BRANCH  65  68
ATOM     68  S   UNL     1      15.011  -9.431   7.310  1.00  0.00     0.127 S 
ATOM     69  O   UNL     1      15.575  -8.624   8.391  1.00  0.00    -0.237 OA
ATOM     70  O   UNL     1      15.270 -10.867   7.422  1.00  0.00    -0.237 OA
ATOM     71  O   UNL     1      15.183  -8.890   5.968  1.00  0.00    -0.744 OA
ENDBRANCH  65  68
ENDBRANCH  38  61
ENDBRANCH  12  13
ENDBRANCH   5   7
ENDBRANCH   2   3
ENDBRANCH   1   2
BRANCH   1  72
ATOM     72  C   UNL     1       5.037   1.457  -3.429  1.00  0.00     0.023 C 
BRANCH  72  73
ATOM     73  C   UNL     1       6.636   2.236  -3.803  1.00  0.00     0.116 C 
BRANCH  73  74
ATOM     74  N   UNL     1       6.765   3.164  -4.946  1.00  0.00    -0.356 N 
ATOM     75  C   UNL     1       6.996   4.524  -4.737  1.00  0.00     0.224 C 
ATOM     76  H   UNL     1       6.687   2.820  -5.865  1.00  0.00     0.163 HD
ATOM     77  O   UNL     1       8.122   4.976  -4.957  1.00  0.00    -0.275 OA
BRANCH  75  78
ATOM     78  C   UNL     1       5.801   5.459  -4.496  1.00  0.00     0.098 C 
ATOM     79  C   UNL     1       6.036   6.673  -3.555  1.00  0.00     0.017 C 
ATOM     80  C   UNL     1       4.572   4.705  -4.068  1.00  0.00     0.131 C 
ATOM     81  C   UNL     1       5.628   6.516  -2.063  1.00  0.00     0.022 C 
ATOM     82  N   UNL     1       4.787   4.387  -2.661  1.00  0.00    -0.356 N 
ATOM     83  C   UNL     1       4.524   5.496  -1.785  1.00  0.00     0.118 C 
BRANCH  82  84
ATOM     84  C   UNL     1       4.523   3.084  -2.345  1.00  0.00     0.129 A 
ATOM     85  C   UNL     1       5.788   2.039  -1.581  1.00  0.00     0.047 A 
ATOM     86  N   UNL     1       3.196   2.370  -3.200  1.00  0.00    -0.231 NA
ATOM     87  C   UNL     1       5.693   0.262  -1.852  1.00  0.00     0.014 A 
ATOM     88  C   UNL     1       3.059   0.639  -3.391  1.00  0.00     0.073 A 
ATOM     89  C   UNL     1       4.264  -0.473  -2.712  1.00  0.00     0.002 A 
ATOM     90  C   UNL     1       1.862   0.090  -3.753  1.00  0.00     0.030 A 
ATOM     91  C   UNL     1       3.883  -1.821  -2.690  1.00  0.00     0.032 A 
ATOM     92  C   UNL     1       1.579  -1.237  -3.428  1.00  0.00     0.024 A 
ATOM     93  C   UNL     1       2.529  -2.163  -2.942  1.00  0.00     0.083 A 
BRANCH  93  94
ATOM     94  S   UNL     1       1.995  -3.838  -2.504  1.00  0.00     0.243 S 
ATOM     95  O   UNL     1       2.077  -4.593  -3.736  1.00  0.00    -0.207 OA
ATOM     96  O   UNL     1       2.775  -4.199  -1.338  1.00  0.00    -0.207 OA
BRANCH  94  97
ATOM     97  N   UNL     1       0.349  -3.790  -2.016  1.00  0.00    -0.198 NA
ATOM     98  C   UNL     1       0.047  -3.163  -0.709  1.00  0.00     0.102 C 
ATOM     99  C   UNL     1      -0.699  -3.795  -3.061  1.00  0.00     0.102 C 
ATOM    100  C   UNL     1      -1.379  -3.424  -0.232  1.00  0.00     0.017 C 
ATOM    101  C   UNL     1      -2.105  -4.004  -2.512  1.00  0.00     0.017 C 
ATOM    102  C   UNL     1      -2.389  -3.107  -1.319  1.00  0.00     0.003 C 
ENDBRANCH  94  97
ENDBRANCH  93  94
ENDBRANCH  82  84
ENDBRANCH  75  78
ENDBRANCH  73  74
ENDBRANCH  72  73
ENDBRANCH   1  72
TORSDOF 17
