REMARK SMILES CC[NH2+][C@]1(C(=O)NCCCCNC(=O)c2ccc(-c3c4nc(c(-c5cccc(S(=O)(=O)[O-])c5F)c5ccc([nH]5)c(-c5cccc(S(=O)(=O)[O-])c5F)c5nc(c(-c6cccc(S(=O)(=O)[O-])c6F)c6ccc3[nH]6)C=C5)C=C4)cc2)CCC[C@H]1CC[N@H+]1CCC[C@@H](CC)C1
REMARK SMILES IDX 9 1 8 2 7 3 5 4 6 5 4 7 78 8 81 9 79 10 80 11 3 12 2 15 1 16
REMARK SMILES IDX 82 17 83 18 84 19 85 20 91 21 86 23 88 24 87 25 89 26 90 27
REMARK SMILES IDX 10 28 11 29 12 30 13 31 14 33 15 34 16 35 77 36 17 37 76 38
REMARK SMILES IDX 18 39 19 40 20 41 70 42 21 43 75 44 69 45 71 46 22 47 74 48
REMARK SMILES IDX 68 49 67 50 23 52 55 53 35 54 54 55 36 56 39 57 53 58 72 59
REMARK SMILES IDX 37 60 38 61 52 63 73 64 40 65 24 66 25 67 33 68 26 69 28 70
REMARK SMILES IDX 34 71 27 72 29 73 30 74 31 75 32 76 56 77 57 78 65 79 58 80
REMARK SMILES IDX 60 81 66 82 59 83 61 84 62 85 63 86 64 87 41 88 42 89 50 90
REMARK SMILES IDX 43 91 45 92 51 93 44 94 46 95 47 96 48 97 49 98
REMARK H PARENT 7 6 3 13 3 14 84 22 12 32 71 51 39 62
REMARK Flexibility Score: inf
ROOT
ATOM      1  C   UNL     1       2.728   1.285  -2.848  1.00  0.00     0.023 C 
ENDROOT
BRANCH   1   2
ATOM      2  C   UNL     1       2.887  -0.232  -2.852  1.00  0.00     0.116 C 
BRANCH   2   3
ATOM      3  N   UNL     1       1.973  -0.854  -1.920  1.00  0.00    -0.351 N 
ATOM      4  C   UNL     1       0.865  -1.619  -2.055  1.00  0.00     0.281 C 
ATOM      5  O   UNL     1       0.113  -1.572  -1.068  1.00  0.00    -0.268 OA
ATOM      6  H   UNL     1       2.208  -0.683  -0.980  1.00  0.00     0.163 HD
BRANCH   4   7
ATOM      7  C   UNL     1       0.509  -2.564  -3.275  1.00  0.00     0.178 C 
ATOM      8  C   UNL     1       1.253  -2.323  -4.594  1.00  0.00     0.079 C 
ATOM      9  C   UNL     1       0.901  -4.055  -2.983  1.00  0.00     0.066 C 
ATOM     10  C   UNL     1       1.129  -3.592  -5.413  1.00  0.00     0.008 C 
ATOM     11  C   UNL     1       1.186  -4.698  -4.373  1.00  0.00     0.011 C 
BRANCH   7  12
ATOM     12  N   UNL     1      -0.957  -2.373  -3.425  1.00  0.00    -0.334 N 
ATOM     13  H   UNL     1      -1.346  -2.470  -2.487  1.00  0.00     0.347 HD
ATOM     14  H   UNL     1      -0.988  -1.478  -3.913  1.00  0.00     0.347 HD
BRANCH  12  15
ATOM     15  C   UNL     1      -1.788  -3.183  -4.280  1.00  0.00     0.257 C 
ATOM     16  C   UNL     1      -3.250  -2.922  -3.932  1.00  0.00     0.071 C 
ENDBRANCH  12  15
ENDBRANCH   7  12
BRANCH   9  17
ATOM     17  C   UNL     1       2.126  -4.281  -2.054  1.00  0.00     0.072 C 
BRANCH  17  18
ATOM     18  C   UNL     1       1.913  -4.216  -0.519  1.00  0.00     0.262 C 
BRANCH  18  19
ATOM     19  N   UNL     1       0.887  -5.073   0.099  1.00  0.00    -0.335 N 
ATOM     20  C   UNL     1      -0.428  -4.427   0.148  1.00  0.00     0.262 C 
ATOM     21  C   UNL     1       0.896  -6.436  -0.426  1.00  0.00     0.265 C 
ATOM     22  H   UNL     1       1.143  -5.191   1.079  1.00  0.00     0.348 HD
ATOM     23  C   UNL     1      -1.521  -5.317   0.736  1.00  0.00     0.062 C 
ATOM     24  C   UNL     1      -0.160  -7.349   0.210  1.00  0.00     0.044 C 
ATOM     25  C   UNL     1      -1.541  -6.691   0.077  1.00  0.00     0.015 C 
BRANCH  24  26
ATOM     26  C   UNL     1      -0.181  -8.795  -0.346  1.00  0.00     0.006 C 
ATOM     27  C   UNL     1       0.770  -9.108  -1.493  1.00  0.00     0.004 C 
ENDBRANCH  24  26
ENDBRANCH  18  19
ENDBRANCH  17  18
ENDBRANCH   9  17
ENDBRANCH   4   7
ENDBRANCH   2   3
ENDBRANCH   1   2
BRANCH   1  28
ATOM     28  C   UNL     1       3.246   1.983  -1.594  1.00  0.00     0.023 C 
BRANCH  28  29
ATOM     29  C   UNL     1       4.686   1.655  -1.215  1.00  0.00     0.116 C 
BRANCH  29  30
ATOM     30  N   UNL     1       5.619   1.789  -2.327  1.00  0.00    -0.352 N 
ATOM     31  C   UNL     1       6.838   2.424  -2.364  1.00  0.00     0.251 C 
ATOM     32  H   UNL     1       5.337   1.366  -3.170  1.00  0.00     0.163 HD
ATOM     33  O   UNL     1       7.448   2.532  -3.419  1.00  0.00    -0.269 OA
BRANCH  31  34
ATOM     34  C   UNL     1       7.380   3.001  -1.119  1.00  0.00     0.039 A 
ATOM     35  C   UNL     1       7.793   4.335  -1.116  1.00  0.00     0.014 A 
ATOM     36  C   UNL     1       7.419   2.240   0.052  1.00  0.00     0.014 A 
ATOM     37  C   UNL     1       8.176   4.931   0.086  1.00  0.00     0.010 A 
ATOM     38  C   UNL     1       7.727   2.857   1.258  1.00  0.00     0.010 A 
ATOM     39  C   UNL     1       8.108   4.207   1.288  1.00  0.00    -0.014 A 
BRANCH  39  40
ATOM     40  C   UNL     1       8.414   4.845   2.593  1.00  0.00     0.031 A 
ATOM     41  C   UNL     1       9.562   4.340   3.425  1.00  0.00     0.074 A 
ATOM     42  C   UNL     1       7.594   5.801   3.075  1.00  0.00     0.049 A 
ATOM     43  N   UNL     1       9.942   4.718   4.617  1.00  0.00    -0.248 NA
ATOM     44  C   UNL     1      10.370   3.246   2.858  1.00  0.00     0.031 C 
ATOM     45  C   UNL     1       6.394   6.309   2.403  1.00  0.00     0.029 A 
ATOM     46  N   UNL     1       7.626   6.495   4.259  1.00  0.00    -0.354 N 
ATOM     47  C   UNL     1      10.994   3.879   4.963  1.00  0.00     0.074 A 
ATOM     48  C   UNL     1      11.181   2.957   3.866  1.00  0.00     0.031 C 
ATOM     49  C   UNL     1       5.809   7.233   3.183  1.00  0.00     0.029 A 
ATOM     50  C   UNL     1       6.574   7.367   4.418  1.00  0.00     0.049 A 
ATOM     51  H   UNL     1       8.336   6.380   4.931  1.00  0.00     0.167 HD
ATOM     52  C   UNL     1      11.754   3.894   6.082  1.00  0.00     0.034 A 
ATOM     53  C   UNL     1       6.260   8.180   5.446  1.00  0.00     0.034 A 
ATOM     54  C   UNL     1      11.613   4.862   7.135  1.00  0.00     0.049 A 
ATOM     55  C   UNL     1       7.171   8.223   6.645  1.00  0.00     0.074 A 
ATOM     56  C   UNL     1      12.417   5.044   8.246  1.00  0.00     0.029 A 
ATOM     57  N   UNL     1      10.603   5.806   7.210  1.00  0.00    -0.354 N 
ATOM     58  N   UNL     1       8.279   7.557   6.863  1.00  0.00    -0.248 NA
ATOM     59  C   UNL     1       6.811   9.158   7.721  1.00  0.00     0.031 C 
ATOM     60  C   UNL     1      11.882   6.090   9.004  1.00  0.00     0.029 A 
ATOM     61  C   UNL     1      10.755   6.569   8.354  1.00  0.00     0.049 A 
ATOM     62  H   UNL     1       9.884   5.919   6.547  1.00  0.00     0.167 HD
ATOM     63  C   UNL     1       8.769   8.022   8.078  1.00  0.00     0.074 A 
ATOM     64  C   UNL     1       7.849   9.041   8.539  1.00  0.00     0.031 C 
ATOM     65  C   UNL     1       9.872   7.629   8.761  1.00  0.00     0.034 A 
BRANCH  52  66
ATOM     66  C   UNL     1      12.854   2.875   6.206  1.00  0.00     0.023 A 
ATOM     67  C   UNL     1      14.021   3.014   5.429  1.00  0.00     0.012 A 
ATOM     68  C   UNL     1      12.772   1.836   7.155  1.00  0.00     0.148 A 
ATOM     69  C   UNL     1      15.083   2.123   5.577  1.00  0.00     0.002 A 
ATOM     70  C   UNL     1      13.851   0.977   7.326  1.00  0.00     0.091 A 
ATOM     71  F   UNL     1      11.645   1.710   7.869  1.00  0.00    -0.205 F 
ATOM     72  C   UNL     1      15.002   1.114   6.533  1.00  0.00     0.022 A 
BRANCH  70  73
ATOM     73  S   UNL     1      13.881  -0.305   8.584  1.00  0.00     0.127 S 
ATOM     74  O   UNL     1      13.841  -1.518   7.768  1.00  0.00    -0.237 OA
ATOM     75  O   UNL     1      15.163  -0.057   9.244  1.00  0.00    -0.237 OA
ATOM     76  O   UNL     1      12.711  -0.079   9.419  1.00  0.00    -0.744 OA
ENDBRANCH  70  73
ENDBRANCH  52  66
BRANCH  53  77
ATOM     77  C   UNL     1       5.074   9.080   5.364  1.00  0.00     0.023 A 
ATOM     78  C   UNL     1       5.273  10.471   5.259  1.00  0.00     0.012 A 
ATOM     79  C   UNL     1       3.759   8.577   5.392  1.00  0.00     0.148 A 
ATOM     80  C   UNL     1       4.188  11.347   5.227  1.00  0.00     0.002 A 
ATOM     81  C   UNL     1       2.681   9.452   5.305  1.00  0.00     0.091 A 
ATOM     82  F   UNL     1       3.585   7.253   5.509  1.00  0.00    -0.205 F 
ATOM     83  C   UNL     1       2.892  10.838   5.242  1.00  0.00     0.022 A 
BRANCH  81  84
ATOM     84  S   UNL     1       0.988   8.866   5.186  1.00  0.00     0.127 S 
ATOM     85  O   UNL     1       0.506   9.058   6.551  1.00  0.00    -0.237 OA
ATOM     86  O   UNL     1       0.413   9.777   4.196  1.00  0.00    -0.237 OA
ATOM     87  O   UNL     1       1.093   7.485   4.731  1.00  0.00    -0.744 OA
ENDBRANCH  81  84
ENDBRANCH  53  77
BRANCH  65  88
ATOM     88  C   UNL     1      10.180   8.328  10.058  1.00  0.00     0.023 A 
ATOM     89  C   UNL     1       9.401   8.058  11.200  1.00  0.00     0.012 A 
ATOM     90  C   UNL     1      11.293   9.185  10.164  1.00  0.00     0.148 A 
ATOM     91  C   UNL     1       9.707   8.654  12.422  1.00  0.00     0.002 A 
ATOM     92  C   UNL     1      11.621   9.737  11.396  1.00  0.00     0.091 A 
ATOM     93  F   UNL     1      12.010   9.444   9.061  1.00  0.00    -0.205 F 
ATOM     94  C   UNL     1      10.823   9.482  12.524  1.00  0.00     0.022 A 
BRANCH  92  95
ATOM     95  S   UNL     1      13.098  10.731  11.638  1.00  0.00     0.127 S 
ATOM     96  O   UNL     1      12.538  12.078  11.732  1.00  0.00    -0.237 OA
ATOM     97  O   UNL     1      13.629  10.202  12.894  1.00  0.00    -0.237 OA
ATOM     98  O   UNL     1      13.941  10.482  10.476  1.00  0.00    -0.744 OA
ENDBRANCH  92  95
ENDBRANCH  65  88
ENDBRANCH  39  40
ENDBRANCH  31  34
ENDBRANCH  29  30
ENDBRANCH  28  29
ENDBRANCH   1  28
TORSDOF 20
